MODEL        1
REMARK 921   NORMALIZED FREE ENERGY PREDICTED BY IDOCK:   -7.44 KCAL/MOL
REMARK 922        TOTAL FREE ENERGY PREDICTED BY IDOCK:   -9.99 KCAL/MOL
REMARK 923 INTER-LIGAND FREE ENERGY PREDICTED BY IDOCK:  -10.05 KCAL/MOL
REMARK 924 INTRA-LIGAND FREE ENERGY PREDICTED BY IDOCK:    0.06 KCAL/MOL
REMARK 927      BINDING AFFINITY PREDICTED BY RF-SCORE:    0.00 PKD
ROOT
HETATM    1  C   UNL     1     -10.498  14.380  65.685  1.00  0.00    -0.334 C  
ENDROOT
BRANCH   1   2
HETATM    2  N   UNL     1     -11.710  14.013  66.433  1.00  0.00    -0.372 NA 
HETATM    3  C   UNL     1     -10.948  14.709  68.765  1.00  0.00    -0.258 C  
HETATM    4  N   UNL     1     -10.953  13.321  69.300  1.00  0.00    -0.150 NA 
HETATM    5  C   UNL     1     -11.656  12.627  66.953  1.00  0.00    -0.373 C  
HETATM    6  C   UNL     1     -11.902  14.946  67.566  1.00  0.00    -0.232 C  
HETATM    7  C   UNL     1     -10.701  12.418  68.153  1.00  0.00    -0.221 C  
BRANCH   4   8
HETATM    8  C   UNL     1     -12.229  12.999  70.022  1.00  0.00    -0.236 C  
BRANCH   8   9
HETATM    9  C   UNL     1     -12.195  11.617  70.697  1.00  0.00    -0.461 A  
HETATM   10  C   UNL     1     -13.303   9.960  72.114  1.00  0.00    -0.498 A  
HETATM   11  C   UNL     1     -11.259  10.632  70.341  1.00  0.00    -0.334 A  
HETATM   12  C   UNL     1     -12.381   8.993  71.723  1.00  0.00    -0.438 A  
HETATM   13  C   UNL     1     -11.350   9.334  70.852  1.00  0.00    -0.373 A  
HETATM   14  C   UNL     1     -13.205  11.263  71.615  1.00  0.00    -0.431 A  
ENDBRANCH   8   9
BRANCH   8  15
HETATM   15  C   UNL     1     -12.632  14.144  70.965  1.00  0.00    -0.439 A  
HETATM   16  C   UNL     1     -12.071  15.544  72.881  1.00  0.00    -0.557 A  
HETATM   17  C   UNL     1     -14.356  15.422  72.121  1.00  0.00    -0.642 A  
HETATM   18  C   UNL     1     -13.409  15.910  73.016  1.00  0.00    -0.663 A  
HETATM   19  C   UNL     1     -13.972  14.544  71.106  1.00  0.00    -0.248 A  
HETATM   20  C   UNL     1     -11.682  14.678  71.856  1.00  0.00    -0.180 A  
ENDBRANCH   8  15
ENDBRANCH   4   8
ENDBRANCH   1   2
BRANCH   1  21
HETATM   21  C   UNL     1     -10.144  15.826  65.832  1.00  0.00    -0.381 C  
HETATM   22  C   UNL     1      -8.924  16.242  66.210  1.00  0.00    -0.366 C  
BRANCH  22  23
HETATM   23  C   UNL     1      -8.614  17.656  66.372  1.00  0.00    -0.269 A  
HETATM   24  C   UNL     1      -9.657  18.565  66.585  1.00  0.00    -0.328 A  
HETATM   25  C   UNL     1      -9.382  19.922  66.744  1.00  0.00    -0.494 A  
HETATM   26  C   UNL     1      -7.296  18.115  66.313  1.00  0.00    -0.302 A  
HETATM   27  C   UNL     1      -7.023  19.475  66.474  1.00  0.00    -0.223 A  
HETATM   28  C   UNL     1      -8.064  20.376  66.692  1.00  0.00    -0.242 A  
ENDBRANCH  22  23
ENDBRANCH   1  21
TORSDOF 6
ENDMDL
MODEL        2
REMARK 921   NORMALIZED FREE ENERGY PREDICTED BY IDOCK:   -7.39 KCAL/MOL
REMARK 922        TOTAL FREE ENERGY PREDICTED BY IDOCK:   -9.93 KCAL/MOL
REMARK 923 INTER-LIGAND FREE ENERGY PREDICTED BY IDOCK:   -9.14 KCAL/MOL
REMARK 924 INTRA-LIGAND FREE ENERGY PREDICTED BY IDOCK:   -0.79 KCAL/MOL
REMARK 927      BINDING AFFINITY PREDICTED BY RF-SCORE:    0.00 PKD
ROOT
HETATM    1  C   UNL     1     -10.461  11.858  65.911  1.00  0.00    -0.258 C  
ENDROOT
BRANCH   1   2
HETATM    2  N   UNL     1     -11.370  12.966  66.244  1.00  0.00    -0.309 NA 
HETATM    3  C   UNL     1      -9.634  14.668  67.014  1.00  0.00    -0.240 C  
HETATM    4  N   UNL     1     -10.110  14.680  68.423  1.00  0.00    -0.230 NA 
HETATM    5  C   UNL     1     -11.802  12.936  67.661  1.00  0.00    -0.346 C  
HETATM    6  C   UNL     1     -10.704  14.260  65.970  1.00  0.00    -0.304 C  
HETATM    7  C   UNL     1     -10.717  13.353  68.682  1.00  0.00    -0.255 C  
BRANCH   4   8
HETATM    8  C   UNL     1     -11.059  15.812  68.689  1.00  0.00    -0.327 C  
BRANCH   8   9
HETATM    9  C   UNL     1     -11.804  15.659  70.026  1.00  0.00    -0.381 A  
HETATM   10  C   UNL     1     -11.880  16.091  72.432  1.00  0.00    -0.639 A  
HETATM   11  C   UNL     1     -13.146  15.254  70.094  1.00  0.00    -0.030 A  
HETATM   12  C   UNL     1     -13.219  15.714  72.469  1.00  0.00    -0.583 A  
HETATM   13  C   UNL     1     -13.846  15.278  71.305  1.00  0.00    -0.562 A  
HETATM   14  C   UNL     1     -11.174  16.054  71.225  1.00  0.00    -0.281 A  
ENDBRANCH   8   9
BRANCH   8  15
HETATM   15  C   UNL     1     -10.357  17.169  68.518  1.00  0.00    -0.364 A  
HETATM   16  C   UNL     1     -10.345  19.382  67.492  1.00  0.00    -0.556 A  
HETATM   17  C   UNL     1      -8.312  18.495  68.438  1.00  0.00    -0.355 A  
HETATM   18  C   UNL     1      -8.986  19.512  67.769  1.00  0.00    -0.375 A  
HETATM   19  C   UNL     1      -8.990  17.332  68.806  1.00  0.00    -0.231 A  
HETATM   20  C   UNL     1     -11.030  18.225  67.875  1.00  0.00    -0.078 A  
ENDBRANCH   8  15
ENDBRANCH   4   8
ENDBRANCH   1   2
BRANCH   1  21
HETATM   21  C   UNL     1     -10.833  10.580  66.594  1.00  0.00    -0.166 C  
HETATM   22  C   UNL     1      -9.920   9.727  67.087  1.00  0.00    -0.252 C  
BRANCH  22  23
HETATM   23  C   UNL     1     -10.308   8.476  67.725  1.00  0.00    -0.298 A  
HETATM   24  C   UNL     1     -10.434   8.429  69.118  1.00  0.00    -0.218 A  
HETATM   25  C   UNL     1     -10.806   7.242  69.748  1.00  0.00    -0.251 A  
HETATM   26  C   UNL     1     -10.552   7.327  66.967  1.00  0.00    -0.415 A  
HETATM   27  C   UNL     1     -10.925   6.140  67.600  1.00  0.00    -0.400 A  
HETATM   28  C   UNL     1     -11.055   6.099  68.988  1.00  0.00    -0.437 A  
ENDBRANCH  22  23
ENDBRANCH   1  21
TORSDOF 6
ENDMDL
MODEL        3
REMARK 921   NORMALIZED FREE ENERGY PREDICTED BY IDOCK:   -7.21 KCAL/MOL
REMARK 922        TOTAL FREE ENERGY PREDICTED BY IDOCK:   -9.68 KCAL/MOL
REMARK 923 INTER-LIGAND FREE ENERGY PREDICTED BY IDOCK:   -9.39 KCAL/MOL
REMARK 924 INTRA-LIGAND FREE ENERGY PREDICTED BY IDOCK:   -0.28 KCAL/MOL
REMARK 927      BINDING AFFINITY PREDICTED BY RF-SCORE:    0.00 PKD
ROOT
HETATM    1  C   UNL     1     -12.247  13.511  70.997  1.00  0.00    -0.262 C  
ENDROOT
BRANCH   1   2
HETATM    2  N   UNL     1     -12.651  14.229  69.778  1.00  0.00    -0.214 NA 
HETATM    3  C   UNL     1     -10.772  13.458  68.237  1.00  0.00    -0.258 C  
HETATM    4  N   UNL     1     -10.185  14.817  68.091  1.00  0.00    -0.225 NA 
HETATM    5  C   UNL     1     -12.028  15.570  69.679  1.00  0.00    -0.359 C  
HETATM    6  C   UNL     1     -12.282  13.436  68.583  1.00  0.00    -0.108 C  
HETATM    7  C   UNL     1     -10.522  15.564  69.326  1.00  0.00    -0.245 C  
BRANCH   4   8
HETATM    8  C   UNL     1     -10.663  15.509  66.848  1.00  0.00    -0.317 C  
BRANCH   8   9
HETATM    9  C   UNL     1      -9.830  16.756  66.507  1.00  0.00    -0.303 A  
HETATM   10  C   UNL     1      -9.637  19.194  66.490  1.00  0.00    -0.399 A  
HETATM   11  C   UNL     1      -8.461  16.684  66.202  1.00  0.00    -0.308 A  
HETATM   12  C   UNL     1      -8.276  19.096  66.217  1.00  0.00    -0.309 A  
HETATM   13  C   UNL     1      -7.693  17.842  66.055  1.00  0.00    -0.216 A  
HETATM   14  C   UNL     1     -10.411  18.037  66.622  1.00  0.00    -0.375 A  
ENDBRANCH   8   9
BRANCH   8  15
HETATM   15  C   UNL     1     -10.801  14.513  65.684  1.00  0.00    -0.329 A  
HETATM   16  C   UNL     1     -12.212  13.526  63.958  1.00  0.00    -0.458 A  
HETATM   17  C   UNL     1     -10.178  12.412  64.616  1.00  0.00    -0.312 A  
HETATM   18  C   UNL     1     -11.332  12.453  63.840  1.00  0.00    -0.502 A  
HETATM   19  C   UNL     1      -9.916  13.431  65.533  1.00  0.00    -0.226 A  
HETATM   20  C   UNL     1     -11.944  14.556  64.863  1.00  0.00    -0.425 A  
ENDBRANCH   8  15
ENDBRANCH   4   8
ENDBRANCH   1   2
BRANCH   1  21
HETATM   21  C   UNL     1     -12.348  12.026  70.852  1.00  0.00    -0.384 C  
HETATM   22  C   UNL     1     -13.006  11.252  71.731  1.00  0.00    -0.519 C  
BRANCH  22  23
HETATM   23  C   UNL     1     -13.067   9.805  71.581  1.00  0.00    -0.516 A  
HETATM   24  C   UNL     1     -14.257   9.135  71.886  1.00  0.00    -0.288 A  
HETATM   25  C   UNL     1     -14.337   7.750  71.748  1.00  0.00    -0.594 A  
HETATM   26  C   UNL     1     -11.955   9.079  71.144  1.00  0.00    -0.356 A  
HETATM   27  C   UNL     1     -12.038   7.692  71.005  1.00  0.00    -0.282 A  
HETATM   28  C   UNL     1     -13.228   7.030  71.304  1.00  0.00    -0.304 A  
ENDBRANCH  22  23
ENDBRANCH   1  21
TORSDOF 6
ENDMDL
MODEL        4
REMARK 921   NORMALIZED FREE ENERGY PREDICTED BY IDOCK:   -7.19 KCAL/MOL
REMARK 922        TOTAL FREE ENERGY PREDICTED BY IDOCK:   -9.66 KCAL/MOL
REMARK 923 INTER-LIGAND FREE ENERGY PREDICTED BY IDOCK:   -9.05 KCAL/MOL
REMARK 924 INTRA-LIGAND FREE ENERGY PREDICTED BY IDOCK:   -0.61 KCAL/MOL
REMARK 927      BINDING AFFINITY PREDICTED BY RF-SCORE:    0.00 PKD
ROOT
HETATM    1  C   UNL     1      -9.102  18.345  68.304  1.00  0.00    -0.312 C  
ENDROOT
BRANCH   1   2
HETATM    2  N   UNL     1     -10.389  17.658  68.110  1.00  0.00    -0.367 NA 
HETATM    3  C   UNL     1      -9.884  15.524  69.412  1.00  0.00    -0.283 C  
HETATM    4  N   UNL     1      -9.947  14.647  68.212  1.00  0.00    -0.216 NA 
HETATM    5  C   UNL     1     -10.392  16.790  66.910  1.00  0.00    -0.294 C  
HETATM    6  C   UNL     1     -10.702  16.836  69.301  1.00  0.00    -0.324 C  
HETATM    7  C   UNL     1      -9.572  15.484  67.048  1.00  0.00    -0.224 C  
BRANCH   4   8
HETATM    8  C   UNL     1     -11.295  14.004  68.053  1.00  0.00    -0.293 C  
BRANCH   8   9
HETATM    9  C   UNL     1     -11.429  13.230  66.730  1.00  0.00    -0.387 A  
HETATM   10  C   UNL     1     -12.557  12.961  64.577  1.00  0.00    -0.420 A  
HETATM   11  C   UNL     1     -10.450  12.326  66.288  1.00  0.00    -0.266 A  
HETATM   12  C   UNL     1     -11.558  12.091  64.149  1.00  0.00    -0.460 A  
HETATM   13  C   UNL     1     -10.516  11.760  65.011  1.00  0.00    -0.332 A  
HETATM   14  C   UNL     1     -12.500  13.518  65.859  1.00  0.00    -0.484 A  
ENDBRANCH   8   9
BRANCH   8  15
HETATM   15  C   UNL     1     -11.660  13.180  69.298  1.00  0.00    -0.370 A  
HETATM   16  C   UNL     1     -11.919  10.984  70.327  1.00  0.00    -0.452 A  
HETATM   17  C   UNL     1     -12.952  12.908  71.348  1.00  0.00    -0.362 A  
HETATM   18  C   UNL     1     -12.704  11.539  71.334  1.00  0.00    -0.469 A  
HETATM   19  C   UNL     1     -12.438  13.721  70.337  1.00  0.00    -0.384 A  
HETATM   20  C   UNL     1     -11.389  11.798  69.323  1.00  0.00    -0.348 A  
ENDBRANCH   8  15
ENDBRANCH   4   8
ENDBRANCH   1   2
BRANCH   1  21
HETATM   21  C   UNL     1      -8.490  18.798  67.016  1.00  0.00    -0.289 C  
HETATM   22  C   UNL     1      -7.166  18.775  66.792  1.00  0.00    -0.228 C  
BRANCH  22  23
HETATM   23  C   UNL     1      -6.594  19.249  65.539  1.00  0.00    -0.303 A  
HETATM   24  C   UNL     1      -5.734  18.410  64.820  1.00  0.00    -0.127 A  
HETATM   25  C   UNL     1      -5.177  18.842  63.617  1.00  0.00    -0.240 A  
HETATM   26  C   UNL     1      -6.887  20.524  65.050  1.00  0.00    -0.217 A  
HETATM   27  C   UNL     1      -6.329  20.955  63.845  1.00  0.00    -0.306 A  
HETATM   28  C   UNL     1      -5.478  20.113  63.129  1.00  0.00    -0.288 A  
ENDBRANCH  22  23
ENDBRANCH   1  21
TORSDOF 6
ENDMDL
MODEL        5
REMARK 921   NORMALIZED FREE ENERGY PREDICTED BY IDOCK:   -7.14 KCAL/MOL
REMARK 922        TOTAL FREE ENERGY PREDICTED BY IDOCK:   -9.59 KCAL/MOL
REMARK 923 INTER-LIGAND FREE ENERGY PREDICTED BY IDOCK:   -9.35 KCAL/MOL
REMARK 924 INTRA-LIGAND FREE ENERGY PREDICTED BY IDOCK:   -0.24 KCAL/MOL
REMARK 927      BINDING AFFINITY PREDICTED BY RF-SCORE:    0.00 PKD
ROOT
HETATM    1  C   UNL     1      -9.489  15.209  66.455  1.00  0.00    -0.283 C  
ENDROOT
BRANCH   1   2
HETATM    2  N   UNL     1      -9.305  14.797  67.856  1.00  0.00    -0.190 NA 
HETATM    3  C   UNL     1     -11.062  12.951  67.947  1.00  0.00    -0.252 C  
HETATM    4  N   UNL     1     -11.924  13.668  68.924  1.00  0.00    -0.356 NA 
HETATM    5  C   UNL     1     -10.196  15.534  68.783  1.00  0.00    -0.212 C  
HETATM    6  C   UNL     1      -9.563  13.346  67.990  1.00  0.00    -0.219 C  
HETATM    7  C   UNL     1     -11.685  15.117  68.724  1.00  0.00    -0.342 C  
BRANCH   4   8
HETATM    8  C   UNL     1     -11.664  13.228  70.336  1.00  0.00    -0.083 C  
BRANCH   8   9
HETATM    9  C   UNL     1     -12.333  14.145  71.374  1.00  0.00    -0.425 A  
HETATM   10  C   UNL     1     -12.090  15.794  73.164  1.00  0.00    -0.603 A  
HETATM   11  C   UNL     1     -13.706  14.437  71.342  1.00  0.00    -0.419 A  
HETATM   12  C   UNL     1     -13.449  16.088  73.092  1.00  0.00    -0.587 A  
HETATM   13  C   UNL     1     -14.259  15.397  72.195  1.00  0.00    -0.660 A  
HETATM   14  C   UNL     1     -11.538  14.824  72.321  1.00  0.00    -0.113 A  
ENDBRANCH   8   9
BRANCH   8  15
HETATM   15  C   UNL     1     -11.993  11.737  70.515  1.00  0.00    -0.383 A  
HETATM   16  C   UNL     1     -13.211  10.017  71.742  1.00  0.00    -0.540 A  
HETATM   17  C   UNL     1     -11.335   9.394  70.361  1.00  0.00    -0.295 A  
HETATM   18  C   UNL     1     -12.353   9.040  71.241  1.00  0.00    -0.361 A  
HETATM   19  C   UNL     1     -11.153  10.731  70.004  1.00  0.00    -0.327 A  
HETATM   20  C   UNL     1     -13.042  11.354  71.373  1.00  0.00    -0.377 A  
ENDBRANCH   8  15
ENDBRANCH   4   8
ENDBRANCH   1   2
BRANCH   1  21
HETATM   21  C   UNL     1      -9.007  16.600  66.194  1.00  0.00    -0.321 C  
HETATM   22  C   UNL     1      -7.781  17.023  66.542  1.00  0.00    -0.327 C  
BRANCH  22  23
HETATM   23  C   UNL     1      -7.347  18.393  66.301  1.00  0.00    -0.293 A  
HETATM   24  C   UNL     1      -7.766  19.406  67.171  1.00  0.00    -0.272 A  
HETATM   25  C   UNL     1      -7.360  20.723  66.959  1.00  0.00    -0.354 A  
HETATM   26  C   UNL     1      -6.525  18.706  65.215  1.00  0.00    -0.271 A  
HETATM   27  C   UNL     1      -6.119  20.026  65.006  1.00  0.00    -0.289 A  
HETATM   28  C   UNL     1      -6.534  21.032  65.879  1.00  0.00    -0.191 A  
ENDBRANCH  22  23
ENDBRANCH   1  21
TORSDOF 6
ENDMDL
MODEL        6
REMARK 921   NORMALIZED FREE ENERGY PREDICTED BY IDOCK:   -7.10 KCAL/MOL
REMARK 922        TOTAL FREE ENERGY PREDICTED BY IDOCK:   -9.53 KCAL/MOL
REMARK 923 INTER-LIGAND FREE ENERGY PREDICTED BY IDOCK:   -8.68 KCAL/MOL
REMARK 924 INTRA-LIGAND FREE ENERGY PREDICTED BY IDOCK:   -0.86 KCAL/MOL
REMARK 927      BINDING AFFINITY PREDICTED BY RF-SCORE:    0.00 PKD
ROOT
HETATM    1  C   UNL     1     -11.237  14.227  66.588  1.00  0.00    -0.334 C  
ENDROOT
BRANCH   1   2
HETATM    2  N   UNL     1     -10.170  13.387  67.156  1.00  0.00    -0.245 NA 
HETATM    3  C   UNL     1     -11.160  11.098  66.623  1.00  0.00    -0.189 C  
HETATM    4  N   UNL     1     -11.353  10.727  68.050  1.00  0.00    -0.380 NA 
HETATM    5  C   UNL     1     -10.419  13.038  68.574  1.00  0.00    -0.249 C  
HETATM    6  C   UNL     1     -10.042  12.140  66.367  1.00  0.00    -0.220 C  
HETATM    7  C   UNL     1     -11.536  11.992  68.801  1.00  0.00    -0.311 C  
BRANCH   4   8
HETATM    8  C   UNL     1     -10.215   9.901  68.578  1.00  0.00    -0.177 C  
BRANCH   8   9
HETATM    9  C   UNL     1     -10.437   9.448  70.031  1.00  0.00    -0.266 A  
HETATM   10  C   UNL     1     -11.976   8.644  71.753  1.00  0.00    -0.402 A  
HETATM   11  C   UNL     1      -9.371   9.129  70.888  1.00  0.00    -0.335 A  
HETATM   12  C   UNL     1     -10.902   8.307  72.572  1.00  0.00    -0.421 A  
HETATM   13  C   UNL     1      -9.602   8.567  72.147  1.00  0.00    -0.382 A  
HETATM   14  C   UNL     1     -11.748   9.219  70.499  1.00  0.00    -0.225 A  
ENDBRANCH   8   9
BRANCH   8  15
HETATM   15  C   UNL     1      -9.876   8.754  67.612  1.00  0.00    -0.228 A  
HETATM   16  C   UNL     1     -10.403   6.525  66.775  1.00  0.00    -0.279 A  
HETATM   17  C   UNL     1      -8.232   7.480  66.340  1.00  0.00    -0.122 A  
HETATM   18  C   UNL     1      -9.127   6.421  66.225  1.00  0.00    -0.167 A  
HETATM   19  C   UNL     1      -8.601   8.635  67.030  1.00  0.00    -0.120 A  
HETATM   20  C   UNL     1     -10.780   7.687  67.452  1.00  0.00    -0.318 A  
ENDBRANCH   8  15
ENDBRANCH   4   8
ENDBRANCH   1   2
BRANCH   1  21
HETATM   21  C   UNL     1     -10.845  15.666  66.486  1.00  0.00    -0.260 C  
HETATM   22  C   UNL     1     -10.818  16.490  67.546  1.00  0.00    -0.237 C  
BRANCH  22  23
HETATM   23  C   UNL     1     -10.459  17.896  67.414  1.00  0.00    -0.390 A  
HETATM   24  C   UNL     1     -10.111  18.623  68.558  1.00  0.00    -0.426 A  
HETATM   25  C   UNL     1      -9.762  19.969  68.454  1.00  0.00    -0.393 A  
HETATM   26  C   UNL     1     -10.461  18.526  66.167  1.00  0.00    -0.447 A  
HETATM   27  C   UNL     1     -10.111  19.873  66.065  1.00  0.00    -0.589 A  
HETATM   28  C   UNL     1      -9.759  20.592  67.207  1.00  0.00    -0.562 A  
ENDBRANCH  22  23
ENDBRANCH   1  21
TORSDOF 6
ENDMDL
MODEL        7
REMARK 921   NORMALIZED FREE ENERGY PREDICTED BY IDOCK:   -7.09 KCAL/MOL
REMARK 922        TOTAL FREE ENERGY PREDICTED BY IDOCK:   -9.51 KCAL/MOL
REMARK 923 INTER-LIGAND FREE ENERGY PREDICTED BY IDOCK:   -8.87 KCAL/MOL
REMARK 924 INTRA-LIGAND FREE ENERGY PREDICTED BY IDOCK:   -0.64 KCAL/MOL
REMARK 927      BINDING AFFINITY PREDICTED BY RF-SCORE:    0.00 PKD
ROOT
HETATM    1  C   UNL     1     -10.652  13.978  64.870  1.00  0.00    -0.424 C  
ENDROOT
BRANCH   1   2
HETATM    2  N   UNL     1     -11.486  12.880  65.385  1.00  0.00    -0.313 NA 
HETATM    3  C   UNL     1      -9.989  12.132  67.310  1.00  0.00    -0.203 C  
HETATM    4  N   UNL     1      -9.703  10.800  66.714  1.00  0.00    -0.183 NA 
HETATM    5  C   UNL     1     -11.150  11.576  64.767  1.00  0.00    -0.233 C  
HETATM    6  C   UNL     1     -11.324  12.775  66.853  1.00  0.00    -0.321 C  
HETATM    7  C   UNL     1      -9.816  10.954  65.244  1.00  0.00    -0.265 C  
BRANCH   4   8
HETATM    8  C   UNL     1     -10.609   9.732  67.255  1.00  0.00    -0.255 C  
BRANCH   8   9
HETATM    9  C   UNL     1     -10.235   8.327  66.753  1.00  0.00    -0.375 A  
HETATM   10  C   UNL     1      -8.559   6.843  65.768  1.00  0.00    -0.139 A  
HETATM   11  C   UNL     1     -11.012   7.195  67.044  1.00  0.00    -0.304 A  
HETATM   12  C   UNL     1      -9.333   5.734  66.095  1.00  0.00    -0.160 A  
HETATM   13  C   UNL     1     -10.567   5.911  66.715  1.00  0.00    -0.368 A  
HETATM   14  C   UNL     1      -9.009   8.129  66.083  1.00  0.00    -0.218 A  
ENDBRANCH   8   9
BRANCH   8  15
HETATM   15  C   UNL     1     -10.728   9.837  68.784  1.00  0.00    -0.243 A  
HETATM   16  C   UNL     1      -9.913   9.153  70.978  1.00  0.00    -0.367 A  
HETATM   17  C   UNL     1     -12.089  10.171  70.779  1.00  0.00    -0.438 A  
HETATM   18  C   UNL     1     -11.099   9.589  71.565  1.00  0.00    -0.406 A  
HETATM   19  C   UNL     1     -11.908  10.291  69.401  1.00  0.00    -0.109 A  
HETATM   20  C   UNL     1      -9.722   9.287  69.600  1.00  0.00    -0.192 A  
ENDBRANCH   8  15
ENDBRANCH   4   8
ENDBRANCH   1   2
BRANCH   1  21
HETATM   21  C   UNL     1     -10.823  15.246  65.644  1.00  0.00    -0.371 C  
HETATM   22  C   UNL     1      -9.824  16.122  65.835  1.00  0.00    -0.384 C  
BRANCH  22  23
HETATM   23  C   UNL     1     -10.010  17.337  66.617  1.00  0.00    -0.296 A  
HETATM   24  C   UNL     1     -10.435  18.505  65.974  1.00  0.00    -0.433 A  
HETATM   25  C   UNL     1     -10.621  19.679  66.703  1.00  0.00    -0.599 A  
HETATM   26  C   UNL     1      -9.767  17.352  67.993  1.00  0.00    -0.281 A  
HETATM   27  C   UNL     1      -9.955  18.528  68.722  1.00  0.00    -0.417 A  
HETATM   28  C   UNL     1     -10.384  19.689  68.078  1.00  0.00    -0.579 A  
ENDBRANCH  22  23
ENDBRANCH   1  21
TORSDOF 6
ENDMDL
MODEL        8
REMARK 921   NORMALIZED FREE ENERGY PREDICTED BY IDOCK:   -7.06 KCAL/MOL
REMARK 922        TOTAL FREE ENERGY PREDICTED BY IDOCK:   -9.48 KCAL/MOL
REMARK 923 INTER-LIGAND FREE ENERGY PREDICTED BY IDOCK:   -8.72 KCAL/MOL
REMARK 924 INTRA-LIGAND FREE ENERGY PREDICTED BY IDOCK:   -0.76 KCAL/MOL
REMARK 927      BINDING AFFINITY PREDICTED BY RF-SCORE:    0.00 PKD
ROOT
HETATM    1  C   UNL     1     -10.279  11.281  66.096  1.00  0.00    -0.245 C  
ENDROOT
BRANCH   1   2
HETATM    2  N   UNL     1      -9.608  12.024  67.175  1.00  0.00    -0.190 NA 
HETATM    3  C   UNL     1     -11.665  12.656  68.543  1.00  0.00    -0.330 C  
HETATM    4  N   UNL     1     -11.516  14.115  68.295  1.00  0.00    -0.286 NA 
HETATM    5  C   UNL     1      -9.498  13.472  66.881  1.00  0.00    -0.258 C  
HETATM    6  C   UNL     1     -10.349  11.843  68.444  1.00  0.00    -0.209 C  
HETATM    7  C   UNL     1     -10.824  14.261  66.993  1.00  0.00    -0.297 C  
BRANCH   4   8
HETATM    8  C   UNL     1     -10.794  14.808  69.415  1.00  0.00    -0.255 C  
BRANCH   8   9
HETATM    9  C   UNL     1     -10.099  16.103  68.960  1.00  0.00    -0.247 A  
HETATM   10  C   UNL     1     -10.268  18.484  68.429  1.00  0.00    -0.409 A  
HETATM   11  C   UNL     1      -8.702  16.234  68.934  1.00  0.00    -0.253 A  
HETATM   12  C   UNL     1      -8.880  18.596  68.439  1.00  0.00    -0.367 A  
HETATM   13  C   UNL     1      -8.098  17.468  68.673  1.00  0.00    -0.263 A  
HETATM   14  C   UNL     1     -10.873  17.247  68.676  1.00  0.00    -0.199 A  
ENDBRANCH   8   9
BRANCH   8  15
HETATM   15  C   UNL     1     -11.715  14.988  70.633  1.00  0.00    -0.357 A  
HETATM   16  C   UNL     1     -13.974  15.309  71.493  1.00  0.00    -0.627 A  
HETATM   17  C   UNL     1     -12.080  15.796  72.904  1.00  0.00    -0.596 A  
HETATM   18  C   UNL     1     -13.457  15.754  72.708  1.00  0.00    -0.659 A  
HETATM   19  C   UNL     1     -11.216  15.420  71.875  1.00  0.00    -0.378 A  
HETATM   20  C   UNL     1     -13.111  14.916  70.467  1.00  0.00    -0.299 A  
ENDBRANCH   8  15
ENDBRANCH   4   8
ENDBRANCH   1   2
BRANCH   1  21
HETATM   21  C   UNL     1     -10.404   9.820  66.392  1.00  0.00    -0.247 C  
HETATM   22  C   UNL     1      -9.432   8.936  66.115  1.00  0.00    -0.318 C  
BRANCH  22  23
HETATM   23  C   UNL     1      -9.590   7.514  66.389  1.00  0.00    -0.194 A  
HETATM   24  C   UNL     1     -10.675   7.083  67.160  1.00  0.00    -0.433 A  
HETATM   25  C   UNL     1     -10.847   5.726  67.432  1.00  0.00    -0.279 A  
HETATM   26  C   UNL     1      -8.675   6.580  65.896  1.00  0.00    -0.149 A  
HETATM   27  C   UNL     1      -8.849   5.222  66.169  1.00  0.00    -0.135 A  
HETATM   28  C   UNL     1      -9.935   4.796  66.933  1.00  0.00    -0.245 A  
ENDBRANCH  22  23
ENDBRANCH   1  21
TORSDOF 6
ENDMDL
MODEL        9
REMARK 921   NORMALIZED FREE ENERGY PREDICTED BY IDOCK:   -7.02 KCAL/MOL
REMARK 922        TOTAL FREE ENERGY PREDICTED BY IDOCK:   -9.42 KCAL/MOL
REMARK 923 INTER-LIGAND FREE ENERGY PREDICTED BY IDOCK:   -8.74 KCAL/MOL
REMARK 924 INTRA-LIGAND FREE ENERGY PREDICTED BY IDOCK:   -0.68 KCAL/MOL
REMARK 927      BINDING AFFINITY PREDICTED BY RF-SCORE:    0.00 PKD
ROOT
HETATM    1  C   UNL     1     -11.130  14.199  66.413  1.00  0.00    -0.320 C  
ENDROOT
BRANCH   1   2
HETATM    2  N   UNL     1     -10.162  13.381  67.160  1.00  0.00    -0.245 NA 
HETATM    3  C   UNL     1     -11.073  11.074  66.568  1.00  0.00    -0.106 C  
HETATM    4  N   UNL     1     -11.475  10.754  67.964  1.00  0.00    -0.464 NA 
HETATM    5  C   UNL     1     -10.619  13.082  68.538  1.00  0.00    -0.258 C  
HETATM    6  C   UNL     1      -9.924  12.107  66.444  1.00  0.00    -0.225 C  
HETATM    7  C   UNL     1     -11.762  12.043  68.634  1.00  0.00    -0.326 C  
BRANCH   4   8
HETATM    8  C   UNL     1     -10.431   9.947  68.681  1.00  0.00    -0.206 C  
BRANCH   8   9
HETATM    9  C   UNL     1     -10.863   9.552  70.104  1.00  0.00    -0.300 A  
HETATM   10  C   UNL     1     -12.675   9.114  71.687  1.00  0.00    -0.429 A  
HETATM   11  C   UNL     1      -9.968   8.995  71.032  1.00  0.00    -0.349 A  
HETATM   12  C   UNL     1     -11.773   8.538  72.577  1.00  0.00    -0.390 A  
HETATM   13  C   UNL     1     -10.419   8.496  72.258  1.00  0.00    -0.402 A  
HETATM   14  C   UNL     1     -12.225   9.626  70.466  1.00  0.00    -0.153 A  
ENDBRANCH   8   9
BRANCH   8  15
HETATM   15  C   UNL     1      -9.963   8.764  67.820  1.00  0.00    -0.243 A  
HETATM   16  C   UNL     1     -10.329   6.471  67.073  1.00  0.00    -0.319 A  
HETATM   17  C   UNL     1      -8.164   7.490  66.778  1.00  0.00    -0.124 A  
HETATM   18  C   UNL     1      -9.005   6.390  66.647  1.00  0.00    -0.145 A  
HETATM   19  C   UNL     1      -8.636   8.666  67.362  1.00  0.00    -0.134 A  
HETATM   20  C   UNL     1     -10.809   7.653  67.644  1.00  0.00    -0.171 A  
ENDBRANCH   8  15
ENDBRANCH   4   8
ENDBRANCH   1   2
BRANCH   1  21
HETATM   21  C   UNL     1     -10.776  15.652  66.407  1.00  0.00    -0.291 C  
HETATM   22  C   UNL     1     -10.756  16.400  67.523  1.00  0.00    -0.298 C  
BRANCH  22  23
HETATM   23  C   UNL     1     -10.434  17.820  67.486  1.00  0.00    -0.376 A  
HETATM   24  C   UNL     1     -10.440  18.491  66.258  1.00  0.00    -0.441 A  
HETATM   25  C   UNL     1     -10.136  19.851  66.200  1.00  0.00    -0.611 A  
HETATM   26  C   UNL     1     -10.116  18.517  68.655  1.00  0.00    -0.406 A  
HETATM   27  C   UNL     1      -9.813  19.878  68.595  1.00  0.00    -0.438 A  
HETATM   28  C   UNL     1      -9.826  20.544  67.370  1.00  0.00    -0.574 A  
ENDBRANCH  22  23
ENDBRANCH   1  21
TORSDOF 6
ENDMDL
MODEL       10
REMARK 921   NORMALIZED FREE ENERGY PREDICTED BY IDOCK:   -7.01 KCAL/MOL
REMARK 922        TOTAL FREE ENERGY PREDICTED BY IDOCK:   -9.41 KCAL/MOL
REMARK 923 INTER-LIGAND FREE ENERGY PREDICTED BY IDOCK:   -8.91 KCAL/MOL
REMARK 924 INTRA-LIGAND FREE ENERGY PREDICTED BY IDOCK:   -0.50 KCAL/MOL
REMARK 927      BINDING AFFINITY PREDICTED BY RF-SCORE:    0.00 PKD
ROOT
HETATM    1  C   UNL     1      -9.202  18.300  68.339  1.00  0.00    -0.317 C  
ENDROOT
BRANCH   1   2
HETATM    2  N   UNL     1     -10.432  17.517  68.142  1.00  0.00    -0.375 NA 
HETATM    3  C   UNL     1      -9.629  15.295  69.103  1.00  0.00    -0.243 C  
HETATM    4  N   UNL     1      -9.709  14.578  67.802  1.00  0.00    -0.213 NA 
HETATM    5  C   UNL     1     -10.452  16.815  66.837  1.00  0.00    -0.269 C  
HETATM    6  C   UNL     1     -10.570  16.521  69.228  1.00  0.00    -0.327 C  
HETATM    7  C   UNL     1      -9.508  15.592  66.741  1.00  0.00    -0.242 C  
BRANCH   4   8
HETATM    8  C   UNL     1     -11.000  13.828  67.649  1.00  0.00    -0.264 C  
BRANCH   8   9
HETATM    9  C   UNL     1     -11.155  13.195  66.256  1.00  0.00    -0.308 A  
HETATM   10  C   UNL     1     -10.265  11.708  64.530  1.00  0.00    -0.337 A  
HETATM   11  C   UNL     1     -12.366  13.234  65.545  1.00  0.00    -0.533 A  
HETATM   12  C   UNL     1     -11.485  11.738  63.859  1.00  0.00    -0.481 A  
HETATM   13  C   UNL     1     -12.528  12.515  64.357  1.00  0.00    -0.530 A  
HETATM   14  C   UNL     1     -10.097  12.438  65.711  1.00  0.00    -0.273 A  
ENDBRANCH   8   9
BRANCH   8  15
HETATM   15  C   UNL     1     -11.202  12.839  68.809  1.00  0.00    -0.327 A  
HETATM   16  C   UNL     1     -11.053  10.547  69.628  1.00  0.00    -0.338 A  
HETATM   17  C   UNL     1     -12.407  12.152  70.814  1.00  0.00    -0.391 A  
HETATM   18  C   UNL     1     -11.917  10.856  70.676  1.00  0.00    -0.467 A  
HETATM   19  C   UNL     1     -12.055  13.134  69.887  1.00  0.00    -0.357 A  
HETATM   20  C   UNL     1     -10.686  11.533  68.708  1.00  0.00    -0.247 A  
ENDBRANCH   8  15
ENDBRANCH   4   8
ENDBRANCH   1   2
BRANCH   1  21
HETATM   21  C   UNL     1      -8.519  18.636  67.051  1.00  0.00    -0.275 C  
HETATM   22  C   UNL     1      -7.251  19.076  66.993  1.00  0.00    -0.219 C  
BRANCH  22  23
HETATM   23  C   UNL     1      -6.618  19.423  65.728  1.00  0.00    -0.265 A  
HETATM   24  C   UNL     1      -6.879  20.672  65.153  1.00  0.00    -0.173 A  
HETATM   25  C   UNL     1      -6.282  21.024  63.943  1.00  0.00    -0.351 A  
HETATM   26  C   UNL     1      -5.762  18.527  65.082  1.00  0.00    -0.250 A  
HETATM   27  C   UNL     1      -5.165  18.883  63.871  1.00  0.00    -0.248 A  
HETATM   28  C   UNL     1      -5.422  20.131  63.305  1.00  0.00    -0.288 A  
ENDBRANCH  22  23
ENDBRANCH   1  21
TORSDOF 6
ENDMDL
MODEL       11
REMARK 921   NORMALIZED FREE ENERGY PREDICTED BY IDOCK:   -7.01 KCAL/MOL
REMARK 922        TOTAL FREE ENERGY PREDICTED BY IDOCK:   -9.41 KCAL/MOL
REMARK 923 INTER-LIGAND FREE ENERGY PREDICTED BY IDOCK:   -9.29 KCAL/MOL
REMARK 924 INTRA-LIGAND FREE ENERGY PREDICTED BY IDOCK:   -0.11 KCAL/MOL
REMARK 927      BINDING AFFINITY PREDICTED BY RF-SCORE:    0.00 PKD
ROOT
HETATM    1  C   UNL     1     -10.178   8.120  68.832  1.00  0.00    -0.210 C  
ENDROOT
BRANCH   1   2
HETATM    2  N   UNL     1      -9.704   9.482  69.123  1.00  0.00    -0.171 NA 
HETATM    3  C   UNL     1     -11.899  10.485  69.947  1.00  0.00    -0.282 C  
HETATM    4  N   UNL     1     -12.015  11.440  68.813  1.00  0.00    -0.487 NA 
HETATM    5  C   UNL     1      -9.854  10.393  67.964  1.00  0.00    -0.150 C  
HETATM    6  C   UNL     1     -10.452  10.037  70.274  1.00  0.00    -0.272 C  
HETATM    7  C   UNL     1     -11.309  10.829  67.663  1.00  0.00    -0.252 C  
BRANCH   4   8
HETATM    8  C   UNL     1     -11.484  12.800  69.163  1.00  0.00    -0.306 C  
BRANCH   8   9
HETATM    9  C   UNL     1     -11.196  13.661  67.921  1.00  0.00    -0.300 A  
HETATM   10  C   UNL     1      -9.556  14.784  66.497  1.00  0.00    -0.304 A  
HETATM   11  C   UNL     1     -12.159  13.882  66.923  1.00  0.00    -0.467 A  
HETATM   12  C   UNL     1     -10.520  14.965  65.509  1.00  0.00    -0.380 A  
HETATM   13  C   UNL     1     -11.825  14.530  65.730  1.00  0.00    -0.327 A  
HETATM   14  C   UNL     1      -9.892  14.149  67.697  1.00  0.00    -0.229 A  
ENDBRANCH   8   9
BRANCH   8  15
HETATM   15  C   UNL     1     -12.380  13.488  70.206  1.00  0.00    -0.370 A  
HETATM   16  C   UNL     1     -13.087  15.555  71.289  1.00  0.00    -0.581 A  
HETATM   17  C   UNL     1     -13.569  13.436  72.334  1.00  0.00    -0.708 A  
HETATM   18  C   UNL     1     -13.625  14.826  72.348  1.00  0.00    -0.550 A  
HETATM   19  C   UNL     1     -12.948  12.772  71.274  1.00  0.00    -0.310 A  
HETATM   20  C   UNL     1     -12.480  14.892  70.219  1.00  0.00    -0.386 A  
ENDBRANCH   8  15
ENDBRANCH   4   8
ENDBRANCH   1   2
BRANCH   1  21
HETATM   21  C   UNL     1     -10.009   7.189  69.990  1.00  0.00    -0.182 C  
HETATM   22  C   UNL     1     -10.821   6.142  70.207  1.00  0.00    -0.385 C  
BRANCH  22  23
HETATM   23  C   UNL     1     -10.650   5.267  71.359  1.00  0.00    -0.247 A  
HETATM   24  C   UNL     1      -9.861   4.118  71.233  1.00  0.00    -0.249 A  
HETATM   25  C   UNL     1      -9.683   3.267  72.323  1.00  0.00    -0.223 A  
HETATM   26  C   UNL     1     -11.264   5.556  72.580  1.00  0.00    -0.348 A  
HETATM   27  C   UNL     1     -11.084   4.703  73.671  1.00  0.00    -0.379 A  
HETATM   28  C   UNL     1     -10.292   3.562  73.543  1.00  0.00    -0.236 A  
ENDBRANCH  22  23
ENDBRANCH   1  21
TORSDOF 6
ENDMDL
MODEL       12
REMARK 921   NORMALIZED FREE ENERGY PREDICTED BY IDOCK:   -6.98 KCAL/MOL
REMARK 922        TOTAL FREE ENERGY PREDICTED BY IDOCK:   -9.37 KCAL/MOL
REMARK 923 INTER-LIGAND FREE ENERGY PREDICTED BY IDOCK:   -8.65 KCAL/MOL
REMARK 924 INTRA-LIGAND FREE ENERGY PREDICTED BY IDOCK:   -0.72 KCAL/MOL
REMARK 927      BINDING AFFINITY PREDICTED BY RF-SCORE:    0.00 PKD
ROOT
HETATM    1  C   UNL     1     -11.453  13.133  67.757  1.00  0.00    -0.313 C  
ENDROOT
BRANCH   1   2
HETATM    2  N   UNL     1     -11.804  11.716  67.572  1.00  0.00    -0.624 NA 
HETATM    3  C   UNL     1     -10.794  10.787  69.721  1.00  0.00    -0.226 C  
HETATM    4  N   UNL     1      -9.765   9.977  69.016  1.00  0.00    -0.189 NA 
HETATM    5  C   UNL     1     -10.740  10.955  66.877  1.00  0.00    -0.264 C  
HETATM    6  C   UNL     1     -12.065  11.089  68.888  1.00  0.00    -0.169 C  
HETATM    7  C   UNL     1      -9.484  10.662  67.733  1.00  0.00    -0.153 C  
BRANCH   4   8
HETATM    8  C   UNL     1     -10.198   8.551  68.829  1.00  0.00    -0.200 C  
BRANCH   8   9
HETATM    9  C   UNL     1      -9.256   7.763  67.903  1.00  0.00    -0.141 A  
HETATM   10  C   UNL     1      -7.110   6.635  67.582  1.00  0.00    -0.085 A  
HETATM   11  C   UNL     1      -9.697   7.186  66.701  1.00  0.00    -0.233 A  
HETATM   12  C   UNL     1      -7.580   6.050  66.409  1.00  0.00    -0.094 A  
HETATM   13  C   UNL     1      -8.865   6.341  65.960  1.00  0.00    -0.159 A  
HETATM   14  C   UNL     1      -7.935   7.492  68.317  1.00  0.00    -0.123 A  
ENDBRANCH   8   9
BRANCH   8  15
HETATM   15  C   UNL     1     -10.453   7.873  70.185  1.00  0.00    -0.231 A  
HETATM   16  C   UNL     1     -11.922   6.514  71.579  1.00  0.00    -0.383 A  
HETATM   17  C   UNL     1     -10.174   7.819  72.606  1.00  0.00    -0.340 A  
HETATM   18  C   UNL     1     -11.253   6.948  72.721  1.00  0.00    -0.277 A  
HETATM   19  C   UNL     1      -9.779   8.280  71.350  1.00  0.00    -0.237 A  
HETATM   20  C   UNL     1     -11.518   6.962  70.318  1.00  0.00    -0.373 A  
ENDBRANCH   8  15
ENDBRANCH   4   8
ENDBRANCH   1   2
BRANCH   1  21
HETATM   21  C   UNL     1     -12.157  13.756  68.920  1.00  0.00    -0.348 C  
HETATM   22  C   UNL     1     -11.504  14.346  69.934  1.00  0.00    -0.314 C  
BRANCH  22  23
HETATM   23  C   UNL     1     -12.213  14.921  71.069  1.00  0.00    -0.379 A  
HETATM   24  C   UNL     1     -11.500  15.672  72.011  1.00  0.00    -0.495 A  
HETATM   25  C   UNL     1     -12.160  16.233  73.104  1.00  0.00    -0.608 A  
HETATM   26  C   UNL     1     -13.588  14.731  71.231  1.00  0.00    -0.480 A  
HETATM   27  C   UNL     1     -14.247  15.294  72.325  1.00  0.00    -0.642 A  
HETATM   28  C   UNL     1     -13.534  16.047  73.258  1.00  0.00    -0.570 A  
ENDBRANCH  22  23
ENDBRANCH   1  21
TORSDOF 6
ENDMDL
MODEL       13
REMARK 921   NORMALIZED FREE ENERGY PREDICTED BY IDOCK:   -6.85 KCAL/MOL
REMARK 922        TOTAL FREE ENERGY PREDICTED BY IDOCK:   -9.19 KCAL/MOL
REMARK 923 INTER-LIGAND FREE ENERGY PREDICTED BY IDOCK:   -8.49 KCAL/MOL
REMARK 924 INTRA-LIGAND FREE ENERGY PREDICTED BY IDOCK:   -0.69 KCAL/MOL
REMARK 927      BINDING AFFINITY PREDICTED BY RF-SCORE:    0.00 PKD
ROOT
HETATM    1  C   UNL     1     -10.886  10.731  67.240  1.00  0.00    -0.288 C  
ENDROOT
BRANCH   1   2
HETATM    2  N   UNL     1     -11.716  11.946  67.253  1.00  0.00    -0.577 NA 
HETATM    3  C   UNL     1      -9.867  13.669  67.598  1.00  0.00    -0.228 C  
HETATM    4  N   UNL     1     -10.350  14.078  68.944  1.00  0.00    -0.213 NA 
HETATM    5  C   UNL     1     -12.158  12.315  68.619  1.00  0.00    -0.088 C  
HETATM    6  C   UNL     1     -10.958  13.076  66.670  1.00  0.00    -0.279 C  
HETATM    7  C   UNL     1     -11.052  12.908  69.523  1.00  0.00     0.018 C  
BRANCH   4   8
HETATM    8  C   UNL     1     -11.218  15.302  68.885  1.00  0.00    -0.285 C  
BRANCH   8   9
HETATM    9  C   UNL     1     -11.962  15.565  70.205  1.00  0.00    -0.401 A  
HETATM   10  C   UNL     1     -13.989  15.293  71.546  1.00  0.00    -0.627 A  
HETATM   11  C   UNL     1     -11.303  16.015  71.361  1.00  0.00    -0.371 A  
HETATM   12  C   UNL     1     -13.306  15.713  72.684  1.00  0.00    -0.623 A  
HETATM   13  C   UNL     1     -11.970  16.091  72.587  1.00  0.00    -0.646 A  
HETATM   14  C   UNL     1     -13.328  15.230  70.315  1.00  0.00     0.045 A  
ENDBRANCH   8   9
BRANCH   8  15
HETATM   15  C   UNL     1     -10.425  16.512  68.363  1.00  0.00    -0.307 A  
HETATM   16  C   UNL     1      -8.413  17.884  68.495  1.00  0.00    -0.303 A  
HETATM   17  C   UNL     1     -10.378  18.751  67.399  1.00  0.00    -0.472 A  
HETATM   18  C   UNL     1      -9.064  18.917  67.824  1.00  0.00    -0.322 A  
HETATM   19  C   UNL     1     -11.055  17.561  67.669  1.00  0.00     0.042 A  
HETATM   20  C   UNL     1      -9.083  16.685  68.752  1.00  0.00    -0.256 A  
ENDBRANCH   8  15
ENDBRANCH   4   8
ENDBRANCH   1   2
BRANCH   1  21
HETATM   21  C   UNL     1     -11.226   9.788  68.350  1.00  0.00    -0.076 C  
HETATM   22  C   UNL     1     -10.305   9.298  69.196  1.00  0.00    -0.222 C  
BRANCH  22  23
HETATM   23  C   UNL     1     -10.659   8.359  70.253  1.00  0.00    -0.234 A  
HETATM   24  C   UNL     1     -10.759   8.819  71.571  1.00  0.00    -0.371 A  
HETATM   25  C   UNL     1     -11.099   7.938  72.596  1.00  0.00    -0.447 A  
HETATM   26  C   UNL     1     -10.894   7.011  69.969  1.00  0.00    -0.290 A  
HETATM   27  C   UNL     1     -11.235   6.131  70.997  1.00  0.00    -0.361 A  
HETATM   28  C   UNL     1     -11.339   6.595  72.308  1.00  0.00    -0.311 A  
ENDBRANCH  22  23
ENDBRANCH   1  21
TORSDOF 6
ENDMDL
MODEL       14
REMARK 921   NORMALIZED FREE ENERGY PREDICTED BY IDOCK:   -6.83 KCAL/MOL
REMARK 922        TOTAL FREE ENERGY PREDICTED BY IDOCK:   -9.16 KCAL/MOL
REMARK 923 INTER-LIGAND FREE ENERGY PREDICTED BY IDOCK:   -8.34 KCAL/MOL
REMARK 924 INTRA-LIGAND FREE ENERGY PREDICTED BY IDOCK:   -0.82 KCAL/MOL
REMARK 927      BINDING AFFINITY PREDICTED BY RF-SCORE:    0.00 PKD
ROOT
HETATM    1  C   UNL     1     -11.633  14.195  68.985  1.00  0.00    -0.304 C  
ENDROOT
BRANCH   1   2
HETATM    2  N   UNL     1     -11.998  13.141  68.025  1.00  0.00    -0.342 NA 
HETATM    3  C   UNL     1     -10.529  11.266  68.937  1.00  0.00    -0.206 C  
HETATM    4  N   UNL     1      -9.668  11.203  67.725  1.00  0.00    -0.169 NA 
HETATM    5  C   UNL     1     -11.101  13.116  66.845  1.00  0.00    -0.282 C  
HETATM    6  C   UNL     1     -11.956  11.820  68.691  1.00  0.00    -0.239 C  
HETATM    7  C   UNL     1      -9.685  12.554  67.116  1.00  0.00    -0.205 C  
BRANCH   4   8
HETATM    8  C   UNL     1     -10.113  10.132  66.772  1.00  0.00    -0.219 C  
BRANCH   8   9
HETATM    9  C   UNL     1      -9.479  10.281  65.378  1.00  0.00    -0.287 A  
HETATM   10  C   UNL     1      -7.582   9.857  63.893  1.00  0.00    -0.141 A  
HETATM   11  C   UNL     1     -10.225  10.668  64.253  1.00  0.00    -0.391 A  
HETATM   12  C   UNL     1      -8.351  10.216  62.790  1.00  0.00    -0.171 A  
HETATM   13  C   UNL     1      -9.665  10.639  62.972  1.00  0.00    -0.362 A  
HETATM   14  C   UNL     1      -8.136   9.899  65.177  1.00  0.00    -0.138 A  
ENDBRANCH   8   9
BRANCH   8  15
HETATM   15  C   UNL     1      -9.937   8.737  67.392  1.00  0.00    -0.267 A  
HETATM   16  C   UNL     1     -10.809   6.480  67.698  1.00  0.00    -0.419 A  
HETATM   17  C   UNL     1      -9.104   7.312  69.186  1.00  0.00    -0.137 A  
HETATM   18  C   UNL     1      -9.974   6.298  68.798  1.00  0.00    -0.173 A  
HETATM   19  C   UNL     1      -9.088   8.522  68.492  1.00  0.00    -0.135 A  
HETATM   20  C   UNL     1     -10.782   7.685  66.991  1.00  0.00    -0.340 A  
ENDBRANCH   8  15
ENDBRANCH   4   8
ENDBRANCH   1   2
BRANCH   1  21
HETATM   21  C   UNL     1     -11.486  15.537  68.342  1.00  0.00    -0.370 C  
HETATM   22  C   UNL     1     -10.450  16.354  68.592  1.00  0.00    -0.293 C  
BRANCH  22  23
HETATM   23  C   UNL     1     -10.346  17.668  67.972  1.00  0.00    -0.375 A  
HETATM   24  C   UNL     1     -10.063  18.781  68.773  1.00  0.00    -0.407 A  
HETATM   25  C   UNL     1      -9.957  20.048  68.200  1.00  0.00    -0.533 A  
HETATM   26  C   UNL     1     -10.527  17.832  66.596  1.00  0.00    -0.300 A  
HETATM   27  C   UNL     1     -10.419  19.102  66.025  1.00  0.00    -0.546 A  
HETATM   28  C   UNL     1     -10.131  20.207  66.826  1.00  0.00    -0.591 A  
ENDBRANCH  22  23
ENDBRANCH   1  21
TORSDOF 6
ENDMDL
MODEL       15
REMARK 921   NORMALIZED FREE ENERGY PREDICTED BY IDOCK:   -6.78 KCAL/MOL
REMARK 922        TOTAL FREE ENERGY PREDICTED BY IDOCK:   -9.10 KCAL/MOL
REMARK 923 INTER-LIGAND FREE ENERGY PREDICTED BY IDOCK:   -8.18 KCAL/MOL
REMARK 924 INTRA-LIGAND FREE ENERGY PREDICTED BY IDOCK:   -0.92 KCAL/MOL
REMARK 927      BINDING AFFINITY PREDICTED BY RF-SCORE:    0.00 PKD
ROOT
HETATM    1  C   UNL     1     -11.928  10.219  70.672  1.00  0.00    -0.342 C  
ENDROOT
BRANCH   1   2
HETATM    2  N   UNL     1     -10.817  10.952  70.043  1.00  0.00    -0.161 NA 
HETATM    3  C   UNL     1     -12.096  11.989  68.096  1.00  0.00     0.029 C  
HETATM    4  N   UNL     1     -11.353  11.224  67.059  1.00  0.00    -0.429 NA 
HETATM    5  C   UNL     1     -10.122  10.148  69.011  1.00  0.00    -0.205 C  
HETATM    6  C   UNL     1     -11.326  12.197  69.425  1.00  0.00    -0.245 C  
HETATM    7  C   UNL     1     -10.910   9.960  67.692  1.00  0.00    -0.257 C  
BRANCH   4   8
HETATM    8  C   UNL     1     -10.214  12.014  66.482  1.00  0.00    -0.206 C  
BRANCH   8   9
HETATM    9  C   UNL     1      -9.380  11.202  65.476  1.00  0.00    -0.247 A  
HETATM   10  C   UNL     1      -7.354   9.917  65.003  1.00  0.00    -0.135 A  
HETATM   11  C   UNL     1      -9.915  10.732  64.266  1.00  0.00    -0.403 A  
HETATM   12  C   UNL     1      -7.918   9.441  63.823  1.00  0.00    -0.142 A  
HETATM   13  C   UNL     1      -9.190   9.862  63.446  1.00  0.00    -0.278 A  
HETATM   14  C   UNL     1      -8.072  10.799  65.817  1.00  0.00    -0.135 A  
ENDBRANCH   8   9
BRANCH   8  15
HETATM   15  C   UNL     1     -10.702  13.367  65.940  1.00  0.00    -0.285 A  
HETATM   16  C   UNL     1     -12.164  14.581  64.411  1.00  0.00    -0.480 A  
HETATM   17  C   UNL     1     -10.275  15.706  65.402  1.00  0.00    -0.401 A  
HETATM   18  C   UNL     1     -11.379  15.723  64.555  1.00  0.00    -0.324 A  
HETATM   19  C   UNL     1      -9.937  14.538  66.086  1.00  0.00    -0.330 A  
HETATM   20  C   UNL     1     -11.837  13.415  65.108  1.00  0.00    -0.375 A  
ENDBRANCH   8  15
ENDBRANCH   4   8
ENDBRANCH   1   2
BRANCH   1  21
HETATM   21  C   UNL     1     -11.460   9.200  71.662  1.00  0.00    -0.451 C  
HETATM   22  C   UNL     1     -11.668   7.883  71.504  1.00  0.00    -0.317 C  
BRANCH  22  23
HETATM   23  C   UNL     1     -11.226   6.913  72.497  1.00  0.00    -0.304 A  
HETATM   24  C   UNL     1     -10.365   7.327  73.520  1.00  0.00    -0.412 A  
HETATM   25  C   UNL     1      -9.931   6.416  74.482  1.00  0.00    -0.370 A  
HETATM   26  C   UNL     1     -11.645   5.581  72.440  1.00  0.00    -0.230 A  
HETATM   27  C   UNL     1     -11.210   4.671  73.405  1.00  0.00    -0.423 A  
HETATM   28  C   UNL     1     -10.357   5.089  74.426  1.00  0.00    -0.321 A  
ENDBRANCH  22  23
ENDBRANCH   1  21
TORSDOF 6
ENDMDL
MODEL       16
REMARK 921   NORMALIZED FREE ENERGY PREDICTED BY IDOCK:   -6.76 KCAL/MOL
REMARK 922        TOTAL FREE ENERGY PREDICTED BY IDOCK:   -9.07 KCAL/MOL
REMARK 923 INTER-LIGAND FREE ENERGY PREDICTED BY IDOCK:   -9.59 KCAL/MOL
REMARK 924 INTRA-LIGAND FREE ENERGY PREDICTED BY IDOCK:    0.52 KCAL/MOL
REMARK 927      BINDING AFFINITY PREDICTED BY RF-SCORE:    0.00 PKD
ROOT
HETATM    1  C   UNL     1     -10.610  14.328  64.710  1.00  0.00    -0.412 C  
ENDROOT
BRANCH   1   2
HETATM    2  N   UNL     1     -11.356  13.210  65.309  1.00  0.00    -0.292 NA 
HETATM    3  C   UNL     1     -11.269  13.954  67.747  1.00  0.00    -0.293 C  
HETATM    4  N   UNL     1     -10.428  12.807  68.181  1.00  0.00    -0.229 NA 
HETATM    5  C   UNL     1     -10.468  12.102  65.734  1.00  0.00    -0.253 C  
HETATM    6  C   UNL     1     -12.123  13.690  66.481  1.00  0.00    -0.423 C  
HETATM    7  C   UNL     1      -9.631  12.389  67.004  1.00  0.00    -0.211 C  
BRANCH   4   8
HETATM    8  C   UNL     1     -11.250  11.687  68.751  1.00  0.00    -0.245 C  
BRANCH   8   9
HETATM    9  C   UNL     1     -10.463  10.369  68.857  1.00  0.00    -0.232 A  
HETATM   10  C   UNL     1      -9.971   8.155  67.942  1.00  0.00    -0.225 A  
HETATM   11  C   UNL     1      -9.351  10.226  69.702  1.00  0.00    -0.167 A  
HETATM   12  C   UNL     1      -8.856   8.049  68.768  1.00  0.00    -0.138 A  
HETATM   13  C   UNL     1      -8.557   9.076  69.661  1.00  0.00    -0.137 A  
HETATM   14  C   UNL     1     -10.774   9.299  67.993  1.00  0.00    -0.231 A  
ENDBRANCH   8   9
BRANCH   8  15
HETATM   15  C   UNL     1     -11.928  12.116  70.062  1.00  0.00    -0.391 A  
HETATM   16  C   UNL     1     -13.338  11.515  71.958  1.00  0.00    -0.397 A  
HETATM   17  C   UNL     1     -12.967  13.840  71.438  1.00  0.00    -0.433 A  
HETATM   18  C   UNL     1     -13.568  12.863  72.225  1.00  0.00    -0.611 A  
HETATM   19  C   UNL     1     -12.157  13.470  70.364  1.00  0.00    -0.415 A  
HETATM   20  C   UNL     1     -12.514  11.143  70.893  1.00  0.00    -0.509 A  
ENDBRANCH   8  15
ENDBRANCH   4   8
ENDBRANCH   1   2
BRANCH   1  21
HETATM   21  C   UNL     1     -10.728  15.591  65.503  1.00  0.00    -0.395 C  
HETATM   22  C   UNL     1      -9.661  16.308  65.892  1.00  0.00    -0.354 C  
BRANCH  22  23
HETATM   23  C   UNL     1      -9.802  17.521  66.687  1.00  0.00    -0.308 A  
HETATM   24  C   UNL     1      -9.469  17.489  68.046  1.00  0.00    -0.280 A  
HETATM   25  C   UNL     1      -9.595  18.639  68.825  1.00  0.00    -0.383 A  
HETATM   26  C   UNL     1     -10.268  18.707  66.114  1.00  0.00    -0.450 A  
HETATM   27  C   UNL     1     -10.392  19.857  66.896  1.00  0.00    -0.596 A  
HETATM   28  C   UNL     1     -10.053  19.824  68.248  1.00  0.00    -0.575 A  
ENDBRANCH  22  23
ENDBRANCH   1  21
TORSDOF 6
ENDMDL
MODEL       17
REMARK 921   NORMALIZED FREE ENERGY PREDICTED BY IDOCK:   -6.70 KCAL/MOL
REMARK 922        TOTAL FREE ENERGY PREDICTED BY IDOCK:   -9.00 KCAL/MOL
REMARK 923 INTER-LIGAND FREE ENERGY PREDICTED BY IDOCK:   -8.06 KCAL/MOL
REMARK 924 INTRA-LIGAND FREE ENERGY PREDICTED BY IDOCK:   -0.94 KCAL/MOL
REMARK 927      BINDING AFFINITY PREDICTED BY RF-SCORE:    0.00 PKD
ROOT
HETATM    1  C   UNL     1     -12.813   9.028  71.672  1.00  0.00    -0.359 C  
ENDROOT
BRANCH   1   2
HETATM    2  N   UNL     1     -11.387   8.669  71.728  1.00  0.00    -0.299 NA 
HETATM    3  C   UNL     1     -11.404   6.766  70.031  1.00  0.00    -0.342 C  
HETATM    4  N   UNL     1     -11.064   5.722  71.035  1.00  0.00    -0.237 NA 
HETATM    5  C   UNL     1     -11.108   7.618  72.734  1.00  0.00    -0.383 C  
HETATM    6  C   UNL     1     -10.937   8.197  70.399  1.00  0.00    -0.247 C  
HETATM    7  C   UNL     1     -11.579   6.198  72.340  1.00  0.00    -0.292 C  
BRANCH   4   8
HETATM    8  C   UNL     1      -9.592   5.427  71.067  1.00  0.00    -0.172 C  
BRANCH   8   9
HETATM    9  C   UNL     1      -9.212   4.430  72.176  1.00  0.00    -0.164 A  
HETATM   10  C   UNL     1      -7.933   3.958  74.206  1.00  0.00    -0.086 A  
HETATM   11  C   UNL     1      -9.934   3.247  72.400  1.00  0.00    -0.233 A  
HETATM   12  C   UNL     1      -8.683   2.806  74.424  1.00  0.00    -0.078 A  
HETATM   13  C   UNL     1      -9.670   2.441  73.512  1.00  0.00    -0.137 A  
HETATM   14  C   UNL     1      -8.186   4.758  73.087  1.00  0.00    -0.101 A  
ENDBRANCH   8   9
BRANCH   8  15
HETATM   15  C   UNL     1      -9.081   5.033  69.671  1.00  0.00    -0.151 A  
HETATM   16  C   UNL     1      -8.924   3.339  67.924  1.00  0.00    -0.186 A  
HETATM   17  C   UNL     1      -7.415   5.220  67.901  1.00  0.00    -0.076 A  
HETATM   18  C   UNL     1      -7.858   4.024  67.344  1.00  0.00    -0.091 A  
HETATM   19  C   UNL     1      -8.018   5.718  69.057  1.00  0.00    -0.098 A  
HETATM   20  C   UNL     1      -9.540   3.845  69.072  1.00  0.00    -0.209 A  
ENDBRANCH   8  15
ENDBRANCH   4   8
ENDBRANCH   1   2
BRANCH   1  21
HETATM   21  C   UNL     1     -13.046  10.497  71.829  1.00  0.00    -0.570 C  
HETATM   22  C   UNL     1     -12.567  11.407  70.965  1.00  0.00    -0.487 C  
BRANCH  22  23
HETATM   23  C   UNL     1     -12.785  12.834  71.157  1.00  0.00    -0.355 A  
HETATM   24  C   UNL     1     -12.187  13.741  70.275  1.00  0.00    -0.429 A  
HETATM   25  C   UNL     1     -12.384  15.112  70.439  1.00  0.00    -0.411 A  
HETATM   26  C   UNL     1     -13.576  13.307  72.207  1.00  0.00    -0.703 A  
HETATM   27  C   UNL     1     -13.772  14.680  72.369  1.00  0.00    -0.575 A  
HETATM   28  C   UNL     1     -13.180  15.580  71.484  1.00  0.00    -0.589 A  
ENDBRANCH  22  23
ENDBRANCH   1  21
TORSDOF 6
ENDMDL
MODEL       18
REMARK 921   NORMALIZED FREE ENERGY PREDICTED BY IDOCK:   -6.70 KCAL/MOL
REMARK 922        TOTAL FREE ENERGY PREDICTED BY IDOCK:   -8.99 KCAL/MOL
REMARK 923 INTER-LIGAND FREE ENERGY PREDICTED BY IDOCK:   -8.14 KCAL/MOL
REMARK 924 INTRA-LIGAND FREE ENERGY PREDICTED BY IDOCK:   -0.86 KCAL/MOL
REMARK 927      BINDING AFFINITY PREDICTED BY RF-SCORE:    0.00 PKD
ROOT
HETATM    1  C   UNL     1     -11.321  13.922  67.332  1.00  0.00    -0.326 C  
ENDROOT
BRANCH   1   2
HETATM    2  N   UNL     1     -10.687  13.404  68.555  1.00  0.00    -0.257 NA 
HETATM    3  C   UNL     1      -9.678  11.271  67.589  1.00  0.00    -0.171 C  
HETATM    4  N   UNL     1     -10.536  10.367  68.400  1.00  0.00    -0.194 NA 
HETATM    5  C   UNL     1     -11.582  12.500  69.316  1.00  0.00    -0.319 C  
HETATM    6  C   UNL     1      -9.448  12.674  68.206  1.00  0.00    -0.203 C  
HETATM    7  C   UNL     1     -11.790  11.104  68.681  1.00  0.00    -0.287 C  
BRANCH   4   8
HETATM    8  C   UNL     1      -9.845   9.901  69.648  1.00  0.00    -0.232 C  
BRANCH   8   9
HETATM    9  C   UNL     1     -10.665   8.855  70.424  1.00  0.00    -0.261 A  
HETATM   10  C   UNL     1     -11.594   6.595  70.531  1.00  0.00    -0.448 A  
HETATM   11  C   UNL     1     -10.989   9.012  71.781  1.00  0.00    -0.443 A  
HETATM   12  C   UNL     1     -11.878   6.764  71.883  1.00  0.00    -0.366 A  
HETATM   13  C   UNL     1     -11.593   7.978  72.502  1.00  0.00    -0.464 A  
HETATM   14  C   UNL     1     -11.003   7.634  69.804  1.00  0.00    -0.178 A  
ENDBRANCH   8   9
BRANCH   8  15
HETATM   15  C   UNL     1      -8.402   9.465  69.347  1.00  0.00    -0.125 A  
HETATM   16  C   UNL     1      -6.900   7.841  68.321  1.00  0.00    -0.067 A  
HETATM   17  C   UNL     1      -6.047   9.378  69.972  1.00  0.00    -0.040 A  
HETATM   18  C   UNL     1      -5.843   8.318  69.094  1.00  0.00    -0.035 A  
HETATM   19  C   UNL     1      -7.316   9.944  70.101  1.00  0.00    -0.166 A  
HETATM   20  C   UNL     1      -8.167   8.418  68.436  1.00  0.00    -0.124 A  
ENDBRANCH   8  15
ENDBRANCH   4   8
ENDBRANCH   1   2
BRANCH   1  21
HETATM   21  C   UNL     1     -10.933  15.336  67.036  1.00  0.00    -0.324 C  
HETATM   22  C   UNL     1     -10.854  16.283  67.984  1.00  0.00    -0.339 C  
BRANCH  22  23
HETATM   23  C   UNL     1     -10.501  17.659  67.664  1.00  0.00    -0.372 A  
HETATM   24  C   UNL     1     -10.649  18.115  66.349  1.00  0.00    -0.288 A  
HETATM   25  C   UNL     1     -10.318  19.429  66.022  1.00  0.00    -0.584 A  
HETATM   26  C   UNL     1     -10.013  18.525  68.647  1.00  0.00    -0.419 A  
HETATM   27  C   UNL     1      -9.684  19.841  68.317  1.00  0.00    -0.499 A  
HETATM   28  C   UNL     1      -9.839  20.292  67.007  1.00  0.00    -0.607 A  
ENDBRANCH  22  23
ENDBRANCH   1  21
TORSDOF 6
ENDMDL
MODEL       19
REMARK 921   NORMALIZED FREE ENERGY PREDICTED BY IDOCK:   -6.69 KCAL/MOL
REMARK 922        TOTAL FREE ENERGY PREDICTED BY IDOCK:   -8.98 KCAL/MOL
REMARK 923 INTER-LIGAND FREE ENERGY PREDICTED BY IDOCK:   -8.85 KCAL/MOL
REMARK 924 INTRA-LIGAND FREE ENERGY PREDICTED BY IDOCK:   -0.12 KCAL/MOL
REMARK 927      BINDING AFFINITY PREDICTED BY RF-SCORE:    0.00 PKD
ROOT
HETATM    1  C   UNL     1     -10.015   8.145  68.025  1.00  0.00    -0.184 C  
ENDROOT
BRANCH   1   2
HETATM    2  N   UNL     1      -9.488   9.497  68.272  1.00  0.00    -0.133 NA 
HETATM    3  C   UNL     1     -11.562  10.526  69.341  1.00  0.00    -0.246 C  
HETATM    4  N   UNL     1     -11.787  11.494  68.233  1.00  0.00    -0.542 NA 
HETATM    5  C   UNL     1      -9.751  10.421  67.143  1.00  0.00    -0.172 C  
HETATM    6  C   UNL     1     -10.095  10.054  69.502  1.00  0.00    -0.227 C  
HETATM    7  C   UNL     1     -11.222  10.881  67.008  1.00  0.00    -0.137 C  
BRANCH   4   8
HETATM    8  C   UNL     1     -11.198  12.842  68.532  1.00  0.00    -0.279 C  
BRANCH   8   9
HETATM    9  C   UNL     1     -10.948  13.673  67.262  1.00  0.00    -0.299 A  
HETATM   10  C   UNL     1     -11.861  14.781  65.282  1.00  0.00    -0.276 A  
HETATM   11  C   UNL     1      -9.733  14.337  67.027  1.00  0.00    -0.253 A  
HETATM   12  C   UNL     1     -10.657  15.451  65.088  1.00  0.00    -0.458 A  
HETATM   13  C   UNL     1      -9.588  15.215  65.948  1.00  0.00    -0.373 A  
HETATM   14  C   UNL     1     -12.004  13.892  66.352  1.00  0.00    -0.467 A  
ENDBRANCH   8   9
BRANCH   8  15
HETATM   15  C   UNL     1     -12.018  13.574  69.606  1.00  0.00    -0.397 A  
HETATM   16  C   UNL     1     -12.624  15.682  70.672  1.00  0.00    -0.461 A  
HETATM   17  C   UNL     1     -13.080  13.601  71.801  1.00  0.00    -0.468 A  
HETATM   18  C   UNL     1     -13.111  14.992  71.780  1.00  0.00    -0.442 A  
HETATM   19  C   UNL     1     -12.535  12.897  70.726  1.00  0.00    -0.370 A  
HETATM   20  C   UNL     1     -12.093  14.980  69.587  1.00  0.00    -0.337 A  
ENDBRANCH   8  15
ENDBRANCH   4   8
ENDBRANCH   1   2
BRANCH   1  21
HETATM   21  C   UNL     1      -9.887   7.250  69.216  1.00  0.00    -0.166 C  
HETATM   22  C   UNL     1     -10.909   6.518  69.689  1.00  0.00    -0.359 C  
BRANCH  22  23
HETATM   23  C   UNL     1     -10.765   5.674  70.868  1.00  0.00    -0.313 A  
HETATM   24  C   UNL     1     -11.380   6.062  72.064  1.00  0.00    -0.345 A  
HETATM   25  C   UNL     1     -11.257   5.268  73.204  1.00  0.00    -0.382 A  
HETATM   26  C   UNL     1     -10.022   4.492  70.821  1.00  0.00    -0.269 A  
HETATM   27  C   UNL     1      -9.901   3.698  71.963  1.00  0.00    -0.244 A  
HETATM   28  C   UNL     1     -10.520   4.085  73.152  1.00  0.00    -0.251 A  
ENDBRANCH  22  23
ENDBRANCH   1  21
TORSDOF 6
ENDMDL
MODEL       20
REMARK 921   NORMALIZED FREE ENERGY PREDICTED BY IDOCK:   -6.65 KCAL/MOL
REMARK 922        TOTAL FREE ENERGY PREDICTED BY IDOCK:   -8.92 KCAL/MOL
REMARK 923 INTER-LIGAND FREE ENERGY PREDICTED BY IDOCK:   -8.18 KCAL/MOL
REMARK 924 INTRA-LIGAND FREE ENERGY PREDICTED BY IDOCK:   -0.74 KCAL/MOL
REMARK 927      BINDING AFFINITY PREDICTED BY RF-SCORE:    0.00 PKD
ROOT
HETATM    1  C   UNL     1      -8.448   8.904  66.253  1.00  0.00    -0.123 C  
ENDROOT
BRANCH   1   2
HETATM    2  N   UNL     1      -9.079   7.840  67.051  1.00  0.00    -0.133 NA 
HETATM    3  C   UNL     1     -10.408   9.305  68.660  1.00  0.00    -0.205 C  
HETATM    4  N   UNL     1      -9.633   8.882  69.857  1.00  0.00    -0.172 NA 
HETATM    5  C   UNL     1      -8.271   7.468  68.236  1.00  0.00    -0.125 C  
HETATM    6  C   UNL     1     -10.420   8.279  67.499  1.00  0.00    -0.255 C  
HETATM    7  C   UNL     1      -8.281   8.507  69.383  1.00  0.00    -0.114 C  
BRANCH   4   8
HETATM    8  C   UNL     1     -10.313   7.773  70.607  1.00  0.00    -0.202 C  
BRANCH   8   9
HETATM    9  C   UNL     1      -9.488   7.278  71.808  1.00  0.00    -0.162 A  
HETATM   10  C   UNL     1      -8.613   7.700  74.053  1.00  0.00    -0.297 A  
HETATM   11  C   UNL     1      -9.102   5.936  71.951  1.00  0.00    -0.142 A  
HETATM   12  C   UNL     1      -8.268   6.358  74.183  1.00  0.00    -0.123 A  
HETATM   13  C   UNL     1      -8.496   5.481  73.125  1.00  0.00    -0.118 A  
HETATM   14  C   UNL     1      -9.207   8.160  72.873  1.00  0.00    -0.343 A  
ENDBRANCH   8   9
BRANCH   8  15
HETATM   15  C   UNL     1     -11.760   8.153  70.958  1.00  0.00    -0.295 A  
HETATM   16  C   UNL     1     -13.304   9.802  71.876  1.00  0.00    -0.530 A  
HETATM   17  C   UNL     1     -14.005   7.506  71.653  1.00  0.00    -0.523 A  
HETATM   18  C   UNL     1     -14.272   8.814  72.044  1.00  0.00    -0.493 A  
HETATM   19  C   UNL     1     -12.759   7.177  71.118  1.00  0.00    -0.363 A  
HETATM   20  C   UNL     1     -12.062   9.479  71.325  1.00  0.00    -0.443 A  
ENDBRANCH   8  15
ENDBRANCH   4   8
ENDBRANCH   1   2
BRANCH   1  21
HETATM   21  C   UNL     1      -9.447   9.805  65.599  1.00  0.00    -0.307 C  
HETATM   22  C   UNL     1      -9.311  11.141  65.569  1.00  0.00    -0.247 C  
BRANCH  22  23
HETATM   23  C   UNL     1     -10.313  11.998  64.950  1.00  0.00    -0.316 A  
HETATM   24  C   UNL     1     -10.423  13.330  65.364  1.00  0.00    -0.306 A  
HETATM   25  C   UNL     1     -11.374  14.168  64.783  1.00  0.00    -0.371 A  
HETATM   26  C   UNL     1     -11.163  11.508  63.955  1.00  0.00    -0.439 A  
HETATM   27  C   UNL     1     -12.114  12.350  63.373  1.00  0.00    -0.620 A  
HETATM   28  C   UNL     1     -12.216  13.678  63.785  1.00  0.00    -0.413 A  
ENDBRANCH  22  23
ENDBRANCH   1  21
TORSDOF 6
ENDMDL
MODEL       21
REMARK 921   NORMALIZED FREE ENERGY PREDICTED BY IDOCK:   -6.63 KCAL/MOL
REMARK 922        TOTAL FREE ENERGY PREDICTED BY IDOCK:   -8.89 KCAL/MOL
REMARK 923 INTER-LIGAND FREE ENERGY PREDICTED BY IDOCK:   -9.28 KCAL/MOL
REMARK 924 INTRA-LIGAND FREE ENERGY PREDICTED BY IDOCK:    0.39 KCAL/MOL
REMARK 927      BINDING AFFINITY PREDICTED BY RF-SCORE:    0.00 PKD
ROOT
HETATM    1  C   UNL     1     -11.892  13.081  63.457  1.00  0.00    -0.516 C  
ENDROOT
BRANCH   1   2
HETATM    2  N   UNL     1     -12.497  14.021  64.414  1.00  0.00    -0.669 NA 
HETATM    3  C   UNL     1     -10.388  14.680  65.688  1.00  0.00    -0.351 C  
HETATM    4  N   UNL     1     -10.836  14.065  66.966  1.00  0.00    -0.288 NA 
HETATM    5  C   UNL     1     -12.912  13.358  65.672  1.00  0.00    -0.077 C  
HETATM    6  C   UNL     1     -11.534  15.100  64.732  1.00  0.00    -0.383 C  
HETATM    7  C   UNL     1     -11.750  12.954  66.610  1.00  0.00    -0.390 C  
BRANCH   4   8
HETATM    8  C   UNL     1     -11.474  15.069  67.882  1.00  0.00    -0.340 C  
BRANCH   8   9
HETATM    9  C   UNL     1     -11.907  14.454  69.224  1.00  0.00    -0.365 A  
HETATM   10  C   UNL     1     -13.196  14.657  71.292  1.00  0.00    -0.432 A  
HETATM   11  C   UNL     1     -11.710  13.096  69.525  1.00  0.00    -0.382 A  
HETATM   12  C   UNL     1     -13.013  13.302  71.553  1.00  0.00    -0.426 A  
HETATM   13  C   UNL     1     -12.255  12.527  70.680  1.00  0.00    -0.365 A  
HETATM   14  C   UNL     1     -12.639  15.232  70.145  1.00  0.00    -0.334 A  
ENDBRANCH   8   9
BRANCH   8  15
HETATM   15  C   UNL     1     -10.592  16.320  68.025  1.00  0.00    -0.308 A  
HETATM   16  C   UNL     1     -10.162  18.635  67.391  1.00  0.00    -0.422 A  
HETATM   17  C   UNL     1      -8.409  17.334  68.413  1.00  0.00    -0.261 A  
HETATM   18  C   UNL     1      -8.851  18.526  67.847  1.00  0.00    -0.301 A  
HETATM   19  C   UNL     1      -9.270  16.239  68.498  1.00  0.00    -0.211 A  
HETATM   20  C   UNL     1     -11.032  17.546  67.490  1.00  0.00    -0.088 A  
ENDBRANCH   8  15
ENDBRANCH   4   8
ENDBRANCH   1   2
BRANCH   1  21
HETATM   21  C   UNL     1     -11.339  11.859  64.118  1.00  0.00    -0.455 C  
HETATM   22  C   UNL     1     -10.117  11.374  63.845  1.00  0.00    -0.393 C  
BRANCH  22  23
HETATM   23  C   UNL     1      -9.613  10.165  64.484  1.00  0.00    -0.376 A  
HETATM   24  C   UNL     1     -10.109   9.799  65.740  1.00  0.00    -0.308 A  
HETATM   25  C   UNL     1      -9.642   8.645  66.369  1.00  0.00    -0.316 A  
HETATM   26  C   UNL     1      -8.642   9.375  63.864  1.00  0.00    -0.225 A  
HETATM   27  C   UNL     1      -8.176   8.219  64.495  1.00  0.00    -0.138 A  
HETATM   28  C   UNL     1      -8.678   7.854  65.744  1.00  0.00    -0.163 A  
ENDBRANCH  22  23
ENDBRANCH   1  21
TORSDOF 6
ENDMDL
MODEL       22
REMARK 921   NORMALIZED FREE ENERGY PREDICTED BY IDOCK:   -6.58 KCAL/MOL
REMARK 922        TOTAL FREE ENERGY PREDICTED BY IDOCK:   -8.83 KCAL/MOL
REMARK 923 INTER-LIGAND FREE ENERGY PREDICTED BY IDOCK:   -8.85 KCAL/MOL
REMARK 924 INTRA-LIGAND FREE ENERGY PREDICTED BY IDOCK:    0.02 KCAL/MOL
REMARK 927      BINDING AFFINITY PREDICTED BY RF-SCORE:    0.00 PKD
ROOT
HETATM    1  C   UNL     1      -9.374  18.982  66.533  1.00  0.00    -0.340 C  
ENDROOT
BRANCH   1   2
HETATM    2  N   UNL     1     -10.622  18.203  66.539  1.00  0.00    -0.323 NA 
HETATM    3  C   UNL     1      -9.857  16.267  68.013  1.00  0.00    -0.236 C  
HETATM    4  N   UNL     1      -9.964  15.255  66.928  1.00  0.00    -0.236 NA 
HETATM    5  C   UNL     1     -10.669  17.203  65.446  1.00  0.00    -0.088 C  
HETATM    6  C   UNL     1     -10.771  17.507  67.837  1.00  0.00    -0.339 C  
HETATM    7  C   UNL     1      -9.752  15.973  65.650  1.00  0.00    -0.238 C  
BRANCH   4   8
HETATM    8  C   UNL     1     -11.272  14.520  66.969  1.00  0.00    -0.337 C  
BRANCH   8   9
HETATM    9  C   UNL     1     -11.467  13.590  65.759  1.00  0.00    -0.331 A  
HETATM   10  C   UNL     1     -12.992  12.525  64.171  1.00  0.00    -0.233 A  
HETATM   11  C   UNL     1     -10.397  13.187  64.944  1.00  0.00    -0.352 A  
HETATM   12  C   UNL     1     -11.917  12.162  63.364  1.00  0.00    -0.578 A  
HETATM   13  C   UNL     1     -10.619  12.477  63.760  1.00  0.00    -0.471 A  
HETATM   14  C   UNL     1     -12.770  13.222  65.363  1.00  0.00    -0.460 A  
ENDBRANCH   8   9
BRANCH   8  15
HETATM   15  C   UNL     1     -11.470  13.826  68.327  1.00  0.00    -0.348 A  
HETATM   16  C   UNL     1     -11.370  11.773  69.639  1.00  0.00    -0.287 A  
HETATM   17  C   UNL     1     -12.636  13.653  70.461  1.00  0.00    -0.337 A  
HETATM   18  C   UNL     1     -12.193  12.343  70.608  1.00  0.00    -0.368 A  
HETATM   19  C   UNL     1     -12.282  14.388  69.329  1.00  0.00    -0.274 A  
HETATM   20  C   UNL     1     -11.000  12.512  68.512  1.00  0.00    -0.280 A  
ENDBRANCH   8  15
ENDBRANCH   4   8
ENDBRANCH   1   2
BRANCH   1  21
HETATM   21  C   UNL     1      -8.598  18.841  67.804  1.00  0.00    -0.305 C  
HETATM   22  C   UNL     1      -7.336  19.279  67.939  1.00  0.00    -0.289 C  
BRANCH  22  23
HETATM   23  C   UNL     1      -6.594  19.105  69.180  1.00  0.00    -0.336 A  
HETATM   24  C   UNL     1      -6.380  20.211  70.010  1.00  0.00    -0.358 A  
HETATM   25  C   UNL     1      -5.674  20.066  71.204  1.00  0.00    -0.357 A  
HETATM   26  C   UNL     1      -6.091  17.854  69.549  1.00  0.00    -0.249 A  
HETATM   27  C   UNL     1      -5.385  17.710  70.745  1.00  0.00    -0.226 A  
HETATM   28  C   UNL     1      -5.180  18.814  71.572  1.00  0.00    -0.272 A  
ENDBRANCH  22  23
ENDBRANCH   1  21
TORSDOF 6
ENDMDL
MODEL       23
REMARK 921   NORMALIZED FREE ENERGY PREDICTED BY IDOCK:   -6.57 KCAL/MOL
REMARK 922        TOTAL FREE ENERGY PREDICTED BY IDOCK:   -8.82 KCAL/MOL
REMARK 923 INTER-LIGAND FREE ENERGY PREDICTED BY IDOCK:   -7.95 KCAL/MOL
REMARK 924 INTRA-LIGAND FREE ENERGY PREDICTED BY IDOCK:   -0.87 KCAL/MOL
REMARK 927      BINDING AFFINITY PREDICTED BY RF-SCORE:    0.00 PKD
ROOT
HETATM    1  C   UNL     1     -13.076   9.436  71.584  1.00  0.00    -0.394 C  
ENDROOT
BRANCH   1   2
HETATM    2  N   UNL     1     -11.920   8.721  72.146  1.00  0.00    -0.366 NA 
HETATM    3  C   UNL     1     -10.487   8.593  70.041  1.00  0.00    -0.223 C  
HETATM    4  N   UNL     1     -10.565   7.110  69.946  1.00  0.00    -0.224 NA 
HETATM    5  C   UNL     1     -12.045   7.250  72.014  1.00  0.00    -0.290 C  
HETATM    6  C   UNL     1     -10.680   9.163  71.469  1.00  0.00    -0.367 C  
HETATM    7  C   UNL     1     -11.842   6.706  70.579  1.00  0.00    -0.370 C  
BRANCH   4   8
HETATM    8  C   UNL     1      -9.373   6.441  70.568  1.00  0.00    -0.162 C  
BRANCH   8   9
HETATM    9  C   UNL     1      -9.545   4.917  70.686  1.00  0.00    -0.254 A  
HETATM   10  C   UNL     1      -9.435   2.717  69.622  1.00  0.00    -0.148 A  
HETATM   11  C   UNL     1      -9.664   4.270  71.926  1.00  0.00    -0.231 A  
HETATM   12  C   UNL     1      -9.523   2.099  70.866  1.00  0.00    -0.209 A  
HETATM   13  C   UNL     1      -9.656   2.874  72.015  1.00  0.00    -0.213 A  
HETATM   14  C   UNL     1      -9.457   4.113  69.530  1.00  0.00    -0.254 A  
ENDBRANCH   8   9
BRANCH   8  15
HETATM   15  C   UNL     1      -8.074   6.870  69.866  1.00  0.00    -0.125 A  
HETATM   16  C   UNL     1      -5.926   8.015  70.004  1.00  0.00    -0.022 A  
HETATM   17  C   UNL     1      -6.886   7.536  67.844  1.00  0.00    -0.071 A  
HETATM   18  C   UNL     1      -5.866   8.088  68.614  1.00  0.00    -0.039 A  
HETATM   19  C   UNL     1      -7.983   6.936  68.464  1.00  0.00    -0.120 A  
HETATM   20  C   UNL     1      -7.015   7.399  70.627  1.00  0.00    -0.052 A  
ENDBRANCH   8  15
ENDBRANCH   4   8
ENDBRANCH   1   2
BRANCH   1  21
HETATM   21  C   UNL     1     -13.061  10.898  71.898  1.00  0.00    -0.537 C  
HETATM   22  C   UNL     1     -12.842  11.840  70.966  1.00  0.00    -0.309 C  
BRANCH  22  23
HETATM   23  C   UNL     1     -12.805  13.257  71.305  1.00  0.00    -0.398 A  
HETATM   24  C   UNL     1     -13.666  13.746  72.293  1.00  0.00    -0.673 A  
HETATM   25  C   UNL     1     -13.645  15.098  72.634  1.00  0.00    -0.594 A  
HETATM   26  C   UNL     1     -11.928  14.129  70.654  1.00  0.00    -0.385 A  
HETATM   27  C   UNL     1     -11.909  15.482  70.998  1.00  0.00    -0.427 A  
HETATM   28  C   UNL     1     -12.764  15.965  71.988  1.00  0.00    -0.495 A  
ENDBRANCH  22  23
ENDBRANCH   1  21
TORSDOF 6
ENDMDL
MODEL       24
REMARK 921   NORMALIZED FREE ENERGY PREDICTED BY IDOCK:   -6.57 KCAL/MOL
REMARK 922        TOTAL FREE ENERGY PREDICTED BY IDOCK:   -8.82 KCAL/MOL
REMARK 923 INTER-LIGAND FREE ENERGY PREDICTED BY IDOCK:   -9.02 KCAL/MOL
REMARK 924 INTRA-LIGAND FREE ENERGY PREDICTED BY IDOCK:    0.20 KCAL/MOL
REMARK 927      BINDING AFFINITY PREDICTED BY RF-SCORE:    0.00 PKD
ROOT
HETATM    1  C   UNL     1     -10.529  12.708  64.084  1.00  0.00    -0.413 C  
ENDROOT
BRANCH   1   2
HETATM    2  N   UNL     1     -11.393  13.721  64.711  1.00  0.00    -0.346 NA 
HETATM    3  C   UNL     1      -9.585  15.126  65.833  1.00  0.00    -0.338 C  
HETATM    4  N   UNL     1     -10.032  14.796  67.213  1.00  0.00    -0.230 NA 
HETATM    5  C   UNL     1     -11.797  13.347  66.087  1.00  0.00    -0.385 C  
HETATM    6  C   UNL     1     -10.690  15.023  64.751  1.00  0.00    -0.330 C  
HETATM    7  C   UNL     1     -10.677  13.464  67.148  1.00  0.00    -0.264 C  
BRANCH   4   8
HETATM    8  C   UNL     1     -10.936  15.851  67.782  1.00  0.00    -0.315 C  
BRANCH   8   9
HETATM    9  C   UNL     1     -11.456  15.492  69.184  1.00  0.00    -0.356 A  
HETATM   10  C   UNL     1     -12.531  13.860  70.655  1.00  0.00    -0.436 A  
HETATM   11  C   UNL     1     -11.117  16.239  70.324  1.00  0.00    -0.340 A  
HETATM   12  C   UNL     1     -12.158  14.603  71.771  1.00  0.00    -0.391 A  
HETATM   13  C   UNL     1     -11.468  15.801  71.604  1.00  0.00    -0.495 A  
HETATM   14  C   UNL     1     -12.194  14.305  69.372  1.00  0.00    -0.319 A  
ENDBRANCH   8   9
BRANCH   8  15
HETATM   15  C   UNL     1     -10.283  17.240  67.695  1.00  0.00    -0.333 A  
HETATM   16  C   UNL     1      -8.413  18.690  68.284  1.00  0.00    -0.350 A  
HETATM   17  C   UNL     1     -10.485  19.664  67.528  1.00  0.00    -0.589 A  
HETATM   18  C   UNL     1      -9.182  19.815  67.991  1.00  0.00    -0.425 A  
HETATM   19  C   UNL     1     -11.033  18.388  67.385  1.00  0.00    -0.163 A  
HETATM   20  C   UNL     1      -8.953  17.412  68.125  1.00  0.00    -0.260 A  
ENDBRANCH   8  15
ENDBRANCH   4   8
ENDBRANCH   1   2
BRANCH   1  21
HETATM   21  C   UNL     1     -10.590  11.386  64.781  1.00  0.00    -0.377 C  
HETATM   22  C   UNL     1      -9.519  10.589  64.923  1.00  0.00    -0.304 C  
BRANCH  22  23
HETATM   23  C   UNL     1      -9.612   9.293  65.582  1.00  0.00    -0.324 A  
HETATM   24  C   UNL     1      -8.656   8.311  65.297  1.00  0.00    -0.159 A  
HETATM   25  C   UNL     1      -8.725   7.065  65.918  1.00  0.00    -0.140 A  
HETATM   26  C   UNL     1     -10.639   9.018  66.488  1.00  0.00    -0.076 A  
HETATM   27  C   UNL     1     -10.706   7.770  67.110  1.00  0.00    -0.337 A  
HETATM   28  C   UNL     1      -9.748   6.796  66.827  1.00  0.00    -0.222 A  
ENDBRANCH  22  23
ENDBRANCH   1  21
TORSDOF 6
ENDMDL
MODEL       25
REMARK 921   NORMALIZED FREE ENERGY PREDICTED BY IDOCK:   -6.56 KCAL/MOL
REMARK 922        TOTAL FREE ENERGY PREDICTED BY IDOCK:   -8.80 KCAL/MOL
REMARK 923 INTER-LIGAND FREE ENERGY PREDICTED BY IDOCK:   -8.72 KCAL/MOL
REMARK 924 INTRA-LIGAND FREE ENERGY PREDICTED BY IDOCK:   -0.08 KCAL/MOL
REMARK 927      BINDING AFFINITY PREDICTED BY RF-SCORE:    0.00 PKD
ROOT
HETATM    1  C   UNL     1     -10.656   7.802  69.625  1.00  0.00    -0.242 C  
ENDROOT
BRANCH   1   2
HETATM    2  N   UNL     1     -10.109   9.144  69.877  1.00  0.00    -0.192 NA 
HETATM    3  C   UNL     1     -12.301  10.382  70.280  1.00  0.00    -0.250 C  
HETATM    4  N   UNL     1     -12.168  11.238  69.071  1.00  0.00    -0.464 NA 
HETATM    5  C   UNL     1     -10.010   9.956  68.641  1.00  0.00    -0.164 C  
HETATM    6  C   UNL     1     -10.961   9.857  70.855  1.00  0.00    -0.322 C  
HETATM    7  C   UNL     1     -11.361  10.473  68.091  1.00  0.00    -0.254 C  
BRANCH   4   8
HETATM    8  C   UNL     1     -11.573  12.579  69.390  1.00  0.00    -0.305 C  
BRANCH   8   9
HETATM    9  C   UNL     1     -11.172  13.363  68.129  1.00  0.00    -0.304 A  
HETATM   10  C   UNL     1      -9.395  14.223  66.685  1.00  0.00    -0.302 A  
HETATM   11  C   UNL     1     -12.095  13.687  67.122  1.00  0.00    -0.404 A  
HETATM   12  C   UNL     1     -10.325  14.507  65.690  1.00  0.00    -0.367 A  
HETATM   13  C   UNL     1     -11.676  14.256  65.916  1.00  0.00    -0.375 A  
HETATM   14  C   UNL     1      -9.813  13.667  67.898  1.00  0.00    -0.237 A  
ENDBRANCH   8   9
BRANCH   8  15
HETATM   15  C   UNL     1     -12.476  13.365  70.354  1.00  0.00    -0.322 A  
HETATM   16  C   UNL     1     -13.140  15.523  71.276  1.00  0.00    -0.581 A  
HETATM   17  C   UNL     1     -13.737  13.495  72.436  1.00  0.00    -0.704 A  
HETATM   18  C   UNL     1     -13.740  14.884  72.359  1.00  0.00    -0.576 A  
HETATM   19  C   UNL     1     -13.108  12.742  71.444  1.00  0.00    -0.318 A  
HETATM   20  C   UNL     1     -12.523  14.770  70.273  1.00  0.00    -0.393 A  
ENDBRANCH   8  15
ENDBRANCH   4   8
ENDBRANCH   1   2
BRANCH   1  21
HETATM   21  C   UNL     1     -10.008   7.124  68.459  1.00  0.00    -0.163 C  
HETATM   22  C   UNL     1     -10.703   6.428  67.544  1.00  0.00    -0.396 C  
BRANCH  22  23
HETATM   23  C   UNL     1     -10.044   5.754  66.434  1.00  0.00    -0.182 A  
HETATM   24  C   UNL     1      -8.837   6.265  65.943  1.00  0.00    -0.148 A  
HETATM   25  C   UNL     1      -8.189   5.634  64.882  1.00  0.00    -0.134 A  
HETATM   26  C   UNL     1     -10.601   4.612  65.852  1.00  0.00    -0.265 A  
HETATM   27  C   UNL     1      -9.950   3.981  64.790  1.00  0.00    -0.210 A  
HETATM   28  C   UNL     1      -8.744   4.490  64.308  1.00  0.00    -0.146 A  
ENDBRANCH  22  23
ENDBRANCH   1  21
TORSDOF 6
ENDMDL
MODEL       26
REMARK 921   NORMALIZED FREE ENERGY PREDICTED BY IDOCK:   -6.55 KCAL/MOL
REMARK 922        TOTAL FREE ENERGY PREDICTED BY IDOCK:   -8.78 KCAL/MOL
REMARK 923 INTER-LIGAND FREE ENERGY PREDICTED BY IDOCK:   -8.01 KCAL/MOL
REMARK 924 INTRA-LIGAND FREE ENERGY PREDICTED BY IDOCK:   -0.78 KCAL/MOL
REMARK 927      BINDING AFFINITY PREDICTED BY RF-SCORE:    0.00 PKD
ROOT
HETATM    1  C   UNL     1     -11.256  13.932  67.424  1.00  0.00    -0.312 C  
ENDROOT
BRANCH   1   2
HETATM    2  N   UNL     1     -10.096  13.089  67.754  1.00  0.00    -0.224 NA 
HETATM    3  C   UNL     1     -10.067  11.639  65.656  1.00  0.00    -0.240 C  
HETATM    4  N   UNL     1     -10.397  10.386  66.385  1.00  0.00    -0.232 NA 
HETATM    5  C   UNL     1     -10.483  11.849  68.467  1.00  0.00    -0.224 C  
HETATM    6  C   UNL     1      -9.372  12.726  66.514  1.00  0.00    -0.221 C  
HETATM    7  C   UNL     1     -11.171  10.779  67.586  1.00  0.00    -0.299 C  
BRANCH   4   8
HETATM    8  C   UNL     1      -9.170   9.589  66.721  1.00  0.00    -0.149 C  
BRANCH   8   9
HETATM    9  C   UNL     1      -9.502   8.254  67.412  1.00  0.00    -0.188 A  
HETATM   10  C   UNL     1      -9.234   6.785  69.348  1.00  0.00    -0.143 A  
HETATM   11  C   UNL     1     -10.540   7.419  66.969  1.00  0.00    -0.414 A  
HETATM   12  C   UNL     1     -10.286   5.989  68.904  1.00  0.00    -0.273 A  
HETATM   13  C   UNL     1     -10.926   6.296  67.706  1.00  0.00    -0.427 A  
HETATM   14  C   UNL     1      -8.837   7.901  68.604  1.00  0.00    -0.134 A  
ENDBRANCH   8   9
BRANCH   8  15
HETATM   15  C   UNL     1      -8.254   9.446  65.495  1.00  0.00    -0.127 A  
HETATM   16  C   UNL     1      -6.197  10.097  64.358  1.00  0.00    -0.133 A  
HETATM   17  C   UNL     1      -7.967   9.038  63.109  1.00  0.00    -0.151 A  
HETATM   18  C   UNL     1      -6.704   9.622  63.151  1.00  0.00    -0.109 A  
HETATM   19  C   UNL     1      -8.737   8.954  64.269  1.00  0.00    -0.095 A  
HETATM   20  C   UNL     1      -6.959   9.999  65.525  1.00  0.00    -0.124 A  
ENDBRANCH   8  15
ENDBRANCH   4   8
ENDBRANCH   1   2
BRANCH   1  21
HETATM   21  C   UNL     1     -12.049  14.321  68.630  1.00  0.00    -0.295 C  
HETATM   22  C   UNL     1     -11.503  14.930  69.695  1.00  0.00    -0.325 C  
BRANCH  22  23
HETATM   23  C   UNL     1     -12.294  15.274  70.870  1.00  0.00    -0.433 A  
HETATM   24  C   UNL     1     -11.668  15.895  71.957  1.00  0.00    -0.588 A  
HETATM   25  C   UNL     1     -12.407  16.234  73.090  1.00  0.00    -0.598 A  
HETATM   26  C   UNL     1     -13.660  14.989  70.926  1.00  0.00    -0.363 A  
HETATM   27  C   UNL     1     -14.398  15.330  72.061  1.00  0.00    -0.689 A  
HETATM   28  C   UNL     1     -13.772  15.954  73.140  1.00  0.00    -0.499 A  
ENDBRANCH  22  23
ENDBRANCH   1  21
TORSDOF 6
ENDMDL
MODEL       27
REMARK 921   NORMALIZED FREE ENERGY PREDICTED BY IDOCK:   -6.54 KCAL/MOL
REMARK 922        TOTAL FREE ENERGY PREDICTED BY IDOCK:   -8.78 KCAL/MOL
REMARK 923 INTER-LIGAND FREE ENERGY PREDICTED BY IDOCK:   -8.14 KCAL/MOL
REMARK 924 INTRA-LIGAND FREE ENERGY PREDICTED BY IDOCK:   -0.64 KCAL/MOL
REMARK 927      BINDING AFFINITY PREDICTED BY RF-SCORE:    0.00 PKD
ROOT
HETATM    1  C   UNL     1      -9.972   8.871  67.731  1.00  0.00    -0.192 C  
ENDROOT
BRANCH   1   2
HETATM    2  N   UNL     1     -11.158   9.742  67.728  1.00  0.00    -0.180 NA 
HETATM    3  C   UNL     1     -10.040  11.908  66.977  1.00  0.00    -0.205 C  
HETATM    4  N   UNL     1     -10.297  12.614  68.260  1.00  0.00    -0.236 NA 
HETATM    5  C   UNL     1     -11.359  10.429  69.025  1.00  0.00    -0.219 C  
HETATM    6  C   UNL     1     -11.030  10.758  66.658  1.00  0.00    -0.106 C  
HETATM    7  C   UNL     1     -10.361  11.576  69.316  1.00  0.00     0.024 C  
BRANCH   4   8
HETATM    8  C   UNL     1     -11.538  13.458  68.202  1.00  0.00    -0.341 C  
BRANCH   8   9
HETATM    9  C   UNL     1     -11.803  14.212  69.516  1.00  0.00    -0.373 A  
HETATM   10  C   UNL     1     -11.321  16.133  70.951  1.00  0.00    -0.394 A  
HETATM   11  C   UNL     1     -12.900  13.919  70.341  1.00  0.00    -0.200 A  
HETATM   12  C   UNL     1     -12.432  15.839  71.737  1.00  0.00    -0.524 A  
HETATM   13  C   UNL     1     -13.210  14.722  71.443  1.00  0.00    -0.442 A  
HETATM   14  C   UNL     1     -11.001  15.322  69.858  1.00  0.00    -0.303 A  
ENDBRANCH   8   9
BRANCH   8  15
HETATM   15  C   UNL     1     -11.532  14.358  66.956  1.00  0.00    -0.376 A  
HETATM   16  C   UNL     1     -12.294  14.739  64.671  1.00  0.00    -0.346 A  
HETATM   17  C   UNL     1     -10.396  15.963  65.515  1.00  0.00    -0.425 A  
HETATM   18  C   UNL     1     -11.273  15.666  64.476  1.00  0.00    -0.337 A  
HETATM   19  C   UNL     1     -10.522  15.313  66.743  1.00  0.00    -0.293 A  
HETATM   20  C   UNL     1     -12.432  14.099  65.905  1.00  0.00    -0.479 A  
ENDBRANCH   8  15
ENDBRANCH   4   8
ENDBRANCH   1   2
BRANCH   1  21
HETATM   21  C   UNL     1      -9.888   8.014  68.955  1.00  0.00    -0.176 C  
HETATM   22  C   UNL     1     -10.600   6.885  69.102  1.00  0.00    -0.245 C  
BRANCH  22  23
HETATM   23  C   UNL     1     -10.520   6.083  70.316  1.00  0.00    -0.305 A  
HETATM   24  C   UNL     1     -11.279   6.455  71.432  1.00  0.00    -0.340 A  
HETATM   25  C   UNL     1     -11.219   5.700  72.603  1.00  0.00    -0.350 A  
HETATM   26  C   UNL     1      -9.697   4.956  70.381  1.00  0.00    -0.284 A  
HETATM   27  C   UNL     1      -9.639   4.202  71.555  1.00  0.00    -0.238 A  
HETATM   28  C   UNL     1     -10.402   4.572  72.662  1.00  0.00    -0.252 A  
ENDBRANCH  22  23
ENDBRANCH   1  21
TORSDOF 6
ENDMDL
MODEL       28
REMARK 921   NORMALIZED FREE ENERGY PREDICTED BY IDOCK:   -6.54 KCAL/MOL
REMARK 922        TOTAL FREE ENERGY PREDICTED BY IDOCK:   -8.77 KCAL/MOL
REMARK 923 INTER-LIGAND FREE ENERGY PREDICTED BY IDOCK:   -8.09 KCAL/MOL
REMARK 924 INTRA-LIGAND FREE ENERGY PREDICTED BY IDOCK:   -0.69 KCAL/MOL
REMARK 927      BINDING AFFINITY PREDICTED BY RF-SCORE:    0.00 PKD
ROOT
HETATM    1  C   UNL     1      -8.123  10.099  67.154  1.00  0.00    -0.120 C  
ENDROOT
BRANCH   1   2
HETATM    2  N   UNL     1      -8.261   9.981  68.614  1.00  0.00    -0.106 NA 
HETATM    3  C   UNL     1      -8.879   7.510  68.741  1.00  0.00    -0.131 C  
HETATM    4  N   UNL     1     -10.249   7.767  69.260  1.00  0.00    -0.207 NA 
HETATM    5  C   UNL     1      -9.646  10.234  69.074  1.00  0.00    -0.203 C  
HETATM    6  C   UNL     1      -7.848   8.626  69.047  1.00  0.00    -0.100 C  
HETATM    7  C   UNL     1     -10.654   9.102  68.761  1.00  0.00    -0.181 C  
BRANCH   4   8
HETATM    8  C   UNL     1     -10.314   7.665  70.757  1.00  0.00    -0.203 C  
BRANCH   8   9
HETATM    9  C   UNL     1     -11.720   7.957  71.309  1.00  0.00    -0.313 A  
HETATM   10  C   UNL     1     -13.332   9.594  72.149  1.00  0.00    -0.545 A  
HETATM   11  C   UNL     1     -12.766   7.024  71.229  1.00  0.00    -0.400 A  
HETATM   12  C   UNL     1     -14.358   8.660  72.032  1.00  0.00    -0.512 A  
HETATM   13  C   UNL     1     -14.072   7.371  71.590  1.00  0.00    -0.552 A  
HETATM   14  C   UNL     1     -12.023   9.244  71.802  1.00  0.00    -0.455 A  
ENDBRANCH   8   9
BRANCH   8  15
HETATM   15  C   UNL     1      -9.717   6.334  71.243  1.00  0.00    -0.193 A  
HETATM   16  C   UNL     1      -9.779   3.896  71.199  1.00  0.00    -0.248 A  
HETATM   17  C   UNL     1      -8.589   5.028  72.964  1.00  0.00    -0.114 A  
HETATM   18  C   UNL     1      -9.022   3.848  72.367  1.00  0.00    -0.134 A  
HETATM   19  C   UNL     1      -8.936   6.260  72.410  1.00  0.00    -0.138 A  
HETATM   20  C   UNL     1     -10.114   5.129  70.632  1.00  0.00    -0.309 A  
ENDBRANCH   8  15
ENDBRANCH   4   8
ENDBRANCH   1   2
BRANCH   1  21
HETATM   21  C   UNL     1      -8.979  11.183  66.579  1.00  0.00    -0.185 C  
HETATM   22  C   UNL     1      -9.822  10.978  65.554  1.00  0.00    -0.292 C  
BRANCH  22  23
HETATM   23  C   UNL     1     -10.625  12.057  64.995  1.00  0.00    -0.332 A  
HETATM   24  C   UNL     1     -10.614  13.310  65.618  1.00  0.00    -0.291 A  
HETATM   25  C   UNL     1     -11.374  14.358  65.099  1.00  0.00    -0.359 A  
HETATM   26  C   UNL     1     -11.405  11.857  63.853  1.00  0.00    -0.509 A  
HETATM   27  C   UNL     1     -12.164  12.908  63.335  1.00  0.00    -0.574 A  
HETATM   28  C   UNL     1     -12.146  14.157  63.955  1.00  0.00    -0.382 A  
ENDBRANCH  22  23
ENDBRANCH   1  21
TORSDOF 6
ENDMDL
MODEL       29
REMARK 921   NORMALIZED FREE ENERGY PREDICTED BY IDOCK:   -6.52 KCAL/MOL
REMARK 922        TOTAL FREE ENERGY PREDICTED BY IDOCK:   -8.74 KCAL/MOL
REMARK 923 INTER-LIGAND FREE ENERGY PREDICTED BY IDOCK:   -8.27 KCAL/MOL
REMARK 924 INTRA-LIGAND FREE ENERGY PREDICTED BY IDOCK:   -0.47 KCAL/MOL
REMARK 927      BINDING AFFINITY PREDICTED BY RF-SCORE:    0.00 PKD
ROOT
HETATM    1  C   UNL     1     -12.210  13.222  70.599  1.00  0.00    -0.338 C  
ENDROOT
BRANCH   1   2
HETATM    2  N   UNL     1     -11.117  13.173  69.615  1.00  0.00    -0.012 NA 
HETATM    3  C   UNL     1     -11.013  15.654  69.033  1.00  0.00    -0.263 C  
HETATM    4  N   UNL     1     -11.451  15.453  67.625  1.00  0.00    -0.298 NA 
HETATM    5  C   UNL     1     -11.610  12.985  68.230  1.00  0.00    -0.340 C  
HETATM    6  C   UNL     1     -10.328  14.424  69.681  1.00  0.00     0.136 C  
HETATM    7  C   UNL     1     -12.285  14.229  67.605  1.00  0.00    -0.179 C  
BRANCH   4   8
HETATM    8  C   UNL     1     -10.288  15.378  66.678  1.00  0.00    -0.280 C  
BRANCH   8   9
HETATM    9  C   UNL     1     -10.591  14.522  65.436  1.00  0.00    -0.385 A  
HETATM   10  C   UNL     1     -10.074  12.549  64.086  1.00  0.00    -0.311 A  
HETATM   11  C   UNL     1     -11.765  14.684  64.682  1.00  0.00    -0.431 A  
HETATM   12  C   UNL     1     -11.259  12.713  63.373  1.00  0.00    -0.404 A  
HETATM   13  C   UNL     1     -12.093  13.790  63.659  1.00  0.00    -0.330 A  
HETATM   14  C   UNL     1      -9.737  13.451  65.101  1.00  0.00     0.036 A  
ENDBRANCH   8   9
BRANCH   8  15
HETATM   15  C   UNL     1      -9.752  16.782  66.353  1.00  0.00    -0.309 A  
HETATM   16  C   UNL     1      -7.846  18.299  66.247  1.00  0.00    -0.279 A  
HETATM   17  C   UNL     1     -10.085  19.194  66.229  1.00  0.00    -0.499 A  
HETATM   18  C   UNL     1      -8.708  19.393  66.217  1.00  0.00    -0.364 A  
HETATM   19  C   UNL     1     -10.603  17.900  66.300  1.00  0.00    -0.241 A  
HETATM   20  C   UNL     1      -8.363  17.002  66.301  1.00  0.00    -0.308 A  
ENDBRANCH   8  15
ENDBRANCH   4   8
ENDBRANCH   1   2
BRANCH   1  21
HETATM   21  C   UNL     1     -12.721  11.865  70.963  1.00  0.00    -0.354 C  
HETATM   22  C   UNL     1     -11.974  10.754  70.856  1.00  0.00    -0.438 C  
BRANCH  22  23
HETATM   23  C   UNL     1     -12.505   9.439  71.191  1.00  0.00    -0.370 A  
HETATM   24  C   UNL     1     -13.754   9.346  71.816  1.00  0.00    -0.418 A  
HETATM   25  C   UNL     1     -14.282   8.098  72.144  1.00  0.00    -0.427 A  
HETATM   26  C   UNL     1     -11.785   8.277  70.903  1.00  0.00    -0.256 A  
HETATM   27  C   UNL     1     -12.316   7.028  71.232  1.00  0.00    -0.426 A  
HETATM   28  C   UNL     1     -13.564   6.939  71.849  1.00  0.00    -0.186 A  
ENDBRANCH  22  23
ENDBRANCH   1  21
TORSDOF 6
ENDMDL
MODEL       30
REMARK 921   NORMALIZED FREE ENERGY PREDICTED BY IDOCK:   -6.50 KCAL/MOL
REMARK 922        TOTAL FREE ENERGY PREDICTED BY IDOCK:   -8.72 KCAL/MOL
REMARK 923 INTER-LIGAND FREE ENERGY PREDICTED BY IDOCK:   -7.96 KCAL/MOL
REMARK 924 INTRA-LIGAND FREE ENERGY PREDICTED BY IDOCK:   -0.76 KCAL/MOL
REMARK 927      BINDING AFFINITY PREDICTED BY RF-SCORE:    0.00 PKD
ROOT
HETATM    1  C   UNL     1     -10.267  10.527  67.129  1.00  0.00    -0.223 C  
ENDROOT
BRANCH   1   2
HETATM    2  N   UNL     1      -9.679  11.450  68.112  1.00  0.00    -0.186 NA 
HETATM    3  C   UNL     1     -11.837  12.346  69.134  1.00  0.00    -0.300 C  
HETATM    4  N   UNL     1     -11.625  13.732  68.637  1.00  0.00    -0.310 NA 
HETATM    5  C   UNL     1      -9.503  12.818  67.569  1.00  0.00    -0.187 C  
HETATM    6  C   UNL     1     -10.541  11.516  69.314  1.00  0.00    -0.078 C  
HETATM    7  C   UNL     1     -10.811  13.627  67.404  1.00  0.00    -0.273 C  
BRANCH   4   8
HETATM    8  C   UNL     1     -10.993  14.614  69.675  1.00  0.00    -0.226 C  
BRANCH   8   9
HETATM    9  C   UNL     1     -10.387  15.894  69.075  1.00  0.00    -0.231 A  
HETATM   10  C   UNL     1      -8.392  17.188  68.502  1.00  0.00    -0.262 A  
HETATM   11  C   UNL     1     -11.144  16.792  68.305  1.00  0.00    -0.259 A  
HETATM   12  C   UNL     1      -9.159  18.047  67.721  1.00  0.00    -0.262 A  
HETATM   13  C   UNL     1     -10.537  17.860  67.638  1.00  0.00    -0.398 A  
HETATM   14  C   UNL     1      -9.000  16.128  69.182  1.00  0.00    -0.237 A  
ENDBRANCH   8   9
BRANCH   8  15
HETATM   15  C   UNL     1     -11.959  14.869  70.843  1.00  0.00    -0.374 A  
HETATM   16  C   UNL     1     -14.220  15.407  71.581  1.00  0.00    -0.621 A  
HETATM   17  C   UNL     1     -12.372  15.673  73.107  1.00  0.00    -0.584 A  
HETATM   18  C   UNL     1     -13.732  15.777  72.833  1.00  0.00    -0.631 A  
HETATM   19  C   UNL     1     -11.492  15.226  72.120  1.00  0.00    -0.499 A  
HETATM   20  C   UNL     1     -13.343  14.944  70.597  1.00  0.00    -0.253 A  
ENDBRANCH   8  15
ENDBRANCH   4   8
ENDBRANCH   1   2
BRANCH   1  21
HETATM   21  C   UNL     1      -9.799   9.118  67.308  1.00  0.00    -0.244 C  
HETATM   22  C   UNL     1     -10.506   8.196  67.982  1.00  0.00    -0.242 C  
BRANCH  22  23
HETATM   23  C   UNL     1     -10.015   6.837  68.165  1.00  0.00    -0.161 A  
HETATM   24  C   UNL     1      -8.965   6.377  67.363  1.00  0.00    -0.109 A  
HETATM   25  C   UNL     1      -8.477   5.080  67.523  1.00  0.00    -0.105 A  
HETATM   26  C   UNL     1     -10.578   5.991  69.124  1.00  0.00    -0.362 A  
HETATM   27  C   UNL     1     -10.088   4.693  69.283  1.00  0.00    -0.170 A  
HETATM   28  C   UNL     1      -9.037   4.240  68.486  1.00  0.00    -0.175 A  
ENDBRANCH  22  23
ENDBRANCH   1  21
TORSDOF 6
ENDMDL
MODEL       31
REMARK 921   NORMALIZED FREE ENERGY PREDICTED BY IDOCK:   -6.47 KCAL/MOL
REMARK 922        TOTAL FREE ENERGY PREDICTED BY IDOCK:   -8.68 KCAL/MOL
REMARK 923 INTER-LIGAND FREE ENERGY PREDICTED BY IDOCK:   -8.47 KCAL/MOL
REMARK 924 INTRA-LIGAND FREE ENERGY PREDICTED BY IDOCK:   -0.21 KCAL/MOL
REMARK 927      BINDING AFFINITY PREDICTED BY RF-SCORE:    0.00 PKD
ROOT
HETATM    1  C   UNL     1      -8.311  10.152  69.651  1.00  0.00    -0.161 C  
ENDROOT
BRANCH   1   2
HETATM    2  N   UNL     1      -8.141  10.691  68.292  1.00  0.00    -0.113 NA 
HETATM    3  C   UNL     1      -8.696  13.132  68.776  1.00  0.00     0.162 C  
HETATM    4  N   UNL     1      -9.930  13.130  67.947  1.00  0.00    -0.226 NA 
HETATM    5  C   UNL     1      -9.403  10.676  67.516  1.00  0.00    -0.146 C  
HETATM    6  C   UNL     1      -7.635  12.080  68.364  1.00  0.00    -0.128 C  
HETATM    7  C   UNL     1     -10.443  11.740  67.944  1.00  0.00    -0.196 C  
BRANCH   4   8
HETATM    8  C   UNL     1      -9.682  13.659  66.564  1.00  0.00    -0.292 C  
BRANCH   8   9
HETATM    9  C   UNL     1     -10.633  13.051  65.518  1.00  0.00    -0.297 A  
HETATM   10  C   UNL     1     -12.902  12.857  64.626  1.00  0.00    -0.323 A  
HETATM   11  C   UNL     1     -10.164  12.410  64.361  1.00  0.00    -0.342 A  
HETATM   12  C   UNL     1     -12.410  12.250  63.475  1.00  0.00    -0.670 A  
HETATM   13  C   UNL     1     -11.044  12.010  63.351  1.00  0.00    -0.476 A  
HETATM   14  C   UNL     1     -12.025  13.245  65.645  1.00  0.00    -0.455 A  
ENDBRANCH   8   9
BRANCH   8  15
HETATM   15  C   UNL     1      -9.652  15.196  66.561  1.00  0.00    -0.293 A  
HETATM   16  C   UNL     1      -8.346  17.243  66.332  1.00  0.00    -0.315 A  
HETATM   17  C   UNL     1     -10.527  17.328  67.358  1.00  0.00    -0.338 A  
HETATM   18  C   UNL     1      -9.360  17.969  66.954  1.00  0.00    -0.276 A  
HETATM   19  C   UNL     1     -10.671  15.953  67.167  1.00  0.00    -0.301 A  
HETATM   20  C   UNL     1      -8.495  15.869  66.125  1.00  0.00    -0.196 A  
ENDBRANCH   8  15
ENDBRANCH   4   8
ENDBRANCH   1   2
BRANCH   1  21
HETATM   21  C   UNL     1      -9.686   9.616  69.892  1.00  0.00    -0.262 C  
HETATM   22  C   UNL     1     -10.176   9.398  71.123  1.00  0.00    -0.361 C  
BRANCH  22  23
HETATM   23  C   UNL     1     -11.510   8.850  71.329  1.00  0.00    -0.368 A  
HETATM   24  C   UNL     1     -11.729   7.484  71.112  1.00  0.00    -0.315 A  
HETATM   25  C   UNL     1     -12.998   6.939  71.306  1.00  0.00    -0.309 A  
HETATM   26  C   UNL     1     -12.569   9.666  71.734  1.00  0.00    -0.497 A  
HETATM   27  C   UNL     1     -13.839   9.117  71.929  1.00  0.00    -0.455 A  
HETATM   28  C   UNL     1     -14.051   7.755  71.717  1.00  0.00    -0.519 A  
ENDBRANCH  22  23
ENDBRANCH   1  21
TORSDOF 6
ENDMDL
MODEL       32
REMARK 921   NORMALIZED FREE ENERGY PREDICTED BY IDOCK:   -6.46 KCAL/MOL
REMARK 922        TOTAL FREE ENERGY PREDICTED BY IDOCK:   -8.66 KCAL/MOL
REMARK 923 INTER-LIGAND FREE ENERGY PREDICTED BY IDOCK:   -8.02 KCAL/MOL
REMARK 924 INTRA-LIGAND FREE ENERGY PREDICTED BY IDOCK:   -0.64 KCAL/MOL
REMARK 927      BINDING AFFINITY PREDICTED BY RF-SCORE:    0.00 PKD
ROOT
HETATM    1  C   UNL     1     -10.675  10.943  66.617  1.00  0.00    -0.230 C  
ENDROOT
BRANCH   1   2
HETATM    2  N   UNL     1      -9.932  11.770  67.582  1.00  0.00    -0.191 NA 
HETATM    3  C   UNL     1     -11.901  12.589  68.980  1.00  0.00    -0.296 C  
HETATM    4  N   UNL     1     -11.733  14.012  68.580  1.00  0.00    -0.332 NA 
HETATM    5  C   UNL     1      -9.806  13.178  67.140  1.00  0.00    -0.235 C  
HETATM    6  C   UNL     1     -10.610  11.735  68.897  1.00  0.00    -0.180 C  
HETATM    7  C   UNL     1     -11.107  14.010  67.237  1.00  0.00    -0.302 C  
BRANCH   4   8
HETATM    8  C   UNL     1     -10.939  14.792  69.588  1.00  0.00    -0.261 C  
BRANCH   8   9
HETATM    9  C   UNL     1     -10.179  15.972  68.958  1.00  0.00    -0.236 A  
HETATM   10  C   UNL     1     -10.237  18.240  68.045  1.00  0.00    -0.402 A  
HETATM   11  C   UNL     1      -8.777  16.051  68.967  1.00  0.00    -0.245 A  
HETATM   12  C   UNL     1      -8.847  18.306  68.091  1.00  0.00    -0.307 A  
HETATM   13  C   UNL     1      -8.118  17.206  68.534  1.00  0.00    -0.260 A  
HETATM   14  C   UNL     1     -10.898  17.080  68.463  1.00  0.00    -0.310 A  
ENDBRANCH   8   9
BRANCH   8  15
HETATM   15  C   UNL     1     -11.812  15.183  70.792  1.00  0.00    -0.371 A  
HETATM   16  C   UNL     1     -12.010  15.451  73.207  1.00  0.00    -0.566 A  
HETATM   17  C   UNL     1     -14.002  15.336  71.853  1.00  0.00    -0.644 A  
HETATM   18  C   UNL     1     -13.400  15.446  73.102  1.00  0.00    -0.608 A  
HETATM   19  C   UNL     1     -13.216  15.202  70.708  1.00  0.00    -0.433 A  
HETATM   20  C   UNL     1     -11.221  15.334  72.061  1.00  0.00    -0.323 A  
ENDBRANCH   8  15
ENDBRANCH   4   8
ENDBRANCH   1   2
BRANCH   1  21
HETATM   21  C   UNL     1      -9.792  10.347  65.567  1.00  0.00    -0.332 C  
HETATM   22  C   UNL     1      -9.367   9.074  65.610  1.00  0.00    -0.289 C  
BRANCH  22  23
HETATM   23  C   UNL     1      -8.485   8.527  64.588  1.00  0.00    -0.127 A  
HETATM   24  C   UNL     1      -7.687   7.419  64.896  1.00  0.00    -0.113 A  
HETATM   25  C   UNL     1      -6.838   6.877  63.931  1.00  0.00    -0.054 A  
HETATM   26  C   UNL     1      -8.422   9.094  63.313  1.00  0.00    -0.197 A  
HETATM   27  C   UNL     1      -7.571   8.550  62.348  1.00  0.00    -0.110 A  
HETATM   28  C   UNL     1      -6.783   7.442  62.657  1.00  0.00    -0.069 A  
ENDBRANCH  22  23
ENDBRANCH   1  21
TORSDOF 6
ENDMDL
MODEL       33
REMARK 921   NORMALIZED FREE ENERGY PREDICTED BY IDOCK:   -6.45 KCAL/MOL
REMARK 922        TOTAL FREE ENERGY PREDICTED BY IDOCK:   -8.66 KCAL/MOL
REMARK 923 INTER-LIGAND FREE ENERGY PREDICTED BY IDOCK:   -7.92 KCAL/MOL
REMARK 924 INTRA-LIGAND FREE ENERGY PREDICTED BY IDOCK:   -0.74 KCAL/MOL
REMARK 927      BINDING AFFINITY PREDICTED BY RF-SCORE:    0.00 PKD
ROOT
HETATM    1  C   UNL     1      -9.799  13.598  65.980  1.00  0.00    -0.276 C  
ENDROOT
BRANCH   1   2
HETATM    2  N   UNL     1     -10.710  12.545  66.456  1.00  0.00    -0.237 NA 
HETATM    3  C   UNL     1      -9.187  11.484  68.205  1.00  0.00    -0.186 C  
HETATM    4  N   UNL     1      -9.076  10.190  67.481  1.00  0.00    -0.134 NA 
HETATM    5  C   UNL     1     -10.547  11.276  65.709  1.00  0.00    -0.248 C  
HETATM    6  C   UNL     1     -10.473  12.292  67.896  1.00  0.00    -0.213 C  
HETATM    7  C   UNL     1      -9.258  10.486  66.041  1.00  0.00    -0.176 C  
BRANCH   4   8
HETATM    8  C   UNL     1     -10.054   9.171  67.991  1.00  0.00    -0.196 C  
BRANCH   8   9
HETATM    9  C   UNL     1      -9.858   7.788  67.346  1.00  0.00    -0.230 A  
HETATM   10  C   UNL     1     -10.850   5.700  66.547  1.00  0.00    -0.239 A  
HETATM   11  C   UNL     1      -8.663   7.422  66.705  1.00  0.00    -0.136 A  
HETATM   12  C   UNL     1      -9.665   5.374  65.894  1.00  0.00    -0.091 A  
HETATM   13  C   UNL     1      -8.567   6.225  65.988  1.00  0.00    -0.146 A  
HETATM   14  C   UNL     1     -10.944   6.890  67.276  1.00  0.00    -0.406 A  
ENDBRANCH   8   9
BRANCH   8  15
HETATM   15  C   UNL     1     -10.070   9.146  69.528  1.00  0.00    -0.202 A  
HETATM   16  C   UNL     1      -8.921   8.580  71.603  1.00  0.00    -0.285 A  
HETATM   17  C   UNL     1     -11.300   8.974  71.626  1.00  0.00    -0.430 A  
HETATM   18  C   UNL     1     -10.128   8.639  72.297  1.00  0.00    -0.363 A  
HETATM   19  C   UNL     1     -11.272   9.221  70.253  1.00  0.00    -0.267 A  
HETATM   20  C   UNL     1      -8.888   8.844  70.232  1.00  0.00    -0.191 A  
ENDBRANCH   8  15
ENDBRANCH   4   8
ENDBRANCH   1   2
BRANCH   1  21
HETATM   21  C   UNL     1     -10.057  14.922  66.627  1.00  0.00    -0.264 C  
HETATM   22  C   UNL     1      -9.720  16.089  66.055  1.00  0.00    -0.376 C  
BRANCH  22  23
HETATM   23  C   UNL     1      -9.958  17.364  66.720  1.00  0.00    -0.307 A  
HETATM   24  C   UNL     1      -9.791  17.453  68.106  1.00  0.00    -0.301 A  
HETATM   25  C   UNL     1     -10.011  18.664  68.762  1.00  0.00    -0.427 A  
HETATM   26  C   UNL     1     -10.353  18.491  65.995  1.00  0.00    -0.423 A  
HETATM   27  C   UNL     1     -10.573  19.702  66.653  1.00  0.00    -0.599 A  
HETATM   28  C   UNL     1     -10.399  19.789  68.034  1.00  0.00    -0.567 A  
ENDBRANCH  22  23
ENDBRANCH   1  21
TORSDOF 6
ENDMDL
MODEL       34
REMARK 921   NORMALIZED FREE ENERGY PREDICTED BY IDOCK:   -6.43 KCAL/MOL
REMARK 922        TOTAL FREE ENERGY PREDICTED BY IDOCK:   -8.63 KCAL/MOL
REMARK 923 INTER-LIGAND FREE ENERGY PREDICTED BY IDOCK:   -7.90 KCAL/MOL
REMARK 924 INTRA-LIGAND FREE ENERGY PREDICTED BY IDOCK:   -0.74 KCAL/MOL
REMARK 927      BINDING AFFINITY PREDICTED BY RF-SCORE:    0.00 PKD
ROOT
HETATM    1  C   UNL     1      -9.541   8.065  68.019  1.00  0.00    -0.152 C  
ENDROOT
BRANCH   1   2
HETATM    2  N   UNL     1     -10.724   8.941  67.994  1.00  0.00    -0.162 NA 
HETATM    3  C   UNL     1      -9.661  10.988  66.907  1.00  0.00    -0.182 C  
HETATM    4  N   UNL     1      -9.824  11.848  68.110  1.00  0.00    -0.187 NA 
HETATM    5  C   UNL     1     -10.830   9.783  69.209  1.00  0.00    -0.216 C  
HETATM    6  C   UNL     1     -10.672   9.818  66.802  1.00  0.00    -0.073 C  
HETATM    7  C   UNL     1      -9.813  10.947  69.286  1.00  0.00    -0.090 C  
BRANCH   4   8
HETATM    8  C   UNL     1     -11.065  12.690  68.037  1.00  0.00    -0.251 C  
BRANCH   8   9
HETATM    9  C   UNL     1     -11.262  13.562  69.289  1.00  0.00    -0.285 A  
HETATM   10  C   UNL     1     -10.818  15.665  70.457  1.00  0.00    -0.347 A  
HETATM   11  C   UNL     1     -12.235  13.273  70.259  1.00  0.00    -0.391 A  
HETATM   12  C   UNL     1     -11.809  15.369  71.389  1.00  0.00    -0.443 A  
HETATM   13  C   UNL     1     -12.503  14.166  71.301  1.00  0.00    -0.446 A  
HETATM   14  C   UNL     1     -10.538  14.766  69.423  1.00  0.00    -0.229 A  
ENDBRANCH   8   9
BRANCH   8  15
HETATM   15  C   UNL     1     -11.121  13.474  66.716  1.00  0.00    -0.311 A  
HETATM   16  C   UNL     1     -10.185  15.231  65.308  1.00  0.00    -0.397 A  
HETATM   17  C   UNL     1     -12.403  14.400  64.861  1.00  0.00    -0.414 A  
HETATM   18  C   UNL     1     -11.359  15.268  64.559  1.00  0.00    -0.307 A  
HETATM   19  C   UNL     1     -12.288  13.513  65.932  1.00  0.00    -0.507 A  
HETATM   20  C   UNL     1     -10.060  14.333  66.371  1.00  0.00    -0.295 A  
ENDBRANCH   8  15
ENDBRANCH   4   8
ENDBRANCH   1   2
BRANCH   1  21
HETATM   21  C   UNL     1      -9.508   7.175  69.220  1.00  0.00    -0.152 C  
HETATM   22  C   UNL     1     -10.475   6.283  69.492  1.00  0.00    -0.293 C  
BRANCH  22  23
HETATM   23  C   UNL     1     -10.432   5.446  70.684  1.00  0.00    -0.329 A  
HETATM   24  C   UNL     1      -9.763   4.218  70.632  1.00  0.00    -0.274 A  
HETATM   25  C   UNL     1      -9.707   3.403  71.762  1.00  0.00    -0.236 A  
HETATM   26  C   UNL     1     -11.050   5.851  71.870  1.00  0.00    -0.325 A  
HETATM   27  C   UNL     1     -10.992   5.033  73.000  1.00  0.00    -0.360 A  
HETATM   28  C   UNL     1     -10.319   3.812  72.946  1.00  0.00    -0.241 A  
ENDBRANCH  22  23
ENDBRANCH   1  21
TORSDOF 6
ENDMDL
MODEL       35
REMARK 921   NORMALIZED FREE ENERGY PREDICTED BY IDOCK:   -6.42 KCAL/MOL
REMARK 922        TOTAL FREE ENERGY PREDICTED BY IDOCK:   -8.62 KCAL/MOL
REMARK 923 INTER-LIGAND FREE ENERGY PREDICTED BY IDOCK:   -7.67 KCAL/MOL
REMARK 924 INTRA-LIGAND FREE ENERGY PREDICTED BY IDOCK:   -0.95 KCAL/MOL
REMARK 927      BINDING AFFINITY PREDICTED BY RF-SCORE:    0.00 PKD
ROOT
HETATM    1  C   UNL     1     -11.679  10.982  69.348  1.00  0.00    -0.323 C  
ENDROOT
BRANCH   1   2
HETATM    2  N   UNL     1     -10.501  10.310  69.920  1.00  0.00    -0.266 NA 
HETATM    3  C   UNL     1     -10.741   8.055  68.753  1.00  0.00    -0.045 C  
HETATM    4  N   UNL     1     -11.002   7.308  70.012  1.00  0.00    -0.257 NA 
HETATM    5  C   UNL     1     -10.821   9.571  71.165  1.00  0.00    -0.355 C  
HETATM    6  C   UNL     1      -9.933   9.366  68.932  1.00  0.00    -0.179 C  
HETATM    7  C   UNL     1     -11.624   8.264  70.958  1.00  0.00    -0.275 C  
BRANCH   4   8
HETATM    8  C   UNL     1      -9.756   6.676  70.563  1.00  0.00    -0.176 C  
BRANCH   8   9
HETATM    9  C   UNL     1      -9.963   6.089  71.970  1.00  0.00    -0.195 A  
HETATM   10  C   UNL     1     -11.053   4.430  73.398  1.00  0.00    -0.394 A  
HETATM   11  C   UNL     1      -9.113   6.400  73.044  1.00  0.00    -0.133 A  
HETATM   12  C   UNL     1     -10.180   4.734  74.438  1.00  0.00    -0.300 A  
HETATM   13  C   UNL     1      -9.223   5.732  74.267  1.00  0.00    -0.127 A  
HETATM   14  C   UNL     1     -10.954   5.107  72.178  1.00  0.00    -0.174 A  
ENDBRANCH   8   9
BRANCH   8  15
HETATM   15  C   UNL     1      -9.153   5.684  69.555  1.00  0.00    -0.143 A  
HETATM   16  C   UNL     1      -9.286   3.515  68.449  1.00  0.00    -0.225 A  
HETATM   17  C   UNL     1      -7.210   4.741  68.424  1.00  0.00    -0.061 A  
HETATM   18  C   UNL     1      -7.945   3.610  68.083  1.00  0.00    -0.071 A  
HETATM   19  C   UNL     1      -7.806   5.767  69.157  1.00  0.00    -0.090 A  
HETATM   20  C   UNL     1      -9.890   4.549  69.168  1.00  0.00    -0.222 A  
ENDBRANCH   8  15
ENDBRANCH   4   8
ENDBRANCH   1   2
BRANCH   1  21
HETATM   21  C   UNL     1     -12.268  12.001  70.270  1.00  0.00    -0.348 C  
HETATM   22  C   UNL     1     -11.842  13.273  70.316  1.00  0.00    -0.307 C  
BRANCH  22  23
HETATM   23  C   UNL     1     -12.415  14.239  71.244  1.00  0.00    -0.439 A  
HETATM   24  C   UNL     1     -13.803  14.283  71.414  1.00  0.00    -0.364 A  
HETATM   25  C   UNL     1     -14.372  15.199  72.298  1.00  0.00    -0.559 A  
HETATM   26  C   UNL     1     -11.600  15.121  71.960  1.00  0.00    -0.496 A  
HETATM   27  C   UNL     1     -12.173  16.036  72.845  1.00  0.00    -0.621 A  
HETATM   28  C   UNL     1     -13.556  16.072  73.016  1.00  0.00    -0.530 A  
ENDBRANCH  22  23
ENDBRANCH   1  21
TORSDOF 6
ENDMDL
MODEL       36
REMARK 921   NORMALIZED FREE ENERGY PREDICTED BY IDOCK:   -6.41 KCAL/MOL
REMARK 922        TOTAL FREE ENERGY PREDICTED BY IDOCK:   -8.60 KCAL/MOL
REMARK 923 INTER-LIGAND FREE ENERGY PREDICTED BY IDOCK:   -7.70 KCAL/MOL
REMARK 924 INTRA-LIGAND FREE ENERGY PREDICTED BY IDOCK:   -0.90 KCAL/MOL
REMARK 927      BINDING AFFINITY PREDICTED BY RF-SCORE:    0.00 PKD
ROOT
HETATM    1  C   UNL     1     -12.375   9.283  70.898  1.00  0.00    -0.167 C  
ENDROOT
BRANCH   1   2
HETATM    2  N   UNL     1     -11.922   8.533  72.081  1.00  0.00    -0.361 NA 
HETATM    3  C   UNL     1      -9.639   7.797  71.215  1.00  0.00    -0.157 C  
HETATM    4  N   UNL     1      -9.987   6.351  71.206  1.00  0.00    -0.182 NA 
HETATM    5  C   UNL     1     -12.284   7.098  72.013  1.00  0.00    -0.278 C  
HETATM    6  C   UNL     1     -10.453   8.654  72.218  1.00  0.00    -0.306 C  
HETATM    7  C   UNL     1     -11.453   6.263  71.009  1.00  0.00    -0.306 C  
BRANCH   4   8
HETATM    8  C   UNL     1      -9.528   5.651  72.453  1.00  0.00    -0.143 C  
BRANCH   8   9
HETATM    9  C   UNL     1     -10.065   4.213  72.557  1.00  0.00    -0.233 A  
HETATM   10  C   UNL     1      -9.972   1.892  71.792  1.00  0.00    -0.219 A  
HETATM   11  C   UNL     1     -10.870   3.789  73.626  1.00  0.00    -0.329 A  
HETATM   12  C   UNL     1     -10.746   1.492  72.877  1.00  0.00    -0.235 A  
HETATM   13  C   UNL     1     -11.211   2.442  73.782  1.00  0.00    -0.297 A  
HETATM   14  C   UNL     1      -9.643   3.241  71.625  1.00  0.00    -0.230 A  
ENDBRANCH   8   9
BRANCH   8  15
HETATM   15  C   UNL     1      -8.003   5.761  72.614  1.00  0.00    -0.102 A  
HETATM   16  C   UNL     1      -5.795   5.615  71.590  1.00  0.00    -0.025 A  
HETATM   17  C   UNL     1      -6.003   5.542  73.991  1.00  0.00    -0.056 A  
HETATM   18  C   UNL     1      -5.209   5.501  72.849  1.00  0.00    -0.018 A  
HETATM   19  C   UNL     1      -7.388   5.667  73.875  1.00  0.00    -0.086 A  
HETATM   20  C   UNL     1      -7.180   5.757  71.472  1.00  0.00    -0.082 A  
ENDBRANCH   8  15
ENDBRANCH   4   8
ENDBRANCH   1   2
BRANCH   1  21
HETATM   21  C   UNL     1     -12.856  10.658  71.236  1.00  0.00    -0.535 C  
HETATM   22  C   UNL     1     -12.185  11.769  70.888  1.00  0.00    -0.378 C  
BRANCH  22  23
HETATM   23  C   UNL     1     -12.662  13.096  71.254  1.00  0.00    -0.396 A  
HETATM   24  C   UNL     1     -12.229  14.205  70.517  1.00  0.00    -0.431 A  
HETATM   25  C   UNL     1     -12.674  15.484  70.849  1.00  0.00    -0.525 A  
HETATM   26  C   UNL     1     -13.537  13.277  72.328  1.00  0.00    -0.703 A  
HETATM   27  C   UNL     1     -13.982  14.558  72.657  1.00  0.00    -0.400 A  
HETATM   28  C   UNL     1     -13.553  15.659  71.917  1.00  0.00    -0.521 A  
ENDBRANCH  22  23
ENDBRANCH   1  21
TORSDOF 6
ENDMDL
MODEL       37
REMARK 921   NORMALIZED FREE ENERGY PREDICTED BY IDOCK:   -6.40 KCAL/MOL
REMARK 922        TOTAL FREE ENERGY PREDICTED BY IDOCK:   -8.59 KCAL/MOL
REMARK 923 INTER-LIGAND FREE ENERGY PREDICTED BY IDOCK:   -7.67 KCAL/MOL
REMARK 924 INTRA-LIGAND FREE ENERGY PREDICTED BY IDOCK:   -0.92 KCAL/MOL
REMARK 927      BINDING AFFINITY PREDICTED BY RF-SCORE:    0.00 PKD
ROOT
HETATM    1  C   UNL     1     -11.756  11.660  67.555  1.00  0.00    -0.214 C  
ENDROOT
BRANCH   1   2
HETATM    2  N   UNL     1     -11.205  12.637  68.507  1.00  0.00    -0.259 NA 
HETATM    3  C   UNL     1     -11.496  14.746  67.103  1.00  0.00    -0.364 C  
HETATM    4  N   UNL     1     -10.035  14.990  66.968  1.00  0.00    -0.240 NA 
HETATM    5  C   UNL     1      -9.750  12.850  68.320  1.00  0.00    -0.217 C  
HETATM    6  C   UNL     1     -11.906  13.933  68.357  1.00  0.00    -0.374 C  
HETATM    7  C   UNL     1      -9.369  13.670  67.064  1.00  0.00    -0.248 C  
BRANCH   4   8
HETATM    8  C   UNL     1      -9.529  15.969  67.988  1.00  0.00    -0.207 C  
BRANCH   8   9
HETATM    9  C   UNL     1      -8.013  15.850  68.221  1.00  0.00    -0.139 A  
HETATM   10  C   UNL     1      -5.741  16.285  67.427  1.00  0.00    -0.168 A  
HETATM   11  C   UNL     1      -7.471  15.510  69.471  1.00  0.00    -0.200 A  
HETATM   12  C   UNL     1      -5.230  15.972  68.683  1.00  0.00    -0.098 A  
HETATM   13  C   UNL     1      -6.092  15.567  69.699  1.00  0.00    -0.150 A  
HETATM   14  C   UNL     1      -7.118  16.215  67.193  1.00  0.00    -0.253 A  
ENDBRANCH   8   9
BRANCH   8  15
HETATM   15  C   UNL     1     -10.001  17.395  67.662  1.00  0.00    -0.300 A  
HETATM   16  C   UNL     1     -10.444  19.095  65.971  1.00  0.00    -0.546 A  
HETATM   17  C   UNL     1     -10.217  19.743  68.283  1.00  0.00    -0.569 A  
HETATM   18  C   UNL     1     -10.422  20.086  66.950  1.00  0.00    -0.523 A  
HETATM   19  C   UNL     1     -10.005  18.410  68.636  1.00  0.00    -0.415 A  
HETATM   20  C   UNL     1     -10.248  17.758  66.325  1.00  0.00    -0.364 A  
ENDBRANCH   8  15
ENDBRANCH   4   8
ENDBRANCH   1   2
BRANCH   1  21
HETATM   21  C   UNL     1     -11.023  10.356  67.576  1.00  0.00    -0.358 C  
HETATM   22  C   UNL     1     -10.568   9.760  66.462  1.00  0.00    -0.150 C  
BRANCH  22  23
HETATM   23  C   UNL     1      -9.881   8.476  66.508  1.00  0.00    -0.342 A  
HETATM   24  C   UNL     1      -8.625   8.352  65.905  1.00  0.00    -0.179 A  
HETATM   25  C   UNL     1      -7.948   7.133  65.939  1.00  0.00    -0.116 A  
HETATM   26  C   UNL     1     -10.459   7.372  67.140  1.00  0.00    -0.403 A  
HETATM   27  C   UNL     1      -9.780   6.152  67.173  1.00  0.00    -0.156 A  
HETATM   28  C   UNL     1      -8.526   6.034  66.576  1.00  0.00    -0.115 A  
ENDBRANCH  22  23
ENDBRANCH   1  21
TORSDOF 6
ENDMDL
MODEL       38
REMARK 921   NORMALIZED FREE ENERGY PREDICTED BY IDOCK:   -6.39 KCAL/MOL
REMARK 922        TOTAL FREE ENERGY PREDICTED BY IDOCK:   -8.58 KCAL/MOL
REMARK 923 INTER-LIGAND FREE ENERGY PREDICTED BY IDOCK:   -7.87 KCAL/MOL
REMARK 924 INTRA-LIGAND FREE ENERGY PREDICTED BY IDOCK:   -0.71 KCAL/MOL
REMARK 927      BINDING AFFINITY PREDICTED BY RF-SCORE:    0.00 PKD
ROOT
HETATM    1  C   UNL     1     -11.838  12.150  68.548  1.00  0.00    -0.310 C  
ENDROOT
BRANCH   1   2
HETATM    2  N   UNL     1     -11.066  13.164  69.283  1.00  0.00    -0.193 NA 
HETATM    3  C   UNL     1     -11.671  15.202  67.875  1.00  0.00    -0.256 C  
HETATM    4  N   UNL     1     -10.284  15.408  67.380  1.00  0.00    -0.246 NA 
HETATM    5  C   UNL     1      -9.698  13.337  68.740  1.00  0.00     0.033 C  
HETATM    6  C   UNL     1     -11.772  14.464  69.235  1.00  0.00    -0.317 C  
HETATM    7  C   UNL     1      -9.625  14.081  67.385  1.00  0.00    -0.227 C  
BRANCH   4   8
HETATM    8  C   UNL     1      -9.540  16.428  68.192  1.00  0.00    -0.227 C  
BRANCH   8   9
HETATM    9  C   UNL     1      -8.026  16.157  68.240  1.00  0.00    -0.152 A  
HETATM   10  C   UNL     1      -5.854  16.257  67.122  1.00  0.00    -0.107 A  
HETATM   11  C   UNL     1      -7.355  15.865  69.438  1.00  0.00    -0.217 A  
HETATM   12  C   UNL     1      -5.209  15.997  68.327  1.00  0.00    -0.104 A  
HETATM   13  C   UNL     1      -5.959  15.783  69.480  1.00  0.00    -0.141 A  
HETATM   14  C   UNL     1      -7.250  16.325  67.074  1.00  0.00    -0.262 A  
ENDBRANCH   8   9
BRANCH   8  15
HETATM   15  C   UNL     1      -9.905  17.855  67.750  1.00  0.00    -0.300 A  
HETATM   16  C   UNL     1     -10.526  19.369  65.942  1.00  0.00    -0.561 A  
HETATM   17  C   UNL     1      -9.694  20.268  68.019  1.00  0.00    -0.422 A  
HETATM   18  C   UNL     1     -10.162  20.464  66.723  1.00  0.00    -0.394 A  
HETATM   19  C   UNL     1      -9.563  18.976  68.527  1.00  0.00    -0.442 A  
HETATM   20  C   UNL     1     -10.412  18.074  66.455  1.00  0.00    -0.341 A  
ENDBRANCH   8  15
ENDBRANCH   4   8
ENDBRANCH   1   2
BRANCH   1  21
HETATM   21  C   UNL     1     -11.779  10.800  69.191  1.00  0.00    -0.368 C  
HETATM   22  C   UNL     1     -11.855  10.624  70.520  1.00  0.00    -0.453 C  
BRANCH  22  23
HETATM   23  C   UNL     1     -11.768   9.300  71.123  1.00  0.00    -0.394 A  
HETATM   24  C   UNL     1     -12.901   8.479  71.136  1.00  0.00    -0.097 A  
HETATM   25  C   UNL     1     -12.839   7.208  71.706  1.00  0.00    -0.368 A  
HETATM   26  C   UNL     1     -10.574   8.845  71.688  1.00  0.00    -0.422 A  
HETATM   27  C   UNL     1     -10.514   7.571  72.257  1.00  0.00    -0.275 A  
HETATM   28  C   UNL     1     -11.644   6.754  72.263  1.00  0.00    -0.311 A  
ENDBRANCH  22  23
ENDBRANCH   1  21
TORSDOF 6
ENDMDL
MODEL       39
REMARK 921   NORMALIZED FREE ENERGY PREDICTED BY IDOCK:   -6.38 KCAL/MOL
REMARK 922        TOTAL FREE ENERGY PREDICTED BY IDOCK:   -8.56 KCAL/MOL
REMARK 923 INTER-LIGAND FREE ENERGY PREDICTED BY IDOCK:   -7.80 KCAL/MOL
REMARK 924 INTRA-LIGAND FREE ENERGY PREDICTED BY IDOCK:   -0.76 KCAL/MOL
REMARK 927      BINDING AFFINITY PREDICTED BY RF-SCORE:    0.00 PKD
ROOT
HETATM    1  C   UNL     1     -11.719  14.375  68.011  1.00  0.00    -0.340 C  
ENDROOT
BRANCH   1   2
HETATM    2  N   UNL     1     -10.705  13.430  68.505  1.00  0.00    -0.257 NA 
HETATM    3  C   UNL     1     -10.162  12.266  66.302  1.00  0.00    -0.229 C  
HETATM    4  N   UNL     1     -10.699  10.950  66.739  1.00  0.00    -0.264 NA 
HETATM    5  C   UNL     1     -11.293  12.133  68.914  1.00  0.00    -0.283 C  
HETATM    6  C   UNL     1      -9.691  13.190  67.453  1.00  0.00    -0.220 C  
HETATM    7  C   UNL     1     -11.750  11.228  67.746  1.00  0.00    -0.176 C  
BRANCH   4   8
HETATM    8  C   UNL     1      -9.620  10.046  67.263  1.00  0.00    -0.156 C  
BRANCH   8   9
HETATM    9  C   UNL     1     -10.178   8.737  67.849  1.00  0.00    -0.272 A  
HETATM   10  C   UNL     1     -10.817   6.402  67.501  1.00  0.00    -0.438 A  
HETATM   11  C   UNL     1     -10.288   8.522  69.232  1.00  0.00    -0.227 A  
HETATM   12  C   UNL     1     -10.890   6.205  68.877  1.00  0.00    -0.406 A  
HETATM   13  C   UNL     1     -10.644   7.269  69.741  1.00  0.00    -0.247 A  
HETATM   14  C   UNL     1     -10.475   7.658  66.989  1.00  0.00    -0.419 A  
ENDBRANCH   8   9
BRANCH   8  15
HETATM   15  C   UNL     1      -8.519   9.839  66.211  1.00  0.00    -0.129 A  
HETATM   16  C   UNL     1      -6.221  10.254  65.508  1.00  0.00    -0.114 A  
HETATM   17  C   UNL     1      -7.848   9.515  63.889  1.00  0.00    -0.133 A  
HETATM   18  C   UNL     1      -6.551   9.915  64.198  1.00  0.00    -0.126 A  
HETATM   19  C   UNL     1      -8.824   9.480  64.886  1.00  0.00    -0.240 A  
HETATM   20  C   UNL     1      -7.193  10.205  66.511  1.00  0.00    -0.104 A  
ENDBRANCH   8  15
ENDBRANCH   4   8
ENDBRANCH   1   2
BRANCH   1  21
HETATM   21  C   UNL     1     -11.128  15.673  67.559  1.00  0.00    -0.289 C  
HETATM   22  C   UNL     1     -10.908  16.702  68.393  1.00  0.00    -0.361 C  
BRANCH  22  23
HETATM   23  C   UNL     1     -10.356  17.965  67.921  1.00  0.00    -0.396 A  
HETATM   24  C   UNL     1      -9.281  18.540  68.607  1.00  0.00    -0.336 A  
HETATM   25  C   UNL     1      -8.736  19.747  68.171  1.00  0.00    -0.333 A  
HETATM   26  C   UNL     1     -10.887  18.609  66.800  1.00  0.00    -0.205 A  
HETATM   27  C   UNL     1     -10.339  19.817  66.365  1.00  0.00    -0.619 A  
HETATM   28  C   UNL     1      -9.263  20.383  67.048  1.00  0.00    -0.483 A  
ENDBRANCH  22  23
ENDBRANCH   1  21
TORSDOF 6
ENDMDL
MODEL       40
REMARK 921   NORMALIZED FREE ENERGY PREDICTED BY IDOCK:   -6.38 KCAL/MOL
REMARK 922        TOTAL FREE ENERGY PREDICTED BY IDOCK:   -8.56 KCAL/MOL
REMARK 923 INTER-LIGAND FREE ENERGY PREDICTED BY IDOCK:   -8.18 KCAL/MOL
REMARK 924 INTRA-LIGAND FREE ENERGY PREDICTED BY IDOCK:   -0.37 KCAL/MOL
REMARK 927      BINDING AFFINITY PREDICTED BY RF-SCORE:    0.00 PKD
ROOT
HETATM    1  C   UNL     1      -7.535  10.733  69.214  1.00  0.00    -0.135 C  
ENDROOT
BRANCH   1   2
HETATM    2  N   UNL     1      -7.533  11.354  67.880  1.00  0.00    -0.091 NA 
HETATM    3  C   UNL     1      -8.298  13.694  68.545  1.00  0.00    -0.110 C  
HETATM    4  N   UNL     1      -9.589  13.599  67.812  1.00  0.00    -0.217 NA 
HETATM    5  C   UNL     1      -8.846  11.241  67.201  1.00  0.00    -0.153 C  
HETATM    6  C   UNL     1      -7.170  12.785  67.994  1.00  0.00    -0.115 C  
HETATM    7  C   UNL     1      -9.952  12.163  67.767  1.00  0.00    -0.198 C  
BRANCH   4   8
HETATM    8  C   UNL     1      -9.510  14.220  66.447  1.00  0.00    -0.275 C  
BRANCH   8   9
HETATM    9  C   UNL     1     -10.529  13.617  65.463  1.00  0.00    -0.314 A  
HETATM   10  C   UNL     1     -10.953  12.315  63.437  1.00  0.00    -0.467 A  
HETATM   11  C   UNL     1     -11.897  13.522  65.766  1.00  0.00    -0.403 A  
HETATM   12  C   UNL     1     -12.299  12.208  63.774  1.00  0.00    -0.635 A  
HETATM   13  C   UNL     1     -12.774  12.827  64.928  1.00  0.00    -0.479 A  
HETATM   14  C   UNL     1     -10.077  13.022  64.267  1.00  0.00    -0.216 A  
ENDBRANCH   8   9
BRANCH   8  15
HETATM   15  C   UNL     1      -9.561  15.753  66.537  1.00  0.00    -0.288 A  
HETATM   16  C   UNL     1      -8.379  17.879  66.368  1.00  0.00    -0.273 A  
HETATM   17  C   UNL     1     -10.502  17.783  67.507  1.00  0.00    -0.376 A  
HETATM   18  C   UNL     1      -9.394  18.510  67.084  1.00  0.00    -0.280 A  
HETATM   19  C   UNL     1     -10.584  16.416  67.239  1.00  0.00    -0.293 A  
HETATM   20  C   UNL     1      -8.466  16.514  66.084  1.00  0.00    -0.320 A  
ENDBRANCH   8  15
ENDBRANCH   4   8
ENDBRANCH   1   2
BRANCH   1  21
HETATM   21  C   UNL     1      -8.695   9.811  69.420  1.00  0.00    -0.178 C  
HETATM   22  C   UNL     1      -9.096   9.407  70.636  1.00  0.00    -0.292 C  
BRANCH  22  23
HETATM   23  C   UNL     1     -10.212   8.486  70.808  1.00  0.00    -0.237 A  
HETATM   24  C   UNL     1     -11.204   8.783  71.749  1.00  0.00    -0.410 A  
HETATM   25  C   UNL     1     -12.282   7.917  71.928  1.00  0.00    -0.351 A  
HETATM   26  C   UNL     1     -10.302   7.315  70.051  1.00  0.00    -0.222 A  
HETATM   27  C   UNL     1     -11.382   6.450  70.231  1.00  0.00    -0.468 A  
HETATM   28  C   UNL     1     -12.372   6.752  71.166  1.00  0.00    -0.386 A  
ENDBRANCH  22  23
ENDBRANCH   1  21
TORSDOF 6
ENDMDL
MODEL       41
REMARK 921   NORMALIZED FREE ENERGY PREDICTED BY IDOCK:   -6.36 KCAL/MOL
REMARK 922        TOTAL FREE ENERGY PREDICTED BY IDOCK:   -8.53 KCAL/MOL
REMARK 923 INTER-LIGAND FREE ENERGY PREDICTED BY IDOCK:   -7.60 KCAL/MOL
REMARK 924 INTRA-LIGAND FREE ENERGY PREDICTED BY IDOCK:   -0.93 KCAL/MOL
REMARK 927      BINDING AFFINITY PREDICTED BY RF-SCORE:    0.00 PKD
ROOT
HETATM    1  C   UNL     1     -11.553  12.081  69.938  1.00  0.00    -0.238 C  
ENDROOT
BRANCH   1   2
HETATM    2  N   UNL     1     -12.129  10.741  69.735  1.00  0.00    -0.323 NA 
HETATM    3  C   UNL     1     -10.625   9.433  71.326  1.00  0.00    -0.330 C  
HETATM    4  N   UNL     1      -9.987   8.638  70.243  1.00  0.00    -0.182 NA 
HETATM    5  C   UNL     1     -11.448   9.990  68.655  1.00  0.00     0.033 C  
HETATM    6  C   UNL     1     -12.043   9.964  70.992  1.00  0.00    -0.358 C  
HETATM    7  C   UNL     1     -10.037   9.467  69.016  1.00  0.00    -0.194 C  
BRANCH   4   8
HETATM    8  C   UNL     1     -10.641   7.299  70.065  1.00  0.00    -0.233 C  
BRANCH   8   9
HETATM    9  C   UNL     1     -10.123   6.547  68.826  1.00  0.00    -0.178 A  
HETATM   10  C   UNL     1     -10.578   5.616  66.611  1.00  0.00    -0.361 A  
HETATM   11  C   UNL     1      -8.754   6.353  68.586  1.00  0.00    -0.122 A  
HETATM   12  C   UNL     1      -9.213   5.461  66.384  1.00  0.00    -0.150 A  
HETATM   13  C   UNL     1      -8.304   5.811  67.378  1.00  0.00    -0.104 A  
HETATM   14  C   UNL     1     -11.031   6.144  67.825  1.00  0.00    -0.400 A  
ENDBRANCH   8   9
BRANCH   8  15
HETATM   15  C   UNL     1     -10.578   6.479  71.364  1.00  0.00    -0.266 A  
HETATM   16  C   UNL     1      -9.257   5.105  72.884  1.00  0.00    -0.142 A  
HETATM   17  C   UNL     1     -11.663   5.057  73.020  1.00  0.00    -0.229 A  
HETATM   18  C   UNL     1     -10.423   4.609  73.463  1.00  0.00    -0.275 A  
HETATM   19  C   UNL     1     -11.741   5.981  71.977  1.00  0.00    -0.315 A  
HETATM   20  C   UNL     1      -9.331   6.043  71.851  1.00  0.00    -0.160 A  
ENDBRANCH   8  15
ENDBRANCH   4   8
ENDBRANCH   1   2
BRANCH   1  21
HETATM   21  C   UNL     1     -11.285  12.794  68.651  1.00  0.00    -0.322 C  
HETATM   22  C   UNL     1     -12.145  13.676  68.115  1.00  0.00    -0.310 C  
BRANCH  22  23
HETATM   23  C   UNL     1     -11.872  14.337  66.846  1.00  0.00    -0.458 A  
HETATM   24  C   UNL     1     -10.902  15.344  66.796  1.00  0.00    -0.306 A  
HETATM   25  C   UNL     1     -10.623  15.989  65.591  1.00  0.00    -0.392 A  
HETATM   26  C   UNL     1     -12.566  13.983  65.686  1.00  0.00    -0.542 A  
HETATM   27  C   UNL     1     -12.284  14.630  64.481  1.00  0.00    -0.473 A  
HETATM   28  C   UNL     1     -11.312  15.629  64.433  1.00  0.00    -0.272 A  
ENDBRANCH  22  23
ENDBRANCH   1  21
TORSDOF 6
ENDMDL
MODEL       42
REMARK 921   NORMALIZED FREE ENERGY PREDICTED BY IDOCK:   -6.32 KCAL/MOL
REMARK 922        TOTAL FREE ENERGY PREDICTED BY IDOCK:   -8.48 KCAL/MOL
REMARK 923 INTER-LIGAND FREE ENERGY PREDICTED BY IDOCK:   -7.73 KCAL/MOL
REMARK 924 INTRA-LIGAND FREE ENERGY PREDICTED BY IDOCK:   -0.74 KCAL/MOL
REMARK 927      BINDING AFFINITY PREDICTED BY RF-SCORE:    0.00 PKD
ROOT
HETATM    1  C   UNL     1     -11.590  10.564  71.048  1.00  0.00    -0.227 C  
ENDROOT
BRANCH   1   2
HETATM    2  N   UNL     1     -12.010  10.491  69.639  1.00  0.00    -0.242 NA 
HETATM    3  C   UNL     1      -9.704  10.454  68.552  1.00  0.00    -0.168 C  
HETATM    4  N   UNL     1      -9.876  11.773  67.885  1.00  0.00    -0.178 NA 
HETATM    5  C   UNL     1     -12.154  11.830  69.022  1.00  0.00    -0.214 C  
HETATM    6  C   UNL     1     -11.025   9.705  68.863  1.00  0.00    -0.121 C  
HETATM    7  C   UNL     1     -10.821  12.554  68.718  1.00  0.00    -0.239 C  
BRANCH   4   8
HETATM    8  C   UNL     1     -10.338  11.630  66.464  1.00  0.00    -0.224 C  
BRANCH   8   9
HETATM    9  C   UNL     1     -10.873  12.950  65.880  1.00  0.00    -0.294 A  
HETATM   10  C   UNL     1     -10.403  15.189  65.017  1.00  0.00    -0.377 A  
HETATM   11  C   UNL     1     -12.184  13.078  65.395  1.00  0.00    -0.520 A  
HETATM   12  C   UNL     1     -11.699  15.281  64.519  1.00  0.00    -0.306 A  
HETATM   13  C   UNL     1     -12.594  14.234  64.724  1.00  0.00    -0.310 A  
HETATM   14  C   UNL     1      -9.995  14.040  65.702  1.00  0.00    -0.309 A  
ENDBRANCH   8   9
BRANCH   8  15
HETATM   15  C   UNL     1      -9.259  10.957  65.600  1.00  0.00    -0.227 A  
HETATM   16  C   UNL     1      -8.714   9.389  63.814  1.00  0.00    -0.223 A  
HETATM   17  C   UNL     1      -6.990  10.105  65.339  1.00  0.00    -0.139 A  
HETATM   18  C   UNL     1      -7.393   9.337  64.252  1.00  0.00    -0.106 A  
HETATM   19  C   UNL     1      -7.915  10.906  66.011  1.00  0.00    -0.132 A  
HETATM   20  C   UNL     1      -9.639  10.203  64.474  1.00  0.00    -0.376 A  
ENDBRANCH   8  15
ENDBRANCH   4   8
ENDBRANCH   1   2
BRANCH   1  21
HETATM   21  C   UNL     1     -11.647   9.237  71.737  1.00  0.00    -0.458 C  
HETATM   22  C   UNL     1     -10.548   8.580  72.142  1.00  0.00    -0.419 C  
BRANCH  22  23
HETATM   23  C   UNL     1     -10.630   7.277  72.786  1.00  0.00    -0.322 A  
HETATM   24  C   UNL     1      -9.788   6.996  73.869  1.00  0.00    -0.354 A  
HETATM   25  C   UNL     1      -9.852   5.755  74.502  1.00  0.00    -0.256 A  
HETATM   26  C   UNL     1     -11.529   6.307  72.337  1.00  0.00    -0.335 A  
HETATM   27  C   UNL     1     -11.591   5.065  72.973  1.00  0.00    -0.299 A  
HETATM   28  C   UNL     1     -10.756   4.791  74.055  1.00  0.00    -0.358 A  
ENDBRANCH  22  23
ENDBRANCH   1  21
TORSDOF 6
ENDMDL
MODEL       43
REMARK 921   NORMALIZED FREE ENERGY PREDICTED BY IDOCK:   -6.31 KCAL/MOL
REMARK 922        TOTAL FREE ENERGY PREDICTED BY IDOCK:   -8.47 KCAL/MOL
REMARK 923 INTER-LIGAND FREE ENERGY PREDICTED BY IDOCK:   -7.91 KCAL/MOL
REMARK 924 INTRA-LIGAND FREE ENERGY PREDICTED BY IDOCK:   -0.56 KCAL/MOL
REMARK 927      BINDING AFFINITY PREDICTED BY RF-SCORE:    0.00 PKD
ROOT
HETATM    1  C   UNL     1      -8.872   7.780  69.154  1.00  0.00    -0.138 C  
ENDROOT
BRANCH   1   2
HETATM    2  N   UNL     1     -10.084   8.610  69.078  1.00  0.00    -0.194 NA 
HETATM    3  C   UNL     1      -9.523   9.914  66.959  1.00  0.00    -0.160 C  
HETATM    4  N   UNL     1      -9.426  11.223  67.659  1.00  0.00    -0.165 NA 
HETATM    5  C   UNL     1      -9.927   9.906  69.780  1.00  0.00    -0.243 C  
HETATM    6  C   UNL     1     -10.427   8.868  67.660  1.00  0.00    -0.255 C  
HETATM    7  C   UNL     1      -9.025  10.934  69.055  1.00  0.00    -0.094 C  
BRANCH   4   8
HETATM    8  C   UNL     1     -10.705  12.005  67.573  1.00  0.00    -0.226 C  
BRANCH   8   9
HETATM    9  C   UNL     1     -10.743  13.186  68.558  1.00  0.00    -0.277 A  
HETATM   10  C   UNL     1      -9.954  15.420  69.168  1.00  0.00    -0.241 A  
HETATM   11  C   UNL     1     -11.735  13.308  69.544  1.00  0.00    -0.384 A  
HETATM   12  C   UNL     1     -10.965  15.529  70.119  1.00  0.00    -0.336 A  
HETATM   13  C   UNL     1     -11.843  14.467  70.319  1.00  0.00    -0.382 A  
HETATM   14  C   UNL     1      -9.836  14.255  68.402  1.00  0.00    -0.233 A  
ENDBRANCH   8   9
BRANCH   8  15
HETATM   15  C   UNL     1     -11.013  12.396  66.118  1.00  0.00    -0.321 A  
HETATM   16  C   UNL     1     -12.672  13.056  64.457  1.00  0.00    -0.318 A  
HETATM   17  C   UNL     1     -10.528  12.221  63.736  1.00  0.00    -0.476 A  
HETATM   18  C   UNL     1     -11.798  12.702  63.432  1.00  0.00    -0.594 A  
HETATM   19  C   UNL     1     -10.140  12.065  65.067  1.00  0.00    -0.293 A  
HETATM   20  C   UNL     1     -12.279  12.917  65.791  1.00  0.00    -0.498 A  
ENDBRANCH   8  15
ENDBRANCH   4   8
ENDBRANCH   1   2
BRANCH   1  21
HETATM   21  C   UNL     1      -9.059   6.561  70.000  1.00  0.00    -0.150 C  
HETATM   22  C   UNL     1     -10.180   6.328  70.702  1.00  0.00    -0.240 C  
BRANCH  22  23
HETATM   23  C   UNL     1     -10.326   5.145  71.540  1.00  0.00    -0.278 A  
HETATM   24  C   UNL     1      -9.758   3.937  71.122  1.00  0.00    -0.248 A  
HETATM   25  C   UNL     1      -9.884   2.793  71.910  1.00  0.00    -0.229 A  
HETATM   26  C   UNL     1     -11.027   5.201  72.748  1.00  0.00    -0.327 A  
HETATM   27  C   UNL     1     -11.152   4.055  73.535  1.00  0.00    -0.350 A  
HETATM   28  C   UNL     1     -10.578   2.854  73.118  1.00  0.00    -0.261 A  
ENDBRANCH  22  23
ENDBRANCH   1  21
TORSDOF 6
ENDMDL
MODEL       44
REMARK 921   NORMALIZED FREE ENERGY PREDICTED BY IDOCK:   -6.30 KCAL/MOL
REMARK 922        TOTAL FREE ENERGY PREDICTED BY IDOCK:   -8.46 KCAL/MOL
REMARK 923 INTER-LIGAND FREE ENERGY PREDICTED BY IDOCK:   -8.21 KCAL/MOL
REMARK 924 INTRA-LIGAND FREE ENERGY PREDICTED BY IDOCK:   -0.24 KCAL/MOL
REMARK 927      BINDING AFFINITY PREDICTED BY RF-SCORE:    0.00 PKD
ROOT
HETATM    1  C   UNL     1     -11.644  15.570  68.441  1.00  0.00    -0.357 C  
ENDROOT
BRANCH   1   2
HETATM    2  N   UNL     1     -11.097  16.936  68.421  1.00  0.00    -0.297 NA 
HETATM    3  C   UNL     1      -9.086  16.521  66.909  1.00  0.00    -0.220 C  
HETATM    4  N   UNL     1      -8.088  16.808  67.975  1.00  0.00    -0.183 NA 
HETATM    5  C   UNL     1     -10.101  17.163  69.494  1.00  0.00    -0.016 C  
HETATM    6  C   UNL     1     -10.463  17.202  67.109  1.00  0.00    -0.291 C  
HETATM    7  C   UNL     1      -8.732  16.476  69.267  1.00  0.00    -0.060 C  
BRANCH   4   8
HETATM    8  C   UNL     1      -7.595  18.225  67.920  1.00  0.00    -0.241 C  
BRANCH   8   9
HETATM    9  C   UNL     1      -6.667  18.575  69.096  1.00  0.00    -0.280 A  
HETATM   10  C   UNL     1      -6.020  20.161  70.841  1.00  0.00    -0.343 A  
HETATM   11  C   UNL     1      -5.848  17.617  69.715  1.00  0.00    -0.250 A  
HETATM   12  C   UNL     1      -5.239  19.185  71.454  1.00  0.00    -0.336 A  
HETATM   13  C   UNL     1      -5.138  17.921  70.881  1.00  0.00    -0.260 A  
HETATM   14  C   UNL     1      -6.720  19.863  69.667  1.00  0.00    -0.337 A  
ENDBRANCH   8   9
BRANCH   8  15
HETATM   15  C   UNL     1      -7.001  18.547  66.539  1.00  0.00    -0.241 A  
HETATM   16  C   UNL     1      -5.225  18.176  64.910  1.00  0.00    -0.067 A  
HETATM   17  C   UNL     1      -6.646  20.113  64.705  1.00  0.00    -0.271 A  
HETATM   18  C   UNL     1      -5.575  19.351  64.248  1.00  0.00    -0.302 A  
HETATM   19  C   UNL     1      -7.350  19.718  65.843  1.00  0.00    -0.331 A  
HETATM   20  C   UNL     1      -5.940  17.768  66.039  1.00  0.00    -0.242 A  
ENDBRANCH   8  15
ENDBRANCH   4   8
ENDBRANCH   1   2
BRANCH   1  21
HETATM   21  C   UNL     1     -11.355  14.813  67.184  1.00  0.00    -0.363 C  
HETATM   22  C   UNL     1     -11.920  13.628  66.903  1.00  0.00    -0.454 C  
BRANCH  22  23
HETATM   23  C   UNL     1     -11.599  12.898  65.684  1.00  0.00    -0.401 A  
HETATM   24  C   UNL     1     -10.645  11.875  65.730  1.00  0.00    -0.309 A  
HETATM   25  C   UNL     1     -10.325  11.162  64.575  1.00  0.00    -0.400 A  
HETATM   26  C   UNL     1     -12.226  13.207  64.474  1.00  0.00    -0.466 A  
HETATM   27  C   UNL     1     -11.905  12.492  63.318  1.00  0.00    -0.498 A  
HETATM   28  C   UNL     1     -10.958  11.469  63.370  1.00  0.00    -0.397 A  
ENDBRANCH  22  23
ENDBRANCH   1  21
TORSDOF 6
ENDMDL
MODEL       45
REMARK 921   NORMALIZED FREE ENERGY PREDICTED BY IDOCK:   -6.22 KCAL/MOL
REMARK 922        TOTAL FREE ENERGY PREDICTED BY IDOCK:   -8.34 KCAL/MOL
REMARK 923 INTER-LIGAND FREE ENERGY PREDICTED BY IDOCK:   -7.39 KCAL/MOL
REMARK 924 INTRA-LIGAND FREE ENERGY PREDICTED BY IDOCK:   -0.95 KCAL/MOL
REMARK 927      BINDING AFFINITY PREDICTED BY RF-SCORE:    0.00 PKD
ROOT
HETATM    1  C   UNL     1     -10.506  12.049  67.881  1.00  0.00    -0.202 C  
ENDROOT
BRANCH   1   2
HETATM    2  N   UNL     1      -9.444  11.081  68.198  1.00  0.00    -0.166 NA 
HETATM    3  C   UNL     1     -10.476   9.013  67.121  1.00  0.00    -0.263 C  
HETATM    4  N   UNL     1     -10.653   8.295  68.412  1.00  0.00    -0.150 NA 
HETATM    5  C   UNL     1      -9.677  10.387  69.486  1.00  0.00    -0.170 C  
HETATM    6  C   UNL     1      -9.346  10.073  67.118  1.00  0.00    -0.149 C  
HETATM    7  C   UNL     1     -10.807   9.330  69.461  1.00  0.00    -0.195 C  
BRANCH   4   8
HETATM    8  C   UNL     1      -9.521   7.349  68.692  1.00  0.00    -0.139 C  
BRANCH   8   9
HETATM    9  C   UNL     1      -9.545   6.807  70.132  1.00  0.00    -0.165 A  
HETATM   10  C   UNL     1     -10.592   5.351  71.794  1.00  0.00    -0.286 A  
HETATM   11  C   UNL     1      -8.468   6.980  71.016  1.00  0.00    -0.133 A  
HETATM   12  C   UNL     1      -9.499   5.513  72.641  1.00  0.00    -0.160 A  
HETATM   13  C   UNL     1      -8.447   6.341  72.260  1.00  0.00    -0.115 A  
HETATM   14  C   UNL     1     -10.622   6.000  70.556  1.00  0.00    -0.329 A  
ENDBRANCH   8   9
BRANCH   8  15
HETATM   15  C   UNL     1      -9.439   6.256  67.615  1.00  0.00    -0.115 A  
HETATM   16  C   UNL     1      -8.155   5.193  65.835  1.00  0.00    -0.109 A  
HETATM   17  C   UNL     1     -10.531   4.812  65.982  1.00  0.00    -0.332 A  
HETATM   18  C   UNL     1      -9.316   4.604  65.338  1.00  0.00    -0.160 A  
HETATM   19  C   UNL     1     -10.594   5.634  67.108  1.00  0.00    -0.344 A  
HETATM   20  C   UNL     1      -8.212   6.003  66.972  1.00  0.00    -0.105 A  
ENDBRANCH   8  15
ENDBRANCH   4   8
ENDBRANCH   1   2
BRANCH   1  21
HETATM   21  C   UNL     1     -10.817  12.961  69.025  1.00  0.00    -0.188 C  
HETATM   22  C   UNL     1     -12.027  13.017  69.603  1.00  0.00    -0.367 C  
BRANCH  22  23
HETATM   23  C   UNL     1     -12.311  13.934  70.698  1.00  0.00    -0.451 A  
HETATM   24  C   UNL     1     -11.682  15.184  70.723  1.00  0.00    -0.370 A  
HETATM   25  C   UNL     1     -11.940  16.079  71.761  1.00  0.00    -0.592 A  
HETATM   26  C   UNL     1     -13.195  13.583  71.722  1.00  0.00    -0.490 A  
HETATM   27  C   UNL     1     -13.453  14.480  72.760  1.00  0.00    -0.575 A  
HETATM   28  C   UNL     1     -12.828  15.727  72.777  1.00  0.00    -0.569 A  
ENDBRANCH  22  23
ENDBRANCH   1  21
TORSDOF 6
ENDMDL
MODEL       46
REMARK 921   NORMALIZED FREE ENERGY PREDICTED BY IDOCK:   -6.20 KCAL/MOL
REMARK 922        TOTAL FREE ENERGY PREDICTED BY IDOCK:   -8.32 KCAL/MOL
REMARK 923 INTER-LIGAND FREE ENERGY PREDICTED BY IDOCK:   -8.50 KCAL/MOL
REMARK 924 INTRA-LIGAND FREE ENERGY PREDICTED BY IDOCK:    0.18 KCAL/MOL
REMARK 927      BINDING AFFINITY PREDICTED BY RF-SCORE:    0.00 PKD
ROOT
HETATM    1  C   UNL     1      -9.764  11.571  65.706  1.00  0.00    -0.235 C  
ENDROOT
BRANCH   1   2
HETATM    2  N   UNL     1      -9.507  11.827  67.132  1.00  0.00    -0.173 NA 
HETATM    3  C   UNL     1     -11.345  10.363  68.122  1.00  0.00    -0.213 C  
HETATM    4  N   UNL     1     -12.101  11.509  68.694  1.00  0.00    -0.505 NA 
HETATM    5  C   UNL     1     -10.294  12.970  67.652  1.00  0.00    -0.222 C  
HETATM    6  C   UNL     1      -9.829  10.619  67.924  1.00  0.00    -0.161 C  
HETATM    7  C   UNL     1     -11.803  12.686  67.845  1.00  0.00    -0.332 C  
BRANCH   4   8
HETATM    8  C   UNL     1     -11.769  11.739  70.140  1.00  0.00    -0.269 C  
BRANCH   8   9
HETATM    9  C   UNL     1     -12.487  12.967  70.725  1.00  0.00    -0.384 A  
HETATM   10  C   UNL     1     -13.746  13.966  72.569  1.00  0.00    -0.665 A  
HETATM   11  C   UNL     1     -12.335  14.253  70.182  1.00  0.00    -0.413 A  
HETATM   12  C   UNL     1     -13.556  15.234  72.027  1.00  0.00    -0.571 A  
HETATM   13  C   UNL     1     -12.867  15.375  70.825  1.00  0.00    -0.524 A  
HETATM   14  C   UNL     1     -13.227  12.841  71.919  1.00  0.00    -0.511 A  
ENDBRANCH   8   9
BRANCH   8  15
HETATM   15  C   UNL     1     -11.964  10.453  70.960  1.00  0.00    -0.481 A  
HETATM   16  C   UNL     1     -10.985   8.430  71.907  1.00  0.00    -0.375 A  
HETATM   17  C   UNL     1     -13.380   8.607  71.689  1.00  0.00    -0.386 A  
HETATM   18  C   UNL     1     -12.255   7.876  72.057  1.00  0.00    -0.357 A  
HETATM   19  C   UNL     1     -13.237   9.883  71.141  1.00  0.00    -0.424 A  
HETATM   20  C   UNL     1     -10.840   9.714  71.375  1.00  0.00    -0.294 A  
ENDBRANCH   8  15
ENDBRANCH   4   8
ENDBRANCH   1   2
BRANCH   1  21
HETATM   21  C   UNL     1      -8.727  10.692  65.081  1.00  0.00    -0.196 C  
HETATM   22  C   UNL     1      -9.021   9.512  64.512  1.00  0.00    -0.256 C  
BRANCH  22  23
HETATM   23  C   UNL     1      -7.988   8.662  63.935  1.00  0.00    -0.159 A  
HETATM   24  C   UNL     1      -7.881   7.333  64.359  1.00  0.00    -0.126 A  
HETATM   25  C   UNL     1      -6.900   6.502  63.818  1.00  0.00    -0.045 A  
HETATM   26  C   UNL     1      -7.105   9.156  62.972  1.00  0.00    -0.091 A  
HETATM   27  C   UNL     1      -6.124   8.322  62.430  1.00  0.00    -0.087 A  
HETATM   28  C   UNL     1      -6.025   6.996  62.851  1.00  0.00    -0.041 A  
ENDBRANCH  22  23
ENDBRANCH   1  21
TORSDOF 6
ENDMDL
MODEL       47
REMARK 921   NORMALIZED FREE ENERGY PREDICTED BY IDOCK:   -6.14 KCAL/MOL
REMARK 922        TOTAL FREE ENERGY PREDICTED BY IDOCK:   -8.24 KCAL/MOL
REMARK 923 INTER-LIGAND FREE ENERGY PREDICTED BY IDOCK:   -7.35 KCAL/MOL
REMARK 924 INTRA-LIGAND FREE ENERGY PREDICTED BY IDOCK:   -0.89 KCAL/MOL
REMARK 927      BINDING AFFINITY PREDICTED BY RF-SCORE:    0.00 PKD
ROOT
HETATM    1  C   UNL     1     -10.126  12.804  66.110  1.00  0.00    -0.266 C  
ENDROOT
BRANCH   1   2
HETATM    2  N   UNL     1      -9.195  11.906  66.812  1.00  0.00    -0.189 NA 
HETATM    3  C   UNL     1     -10.269   9.679  66.188  1.00  0.00    -0.205 C  
HETATM    4  N   UNL     1     -10.656   9.350  67.586  1.00  0.00    -0.274 NA 
HETATM    5  C   UNL     1      -9.636  11.602  68.193  1.00  0.00    -0.190 C  
HETATM    6  C   UNL     1      -9.059  10.639  66.059  1.00  0.00    -0.180 C  
HETATM    7  C   UNL     1     -10.841  10.638  68.295  1.00  0.00    -0.241 C  
BRANCH   4   8
HETATM    8  C   UNL     1      -9.650   8.459  68.256  1.00  0.00    -0.144 C  
BRANCH   8   9
HETATM    9  C   UNL     1      -9.926   8.280  69.759  1.00  0.00    -0.191 A  
HETATM   10  C   UNL     1      -9.295   8.778  72.069  1.00  0.00    -0.322 A  
HETATM   11  C   UNL     1     -11.137   7.758  70.242  1.00  0.00    -0.242 A  
HETATM   12  C   UNL     1     -10.515   8.282  72.521  1.00  0.00    -0.406 A  
HETATM   13  C   UNL     1     -11.427   7.756  71.610  1.00  0.00    -0.299 A  
HETATM   14  C   UNL     1      -8.997   8.767  70.703  1.00  0.00    -0.219 A  
ENDBRANCH   8   9
BRANCH   8  15
HETATM   15  C   UNL     1      -9.490   7.137  67.489  1.00  0.00    -0.144 A  
HETATM   16  C   UNL     1      -8.103   5.720  66.069  1.00  0.00    -0.110 A  
HETATM   17  C   UNL     1     -10.469   5.288  66.238  1.00  0.00    -0.311 A  
HETATM   18  C   UNL     1      -9.224   4.978  65.702  1.00  0.00    -0.161 A  
HETATM   19  C   UNL     1     -10.603   6.360  67.121  1.00  0.00    -0.389 A  
HETATM   20  C   UNL     1      -8.231   6.784  66.966  1.00  0.00    -0.113 A  
ENDBRANCH   8  15
ENDBRANCH   4   8
ENDBRANCH   1   2
BRANCH   1  21
HETATM   21  C   UNL     1     -10.006  14.226  66.559  1.00  0.00    -0.289 C  
HETATM   22  C   UNL     1     -10.795  15.206  66.091  1.00  0.00    -0.330 C  
BRANCH  22  23
HETATM   23  C   UNL     1     -10.639  16.588  66.525  1.00  0.00    -0.217 A  
HETATM   24  C   UNL     1     -10.548  16.868  67.893  1.00  0.00    -0.361 A  
HETATM   25  C   UNL     1     -10.396  18.184  68.330  1.00  0.00    -0.371 A  
HETATM   26  C   UNL     1     -10.584  17.632  65.598  1.00  0.00    -0.137 A  
HETATM   27  C   UNL     1     -10.432  18.948  66.038  1.00  0.00    -0.507 A  
HETATM   28  C   UNL     1     -10.335  19.223  67.402  1.00  0.00    -0.540 A  
ENDBRANCH  22  23
ENDBRANCH   1  21
TORSDOF 6
ENDMDL
MODEL       48
REMARK 921   NORMALIZED FREE ENERGY PREDICTED BY IDOCK:   -6.13 KCAL/MOL
REMARK 922        TOTAL FREE ENERGY PREDICTED BY IDOCK:   -8.22 KCAL/MOL
REMARK 923 INTER-LIGAND FREE ENERGY PREDICTED BY IDOCK:   -7.92 KCAL/MOL
REMARK 924 INTRA-LIGAND FREE ENERGY PREDICTED BY IDOCK:   -0.30 KCAL/MOL
REMARK 927      BINDING AFFINITY PREDICTED BY RF-SCORE:    0.00 PKD
ROOT
HETATM    1  C   UNL     1     -11.298  13.390  67.310  1.00  0.00    -0.319 C  
ENDROOT
BRANCH   1   2
HETATM    2  N   UNL     1     -10.099  12.549  67.450  1.00  0.00    -0.209 NA 
HETATM    3  C   UNL     1     -11.134  10.300  66.843  1.00  0.00     0.033 C  
HETATM    4  N   UNL     1     -10.936   9.719  68.198  1.00  0.00    -0.216 NA 
HETATM    5  C   UNL     1      -9.958  11.988  68.814  1.00  0.00    -0.073 C  
HETATM    6  C   UNL     1     -10.149  11.438  66.473  1.00  0.00    -0.215 C  
HETATM    7  C   UNL     1     -10.950  10.850  69.155  1.00  0.00    -0.239 C  
BRANCH   4   8
HETATM    8  C   UNL     1      -9.680   8.902  68.284  1.00  0.00    -0.157 C  
BRANCH   8   9
HETATM    9  C   UNL     1      -9.312   8.533  69.731  1.00  0.00    -0.161 A  
HETATM   10  C   UNL     1      -7.576   8.201  71.422  1.00  0.00    -0.087 A  
HETATM   11  C   UNL     1     -10.269   8.478  70.757  1.00  0.00    -0.237 A  
HETATM   12  C   UNL     1      -8.541   8.181  72.425  1.00  0.00    -0.245 A  
HETATM   13  C   UNL     1      -9.887   8.300  72.091  1.00  0.00    -0.342 A  
HETATM   14  C   UNL     1      -7.957   8.365  70.086  1.00  0.00    -0.102 A  
ENDBRANCH   8   9
BRANCH   8  15
HETATM   15  C   UNL     1      -9.741   7.698  67.329  1.00  0.00    -0.221 A  
HETATM   16  C   UNL     1     -10.617   5.473  66.854  1.00  0.00    -0.348 A  
HETATM   17  C   UNL     1      -8.688   6.277  65.651  1.00  0.00    -0.122 A  
HETATM   18  C   UNL     1      -9.612   5.270  65.910  1.00  0.00    -0.142 A  
HETATM   19  C   UNL     1      -8.749   7.480  66.356  1.00  0.00    -0.158 A  
HETATM   20  C   UNL     1     -10.690   6.682  67.550  1.00  0.00    -0.387 A  
ENDBRANCH   8  15
ENDBRANCH   4   8
ENDBRANCH   1   2
BRANCH   1  21
HETATM   21  C   UNL     1     -11.919  13.735  68.626  1.00  0.00    -0.401 C  
HETATM   22  C   UNL     1     -11.736  14.921  69.228  1.00  0.00    -0.344 C  
BRANCH  22  23
HETATM   23  C   UNL     1     -12.330  15.222  70.524  1.00  0.00    -0.434 A  
HETATM   24  C   UNL     1     -11.582  15.929  71.472  1.00  0.00    -0.537 A  
HETATM   25  C   UNL     1     -12.132  16.229  72.717  1.00  0.00    -0.637 A  
HETATM   26  C   UNL     1     -13.630  14.812  70.832  1.00  0.00    -0.273 A  
HETATM   27  C   UNL     1     -14.180  15.114  72.080  1.00  0.00    -0.673 A  
HETATM   28  C   UNL     1     -13.432  15.824  73.019  1.00  0.00    -0.672 A  
ENDBRANCH  22  23
ENDBRANCH   1  21
TORSDOF 6
ENDMDL
MODEL       49
REMARK 921   NORMALIZED FREE ENERGY PREDICTED BY IDOCK:   -6.13 KCAL/MOL
REMARK 922        TOTAL FREE ENERGY PREDICTED BY IDOCK:   -8.22 KCAL/MOL
REMARK 923 INTER-LIGAND FREE ENERGY PREDICTED BY IDOCK:   -7.35 KCAL/MOL
REMARK 924 INTRA-LIGAND FREE ENERGY PREDICTED BY IDOCK:   -0.86 KCAL/MOL
REMARK 927      BINDING AFFINITY PREDICTED BY RF-SCORE:    0.00 PKD
ROOT
HETATM    1  C   UNL     1     -11.046  14.468  68.681  1.00  0.00    -0.257 C  
ENDROOT
BRANCH   1   2
HETATM    2  N   UNL     1     -11.026  13.471  67.600  1.00  0.00    -0.259 NA 
HETATM    3  C   UNL     1     -10.945  11.359  69.027  1.00  0.00    -0.236 C  
HETATM    4  N   UNL     1      -9.585  10.969  68.567  1.00  0.00    -0.181 NA 
HETATM    5  C   UNL     1      -9.648  13.110  67.190  1.00  0.00    -0.235 C  
HETATM    6  C   UNL     1     -11.737  12.247  68.033  1.00  0.00    -0.356 C  
HETATM    7  C   UNL     1      -8.882  12.219  68.197  1.00  0.00    -0.187 C  
BRANCH   4   8
HETATM    8  C   UNL     1      -9.634   9.976  67.441  1.00  0.00    -0.154 C  
BRANCH   8   9
HETATM    9  C   UNL     1      -8.279   9.826  66.726  1.00  0.00    -0.120 A  
HETATM   10  C   UNL     1      -5.989   8.968  66.757  1.00  0.00    -0.053 A  
HETATM   11  C   UNL     1      -8.120  10.097  65.358  1.00  0.00    -0.149 A  
HETATM   12  C   UNL     1      -5.866   9.218  65.393  1.00  0.00    -0.058 A  
HETATM   13  C   UNL     1      -6.923   9.798  64.698  1.00  0.00    -0.124 A  
HETATM   14  C   UNL     1      -7.180   9.279  67.421  1.00  0.00    -0.080 A  
ENDBRANCH   8   9
BRANCH   8  15
HETATM   15  C   UNL     1     -10.244   8.645  67.908  1.00  0.00    -0.273 A  
HETATM   16  C   UNL     1     -10.569   7.033  69.709  1.00  0.00    -0.253 A  
HETATM   17  C   UNL     1     -10.964   6.367  67.425  1.00  0.00    -0.463 A  
HETATM   18  C   UNL     1     -10.923   6.056  68.781  1.00  0.00    -0.384 A  
HETATM   19  C   UNL     1     -10.625   7.648  66.992  1.00  0.00    -0.406 A  
HETATM   20  C   UNL     1     -10.245   8.322  69.278  1.00  0.00    -0.207 A  
ENDBRANCH   8  15
ENDBRANCH   4   8
ENDBRANCH   1   2
BRANCH   1  21
HETATM   21  C   UNL     1     -10.287  15.710  68.337  1.00  0.00    -0.231 C  
HETATM   22  C   UNL     1     -10.783  16.668  67.537  1.00  0.00    -0.278 C  
BRANCH  22  23
HETATM   23  C   UNL     1     -10.012  17.855  67.195  1.00  0.00    -0.327 A  
HETATM   24  C   UNL     1      -8.710  17.706  66.702  1.00  0.00    -0.286 A  
HETATM   25  C   UNL     1      -7.955  18.829  66.367  1.00  0.00    -0.300 A  
HETATM   26  C   UNL     1     -10.550  19.135  67.357  1.00  0.00    -0.577 A  
HETATM   27  C   UNL     1      -9.792  20.258  67.020  1.00  0.00    -0.607 A  
HETATM   28  C   UNL     1      -8.498  20.104  66.523  1.00  0.00    -0.314 A  
ENDBRANCH  22  23
ENDBRANCH   1  21
TORSDOF 6
ENDMDL
MODEL       50
REMARK 921   NORMALIZED FREE ENERGY PREDICTED BY IDOCK:   -6.12 KCAL/MOL
REMARK 922        TOTAL FREE ENERGY PREDICTED BY IDOCK:   -8.21 KCAL/MOL
REMARK 923 INTER-LIGAND FREE ENERGY PREDICTED BY IDOCK:   -7.27 KCAL/MOL
REMARK 924 INTRA-LIGAND FREE ENERGY PREDICTED BY IDOCK:   -0.94 KCAL/MOL
REMARK 927      BINDING AFFINITY PREDICTED BY RF-SCORE:    0.00 PKD
ROOT
HETATM    1  C   UNL     1     -12.849   9.262  71.543  1.00  0.00    -0.354 C  
ENDROOT
BRANCH   1   2
HETATM    2  N   UNL     1     -11.793   8.473  70.889  1.00  0.00    -0.258 NA 
HETATM    3  C   UNL     1     -11.880   6.406  72.380  1.00  0.00    -0.213 C  
HETATM    4  N   UNL     1     -10.515   6.613  72.933  1.00  0.00    -0.215 NA 
HETATM    5  C   UNL     1     -10.458   8.708  71.487  1.00  0.00    -0.274 C  
HETATM    6  C   UNL     1     -12.116   7.031  70.981  1.00  0.00    -0.368 C  
HETATM    7  C   UNL     1     -10.247   8.069  72.880  1.00  0.00    -0.314 C  
BRANCH   4   8
HETATM    8  C   UNL     1      -9.481   5.807  72.201  1.00  0.00    -0.149 C  
BRANCH   8   9
HETATM    9  C   UNL     1      -8.047   6.127  72.660  1.00  0.00    -0.103 A  
HETATM   10  C   UNL     1      -5.862   7.098  72.149  1.00  0.00    -0.037 A  
HETATM   11  C   UNL     1      -7.657   6.051  74.006  1.00  0.00    -0.091 A  
HETATM   12  C   UNL     1      -5.509   7.041  73.494  1.00  0.00    -0.046 A  
HETATM   13  C   UNL     1      -6.399   6.501  74.419  1.00  0.00    -0.073 A  
HETATM   14  C   UNL     1      -7.114   6.636  71.732  1.00  0.00    -0.076 A  
ENDBRANCH   8   9
BRANCH   8  15
HETATM   15  C   UNL     1      -9.827   4.310  72.234  1.00  0.00    -0.227 A  
HETATM   16  C   UNL     1     -10.290   2.319  73.563  1.00  0.00    -0.204 A  
HETATM   17  C   UNL     1      -9.694   2.088  71.238  1.00  0.00    -0.199 A  
HETATM   18  C   UNL     1     -10.030   1.510  72.458  1.00  0.00    -0.181 A  
HETATM   19  C   UNL     1      -9.590   3.475  71.127  1.00  0.00    -0.240 A  
HETATM   20  C   UNL     1     -10.203   3.709  73.450  1.00  0.00    -0.220 A  
ENDBRANCH   8  15
ENDBRANCH   4   8
ENDBRANCH   1   2
BRANCH   1  21
HETATM   21  C   UNL     1     -12.563  10.730  71.532  1.00  0.00    -0.500 C  
HETATM   22  C   UNL     1     -13.457  11.648  71.933  1.00  0.00    -0.269 C  
BRANCH  22  23
HETATM   23  C   UNL     1     -13.163  13.074  71.887  1.00  0.00    -0.527 A  
HETATM   24  C   UNL     1     -13.708  13.916  72.863  1.00  0.00    -0.170 A  
HETATM   25  C   UNL     1     -13.437  15.284  72.839  1.00  0.00    -0.611 A  
HETATM   26  C   UNL     1     -12.352  13.610  70.883  1.00  0.00    -0.450 A  
HETATM   27  C   UNL     1     -12.082  14.980  70.861  1.00  0.00    -0.380 A  
HETATM   28  C   UNL     1     -12.622  15.814  71.840  1.00  0.00    -0.522 A  
ENDBRANCH  22  23
ENDBRANCH   1  21
TORSDOF 6
ENDMDL
MODEL       51
REMARK 921   NORMALIZED FREE ENERGY PREDICTED BY IDOCK:   -6.11 KCAL/MOL
REMARK 922        TOTAL FREE ENERGY PREDICTED BY IDOCK:   -8.20 KCAL/MOL
REMARK 923 INTER-LIGAND FREE ENERGY PREDICTED BY IDOCK:   -7.31 KCAL/MOL
REMARK 924 INTRA-LIGAND FREE ENERGY PREDICTED BY IDOCK:   -0.89 KCAL/MOL
REMARK 927      BINDING AFFINITY PREDICTED BY RF-SCORE:    0.00 PKD
ROOT
HETATM    1  C   UNL     1     -12.034  11.155  69.379  1.00  0.00    -0.349 C  
ENDROOT
BRANCH   1   2
HETATM    2  N   UNL     1     -10.800  10.581  69.941  1.00  0.00    -0.281 NA 
HETATM    3  C   UNL     1     -10.823   8.348  68.710  1.00  0.00     0.052 C  
HETATM    4  N   UNL     1     -11.017   7.544  69.946  1.00  0.00    -0.240 NA 
HETATM    5  C   UNL     1     -11.054   9.781  71.162  1.00  0.00    -0.344 C  
HETATM    6  C   UNL     1     -10.142   9.723  68.929  1.00  0.00    -0.183 C  
HETATM    7  C   UNL     1     -11.729   8.411  70.915  1.00  0.00    -0.246 C  
BRANCH   4   8
HETATM    8  C   UNL     1      -9.719   7.016  70.487  1.00  0.00    -0.176 C  
BRANCH   8   9
HETATM    9  C   UNL     1      -9.862   6.431  71.902  1.00  0.00    -0.172 A  
HETATM   10  C   UNL     1      -9.441   6.650  74.301  1.00  0.00    -0.269 A  
HETATM   11  C   UNL     1     -10.735   5.370  72.190  1.00  0.00    -0.286 A  
HETATM   12  C   UNL     1     -10.335   5.615  74.564  1.00  0.00    -0.254 A  
HETATM   13  C   UNL     1     -10.966   4.964  73.508  1.00  0.00    -0.397 A  
HETATM   14  C   UNL     1      -9.197   7.048  72.983  1.00  0.00    -0.163 A  
ENDBRANCH   8   9
BRANCH   8  15
HETATM   15  C   UNL     1      -9.053   6.063  69.481  1.00  0.00    -0.141 A  
HETATM   16  C   UNL     1      -7.227   5.644  67.920  1.00  0.00    -0.072 A  
HETATM   17  C   UNL     1      -9.228   4.305  67.802  1.00  0.00    -0.178 A  
HETATM   18  C   UNL     1      -7.964   4.627  67.318  1.00  0.00    -0.101 A  
HETATM   19  C   UNL     1      -9.770   5.018  68.871  1.00  0.00    -0.234 A  
HETATM   20  C   UNL     1      -7.760   6.349  69.002  1.00  0.00    -0.101 A  
ENDBRANCH   8  15
ENDBRANCH   4   8
ENDBRANCH   1   2
BRANCH   1  21
HETATM   21  C   UNL     1     -11.788  11.945  68.133  1.00  0.00    -0.338 C  
HETATM   22  C   UNL     1     -11.999  13.269  68.058  1.00  0.00    -0.351 C  
BRANCH  22  23
HETATM   23  C   UNL     1     -11.778  14.011  66.823  1.00  0.00    -0.430 A  
HETATM   24  C   UNL     1     -10.847  15.056  66.811  1.00  0.00    -0.318 A  
HETATM   25  C   UNL     1     -10.618  15.777  65.640  1.00  0.00    -0.393 A  
HETATM   26  C   UNL     1     -12.483  13.696  65.659  1.00  0.00    -0.540 A  
HETATM   27  C   UNL     1     -12.251  14.419  64.487  1.00  0.00    -0.483 A  
HETATM   28  C   UNL     1     -11.318  15.455  64.477  1.00  0.00    -0.321 A  
ENDBRANCH  22  23
ENDBRANCH   1  21
TORSDOF 6
ENDMDL
MODEL       52
REMARK 921   NORMALIZED FREE ENERGY PREDICTED BY IDOCK:   -6.10 KCAL/MOL
REMARK 922        TOTAL FREE ENERGY PREDICTED BY IDOCK:   -8.18 KCAL/MOL
REMARK 923 INTER-LIGAND FREE ENERGY PREDICTED BY IDOCK:   -7.42 KCAL/MOL
REMARK 924 INTRA-LIGAND FREE ENERGY PREDICTED BY IDOCK:   -0.76 KCAL/MOL
REMARK 927      BINDING AFFINITY PREDICTED BY RF-SCORE:    0.00 PKD
ROOT
HETATM    1  C   UNL     1     -11.146   9.473  71.266  1.00  0.00    -0.379 C  
ENDROOT
BRANCH   1   2
HETATM    2  N   UNL     1     -11.612   9.479  69.870  1.00  0.00    -0.067 NA 
HETATM    3  C   UNL     1      -9.380   9.938  68.724  1.00  0.00    -0.157 C  
HETATM    4  N   UNL     1      -9.794  11.272  68.211  1.00  0.00    -0.190 NA 
HETATM    5  C   UNL     1     -11.998  10.833  69.409  1.00  0.00    -0.281 C  
HETATM    6  C   UNL     1     -10.548   8.953  68.985  1.00  0.00    -0.183 C  
HETATM    7  C   UNL     1     -10.814  11.795  69.150  1.00  0.00    -0.172 C  
BRANCH   4   8
HETATM    8  C   UNL     1     -10.290  11.204  66.796  1.00  0.00    -0.241 C  
BRANCH   8   9
HETATM    9  C   UNL     1     -10.806  12.560  66.284  1.00  0.00    -0.299 A  
HETATM   10  C   UNL     1     -10.303  14.779  65.387  1.00  0.00    -0.410 A  
HETATM   11  C   UNL     1     -12.154  12.772  65.952  1.00  0.00    -0.485 A  
HETATM   12  C   UNL     1     -11.640  14.954  65.039  1.00  0.00    -0.357 A  
HETATM   13  C   UNL     1     -12.567  13.959  65.339  1.00  0.00    -0.538 A  
HETATM   14  C   UNL     1      -9.890  13.599  66.014  1.00  0.00    -0.290 A  
ENDBRANCH   8   9
BRANCH   8  15
HETATM   15  C   UNL     1      -9.245  10.548  65.879  1.00  0.00    -0.210 A  
HETATM   16  C   UNL     1      -6.907  10.335  65.221  1.00  0.00    -0.131 A  
HETATM   17  C   UNL     1      -8.639   9.564  63.732  1.00  0.00    -0.222 A  
HETATM   18  C   UNL     1      -7.291   9.768  64.008  1.00  0.00    -0.128 A  
HETATM   19  C   UNL     1      -9.609   9.953  64.657  1.00  0.00    -0.320 A  
HETATM   20  C   UNL     1      -7.875  10.711  66.156  1.00  0.00    -0.152 A  
ENDBRANCH   8  15
ENDBRANCH   4   8
ENDBRANCH   1   2
BRANCH   1  21
HETATM   21  C   UNL     1     -10.652   8.131  71.704  1.00  0.00    -0.292 C  
HETATM   22  C   UNL     1     -11.426   7.033  71.698  1.00  0.00    -0.299 C  
BRANCH  22  23
HETATM   23  C   UNL     1     -10.929   5.743  72.156  1.00  0.00    -0.311 A  
HETATM   24  C   UNL     1      -9.842   5.157  71.496  1.00  0.00    -0.234 A  
HETATM   25  C   UNL     1      -9.348   3.923  71.920  1.00  0.00    -0.191 A  
HETATM   26  C   UNL     1     -11.522   5.085  73.236  1.00  0.00    -0.339 A  
HETATM   27  C   UNL     1     -11.025   3.850  73.658  1.00  0.00    -0.337 A  
HETATM   28  C   UNL     1      -9.939   3.272  73.003  1.00  0.00    -0.206 A  
ENDBRANCH  22  23
ENDBRANCH   1  21
TORSDOF 6
ENDMDL
MODEL       53
REMARK 921   NORMALIZED FREE ENERGY PREDICTED BY IDOCK:   -6.09 KCAL/MOL
REMARK 922        TOTAL FREE ENERGY PREDICTED BY IDOCK:   -8.17 KCAL/MOL
REMARK 923 INTER-LIGAND FREE ENERGY PREDICTED BY IDOCK:   -7.33 KCAL/MOL
REMARK 924 INTRA-LIGAND FREE ENERGY PREDICTED BY IDOCK:   -0.83 KCAL/MOL
REMARK 927      BINDING AFFINITY PREDICTED BY RF-SCORE:    0.00 PKD
ROOT
HETATM    1  C   UNL     1     -11.407  10.775  69.554  1.00  0.00    -0.289 C  
ENDROOT
BRANCH   1   2
HETATM    2  N   UNL     1     -10.179  10.073  69.960  1.00  0.00    -0.260 NA 
HETATM    3  C   UNL     1     -10.743   7.758  69.050  1.00  0.00    -0.103 C  
HETATM    4  N   UNL     1     -10.803   7.125  70.395  1.00  0.00    -0.239 NA 
HETATM    5  C   UNL     1     -10.300   9.451  71.299  1.00  0.00    -0.292 C  
HETATM    6  C   UNL     1      -9.851   9.024  68.968  1.00  0.00    -0.175 C  
HETATM    7  C   UNL     1     -11.190   8.187  71.353  1.00  0.00    -0.254 C  
BRANCH   4   8
HETATM    8  C   UNL     1      -9.510   6.456  70.762  1.00  0.00    -0.169 C  
BRANCH   8   9
HETATM    9  C   UNL     1      -9.594   5.700  72.099  1.00  0.00    -0.170 A  
HETATM   10  C   UNL     1     -10.898   4.302  73.626  1.00  0.00    -0.358 A  
HETATM   11  C   UNL     1      -8.460   5.430  72.881  1.00  0.00    -0.119 A  
HETATM   12  C   UNL     1      -9.753   4.025  74.368  1.00  0.00    -0.155 A  
HETATM   13  C   UNL     1      -8.539   4.604  74.007  1.00  0.00    -0.105 A  
HETATM   14  C   UNL     1     -10.823   5.140  72.509  1.00  0.00    -0.282 A  
ENDBRANCH   8   9
BRANCH   8  15
HETATM   15  C   UNL     1      -8.980   5.606  69.596  1.00  0.00    -0.135 A  
HETATM   16  C   UNL     1      -9.175   3.580  68.253  1.00  0.00    -0.225 A  
HETATM   17  C   UNL     1      -7.128   4.852  68.203  1.00  0.00    -0.062 A  
HETATM   18  C   UNL     1      -7.872   3.751  67.791  1.00  0.00    -0.081 A  
HETATM   19  C   UNL     1      -7.675   5.770  69.100  1.00  0.00    -0.090 A  
HETATM   20  C   UNL     1      -9.731   4.507  69.139  1.00  0.00    -0.250 A  
ENDBRANCH   8  15
ENDBRANCH   4   8
ENDBRANCH   1   2
BRANCH   1  21
HETATM   21  C   UNL     1     -11.481  11.004  68.078  1.00  0.00    -0.365 C  
HETATM   22  C   UNL     1     -11.491  12.231  67.532  1.00  0.00    -0.414 C  
BRANCH  22  23
HETATM   23  C   UNL     1     -11.591  12.428  66.092  1.00  0.00    -0.452 A  
HETATM   24  C   UNL     1     -12.303  13.527  65.600  1.00  0.00    -0.522 A  
HETATM   25  C   UNL     1     -12.409  13.735  64.225  1.00  0.00    -0.384 A  
HETATM   26  C   UNL     1     -10.991  11.535  65.201  1.00  0.00    -0.298 A  
HETATM   27  C   UNL     1     -11.097  11.745  63.824  1.00  0.00    -0.513 A  
HETATM   28  C   UNL     1     -11.803  12.845  63.338  1.00  0.00    -0.576 A  
ENDBRANCH  22  23
ENDBRANCH   1  21
TORSDOF 6
ENDMDL
MODEL       54
REMARK 921   NORMALIZED FREE ENERGY PREDICTED BY IDOCK:   -6.04 KCAL/MOL
REMARK 922        TOTAL FREE ENERGY PREDICTED BY IDOCK:   -8.11 KCAL/MOL
REMARK 923 INTER-LIGAND FREE ENERGY PREDICTED BY IDOCK:   -7.43 KCAL/MOL
REMARK 924 INTRA-LIGAND FREE ENERGY PREDICTED BY IDOCK:   -0.68 KCAL/MOL
REMARK 927      BINDING AFFINITY PREDICTED BY RF-SCORE:    0.00 PKD
ROOT
HETATM    1  C   UNL     1     -10.848  10.052  67.688  1.00  0.00    -0.278 C  
ENDROOT
BRANCH   1   2
HETATM    2  N   UNL     1     -11.712  11.238  67.581  1.00  0.00    -0.605 NA 
HETATM    3  C   UNL     1      -9.949  13.036  67.985  1.00  0.00    -0.233 C  
HETATM    4  N   UNL     1     -10.547  13.488  69.270  1.00  0.00    -0.021 NA 
HETATM    5  C   UNL     1     -12.270  11.651  68.890  1.00  0.00    -0.050 C  
HETATM    6  C   UNL     1     -10.946  12.366  67.005  1.00  0.00    -0.260 C  
HETATM    7  C   UNL     1     -11.255  12.322  69.847  1.00  0.00     0.125 C  
BRANCH   4   8
HETATM    8  C   UNL     1     -11.444  14.678  69.087  1.00  0.00    -0.294 C  
BRANCH   8   9
HETATM    9  C   UNL     1     -12.110  15.124  70.400  1.00  0.00    -0.373 A  
HETATM   10  C   UNL     1     -14.150  15.357  71.729  1.00  0.00    -0.630 A  
HETATM   11  C   UNL     1     -11.368  15.414  71.556  1.00  0.00    -0.461 A  
HETATM   12  C   UNL     1     -13.392  15.612  72.869  1.00  0.00    -0.651 A  
HETATM   13  C   UNL     1     -12.003  15.659  72.778  1.00  0.00    -0.590 A  
HETATM   14  C   UNL     1     -13.517  15.126  70.504  1.00  0.00    -0.122 A  
ENDBRANCH   8   9
BRANCH   8  15
HETATM   15  C   UNL     1     -10.713  15.808  68.343  1.00  0.00    -0.281 A  
HETATM   16  C   UNL     1      -9.530  17.937  68.456  1.00  0.00    -0.316 A  
HETATM   17  C   UNL     1     -10.414  17.174  66.346  1.00  0.00    -0.255 A  
HETATM   18  C   UNL     1      -9.743  18.137  67.094  1.00  0.00    -0.301 A  
HETATM   19  C   UNL     1     -10.898  16.021  66.965  1.00  0.00    -0.227 A  
HETATM   20  C   UNL     1     -10.000  16.776  69.075  1.00  0.00    -0.272 A  
ENDBRANCH   8  15
ENDBRANCH   4   8
ENDBRANCH   1   2
BRANCH   1  21
HETATM   21  C   UNL     1     -10.307   9.610  66.365  1.00  0.00    -0.246 C  
HETATM   22  C   UNL     1      -9.089   9.064  66.223  1.00  0.00    -0.224 C  
BRANCH  22  23
HETATM   23  C   UNL     1      -8.575   8.667  64.919  1.00  0.00    -0.163 A  
HETATM   24  C   UNL     1      -7.751   7.540  64.823  1.00  0.00    -0.117 A  
HETATM   25  C   UNL     1      -7.250   7.141  63.584  1.00  0.00    -0.075 A  
HETATM   26  C   UNL     1      -8.891   9.395  63.769  1.00  0.00    -0.201 A  
HETATM   27  C   UNL     1      -8.389   8.994  62.529  1.00  0.00    -0.195 A  
HETATM   28  C   UNL     1      -7.572   7.867  62.438  1.00  0.00    -0.114 A  
ENDBRANCH  22  23
ENDBRANCH   1  21
TORSDOF 6
ENDMDL
MODEL       55
REMARK 921   NORMALIZED FREE ENERGY PREDICTED BY IDOCK:   -5.99 KCAL/MOL
REMARK 922        TOTAL FREE ENERGY PREDICTED BY IDOCK:   -8.03 KCAL/MOL
REMARK 923 INTER-LIGAND FREE ENERGY PREDICTED BY IDOCK:   -7.62 KCAL/MOL
REMARK 924 INTRA-LIGAND FREE ENERGY PREDICTED BY IDOCK:   -0.41 KCAL/MOL
REMARK 927      BINDING AFFINITY PREDICTED BY RF-SCORE:    0.00 PKD
ROOT
HETATM    1  C   UNL     1      -7.444  14.784  69.100  1.00  0.00    -0.153 C  
ENDROOT
BRANCH   1   2
HETATM    2  N   UNL     1      -7.309  13.927  67.911  1.00  0.00    -0.135 NA 
HETATM    3  C   UNL     1      -9.784  13.537  67.437  1.00  0.00    -0.229 C  
HETATM    4  N   UNL     1      -9.721  12.079  67.723  1.00  0.00    -0.187 NA 
HETATM    5  C   UNL     1      -7.264  12.487  68.253  1.00  0.00    -0.111 C  
HETATM    6  C   UNL     1      -8.441  14.169  66.989  1.00  0.00    -0.156 C  
HETATM    7  C   UNL     1      -8.618  11.879  68.692  1.00  0.00    -0.037 C  
BRANCH   4   8
HETATM    8  C   UNL     1      -9.549  11.265  66.474  1.00  0.00    -0.191 C  
BRANCH   8   9
HETATM    9  C   UNL     1      -9.402   9.761  66.763  1.00  0.00    -0.190 A  
HETATM   10  C   UNL     1     -10.466   7.633  67.329  1.00  0.00    -0.396 A  
HETATM   11  C   UNL     1      -8.227   9.052  66.468  1.00  0.00    -0.114 A  
HETATM   12  C   UNL     1      -9.299   6.949  67.001  1.00  0.00    -0.170 A  
HETATM   13  C   UNL     1      -8.175   7.660  66.589  1.00  0.00    -0.124 A  
HETATM   14  C   UNL     1     -10.516   9.026  67.222  1.00  0.00    -0.343 A  
ENDBRANCH   8   9
BRANCH   8  15
HETATM   15  C   UNL     1     -10.642  11.599  65.446  1.00  0.00    -0.331 A  
HETATM   16  C   UNL     1     -11.248  11.974  63.114  1.00  0.00    -0.261 A  
HETATM   17  C   UNL     1     -12.722  12.731  64.866  1.00  0.00    -0.479 A  
HETATM   18  C   UNL     1     -12.419  12.615  63.512  1.00  0.00    -0.516 A  
HETATM   19  C   UNL     1     -11.840  12.231  65.824  1.00  0.00    -0.417 A  
HETATM   20  C   UNL     1     -10.372  11.457  64.071  1.00  0.00    -0.418 A  
ENDBRANCH   8  15
ENDBRANCH   4   8
ENDBRANCH   1   2
BRANCH   1  21
HETATM   21  C   UNL     1      -8.128  16.080  68.804  1.00  0.00    -0.212 C  
HETATM   22  C   UNL     1      -7.486  17.141  68.289  1.00  0.00    -0.217 C  
BRANCH  22  23
HETATM   23  C   UNL     1      -8.171  18.401  68.035  1.00  0.00    -0.286 A  
HETATM   24  C   UNL     1      -7.495  19.421  67.356  1.00  0.00    -0.259 A  
HETATM   25  C   UNL     1      -8.133  20.635  67.101  1.00  0.00    -0.308 A  
HETATM   26  C   UNL     1      -9.485  18.605  68.463  1.00  0.00    -0.386 A  
HETATM   27  C   UNL     1     -10.122  19.821  68.205  1.00  0.00    -0.575 A  
HETATM   28  C   UNL     1      -9.447  20.832  67.523  1.00  0.00    -0.419 A  
ENDBRANCH  22  23
ENDBRANCH   1  21
TORSDOF 6
ENDMDL
MODEL       56
REMARK 921   NORMALIZED FREE ENERGY PREDICTED BY IDOCK:   -5.98 KCAL/MOL
REMARK 922        TOTAL FREE ENERGY PREDICTED BY IDOCK:   -8.02 KCAL/MOL
REMARK 923 INTER-LIGAND FREE ENERGY PREDICTED BY IDOCK:   -7.18 KCAL/MOL
REMARK 924 INTRA-LIGAND FREE ENERGY PREDICTED BY IDOCK:   -0.83 KCAL/MOL
REMARK 927      BINDING AFFINITY PREDICTED BY RF-SCORE:    0.00 PKD
ROOT
HETATM    1  C   UNL     1     -12.315   9.037  71.322  1.00  0.00    -0.302 C  
ENDROOT
BRANCH   1   2
HETATM    2  N   UNL     1     -10.932   8.538  71.361  1.00  0.00    -0.248 NA 
HETATM    3  C   UNL     1     -10.481   8.458  68.852  1.00  0.00    -0.189 C  
HETATM    4  N   UNL     1     -10.352   6.977  68.812  1.00  0.00    -0.180 NA 
HETATM    5  C   UNL     1     -10.862   7.059  71.306  1.00  0.00    -0.235 C  
HETATM    6  C   UNL     1     -10.164   9.100  70.227  1.00  0.00    -0.214 C  
HETATM    7  C   UNL     1     -11.178   6.444  69.921  1.00  0.00    -0.420 C  
BRANCH   4   8
HETATM    8  C   UNL     1      -8.920   6.532  68.890  1.00  0.00    -0.128 C  
BRANCH   8   9
HETATM    9  C   UNL     1      -8.767   5.006  68.770  1.00  0.00    -0.101 A  
HETATM   10  C   UNL     1      -7.853   2.925  69.672  1.00  0.00    -0.049 A  
HETATM   11  C   UNL     1      -9.567   4.238  67.909  1.00  0.00    -0.207 A  
HETATM   12  C   UNL     1      -8.678   2.184  68.831  1.00  0.00    -0.126 A  
HETATM   13  C   UNL     1      -9.521   2.841  67.937  1.00  0.00    -0.196 A  
HETATM   14  C   UNL     1      -7.888   4.323  69.636  1.00  0.00    -0.057 A  
ENDBRANCH   8   9
BRANCH   8  15
HETATM   15  C   UNL     1      -8.044   7.326  67.908  1.00  0.00    -0.119 A  
HETATM   16  C   UNL     1      -7.061   7.501  65.683  1.00  0.00    -0.061 A  
HETATM   17  C   UNL     1      -6.174   8.832  67.487  1.00  0.00    -0.052 A  
HETATM   18  C   UNL     1      -6.137   8.431  66.155  1.00  0.00    -0.048 A  
HETATM   19  C   UNL     1      -7.116   8.283  68.357  1.00  0.00    -0.081 A  
HETATM   20  C   UNL     1      -8.016   6.961  66.548  1.00  0.00    -0.109 A  
ENDBRANCH   8  15
ENDBRANCH   4   8
ENDBRANCH   1   2
BRANCH   1  21
HETATM   21  C   UNL     1     -12.391  10.513  71.094  1.00  0.00    -0.510 C  
HETATM   22  C   UNL     1     -13.085  11.338  71.895  1.00  0.00    -0.510 C  
BRANCH  22  23
HETATM   23  C   UNL     1     -13.164  12.770  71.635  1.00  0.00    -0.410 A  
HETATM   24  C   UNL     1     -12.356  13.329  70.638  1.00  0.00    -0.416 A  
HETATM   25  C   UNL     1     -12.418  14.696  70.371  1.00  0.00    -0.410 A  
HETATM   26  C   UNL     1     -14.029  13.587  72.367  1.00  0.00    -0.638 A  
HETATM   27  C   UNL     1     -14.089  14.956  72.098  1.00  0.00    -0.616 A  
HETATM   28  C   UNL     1     -13.287  15.508  71.099  1.00  0.00    -0.553 A  
ENDBRANCH  22  23
ENDBRANCH   1  21
TORSDOF 6
ENDMDL
MODEL       57
REMARK 921   NORMALIZED FREE ENERGY PREDICTED BY IDOCK:   -5.96 KCAL/MOL
REMARK 922        TOTAL FREE ENERGY PREDICTED BY IDOCK:   -7.99 KCAL/MOL
REMARK 923 INTER-LIGAND FREE ENERGY PREDICTED BY IDOCK:   -7.00 KCAL/MOL
REMARK 924 INTRA-LIGAND FREE ENERGY PREDICTED BY IDOCK:   -1.00 KCAL/MOL
REMARK 927      BINDING AFFINITY PREDICTED BY RF-SCORE:    0.00 PKD
ROOT
HETATM    1  C   UNL     1     -11.030  14.112  66.170  1.00  0.00    -0.309 C  
ENDROOT
BRANCH   1   2
HETATM    2  N   UNL     1      -9.924  13.167  65.950  1.00  0.00    -0.282 NA 
HETATM    3  C   UNL     1     -11.066  11.042  66.775  1.00  0.00    -0.172 C  
HETATM    4  N   UNL     1     -10.152  10.871  67.936  1.00  0.00    -0.173 NA 
HETATM    5  C   UNL     1      -9.054  13.026  67.141  1.00  0.00    -0.225 C  
HETATM    6  C   UNL     1     -10.466  11.838  65.588  1.00  0.00    -0.265 C  
HETATM    7  C   UNL     1      -9.675  12.223  68.309  1.00  0.00    -0.219 C  
BRANCH   4   8
HETATM    8  C   UNL     1      -9.028   9.922  67.636  1.00  0.00    -0.128 C  
BRANCH   8   9
HETATM    9  C   UNL     1      -7.935   9.937  68.718  1.00  0.00    -0.093 A  
HETATM   10  C   UNL     1      -7.232   9.328  70.980  1.00  0.00    -0.089 A  
HETATM   11  C   UNL     1      -6.600  10.263  68.431  1.00  0.00    -0.056 A  
HETATM   12  C   UNL     1      -5.910   9.629  70.662  1.00  0.00    -0.066 A  
HETATM   13  C   UNL     1      -5.598  10.113  69.395  1.00  0.00    -0.037 A  
HETATM   14  C   UNL     1      -8.238   9.491  70.022  1.00  0.00    -0.181 A  
ENDBRANCH   8   9
BRANCH   8  15
HETATM   15  C   UNL     1      -9.566   8.519  67.312  1.00  0.00    -0.220 A  
HETATM   16  C   UNL     1     -10.865   6.582  68.024  1.00  0.00    -0.372 A  
HETATM   17  C   UNL     1      -9.323   6.371  66.183  1.00  0.00    -0.110 A  
HETATM   18  C   UNL     1     -10.254   5.802  67.045  1.00  0.00    -0.258 A  
HETATM   19  C   UNL     1      -8.978   7.717  66.317  1.00  0.00    -0.209 A  
HETATM   20  C   UNL     1     -10.535   7.934  68.149  1.00  0.00    -0.227 A  
ENDBRANCH   8  15
ENDBRANCH   4   8
ENDBRANCH   1   2
BRANCH   1  21
HETATM   21  C   UNL     1     -10.566  15.532  66.262  1.00  0.00    -0.310 C  
HETATM   22  C   UNL     1     -10.923  16.350  67.265  1.00  0.00    -0.118 C  
BRANCH  22  23
HETATM   23  C   UNL     1     -10.480  17.736  67.317  1.00  0.00    -0.356 A  
HETATM   24  C   UNL     1     -10.533  18.514  66.154  1.00  0.00    -0.447 A  
HETATM   25  C   UNL     1     -10.115  19.844  66.182  1.00  0.00    -0.611 A  
HETATM   26  C   UNL     1     -10.001  18.296  68.504  1.00  0.00    -0.413 A  
HETATM   27  C   UNL     1      -9.584  19.628  68.529  1.00  0.00    -0.467 A  
HETATM   28  C   UNL     1      -9.644  20.401  67.370  1.00  0.00    -0.584 A  
ENDBRANCH  22  23
ENDBRANCH   1  21
TORSDOF 6
ENDMDL
MODEL       58
REMARK 921   NORMALIZED FREE ENERGY PREDICTED BY IDOCK:   -5.92 KCAL/MOL
REMARK 922        TOTAL FREE ENERGY PREDICTED BY IDOCK:   -7.94 KCAL/MOL
REMARK 923 INTER-LIGAND FREE ENERGY PREDICTED BY IDOCK:   -7.63 KCAL/MOL
REMARK 924 INTRA-LIGAND FREE ENERGY PREDICTED BY IDOCK:   -0.30 KCAL/MOL
REMARK 927      BINDING AFFINITY PREDICTED BY RF-SCORE:    0.00 PKD
ROOT
HETATM    1  C   UNL     1      -8.728   8.028  67.242  1.00  0.00    -0.131 C  
ENDROOT
BRANCH   1   2
HETATM    2  N   UNL     1     -10.071   8.629  67.216  1.00  0.00    -0.220 NA 
HETATM    3  C   UNL     1      -9.393  11.072  66.946  1.00  0.00    -0.173 C  
HETATM    4  N   UNL     1      -9.919  11.479  68.276  1.00  0.00    -0.195 NA 
HETATM    5  C   UNL     1     -10.540   9.026  68.564  1.00  0.00    -0.155 C  
HETATM    6  C   UNL     1     -10.071   9.819  66.335  1.00  0.00    -0.243 C  
HETATM    7  C   UNL     1      -9.852  10.283  69.148  1.00  0.00    -0.216 C  
BRANCH   4   8
HETATM    8  C   UNL     1     -11.304  12.052  68.185  1.00  0.00    -0.291 C  
BRANCH   8   9
HETATM    9  C   UNL     1     -11.875  12.442  69.559  1.00  0.00    -0.368 A  
HETATM   10  C   UNL     1     -12.726  14.189  71.044  1.00  0.00    -0.433 A  
HETATM   11  C   UNL     1     -12.350  11.487  70.473  1.00  0.00    -0.432 A  
HETATM   12  C   UNL     1     -13.214  13.223  71.919  1.00  0.00    -0.523 A  
HETATM   13  C   UNL     1     -13.010  11.874  71.643  1.00  0.00    -0.447 A  
HETATM   14  C   UNL     1     -12.052  13.804  69.880  1.00  0.00    -0.412 A  
ENDBRANCH   8   9
BRANCH   8  15
HETATM   15  C   UNL     1     -11.365  13.178  67.141  1.00  0.00    -0.354 A  
HETATM   16  C   UNL     1     -12.225  13.979  65.004  1.00  0.00    -0.448 A  
HETATM   17  C   UNL     1     -10.319  15.065  66.005  1.00  0.00    -0.326 A  
HETATM   18  C   UNL     1     -11.230  14.954  64.960  1.00  0.00    -0.408 A  
HETATM   19  C   UNL     1     -10.383  14.183  67.085  1.00  0.00    -0.265 A  
HETATM   20  C   UNL     1     -12.302  13.106  66.092  1.00  0.00    -0.385 A  
ENDBRANCH   8  15
ENDBRANCH   4   8
ENDBRANCH   1   2
BRANCH   1  21
HETATM   21  C   UNL     1      -8.742   6.569  66.915  1.00  0.00    -0.115 C  
HETATM   22  C   UNL     1      -9.152   5.632  67.786  1.00  0.00    -0.106 C  
BRANCH  22  23
HETATM   23  C   UNL     1      -9.129   4.214  67.452  1.00  0.00    -0.163 A  
HETATM   24  C   UNL     1      -9.388   3.272  68.454  1.00  0.00    -0.241 A  
HETATM   25  C   UNL     1      -9.373   1.910  68.155  1.00  0.00    -0.241 A  
HETATM   26  C   UNL     1      -8.850   3.785  66.152  1.00  0.00    -0.127 A  
HETATM   27  C   UNL     1      -8.836   2.421  65.855  1.00  0.00    -0.128 A  
HETATM   28  C   UNL     1      -9.101   1.486  66.855  1.00  0.00    -0.087 A  
ENDBRANCH  22  23
ENDBRANCH   1  21
TORSDOF 6
ENDMDL
MODEL       59
REMARK 921   NORMALIZED FREE ENERGY PREDICTED BY IDOCK:   -5.92 KCAL/MOL
REMARK 922        TOTAL FREE ENERGY PREDICTED BY IDOCK:   -7.93 KCAL/MOL
REMARK 923 INTER-LIGAND FREE ENERGY PREDICTED BY IDOCK:   -7.09 KCAL/MOL
REMARK 924 INTRA-LIGAND FREE ENERGY PREDICTED BY IDOCK:   -0.84 KCAL/MOL
REMARK 927      BINDING AFFINITY PREDICTED BY RF-SCORE:    0.00 PKD
ROOT
HETATM    1  C   UNL     1      -9.016   8.788  65.615  1.00  0.00    -0.200 C  
ENDROOT
BRANCH   1   2
HETATM    2  N   UNL     1      -9.839   7.730  66.222  1.00  0.00    -0.113 NA 
HETATM    3  C   UNL     1      -9.755   8.522  68.645  1.00  0.00    -0.164 C  
HETATM    4  N   UNL     1      -8.993   7.337  69.120  1.00  0.00    -0.135 NA 
HETATM    5  C   UNL     1      -9.028   6.581  66.689  1.00  0.00    -0.138 C  
HETATM    6  C   UNL     1     -10.599   8.282  67.367  1.00  0.00    -0.253 C  
HETATM    7  C   UNL     1      -8.200   6.846  67.969  1.00  0.00    -0.115 C  
BRANCH   4   8
HETATM    8  C   UNL     1      -9.892   6.281  69.697  1.00  0.00    -0.163 C  
BRANCH   8   9
HETATM    9  C   UNL     1      -9.119   5.032  70.154  1.00  0.00    -0.163 A  
HETATM   10  C   UNL     1      -7.510   4.023  71.695  1.00  0.00    -0.060 A  
HETATM   11  C   UNL     1      -9.465   3.739  69.728  1.00  0.00    -0.256 A  
HETATM   12  C   UNL     1      -7.891   2.751  71.278  1.00  0.00    -0.044 A  
HETATM   13  C   UNL     1      -8.854   2.610  70.282  1.00  0.00    -0.147 A  
HETATM   14  C   UNL     1      -8.109   5.154  71.131  1.00  0.00    -0.108 A  
ENDBRANCH   8   9
BRANCH   8  15
HETATM   15  C   UNL     1     -10.814   6.874  70.774  1.00  0.00    -0.279 A  
HETATM   16  C   UNL     1     -13.084   7.375  71.511  1.00  0.00    -0.424 A  
HETATM   17  C   UNL     1     -11.218   8.491  72.554  1.00  0.00    -0.336 A  
HETATM   18  C   UNL     1     -12.590   8.294  72.435  1.00  0.00    -0.323 A  
HETATM   19  C   UNL     1     -10.337   7.790  71.728  1.00  0.00    -0.243 A  
HETATM   20  C   UNL     1     -12.203   6.660  70.695  1.00  0.00    -0.262 A  
ENDBRANCH   8  15
ENDBRANCH   4   8
ENDBRANCH   1   2
BRANCH   1  21
HETATM   21  C   UNL     1      -9.732  10.099  65.530  1.00  0.00    -0.344 C  
HETATM   22  C   UNL     1     -10.002  10.706  64.364  1.00  0.00    -0.415 C  
BRANCH  22  23
HETATM   23  C   UNL     1     -10.676  11.997  64.311  1.00  0.00    -0.382 A  
HETATM   24  C   UNL     1     -10.081  13.104  64.926  1.00  0.00    -0.236 A  
HETATM   25  C   UNL     1     -10.709  14.349  64.886  1.00  0.00    -0.444 A  
HETATM   26  C   UNL     1     -11.905  12.141  63.661  1.00  0.00    -0.608 A  
HETATM   27  C   UNL     1     -12.531  13.389  63.621  1.00  0.00    -0.316 A  
HETATM   28  C   UNL     1     -11.931  14.491  64.230  1.00  0.00    -0.419 A  
ENDBRANCH  22  23
ENDBRANCH   1  21
TORSDOF 6
ENDMDL
MODEL       60
REMARK 921   NORMALIZED FREE ENERGY PREDICTED BY IDOCK:   -5.85 KCAL/MOL
REMARK 922        TOTAL FREE ENERGY PREDICTED BY IDOCK:   -7.84 KCAL/MOL
REMARK 923 INTER-LIGAND FREE ENERGY PREDICTED BY IDOCK:   -7.57 KCAL/MOL
REMARK 924 INTRA-LIGAND FREE ENERGY PREDICTED BY IDOCK:   -0.27 KCAL/MOL
REMARK 927      BINDING AFFINITY PREDICTED BY RF-SCORE:    0.00 PKD
ROOT
HETATM    1  C   UNL     1      -7.753  10.064  67.797  1.00  0.00    -0.090 C  
ENDROOT
BRANCH   1   2
HETATM    2  N   UNL     1      -8.296  10.205  69.158  1.00  0.00    -0.142 NA 
HETATM    3  C   UNL     1      -8.119   7.771  69.897  1.00  0.00    -0.120 C  
HETATM    4  N   UNL     1      -9.590   7.582  70.002  1.00  0.00    -0.165 NA 
HETATM    5  C   UNL     1      -9.762   9.995  69.206  1.00  0.00    -0.215 C  
HETATM    6  C   UNL     1      -7.638   9.235  70.063  1.00  0.00    -0.099 C  
HETATM    7  C   UNL     1     -10.214   8.524  69.043  1.00  0.00    -0.207 C  
BRANCH   4   8
HETATM    8  C   UNL     1     -10.085   7.774  71.407  1.00  0.00    -0.182 C  
BRANCH   8   9
HETATM    9  C   UNL     1     -11.606   7.998  71.473  1.00  0.00    -0.313 A  
HETATM   10  C   UNL     1     -13.861   7.068  71.301  1.00  0.00    -0.222 A  
HETATM   11  C   UNL     1     -12.168   9.162  72.023  1.00  0.00    -0.443 A  
HETATM   12  C   UNL     1     -14.392   8.219  71.876  1.00  0.00    -0.564 A  
HETATM   13  C   UNL     1     -13.548   9.272  72.219  1.00  0.00    -0.544 A  
HETATM   14  C   UNL     1     -12.482   6.961  71.091  1.00  0.00    -0.398 A  
ENDBRANCH   8   9
BRANCH   8  15
HETATM   15  C   UNL     1      -9.580   6.649  72.325  1.00  0.00    -0.150 A  
HETATM   16  C   UNL     1      -8.472   6.010  74.401  1.00  0.00    -0.116 A  
HETATM   17  C   UNL     1      -8.676   4.403  72.615  1.00  0.00    -0.113 A  
HETATM   18  C   UNL     1      -8.229   4.737  73.890  1.00  0.00    -0.105 A  
HETATM   19  C   UNL     1      -9.342   5.352  71.837  1.00  0.00    -0.162 A  
HETATM   20  C   UNL     1      -9.154   6.956  73.632  1.00  0.00    -0.182 A  
ENDBRANCH   8  15
ENDBRANCH   4   8
ENDBRANCH   1   2
BRANCH   1  21
HETATM   21  C   UNL     1      -8.752  10.405  66.738  1.00  0.00    -0.132 C  
HETATM   22  C   UNL     1      -9.406  11.577  66.705  1.00  0.00    -0.191 C  
BRANCH  22  23
HETATM   23  C   UNL     1     -10.395  11.873  65.677  1.00  0.00    -0.285 A  
HETATM   24  C   UNL     1     -11.568  12.549  66.032  1.00  0.00    -0.456 A  
HETATM   25  C   UNL     1     -12.526  12.845  65.064  1.00  0.00    -0.553 A  
HETATM   26  C   UNL     1     -10.190  11.490  64.350  1.00  0.00    -0.350 A  
HETATM   27  C   UNL     1     -11.151  11.787  63.381  1.00  0.00    -0.448 A  
HETATM   28  C   UNL     1     -12.316  12.466  63.738  1.00  0.00    -0.625 A  
ENDBRANCH  22  23
ENDBRANCH   1  21
TORSDOF 6
ENDMDL
MODEL       61
REMARK 921   NORMALIZED FREE ENERGY PREDICTED BY IDOCK:   -5.80 KCAL/MOL
REMARK 922        TOTAL FREE ENERGY PREDICTED BY IDOCK:   -7.78 KCAL/MOL
REMARK 923 INTER-LIGAND FREE ENERGY PREDICTED BY IDOCK:   -8.17 KCAL/MOL
REMARK 924 INTRA-LIGAND FREE ENERGY PREDICTED BY IDOCK:    0.39 KCAL/MOL
REMARK 927      BINDING AFFINITY PREDICTED BY RF-SCORE:    0.00 PKD
ROOT
HETATM    1  C   UNL     1     -10.073  16.418  67.891  1.00  0.00    -0.250 C  
ENDROOT
BRANCH   1   2
HETATM    2  N   UNL     1      -9.123  15.297  67.820  1.00  0.00    -0.181 NA 
HETATM    3  C   UNL     1     -10.117  14.079  65.812  1.00  0.00    -0.327 C  
HETATM    4  N   UNL     1     -10.511  12.878  66.598  1.00  0.00    -0.260 NA 
HETATM    5  C   UNL     1      -9.570  14.126  68.609  1.00  0.00    -0.179 C  
HETATM    6  C   UNL     1      -8.937  14.887  66.409  1.00  0.00    -0.219 C  
HETATM    7  C   UNL     1     -10.746  13.333  67.988  1.00  0.00    -0.240 C  
BRANCH   4   8
HETATM    8  C   UNL     1      -9.485  11.786  66.511  1.00  0.00    -0.214 C  
BRANCH   8   9
HETATM    9  C   UNL     1      -9.581  10.790  67.680  1.00  0.00    -0.174 A  
HETATM   10  C   UNL     1      -8.597   9.869  69.721  1.00  0.00    -0.219 A  
HETATM   11  C   UNL     1     -10.771  10.115  67.994  1.00  0.00    -0.305 A  
HETATM   12  C   UNL     1      -9.797   9.234  70.026  1.00  0.00    -0.232 A  
HETATM   13  C   UNL     1     -10.877   9.342  69.154  1.00  0.00    -0.154 A  
HETATM   14  C   UNL     1      -8.484  10.631  68.553  1.00  0.00    -0.136 A  
ENDBRANCH   8   9
BRANCH   8  15
HETATM   15  C   UNL     1      -9.503  11.124  65.124  1.00  0.00    -0.257 A  
HETATM   16  C   UNL     1      -8.279   9.952  63.370  1.00  0.00    -0.161 A  
HETATM   17  C   UNL     1     -10.394  10.989  62.859  1.00  0.00    -0.052 A  
HETATM   18  C   UNL     1      -9.275  10.271  62.450  1.00  0.00    -0.311 A  
HETATM   19  C   UNL     1     -10.507  11.415  64.183  1.00  0.00    -0.421 A  
HETATM   20  C   UNL     1      -8.397  10.363  64.701  1.00  0.00    -0.155 A  
ENDBRANCH   8  15
ENDBRANCH   4   8
ENDBRANCH   1   2
BRANCH   1  21
HETATM   21  C   UNL     1     -11.179  16.177  68.869  1.00  0.00    -0.351 C  
HETATM   22  C   UNL     1     -10.989  16.185  70.198  1.00  0.00    -0.359 C  
BRANCH  22  23
HETATM   23  C   UNL     1     -12.078  15.920  71.129  1.00  0.00    -0.464 A  
HETATM   24  C   UNL     1     -11.939  16.299  72.469  1.00  0.00    -0.648 A  
HETATM   25  C   UNL     1     -12.971  16.056  73.376  1.00  0.00    -0.676 A  
HETATM   26  C   UNL     1     -13.251  15.291  70.704  1.00  0.00    -0.370 A  
HETATM   27  C   UNL     1     -14.283  15.050  71.613  1.00  0.00    -0.649 A  
HETATM   28  C   UNL     1     -14.143  15.435  72.946  1.00  0.00    -0.206 A  
ENDBRANCH  22  23
ENDBRANCH   1  21
TORSDOF 6
ENDMDL
MODEL       62
REMARK 921   NORMALIZED FREE ENERGY PREDICTED BY IDOCK:   -5.79 KCAL/MOL
REMARK 922        TOTAL FREE ENERGY PREDICTED BY IDOCK:   -7.76 KCAL/MOL
REMARK 923 INTER-LIGAND FREE ENERGY PREDICTED BY IDOCK:   -7.05 KCAL/MOL
REMARK 924 INTRA-LIGAND FREE ENERGY PREDICTED BY IDOCK:   -0.71 KCAL/MOL
REMARK 927      BINDING AFFINITY PREDICTED BY RF-SCORE:    0.00 PKD
ROOT
HETATM    1  C   UNL     1      -6.993  14.609  69.315  1.00  0.00    -0.147 C  
ENDROOT
BRANCH   1   2
HETATM    2  N   UNL     1      -6.893  13.837  68.066  1.00  0.00    -0.121 NA 
HETATM    3  C   UNL     1      -9.382  13.584  67.572  1.00  0.00    -0.220 C  
HETATM    4  N   UNL     1      -9.379  12.107  67.751  1.00  0.00    -0.186 NA 
HETATM    5  C   UNL     1      -6.907  12.375  68.303  1.00  0.00    -0.080 C  
HETATM    6  C   UNL     1      -8.015  14.192  67.167  1.00  0.00    -0.075 C  
HETATM    7  C   UNL     1      -8.285  11.793  68.700  1.00  0.00    -0.091 C  
BRANCH   4   8
HETATM    8  C   UNL     1      -9.240  11.380  66.445  1.00  0.00    -0.197 C  
BRANCH   8   9
HETATM    9  C   UNL     1      -9.236   9.851  66.617  1.00  0.00    -0.185 A  
HETATM   10  C   UNL     1     -10.435   7.823  67.273  1.00  0.00    -0.392 A  
HETATM   11  C   UNL     1      -8.243   9.036  66.050  1.00  0.00    -0.113 A  
HETATM   12  C   UNL     1      -9.453   7.036  66.677  1.00  0.00    -0.210 A  
HETATM   13  C   UNL     1      -8.349   7.642  66.083  1.00  0.00    -0.134 A  
HETATM   14  C   UNL     1     -10.323   9.217  67.254  1.00  0.00    -0.338 A  
ENDBRANCH   8   9
BRANCH   8  15
HETATM   15  C   UNL     1     -10.267  11.890  65.421  1.00  0.00    -0.300 A  
HETATM   16  C   UNL     1     -12.539  12.647  64.966  1.00  0.00    -0.504 A  
HETATM   17  C   UNL     1     -11.129  11.943  63.141  1.00  0.00    -0.267 A  
HETATM   18  C   UNL     1     -12.355  12.412  63.605  1.00  0.00    -0.647 A  
HETATM   19  C   UNL     1     -10.095  11.680  64.041  1.00  0.00    -0.362 A  
HETATM   20  C   UNL     1     -11.500  12.401  65.867  1.00  0.00    -0.422 A  
ENDBRANCH   8  15
ENDBRANCH   4   8
ENDBRANCH   1   2
BRANCH   1  21
HETATM   21  C   UNL     1      -6.872  16.084  69.094  1.00  0.00    -0.180 C  
HETATM   22  C   UNL     1      -5.965  16.842  69.730  1.00  0.00    -0.232 C  
BRANCH  22  23
HETATM   23  C   UNL     1      -5.886  18.281  69.517  1.00  0.00    -0.246 A  
HETATM   24  C   UNL     1      -6.496  18.839  68.387  1.00  0.00    -0.240 A  
HETATM   25  C   UNL     1      -6.434  20.214  68.164  1.00  0.00    -0.309 A  
HETATM   26  C   UNL     1      -5.210  19.107  70.418  1.00  0.00    -0.223 A  
HETATM   27  C   UNL     1      -5.150  20.484  70.194  1.00  0.00    -0.313 A  
HETATM   28  C   UNL     1      -5.764  21.036  69.070  1.00  0.00    -0.311 A  
ENDBRANCH  22  23
ENDBRANCH   1  21
TORSDOF 6
ENDMDL
MODEL       63
REMARK 921   NORMALIZED FREE ENERGY PREDICTED BY IDOCK:   -5.79 KCAL/MOL
REMARK 922        TOTAL FREE ENERGY PREDICTED BY IDOCK:   -7.76 KCAL/MOL
REMARK 923 INTER-LIGAND FREE ENERGY PREDICTED BY IDOCK:   -6.81 KCAL/MOL
REMARK 924 INTRA-LIGAND FREE ENERGY PREDICTED BY IDOCK:   -0.95 KCAL/MOL
REMARK 927      BINDING AFFINITY PREDICTED BY RF-SCORE:    0.00 PKD
ROOT
HETATM    1  C   UNL     1      -9.234   7.906  69.211  1.00  0.00    -0.148 C  
ENDROOT
BRANCH   1   2
HETATM    2  N   UNL     1      -8.717   9.092  68.510  1.00  0.00    -0.133 NA 
HETATM    3  C   UNL     1     -10.317  10.832  69.466  1.00  0.00    -0.144 C  
HETATM    4  N   UNL     1     -10.966  11.114  68.158  1.00  0.00    -0.218 NA 
HETATM    5  C   UNL     1      -9.407   9.332  67.220  1.00  0.00    -0.131 C  
HETATM    6  C   UNL     1      -8.869  10.288  69.369  1.00  0.00    -0.163 C  
HETATM    7  C   UNL     1     -10.849   9.880  67.346  1.00  0.00    -0.227 C  
BRANCH   4   8
HETATM    8  C   UNL     1     -10.371  12.313  67.479  1.00  0.00    -0.203 C  
BRANCH   8   9
HETATM    9  C   UNL     1     -10.904  12.508  66.049  1.00  0.00    -0.309 A  
HETATM   10  C   UNL     1     -10.494  12.407  63.639  1.00  0.00    -0.460 A  
HETATM   11  C   UNL     1     -12.272  12.659  65.772  1.00  0.00    -0.427 A  
HETATM   12  C   UNL     1     -11.859  12.528  63.391  1.00  0.00    -0.587 A  
HETATM   13  C   UNL     1     -12.744  12.672  64.456  1.00  0.00    -0.439 A  
HETATM   14  C   UNL     1     -10.018  12.409  64.955  1.00  0.00    -0.207 A  
ENDBRANCH   8   9
BRANCH   8  15
HETATM   15  C   UNL     1     -10.492  13.563  68.366  1.00  0.00    -0.252 A  
HETATM   16  C   UNL     1     -11.937  15.160  69.510  1.00  0.00    -0.351 A  
HETATM   17  C   UNL     1      -9.624  15.715  69.114  1.00  0.00    -0.251 A  
HETATM   18  C   UNL     1     -10.879  16.060  69.607  1.00  0.00    -0.329 A  
HETATM   19  C   UNL     1      -9.433  14.479  68.495  1.00  0.00    -0.211 A  
HETATM   20  C   UNL     1     -11.744  13.915  68.905  1.00  0.00    -0.373 A  
ENDBRANCH   8  15
ENDBRANCH   4   8
ENDBRANCH   1   2
BRANCH   1  21
HETATM   21  C   UNL     1      -9.144   6.662  68.386  1.00  0.00    -0.124 C  
HETATM   22  C   UNL     1      -9.281   5.432  68.908  1.00  0.00    -0.147 C  
BRANCH  22  23
HETATM   23  C   UNL     1      -9.161   4.235  68.086  1.00  0.00    -0.186 A  
HETATM   24  C   UNL     1      -8.888   4.368  66.720  1.00  0.00    -0.114 A  
HETATM   25  C   UNL     1      -8.767   3.235  65.916  1.00  0.00    -0.127 A  
HETATM   26  C   UNL     1      -9.319   2.962  68.641  1.00  0.00    -0.239 A  
HETATM   27  C   UNL     1      -9.197   1.829  67.834  1.00  0.00    -0.212 A  
HETATM   28  C   UNL     1      -8.919   1.966  66.475  1.00  0.00    -0.104 A  
ENDBRANCH  22  23
ENDBRANCH   1  21
TORSDOF 6
ENDMDL
MODEL       64
REMARK 921   NORMALIZED FREE ENERGY PREDICTED BY IDOCK:   -5.78 KCAL/MOL
REMARK 922        TOTAL FREE ENERGY PREDICTED BY IDOCK:   -7.75 KCAL/MOL
REMARK 923 INTER-LIGAND FREE ENERGY PREDICTED BY IDOCK:   -7.48 KCAL/MOL
REMARK 924 INTRA-LIGAND FREE ENERGY PREDICTED BY IDOCK:   -0.27 KCAL/MOL
REMARK 927      BINDING AFFINITY PREDICTED BY RF-SCORE:    0.00 PKD
ROOT
HETATM    1  C   UNL     1      -8.394   9.359  66.025  1.00  0.00    -0.119 C  
ENDROOT
BRANCH   1   2
HETATM    2  N   UNL     1      -8.166   8.976  67.427  1.00  0.00    -0.108 NA 
HETATM    3  C   UNL     1      -8.400   6.449  67.177  1.00  0.00    -0.112 C  
HETATM    4  N   UNL     1      -9.631   6.371  68.009  1.00  0.00    -0.119 NA 
HETATM    5  C   UNL     1      -9.425   8.901  68.205  1.00  0.00    -0.143 C  
HETATM    6  C   UNL     1      -7.485   7.663  67.483  1.00  0.00    -0.104 C  
HETATM    7  C   UNL     1     -10.317   7.678  67.884  1.00  0.00    -0.212 C  
BRANCH   4   8
HETATM    8  C   UNL     1      -9.327   6.010  69.434  1.00  0.00    -0.131 C  
BRANCH   8   9
HETATM    9  C   UNL     1     -10.310   6.650  70.429  1.00  0.00    -0.231 A  
HETATM   10  C   UNL     1     -10.710   8.277  72.211  1.00  0.00    -0.399 A  
HETATM   11  C   UNL     1     -11.700   6.476  70.327  1.00  0.00    -0.430 A  
HETATM   12  C   UNL     1     -12.085   8.110  72.070  1.00  0.00    -0.388 A  
HETATM   13  C   UNL     1     -12.578   7.197  71.142  1.00  0.00    -0.384 A  
HETATM   14  C   UNL     1      -9.829   7.547  71.406  1.00  0.00    -0.191 A  
ENDBRANCH   8   9
BRANCH   8  15
HETATM   15  C   UNL     1      -9.178   4.488  69.595  1.00  0.00    -0.195 A  
HETATM   16  C   UNL     1      -9.353   2.271  68.594  1.00  0.00    -0.238 A  
HETATM   17  C   UNL     1      -9.267   2.493  70.994  1.00  0.00    -0.201 A  
HETATM   18  C   UNL     1      -9.370   1.692  69.861  1.00  0.00    -0.165 A  
HETATM   19  C   UNL     1      -9.176   3.880  70.863  1.00  0.00    -0.199 A  
HETATM   20  C   UNL     1      -9.245   3.658  68.460  1.00  0.00    -0.220 A  
ENDBRANCH   8  15
ENDBRANCH   4   8
ENDBRANCH   1   2
BRANCH   1  21
HETATM   21  C   UNL     1      -9.189  10.619  65.892  1.00  0.00    -0.209 C  
HETATM   22  C   UNL     1     -10.354  10.677  65.228  1.00  0.00    -0.321 C  
BRANCH  22  23
HETATM   23  C   UNL     1     -11.096  11.924  65.090  1.00  0.00    -0.360 A  
HETATM   24  C   UNL     1     -11.427  12.385  63.811  1.00  0.00    -0.544 A  
HETATM   25  C   UNL     1     -12.138  13.574  63.656  1.00  0.00    -0.459 A  
HETATM   26  C   UNL     1     -11.475  12.663  66.213  1.00  0.00    -0.415 A  
HETATM   27  C   UNL     1     -12.188  13.854  66.056  1.00  0.00    -0.495 A  
HETATM   28  C   UNL     1     -12.521  14.306  64.780  1.00  0.00    -0.390 A  
ENDBRANCH  22  23
ENDBRANCH   1  21
TORSDOF 6
ENDMDL
MODEL       65
REMARK 921   NORMALIZED FREE ENERGY PREDICTED BY IDOCK:   -5.70 KCAL/MOL
REMARK 922        TOTAL FREE ENERGY PREDICTED BY IDOCK:   -7.63 KCAL/MOL
REMARK 923 INTER-LIGAND FREE ENERGY PREDICTED BY IDOCK:   -6.72 KCAL/MOL
REMARK 924 INTRA-LIGAND FREE ENERGY PREDICTED BY IDOCK:   -0.91 KCAL/MOL
REMARK 927      BINDING AFFINITY PREDICTED BY RF-SCORE:    0.00 PKD
ROOT
HETATM    1  C   UNL     1     -10.552  11.087  69.422  1.00  0.00    -0.174 C  
ENDROOT
BRANCH   1   2
HETATM    2  N   UNL     1     -11.150   9.742  69.405  1.00  0.00    -0.207 NA 
HETATM    3  C   UNL     1      -9.818   8.706  71.317  1.00  0.00    -0.238 C  
HETATM    4  N   UNL     1      -9.119   7.725  70.443  1.00  0.00    -0.154 NA 
HETATM    5  C   UNL     1     -10.407   8.804  68.530  1.00  0.00    -0.199 C  
HETATM    6  C   UNL     1     -11.187   9.193  70.779  1.00  0.00    -0.277 C  
HETATM    7  C   UNL     1      -9.046   8.329  69.092  1.00  0.00    -0.148 C  
BRANCH   4   8
HETATM    8  C   UNL     1      -9.797   6.385  70.443  1.00  0.00    -0.169 C  
BRANCH   8   9
HETATM    9  C   UNL     1      -9.116   5.377  69.501  1.00  0.00    -0.140 A  
HETATM   10  C   UNL     1      -7.071   4.238  68.793  1.00  0.00    -0.052 A  
HETATM   11  C   UNL     1      -9.848   4.471  68.718  1.00  0.00    -0.180 A  
HETATM   12  C   UNL     1      -7.821   3.332  68.048  1.00  0.00    -0.063 A  
HETATM   13  C   UNL     1      -9.206   3.460  67.996  1.00  0.00    -0.238 A  
HETATM   14  C   UNL     1      -7.711   5.259  69.505  1.00  0.00    -0.073 A  
ENDBRANCH   8   9
BRANCH   8  15
HETATM   15  C   UNL     1      -9.991   5.867  71.878  1.00  0.00    -0.203 A  
HETATM   16  C   UNL     1      -8.992   4.921  73.891  1.00  0.00    -0.113 A  
HETATM   17  C   UNL     1     -11.376   4.777  73.561  1.00  0.00    -0.340 A  
HETATM   18  C   UNL     1     -10.247   4.500  74.326  1.00  0.00    -0.277 A  
HETATM   19  C   UNL     1     -11.249   5.451  72.346  1.00  0.00    -0.272 A  
HETATM   20  C   UNL     1      -8.864   5.611  72.683  1.00  0.00    -0.123 A  
ENDBRANCH   8  15
ENDBRANCH   4   8
ENDBRANCH   1   2
BRANCH   1  21
HETATM   21  C   UNL     1     -10.645  11.778  68.099  1.00  0.00    -0.230 C  
HETATM   22  C   UNL     1     -11.781  11.827  67.383  1.00  0.00    -0.304 C  
BRANCH  22  23
HETATM   23  C   UNL     1     -11.838  12.483  66.084  1.00  0.00    -0.459 A  
HETATM   24  C   UNL     1     -11.353  11.811  64.957  1.00  0.00    -0.288 A  
HETATM   25  C   UNL     1     -11.400  12.420  63.703  1.00  0.00    -0.556 A  
HETATM   26  C   UNL     1     -12.364  13.771  65.950  1.00  0.00    -0.516 A  
HETATM   27  C   UNL     1     -12.411  14.378  64.694  1.00  0.00    -0.435 A  
HETATM   28  C   UNL     1     -11.932  13.702  63.572  1.00  0.00    -0.301 A  
ENDBRANCH  22  23
ENDBRANCH   1  21
TORSDOF 6
ENDMDL
MODEL       66
REMARK 921   NORMALIZED FREE ENERGY PREDICTED BY IDOCK:   -5.69 KCAL/MOL
REMARK 922        TOTAL FREE ENERGY PREDICTED BY IDOCK:   -7.63 KCAL/MOL
REMARK 923 INTER-LIGAND FREE ENERGY PREDICTED BY IDOCK:   -7.51 KCAL/MOL
REMARK 924 INTRA-LIGAND FREE ENERGY PREDICTED BY IDOCK:   -0.12 KCAL/MOL
REMARK 927      BINDING AFFINITY PREDICTED BY RF-SCORE:    0.00 PKD
ROOT
HETATM    1  C   UNL     1      -8.986   8.281  65.911  1.00  0.00    -0.163 C  
ENDROOT
BRANCH   1   2
HETATM    2  N   UNL     1      -8.610   9.392  66.800  1.00  0.00    -0.126 NA 
HETATM    3  C   UNL     1     -10.883   9.803  67.880  1.00  0.00    -0.242 C  
HETATM    4  N   UNL     1     -11.043  11.158  67.286  1.00  0.00    -0.295 NA 
HETATM    5  C   UNL     1      -8.800  10.716  66.163  1.00  0.00    -0.168 C  
HETATM    6  C   UNL     1      -9.415   9.334  68.041  1.00  0.00    -0.137 C  
HETATM    7  C   UNL     1     -10.275  11.163  66.019  1.00  0.00    -0.250 C  
BRANCH   4   8
HETATM    8  C   UNL     1     -10.611  12.243  68.230  1.00  0.00    -0.227 C  
BRANCH   8   9
HETATM    9  C   UNL     1     -10.302  13.566  67.508  1.00  0.00    -0.237 A  
HETATM   10  C   UNL     1      -8.651  15.246  66.852  1.00  0.00    -0.289 A  
HETATM   11  C   UNL     1     -11.211  14.168  66.624  1.00  0.00    -0.330 A  
HETATM   12  C   UNL     1      -9.560  15.808  65.959  1.00  0.00    -0.388 A  
HETATM   13  C   UNL     1     -10.845  15.280  65.860  1.00  0.00    -0.345 A  
HETATM   14  C   UNL     1      -9.020  14.143  67.628  1.00  0.00    -0.192 A  
ENDBRANCH   8   9
BRANCH   8  15
HETATM   15  C   UNL     1     -11.604  12.384  69.395  1.00  0.00    -0.371 A  
HETATM   16  C   UNL     1     -12.591  13.803  71.115  1.00  0.00    -0.452 A  
HETATM   17  C   UNL     1     -12.804  11.407  71.278  1.00  0.00    -0.481 A  
HETATM   18  C   UNL     1     -13.043  12.676  71.797  1.00  0.00    -0.461 A  
HETATM   19  C   UNL     1     -12.088  11.262  70.090  1.00  0.00    -0.448 A  
HETATM   20  C   UNL     1     -11.888  13.661  69.916  1.00  0.00    -0.389 A  
ENDBRANCH   8  15
ENDBRANCH   4   8
ENDBRANCH   1   2
BRANCH   1  21
HETATM   21  C   UNL     1      -8.799   6.942  66.549  1.00  0.00    -0.148 C  
HETATM   22  C   UNL     1      -9.764   6.008  66.575  1.00  0.00    -0.183 C  
BRANCH  22  23
HETATM   23  C   UNL     1      -9.565   4.721  67.228  1.00  0.00    -0.185 A  
HETATM   24  C   UNL     1      -9.557   4.658  68.626  1.00  0.00    -0.226 A  
HETATM   25  C   UNL     1      -9.371   3.435  69.272  1.00  0.00    -0.240 A  
HETATM   26  C   UNL     1      -9.379   3.555  66.480  1.00  0.00    -0.189 A  
HETATM   27  C   UNL     1      -9.194   2.332  67.129  1.00  0.00    -0.111 A  
HETATM   28  C   UNL     1      -9.193   2.273  68.522  1.00  0.00    -0.235 A  
ENDBRANCH  22  23
ENDBRANCH   1  21
TORSDOF 6
ENDMDL
MODEL       67
REMARK 921   NORMALIZED FREE ENERGY PREDICTED BY IDOCK:   -5.63 KCAL/MOL
REMARK 922        TOTAL FREE ENERGY PREDICTED BY IDOCK:   -7.55 KCAL/MOL
REMARK 923 INTER-LIGAND FREE ENERGY PREDICTED BY IDOCK:   -8.55 KCAL/MOL
REMARK 924 INTRA-LIGAND FREE ENERGY PREDICTED BY IDOCK:    1.00 KCAL/MOL
REMARK 927      BINDING AFFINITY PREDICTED BY RF-SCORE:    0.00 PKD
ROOT
HETATM    1  C   UNL     1     -10.392  14.182  65.784  1.00  0.00    -0.325 C  
ENDROOT
BRANCH   1   2
HETATM    2  N   UNL     1      -9.949  13.971  67.172  1.00  0.00    -0.248 NA 
HETATM    3  C   UNL     1     -11.771  12.349  67.914  1.00  0.00    -0.360 C  
HETATM    4  N   UNL     1     -12.358  13.290  68.905  1.00  0.00    -0.066 NA 
HETATM    5  C   UNL     1     -10.574  14.927  68.117  1.00  0.00    -0.244 C  
HETATM    6  C   UNL     1     -10.273  12.590  67.596  1.00  0.00    -0.219 C  
HETATM    7  C   UNL     1     -12.067  14.660  68.420  1.00  0.00    -0.188 C  
BRANCH   4   8
HETATM    8  C   UNL     1     -11.840  13.044  70.292  1.00  0.00    -0.217 C  
BRANCH   8   9
HETATM    9  C   UNL     1     -12.387  14.055  71.315  1.00  0.00    -0.436 A  
HETATM   10  C   UNL     1     -12.008  16.039  72.694  1.00  0.00    -0.646 A  
HETATM   11  C   UNL     1     -13.756  14.160  71.607  1.00  0.00    -0.447 A  
HETATM   12  C   UNL     1     -13.373  16.140  72.944  1.00  0.00    -0.389 A  
HETATM   13  C   UNL     1     -14.244  15.190  72.416  1.00  0.00    -0.540 A  
HETATM   14  C   UNL     1     -11.516  15.000  71.896  1.00  0.00    -0.368 A  
ENDBRANCH   8   9
BRANCH   8  15
HETATM   15  C   UNL     1     -12.037  11.575  70.700  1.00  0.00    -0.450 A  
HETATM   16  C   UNL     1     -13.200   9.950  72.097  1.00  0.00    -0.511 A  
HETATM   17  C   UNL     1     -11.137   9.331  71.014  1.00  0.00    -0.396 A  
HETATM   18  C   UNL     1     -12.202   9.010  71.850  1.00  0.00    -0.451 A  
HETATM   19  C   UNL     1     -11.053  10.603  70.447  1.00  0.00    -0.253 A  
HETATM   20  C   UNL     1     -13.126  11.219  71.517  1.00  0.00    -0.459 A  
ENDBRANCH   8  15
ENDBRANCH   4   8
ENDBRANCH   1   2
BRANCH   1  21
HETATM   21  C   UNL     1      -9.973  13.075  64.870  1.00  0.00    -0.151 C  
HETATM   22  C   UNL     1      -9.418  11.936  65.313  1.00  0.00    -0.089 C  
BRANCH  22  23
HETATM   23  C   UNL     1      -8.993  10.885  64.398  1.00  0.00    -0.121 A  
HETATM   24  C   UNL     1      -9.719  10.670  63.221  1.00  0.00    -0.385 A  
HETATM   25  C   UNL     1      -9.329   9.670  62.330  1.00  0.00    -0.142 A  
HETATM   26  C   UNL     1      -7.880  10.090  64.682  1.00  0.00    -0.145 A  
HETATM   27  C   UNL     1      -7.491   9.090  63.788  1.00  0.00    -0.107 A  
HETATM   28  C   UNL     1      -8.213   8.883  62.613  1.00  0.00    -0.190 A  
ENDBRANCH  22  23
ENDBRANCH   1  21
TORSDOF 6
ENDMDL
MODEL       68
REMARK 921   NORMALIZED FREE ENERGY PREDICTED BY IDOCK:   -5.59 KCAL/MOL
REMARK 922        TOTAL FREE ENERGY PREDICTED BY IDOCK:   -7.49 KCAL/MOL
REMARK 923 INTER-LIGAND FREE ENERGY PREDICTED BY IDOCK:   -6.82 KCAL/MOL
REMARK 924 INTRA-LIGAND FREE ENERGY PREDICTED BY IDOCK:   -0.68 KCAL/MOL
REMARK 927      BINDING AFFINITY PREDICTED BY RF-SCORE:    0.00 PKD
ROOT
HETATM    1  C   UNL     1     -12.126  12.872  69.768  1.00  0.00    -0.245 C  
ENDROOT
BRANCH   1   2
HETATM    2  N   UNL     1     -12.355  11.535  69.199  1.00  0.00    -0.304 NA 
HETATM    3  C   UNL     1     -11.392  10.138  71.103  1.00  0.00    -0.249 C  
HETATM    4  N   UNL     1     -10.265   9.607  70.289  1.00  0.00    -0.261 NA 
HETATM    5  C   UNL     1     -11.198  11.051  68.410  1.00  0.00    -0.274 C  
HETATM    6  C   UNL     1     -12.636  10.569  70.285  1.00  0.00    -0.235 C  
HETATM    7  C   UNL     1      -9.971  10.622  69.250  1.00  0.00    -0.193 C  
BRANCH   4   8
HETATM    8  C   UNL     1     -10.574   8.257  69.710  1.00  0.00    -0.228 C  
BRANCH   8   9
HETATM    9  C   UNL     1      -9.655   7.895  68.530  1.00  0.00    -0.153 A  
HETATM   10  C   UNL     1      -7.474   7.109  67.751  1.00  0.00    -0.098 A  
HETATM   11  C   UNL     1     -10.144   7.713  67.227  1.00  0.00    -0.306 A  
HETATM   12  C   UNL     1      -7.990   6.908  66.474  1.00  0.00    -0.109 A  
HETATM   13  C   UNL     1      -9.319   7.227  66.208  1.00  0.00    -0.160 A  
HETATM   14  C   UNL     1      -8.294   7.608  68.768  1.00  0.00    -0.129 A  
ENDBRANCH   8   9
BRANCH   8  15
HETATM   15  C   UNL     1     -10.628   7.186  70.811  1.00  0.00    -0.240 A  
HETATM   16  C   UNL     1     -11.983   5.717  72.209  1.00  0.00    -0.147 A  
HETATM   17  C   UNL     1      -9.701   6.184  72.831  1.00  0.00    -0.162 A  
HETATM   18  C   UNL     1     -10.916   5.558  73.091  1.00  0.00    -0.340 A  
HETATM   19  C   UNL     1      -9.558   6.994  71.703  1.00  0.00    -0.160 A  
HETATM   20  C   UNL     1     -11.838   6.514  71.070  1.00  0.00    -0.390 A  
ENDBRANCH   8  15
ENDBRANCH   4   8
ENDBRANCH   1   2
BRANCH   1  21
HETATM   21  C   UNL     1     -11.239  13.720  68.913  1.00  0.00    -0.309 C  
HETATM   22  C   UNL     1     -11.465  15.027  68.702  1.00  0.00    -0.329 C  
BRANCH  22  23
HETATM   23  C   UNL     1     -10.600  15.824  67.842  1.00  0.00    -0.282 A  
HETATM   24  C   UNL     1     -10.489  17.200  68.072  1.00  0.00    -0.369 A  
HETATM   25  C   UNL     1      -9.665  17.981  67.262  1.00  0.00    -0.297 A  
HETATM   26  C   UNL     1      -9.887  15.236  66.794  1.00  0.00    -0.246 A  
HETATM   27  C   UNL     1      -9.062  16.020  65.985  1.00  0.00    -0.361 A  
HETATM   28  C   UNL     1      -8.949  17.390  66.222  1.00  0.00    -0.239 A  
ENDBRANCH  22  23
ENDBRANCH   1  21
TORSDOF 6
ENDMDL
MODEL       69
REMARK 921   NORMALIZED FREE ENERGY PREDICTED BY IDOCK:   -5.59 KCAL/MOL
REMARK 922        TOTAL FREE ENERGY PREDICTED BY IDOCK:   -7.49 KCAL/MOL
REMARK 923 INTER-LIGAND FREE ENERGY PREDICTED BY IDOCK:   -6.89 KCAL/MOL
REMARK 924 INTRA-LIGAND FREE ENERGY PREDICTED BY IDOCK:   -0.60 KCAL/MOL
REMARK 927      BINDING AFFINITY PREDICTED BY RF-SCORE:    0.00 PKD
ROOT
HETATM    1  C   UNL     1      -9.089  11.031  67.940  1.00  0.00    -0.147 C  
ENDROOT
BRANCH   1   2
HETATM    2  N   UNL     1     -10.141  10.008  67.817  1.00  0.00    -0.173 NA 
HETATM    3  C   UNL     1      -9.364   8.435  69.667  1.00  0.00    -0.161 C  
HETATM    4  N   UNL     1      -9.043   7.321  68.735  1.00  0.00    -0.129 NA 
HETATM    5  C   UNL     1      -9.763   8.918  66.887  1.00  0.00    -0.202 C  
HETATM    6  C   UNL     1     -10.434   9.429  69.147  1.00  0.00    -0.217 C  
HETATM    7  C   UNL     1      -8.698   7.937  67.433  1.00  0.00    -0.128 C  
BRANCH   4   8
HETATM    8  C   UNL     1     -10.168   6.332  68.628  1.00  0.00    -0.178 C  
BRANCH   8   9
HETATM    9  C   UNL     1      -9.869   5.201  67.629  1.00  0.00    -0.197 A  
HETATM   10  C   UNL     1     -10.264   4.201  65.433  1.00  0.00    -0.190 A  
HETATM   11  C   UNL     1      -8.785   4.324  67.792  1.00  0.00    -0.117 A  
HETATM   12  C   UNL     1      -9.166   3.362  65.605  1.00  0.00    -0.154 A  
HETATM   13  C   UNL     1      -8.439   3.411  66.791  1.00  0.00    -0.108 A  
HETATM   14  C   UNL     1     -10.620   5.104  66.439  1.00  0.00    -0.336 A  
ENDBRANCH   8   9
BRANCH   8  15
HETATM   15  C   UNL     1     -10.599   5.838  70.019  1.00  0.00    -0.380 A  
HETATM   16  C   UNL     1     -11.992   6.165  71.994  1.00  0.00    -0.310 A  
HETATM   17  C   UNL     1     -10.080   4.700  72.111  1.00  0.00    -0.256 A  
HETATM   18  C   UNL     1     -11.169   5.312  72.726  1.00  0.00    -0.347 A  
HETATM   19  C   UNL     1      -9.795   4.963  70.771  1.00  0.00    -0.285 A  
HETATM   20  C   UNL     1     -11.718   6.418  70.647  1.00  0.00    -0.377 A  
ENDBRANCH   8  15
ENDBRANCH   4   8
ENDBRANCH   1   2
BRANCH   1  21
HETATM   21  C   UNL     1      -9.426  12.296  67.217  1.00  0.00    -0.186 C  
HETATM   22  C   UNL     1     -10.587  12.474  66.566  1.00  0.00    -0.265 C  
BRANCH  22  23
HETATM   23  C   UNL     1     -10.879  13.707  65.846  1.00  0.00    -0.276 A  
HETATM   24  C   UNL     1     -11.920  13.721  64.911  1.00  0.00    -0.412 A  
HETATM   25  C   UNL     1     -12.218  14.891  64.212  1.00  0.00    -0.365 A  
HETATM   26  C   UNL     1     -10.134  14.867  66.072  1.00  0.00    -0.331 A  
HETATM   27  C   UNL     1     -10.434  16.037  65.372  1.00  0.00    -0.415 A  
HETATM   28  C   UNL     1     -11.476  16.049  64.446  1.00  0.00    -0.246 A  
ENDBRANCH  22  23
ENDBRANCH   1  21
TORSDOF 6
ENDMDL
MODEL       70
REMARK 921   NORMALIZED FREE ENERGY PREDICTED BY IDOCK:   -5.58 KCAL/MOL
REMARK 922        TOTAL FREE ENERGY PREDICTED BY IDOCK:   -7.48 KCAL/MOL
REMARK 923 INTER-LIGAND FREE ENERGY PREDICTED BY IDOCK:   -7.12 KCAL/MOL
REMARK 924 INTRA-LIGAND FREE ENERGY PREDICTED BY IDOCK:   -0.36 KCAL/MOL
REMARK 927      BINDING AFFINITY PREDICTED BY RF-SCORE:    0.00 PKD
ROOT
HETATM    1  C   UNL     1      -8.205  11.849  68.367  1.00  0.00    -0.160 C  
ENDROOT
BRANCH   1   2
HETATM    2  N   UNL     1      -7.744  10.475  68.625  1.00  0.00    -0.099 NA 
HETATM    3  C   UNL     1      -9.758   9.215  67.697  1.00  0.00    -0.159 C  
HETATM    4  N   UNL     1     -10.159   8.662  69.018  1.00  0.00    -0.194 NA 
HETATM    5  C   UNL     1      -8.182   9.971  69.948  1.00  0.00    -0.159 C  
HETATM    6  C   UNL     1      -8.254   9.570  67.570  1.00  0.00    -0.121 C  
HETATM    7  C   UNL     1      -9.686   9.620  70.046  1.00  0.00    -0.241 C  
BRANCH   4   8
HETATM    8  C   UNL     1      -9.630   7.274  69.233  1.00  0.00    -0.156 C  
BRANCH   8   9
HETATM    9  C   UNL     1     -10.321   6.552  70.404  1.00  0.00    -0.237 A  
HETATM   10  C   UNL     1     -10.157   4.992  72.280  1.00  0.00    -0.245 A  
HETATM   11  C   UNL     1     -11.580   6.943  70.887  1.00  0.00    -0.384 A  
HETATM   12  C   UNL     1     -11.394   5.418  72.756  1.00  0.00    -0.358 A  
HETATM   13  C   UNL     1     -12.113   6.378  72.050  1.00  0.00    -0.353 A  
HETATM   14  C   UNL     1      -9.629   5.545  71.109  1.00  0.00    -0.207 A  
ENDBRANCH   8   9
BRANCH   8  15
HETATM   15  C   UNL     1      -9.632   6.476  67.920  1.00  0.00    -0.119 A  
HETATM   16  C   UNL     1     -10.890   5.164  66.294  1.00  0.00    -0.180 A  
HETATM   17  C   UNL     1      -8.482   5.046  66.315  1.00  0.00    -0.112 A  
HETATM   18  C   UNL     1      -9.703   4.642  65.784  1.00  0.00    -0.206 A  
HETATM   19  C   UNL     1      -8.446   5.952  67.375  1.00  0.00    -0.103 A  
HETATM   20  C   UNL     1     -10.856   6.084  67.345  1.00  0.00    -0.394 A  
ENDBRANCH   8  15
ENDBRANCH   4   8
ENDBRANCH   1   2
BRANCH   1  21
HETATM   21  C   UNL     1      -8.997  11.965  67.104  1.00  0.00    -0.178 C  
HETATM   22  C   UNL     1     -10.015  12.829  66.960  1.00  0.00    -0.231 C  
BRANCH  22  23
HETATM   23  C   UNL     1     -10.788  12.902  65.728  1.00  0.00    -0.292 A  
HETATM   24  C   UNL     1     -11.461  14.089  65.413  1.00  0.00    -0.315 A  
HETATM   25  C   UNL     1     -12.205  14.181  64.237  1.00  0.00    -0.449 A  
HETATM   26  C   UNL     1     -10.870  11.808  64.863  1.00  0.00    -0.353 A  
HETATM   27  C   UNL     1     -11.615  11.903  63.686  1.00  0.00    -0.559 A  
HETATM   28  C   UNL     1     -12.279  13.089  63.373  1.00  0.00    -0.552 A  
ENDBRANCH  22  23
ENDBRANCH   1  21
TORSDOF 6
ENDMDL
MODEL       71
REMARK 921   NORMALIZED FREE ENERGY PREDICTED BY IDOCK:   -5.57 KCAL/MOL
REMARK 922        TOTAL FREE ENERGY PREDICTED BY IDOCK:   -7.46 KCAL/MOL
REMARK 923 INTER-LIGAND FREE ENERGY PREDICTED BY IDOCK:   -6.75 KCAL/MOL
REMARK 924 INTRA-LIGAND FREE ENERGY PREDICTED BY IDOCK:   -0.71 KCAL/MOL
REMARK 927      BINDING AFFINITY PREDICTED BY RF-SCORE:    0.00 PKD
ROOT
HETATM    1  C   UNL     1     -11.394  14.981  67.113  1.00  0.00    -0.320 C  
ENDROOT
BRANCH   1   2
HETATM    2  N   UNL     1      -9.980  14.651  66.877  1.00  0.00    -0.249 NA 
HETATM    3  C   UNL     1     -10.278  12.261  66.042  1.00  0.00    -0.243 C  
HETATM    4  N   UNL     1      -9.579  11.651  67.205  1.00  0.00    -0.174 NA 
HETATM    5  C   UNL     1      -9.337  14.036  68.063  1.00  0.00    -0.205 C  
HETATM    6  C   UNL     1      -9.867  13.722  65.730  1.00  0.00    -0.221 C  
HETATM    7  C   UNL     1      -9.761  12.576  68.348  1.00  0.00    -0.189 C  
BRANCH   4   8
HETATM    8  C   UNL     1      -8.133  11.371  66.911  1.00  0.00    -0.158 C  
BRANCH   8   9
HETATM    9  C   UNL     1      -7.297  11.175  68.188  1.00  0.00    -0.087 A  
HETATM   10  C   UNL     1      -6.855   9.875  70.212  1.00  0.00    -0.138 A  
HETATM   11  C   UNL     1      -6.083  11.847  68.399  1.00  0.00    -0.050 A  
HETATM   12  C   UNL     1      -5.641  10.534  70.383  1.00  0.00    -0.078 A  
HETATM   13  C   UNL     1      -5.264  11.532  69.488  1.00  0.00    -0.053 A  
HETATM   14  C   UNL     1      -7.682  10.199  69.131  1.00  0.00    -0.112 A  
ENDBRANCH   8   9
BRANCH   8  15
HETATM   15  C   UNL     1      -7.991  10.230  65.891  1.00  0.00    -0.137 A  
HETATM   16  C   UNL     1      -8.644   7.989  65.183  1.00  0.00    -0.077 A  
HETATM   17  C   UNL     1      -6.641   8.987  64.286  1.00  0.00    -0.082 A  
HETATM   18  C   UNL     1      -7.518   7.910  64.367  1.00  0.00    -0.098 A  
HETATM   19  C   UNL     1      -6.873  10.135  65.043  1.00  0.00    -0.132 A  
HETATM   20  C   UNL     1      -8.887   9.145  65.930  1.00  0.00    -0.209 A  
ENDBRANCH   8  15
ENDBRANCH   4   8
ENDBRANCH   1   2
BRANCH   1  21
HETATM   21  C   UNL     1     -11.661  15.409  68.521  1.00  0.00    -0.373 C  
HETATM   22  C   UNL     1     -12.447  14.712  69.357  1.00  0.00    -0.104 C  
BRANCH  22  23
HETATM   23  C   UNL     1     -12.712  15.165  70.716  1.00  0.00    -0.463 A  
HETATM   24  C   UNL     1     -13.978  14.951  71.273  1.00  0.00    -0.489 A  
HETATM   25  C   UNL     1     -14.252  15.375  72.573  1.00  0.00    -0.500 A  
HETATM   26  C   UNL     1     -11.725  15.812  71.464  1.00  0.00    -0.523 A  
HETATM   27  C   UNL     1     -12.002  16.235  72.766  1.00  0.00    -0.636 A  
HETATM   28  C   UNL     1     -13.262  16.014  73.320  1.00  0.00    -0.651 A  
ENDBRANCH  22  23
ENDBRANCH   1  21
TORSDOF 6
ENDMDL
MODEL       72
REMARK 921   NORMALIZED FREE ENERGY PREDICTED BY IDOCK:   -5.56 KCAL/MOL
REMARK 922        TOTAL FREE ENERGY PREDICTED BY IDOCK:   -7.45 KCAL/MOL
REMARK 923 INTER-LIGAND FREE ENERGY PREDICTED BY IDOCK:   -8.20 KCAL/MOL
REMARK 924 INTRA-LIGAND FREE ENERGY PREDICTED BY IDOCK:    0.75 KCAL/MOL
REMARK 927      BINDING AFFINITY PREDICTED BY RF-SCORE:    0.00 PKD
ROOT
HETATM    1  C   UNL     1      -9.433  17.234  68.478  1.00  0.00    -0.285 C  
ENDROOT
BRANCH   1   2
HETATM    2  N   UNL     1      -8.822  16.305  67.514  1.00  0.00    -0.185 NA 
HETATM    3  C   UNL     1     -10.860  14.849  67.040  1.00  0.00    -0.315 C  
HETATM    4  N   UNL     1     -10.264  13.627  67.644  1.00  0.00    -0.236 NA 
HETATM    5  C   UNL     1      -8.256  15.102  68.168  1.00  0.00    -0.145 C  
HETATM    6  C   UNL     1      -9.831  15.883  66.517  1.00  0.00    -0.261 C  
HETATM    7  C   UNL     1      -9.304  14.084  68.676  1.00  0.00    -0.130 C  
BRANCH   4   8
HETATM    8  C   UNL     1      -9.628  12.740  66.613  1.00  0.00    -0.255 C  
BRANCH   8   9
HETATM    9  C   UNL     1      -8.965  11.497  67.231  1.00  0.00    -0.162 A  
HETATM   10  C   UNL     1      -6.912  10.306  67.823  1.00  0.00    -0.083 A  
HETATM   11  C   UNL     1      -9.680  10.574  68.010  1.00  0.00    -0.162 A  
HETATM   12  C   UNL     1      -7.640   9.422  68.614  1.00  0.00    -0.080 A  
HETATM   13  C   UNL     1      -9.025   9.544  68.692  1.00  0.00    -0.132 A  
HETATM   14  C   UNL     1      -7.568  11.328  67.129  1.00  0.00    -0.137 A  
ENDBRANCH   8   9
BRANCH   8  15
HETATM   15  C   UNL     1     -10.615  12.422  65.478  1.00  0.00    -0.307 A  
HETATM   16  C   UNL     1     -10.980  12.029  63.100  1.00  0.00    -0.269 A  
HETATM   17  C   UNL     1     -12.852  12.569  64.520  1.00  0.00    -0.352 A  
HETATM   18  C   UNL     1     -12.342  12.275  63.259  1.00  0.00    -0.518 A  
HETATM   19  C   UNL     1     -11.996  12.645  65.620  1.00  0.00    -0.507 A  
HETATM   20  C   UNL     1     -10.123  12.088  64.202  1.00  0.00    -0.340 A  
ENDBRANCH   8  15
ENDBRANCH   4   8
ENDBRANCH   1   2
BRANCH   1  21
HETATM   21  C   UNL     1     -10.575  16.622  69.225  1.00  0.00    -0.343 C  
HETATM   22  C   UNL     1     -10.703  16.710  70.559  1.00  0.00     0.244 C  
BRANCH  22  23
HETATM   23  C   UNL     1     -11.811  16.081  71.265  1.00  0.00    -0.502 A  
HETATM   24  C   UNL     1     -12.708  15.278  70.552  1.00  0.00    -0.440 A  
HETATM   25  C   UNL     1     -13.774  14.665  71.209  1.00  0.00    -0.439 A  
HETATM   26  C   UNL     1     -11.991  16.272  72.638  1.00  0.00    -0.644 A  
HETATM   27  C   UNL     1     -13.059  15.656  73.293  1.00  0.00    -0.675 A  
HETATM   28  C   UNL     1     -13.947  14.852  72.580  1.00  0.00    -0.540 A  
ENDBRANCH  22  23
ENDBRANCH   1  21
TORSDOF 6
ENDMDL
MODEL       73
REMARK 921   NORMALIZED FREE ENERGY PREDICTED BY IDOCK:   -5.53 KCAL/MOL
REMARK 922        TOTAL FREE ENERGY PREDICTED BY IDOCK:   -7.42 KCAL/MOL
REMARK 923 INTER-LIGAND FREE ENERGY PREDICTED BY IDOCK:   -7.26 KCAL/MOL
REMARK 924 INTRA-LIGAND FREE ENERGY PREDICTED BY IDOCK:   -0.16 KCAL/MOL
REMARK 927      BINDING AFFINITY PREDICTED BY RF-SCORE:    0.00 PKD
ROOT
HETATM    1  C   UNL     1     -10.394   8.906  67.458  1.00  0.00    -0.263 C  
ENDROOT
BRANCH   1   2
HETATM    2  N   UNL     1      -9.917   9.963  68.364  1.00  0.00    -0.154 NA 
HETATM    3  C   UNL     1     -12.157  11.066  68.879  1.00  0.00    -0.169 C  
HETATM    4  N   UNL     1     -11.805  12.347  68.209  1.00  0.00    -0.335 NA 
HETATM    5  C   UNL     1      -9.592  11.219  67.646  1.00  0.00    -0.171 C  
HETATM    6  C   UNL     1     -10.946  10.246  69.390  1.00  0.00    -0.247 C  
HETATM    7  C   UNL     1     -10.820  12.021  67.151  1.00  0.00    -0.253 C  
BRANCH   4   8
HETATM    8  C   UNL     1     -11.294  13.371  69.182  1.00  0.00    -0.280 C  
BRANCH   8   9
HETATM    9  C   UNL     1     -10.696  14.604  68.483  1.00  0.00    -0.248 A  
HETATM   10  C   UNL     1      -8.906  16.265  68.355  1.00  0.00    -0.202 A  
HETATM   11  C   UNL     1     -11.142  15.043  67.226  1.00  0.00    -0.334 A  
HETATM   12  C   UNL     1      -9.348  16.662  67.096  1.00  0.00    -0.236 A  
HETATM   13  C   UNL     1     -10.476  16.064  66.541  1.00  0.00    -0.303 A  
HETATM   14  C   UNL     1      -9.579  15.254  69.048  1.00  0.00    -0.237 A  
ENDBRANCH   8   9
BRANCH   8  15
HETATM   15  C   UNL     1     -12.360  13.707  70.237  1.00  0.00    -0.392 A  
HETATM   16  C   UNL     1     -13.694  15.407  71.366  1.00  0.00    -0.591 A  
HETATM   17  C   UNL     1     -13.460  13.222  72.357  1.00  0.00    -0.670 A  
HETATM   18  C   UNL     1     -13.963  14.518  72.404  1.00  0.00    -0.580 A  
HETATM   19  C   UNL     1     -12.663  12.820  71.285  1.00  0.00    -0.364 A  
HETATM   20  C   UNL     1     -12.909  15.002  70.283  1.00  0.00    -0.270 A  
ENDBRANCH   8  15
ENDBRANCH   4   8
ENDBRANCH   1   2
BRANCH   1  21
HETATM   21  C   UNL     1      -9.435   8.623  66.345  1.00  0.00    -0.295 C  
HETATM   22  C   UNL     1      -8.885   7.414  66.149  1.00  0.00    -0.185 C  
BRANCH  22  23
HETATM   23  C   UNL     1      -7.933   7.172  65.073  1.00  0.00    -0.129 A  
HETATM   24  C   UNL     1      -7.913   5.920  64.447  1.00  0.00    -0.129 A  
HETATM   25  C   UNL     1      -7.011   5.668  63.414  1.00  0.00    -0.041 A  
HETATM   26  C   UNL     1      -7.042   8.167  64.663  1.00  0.00    -0.080 A  
HETATM   27  C   UNL     1      -6.141   7.912  63.627  1.00  0.00    -0.062 A  
HETATM   28  C   UNL     1      -6.128   6.665  63.002  1.00  0.00    -0.038 A  
ENDBRANCH  22  23
ENDBRANCH   1  21
TORSDOF 6
ENDMDL
MODEL       74
REMARK 921   NORMALIZED FREE ENERGY PREDICTED BY IDOCK:   -5.53 KCAL/MOL
REMARK 922        TOTAL FREE ENERGY PREDICTED BY IDOCK:   -7.41 KCAL/MOL
REMARK 923 INTER-LIGAND FREE ENERGY PREDICTED BY IDOCK:   -6.71 KCAL/MOL
REMARK 924 INTRA-LIGAND FREE ENERGY PREDICTED BY IDOCK:   -0.70 KCAL/MOL
REMARK 927      BINDING AFFINITY PREDICTED BY RF-SCORE:    0.00 PKD
ROOT
HETATM    1  C   UNL     1      -7.149   9.403  68.414  1.00  0.00    -0.072 C  
ENDROOT
BRANCH   1   2
HETATM    2  N   UNL     1      -7.269  10.288  67.245  1.00  0.00    -0.088 NA 
HETATM    3  C   UNL     1      -8.109  12.382  68.433  1.00  0.00    -0.143 C  
HETATM    4  N   UNL     1      -9.440  12.358  67.769  1.00  0.00    -0.192 NA 
HETATM    5  C   UNL     1      -8.617  10.233  66.631  1.00  0.00    -0.127 C  
HETATM    6  C   UNL     1      -6.975  11.684  67.640  1.00  0.00    -0.095 C  
HETATM    7  C   UNL     1      -9.730  10.942  67.439  1.00  0.00    -0.168 C  
BRANCH   4   8
HETATM    8  C   UNL     1      -9.486  13.254  66.565  1.00  0.00    -0.245 C  
BRANCH   8   9
HETATM    9  C   UNL     1     -10.493  12.771  65.507  1.00  0.00    -0.306 A  
HETATM   10  C   UNL     1     -12.790  12.759  64.666  1.00  0.00    -0.355 A  
HETATM   11  C   UNL     1     -10.087  12.188  64.296  1.00  0.00    -0.317 A  
HETATM   12  C   UNL     1     -12.358  12.210  63.462  1.00  0.00    -0.682 A  
HETATM   13  C   UNL     1     -11.011  11.907  63.285  1.00  0.00    -0.399 A  
HETATM   14  C   UNL     1     -11.869  13.028  65.684  1.00  0.00    -0.445 A  
ENDBRANCH   8   9
BRANCH   8  15
HETATM   15  C   UNL     1      -9.673  14.722  66.980  1.00  0.00    -0.242 A  
HETATM   16  C   UNL     1     -10.896  16.360  68.310  1.00  0.00    -0.347 A  
HETATM   17  C   UNL     1      -9.546  17.099  66.454  1.00  0.00    -0.296 A  
HETATM   18  C   UNL     1     -10.414  17.388  67.502  1.00  0.00    -0.354 A  
HETATM   19  C   UNL     1      -9.181  15.778  66.192  1.00  0.00    -0.385 A  
HETATM   20  C   UNL     1     -10.519  15.038  68.060  1.00  0.00    -0.242 A  
ENDBRANCH   8  15
ENDBRANCH   4   8
ENDBRANCH   1   2
BRANCH   1  21
HETATM   21  C   UNL     1      -7.570   7.998  68.121  1.00  0.00    -0.109 C  
HETATM   22  C   UNL     1      -8.434   7.321  68.895  1.00  0.00    -0.126 C  
BRANCH  22  23
HETATM   23  C   UNL     1      -8.806   5.943  68.602  1.00  0.00    -0.111 A  
HETATM   24  C   UNL     1      -8.699   4.978  69.610  1.00  0.00    -0.110 A  
HETATM   25  C   UNL     1      -9.052   3.654  69.351  1.00  0.00    -0.201 A  
HETATM   26  C   UNL     1      -9.263   5.575  67.334  1.00  0.00    -0.110 A  
HETATM   27  C   UNL     1      -9.617   4.249  67.078  1.00  0.00    -0.227 A  
HETATM   28  C   UNL     1      -9.514   3.291  68.086  1.00  0.00    -0.215 A  
ENDBRANCH  22  23
ENDBRANCH   1  21
TORSDOF 6
ENDMDL
MODEL       75
REMARK 921   NORMALIZED FREE ENERGY PREDICTED BY IDOCK:   -5.50 KCAL/MOL
REMARK 922        TOTAL FREE ENERGY PREDICTED BY IDOCK:   -7.37 KCAL/MOL
REMARK 923 INTER-LIGAND FREE ENERGY PREDICTED BY IDOCK:   -6.59 KCAL/MOL
REMARK 924 INTRA-LIGAND FREE ENERGY PREDICTED BY IDOCK:   -0.78 KCAL/MOL
REMARK 927      BINDING AFFINITY PREDICTED BY RF-SCORE:    0.00 PKD
ROOT
HETATM    1  C   UNL     1      -9.345   8.089  68.274  1.00  0.00    -0.140 C  
ENDROOT
BRANCH   1   2
HETATM    2  N   UNL     1     -10.568   8.902  68.181  1.00  0.00    -0.194 NA 
HETATM    3  C   UNL     1      -9.572  10.964  67.059  1.00  0.00    -0.173 C  
HETATM    4  N   UNL     1      -9.819  11.853  68.225  1.00  0.00    -0.196 NA 
HETATM    5  C   UNL     1     -10.757   9.777  69.362  1.00  0.00    -0.228 C  
HETATM    6  C   UNL     1     -10.519   9.741  66.962  1.00  0.00    -0.227 C  
HETATM    7  C   UNL     1      -9.803  10.993  69.431  1.00  0.00     0.051 C  
BRANCH   4   8
HETATM    8  C   UNL     1     -11.097  12.629  68.084  1.00  0.00    -0.249 C  
BRANCH   8   9
HETATM    9  C   UNL     1     -11.340  13.588  69.262  1.00  0.00    -0.317 A  
HETATM   10  C   UNL     1     -12.436  14.024  71.404  1.00  0.00    -0.438 A  
HETATM   11  C   UNL     1     -10.543  14.723  69.482  1.00  0.00    -0.200 A  
HETATM   12  C   UNL     1     -11.613  15.127  71.614  1.00  0.00    -0.463 A  
HETATM   13  C   UNL     1     -10.680  15.486  70.645  1.00  0.00    -0.265 A  
HETATM   14  C   UNL     1     -12.310  13.267  70.235  1.00  0.00    -0.334 A  
ENDBRANCH   8   9
BRANCH   8  15
HETATM   15  C   UNL     1     -11.182  13.300  66.704  1.00  0.00    -0.332 A  
HETATM   16  C   UNL     1     -10.409  15.063  65.206  1.00  0.00    -0.424 A  
HETATM   17  C   UNL     1     -12.471  13.908  64.726  1.00  0.00    -0.386 A  
HETATM   18  C   UNL     1     -11.535  14.886  64.404  1.00  0.00    -0.255 A  
HETATM   19  C   UNL     1     -12.299  13.125  65.868  1.00  0.00    -0.462 A  
HETATM   20  C   UNL     1     -10.226  14.268  66.341  1.00  0.00    -0.295 A  
ENDBRANCH   8  15
ENDBRANCH   4   8
ENDBRANCH   1   2
BRANCH   1  21
HETATM   21  C   UNL     1      -9.114   7.252  67.056  1.00  0.00    -0.152 C  
HETATM   22  C   UNL     1      -9.293   5.921  67.043  1.00  0.00    -0.125 C  
BRANCH  22  23
HETATM   23  C   UNL     1      -9.034   5.126  65.850  1.00  0.00    -0.145 A  
HETATM   24  C   UNL     1      -7.753   5.137  65.287  1.00  0.00    -0.087 A  
HETATM   25  C   UNL     1      -7.483   4.381  64.146  1.00  0.00    -0.070 A  
HETATM   26  C   UNL     1     -10.044   4.360  65.263  1.00  0.00    -0.218 A  
HETATM   27  C   UNL     1      -9.771   3.603  64.121  1.00  0.00    -0.172 A  
HETATM   28  C   UNL     1      -8.492   3.612  63.566  1.00  0.00    -0.091 A  
ENDBRANCH  22  23
ENDBRANCH   1  21
TORSDOF 6
ENDMDL
MODEL       76
REMARK 921   NORMALIZED FREE ENERGY PREDICTED BY IDOCK:   -5.49 KCAL/MOL
REMARK 922        TOTAL FREE ENERGY PREDICTED BY IDOCK:   -7.36 KCAL/MOL
REMARK 923 INTER-LIGAND FREE ENERGY PREDICTED BY IDOCK:   -6.71 KCAL/MOL
REMARK 924 INTRA-LIGAND FREE ENERGY PREDICTED BY IDOCK:   -0.66 KCAL/MOL
REMARK 927      BINDING AFFINITY PREDICTED BY RF-SCORE:    0.00 PKD
ROOT
HETATM    1  C   UNL     1     -10.807   8.737  69.970  1.00  0.00    -0.223 C  
ENDROOT
BRANCH   1   2
HETATM    2  N   UNL     1      -9.972   9.121  68.821  1.00  0.00    -0.171 NA 
HETATM    3  C   UNL     1      -9.786  11.619  69.301  1.00  0.00     0.359 C  
HETATM    4  N   UNL     1     -10.545  12.020  68.086  1.00  0.00    -0.202 NA 
HETATM    5  C   UNL     1     -10.779   9.523  67.645  1.00  0.00    -0.250 C  
HETATM    6  C   UNL     1      -9.082  10.241  69.201  1.00  0.00    -0.191 C  
HETATM    7  C   UNL     1     -11.466  10.904  67.768  1.00  0.00    -0.243 C  
BRANCH   4   8
HETATM    8  C   UNL     1      -9.637  12.366  66.941  1.00  0.00    -0.219 C  
BRANCH   8   9
HETATM    9  C   UNL     1     -10.395  12.523  65.612  1.00  0.00    -0.294 A  
HETATM   10  C   UNL     1     -11.007  11.585  63.437  1.00  0.00    -0.397 A  
HETATM   11  C   UNL     1     -11.371  13.513  65.417  1.00  0.00    -0.302 A  
HETATM   12  C   UNL     1     -11.989  12.560  63.281  1.00  0.00    -0.516 A  
HETATM   13  C   UNL     1     -12.158  13.534  64.262  1.00  0.00    -0.482 A  
HETATM   14  C   UNL     1     -10.209  11.572  64.586  1.00  0.00    -0.334 A  
ENDBRANCH   8   9
BRANCH   8  15
HETATM   15  C   UNL     1      -8.741  13.564  67.294  1.00  0.00    -0.228 A  
HETATM   16  C   UNL     1      -8.475  15.984  67.427  1.00  0.00    -0.187 A  
HETATM   17  C   UNL     1      -6.525  14.566  67.467  1.00  0.00    -0.070 A  
HETATM   18  C   UNL     1      -7.091  15.838  67.481  1.00  0.00    -0.215 A  
HETATM   19  C   UNL     1      -7.342  13.439  67.371  1.00  0.00    -0.124 A  
HETATM   20  C   UNL     1      -9.296  14.857  67.348  1.00  0.00    -0.202 A  
ENDBRANCH   8  15
ENDBRANCH   4   8
ENDBRANCH   1   2
BRANCH   1  21
HETATM   21  C   UNL     1     -10.430   7.406  70.539  1.00  0.00    -0.227 C  
HETATM   22  C   UNL     1     -11.288   6.644  71.237  1.00  0.00    -0.346 C  
BRANCH  22  23
HETATM   23  C   UNL     1     -10.887   5.363  71.803  1.00  0.00    -0.242 A  
HETATM   24  C   UNL     1     -10.077   4.505  71.049  1.00  0.00    -0.222 A  
HETATM   25  C   UNL     1      -9.680   3.276  71.573  1.00  0.00    -0.233 A  
HETATM   26  C   UNL     1     -11.301   4.979  73.081  1.00  0.00    -0.397 A  
HETATM   27  C   UNL     1     -10.902   3.748  73.604  1.00  0.00    -0.329 A  
HETATM   28  C   UNL     1     -10.090   2.899  72.852  1.00  0.00    -0.218 A  
ENDBRANCH  22  23
ENDBRANCH   1  21
TORSDOF 6
ENDMDL
MODEL       77
REMARK 921   NORMALIZED FREE ENERGY PREDICTED BY IDOCK:   -5.49 KCAL/MOL
REMARK 922        TOTAL FREE ENERGY PREDICTED BY IDOCK:   -7.36 KCAL/MOL
REMARK 923 INTER-LIGAND FREE ENERGY PREDICTED BY IDOCK:   -7.84 KCAL/MOL
REMARK 924 INTRA-LIGAND FREE ENERGY PREDICTED BY IDOCK:    0.48 KCAL/MOL
REMARK 927      BINDING AFFINITY PREDICTED BY RF-SCORE:    0.00 PKD
ROOT
HETATM    1  C   UNL     1      -6.042  15.482  68.573  1.00  0.00    -0.096 C  
ENDROOT
BRANCH   1   2
HETATM    2  N   UNL     1      -6.720  14.177  68.524  1.00  0.00    -0.092 NA 
HETATM    3  C   UNL     1      -8.676  14.818  67.018  1.00  0.00    -0.235 C  
HETATM    4  N   UNL     1      -9.701  14.609  68.075  1.00  0.00    -0.212 NA 
HETATM    5  C   UNL     1      -7.738  14.028  69.590  1.00  0.00     0.480 C  
HETATM    6  C   UNL     1      -7.372  14.001  67.206  1.00  0.00     0.003 C  
HETATM    7  C   UNL     1      -9.031  14.850  69.375  1.00  0.00    -0.041 C  
BRANCH   4   8
HETATM    8  C   UNL     1     -10.329  13.248  67.991  1.00  0.00    -0.241 C  
BRANCH   8   9
HETATM    9  C   UNL     1     -11.340  12.992  69.123  1.00  0.00    -0.328 A  
HETATM   10  C   UNL     1     -12.333  11.424  70.716  1.00  0.00    -0.483 A  
HETATM   11  C   UNL     1     -11.971  14.037  69.815  1.00  0.00    -0.393 A  
HETATM   12  C   UNL     1     -12.924  12.481  71.403  1.00  0.00    -0.347 A  
HETATM   13  C   UNL     1     -12.759  13.784  70.942  1.00  0.00    -0.394 A  
HETATM   14  C   UNL     1     -11.557  11.675  69.579  1.00  0.00    -0.397 A  
ENDBRANCH   8   9
BRANCH   8  15
HETATM   15  C   UNL     1     -10.890  12.988  66.583  1.00  0.00    -0.291 A  
HETATM   16  C   UNL     1     -12.754  13.192  65.025  1.00  0.00    -0.456 A  
HETATM   17  C   UNL     1     -10.981  11.625  64.564  1.00  0.00    -0.376 A  
HETATM   18  C   UNL     1     -12.196  12.205  64.215  1.00  0.00    -0.469 A  
HETATM   19  C   UNL     1     -10.335  12.009  65.739  1.00  0.00    -0.289 A  
HETATM   20  C   UNL     1     -12.101  13.591  66.194  1.00  0.00    -0.482 A  
ENDBRANCH   8  15
ENDBRANCH   4   8
ENDBRANCH   1   2
BRANCH   1  21
HETATM   21  C   UNL     1      -6.889  16.593  68.039  1.00  0.00    -0.152 C  
HETATM   22  C   UNL     1      -7.326  17.607  68.804  1.00  0.00    -0.261 C  
BRANCH  22  23
HETATM   23  C   UNL     1      -8.172  18.663  68.265  1.00  0.00    -0.349 A  
HETATM   24  C   UNL     1      -7.596  19.890  67.917  1.00  0.00    -0.336 A  
HETATM   25  C   UNL     1      -8.388  20.914  67.397  1.00  0.00    -0.124 A  
HETATM   26  C   UNL     1      -9.546  18.469  68.096  1.00  0.00    -0.353 A  
HETATM   27  C   UNL     1     -10.336  19.495  67.575  1.00  0.00    -0.567 A  
HETATM   28  C   UNL     1      -9.757  20.714  67.223  1.00  0.00    -0.562 A  
ENDBRANCH  22  23
ENDBRANCH   1  21
TORSDOF 6
ENDMDL
MODEL       78
REMARK 921   NORMALIZED FREE ENERGY PREDICTED BY IDOCK:   -5.47 KCAL/MOL
REMARK 922        TOTAL FREE ENERGY PREDICTED BY IDOCK:   -7.33 KCAL/MOL
REMARK 923 INTER-LIGAND FREE ENERGY PREDICTED BY IDOCK:   -6.47 KCAL/MOL
REMARK 924 INTRA-LIGAND FREE ENERGY PREDICTED BY IDOCK:   -0.85 KCAL/MOL
REMARK 927      BINDING AFFINITY PREDICTED BY RF-SCORE:    0.00 PKD
ROOT
HETATM    1  C   UNL     1      -5.935  13.654  69.102  1.00  0.00    -0.088 C  
ENDROOT
BRANCH   1   2
HETATM    2  N   UNL     1      -7.258  14.218  69.417  1.00  0.00    -0.094 NA 
HETATM    3  C   UNL     1      -8.269  14.151  67.077  1.00  0.00    -0.071 C  
HETATM    4  N   UNL     1      -8.359  15.631  66.955  1.00  0.00    -0.230 NA 
HETATM    5  C   UNL     1      -7.294  15.692  69.267  1.00  0.00    -0.207 C  
HETATM    6  C   UNL     1      -8.281  13.618  68.532  1.00  0.00    -0.112 C  
HETATM    7  C   UNL     1      -7.286  16.198  67.804  1.00  0.00    -0.138 C  
BRANCH   4   8
HETATM    8  C   UNL     1      -9.721  16.146  67.321  1.00  0.00    -0.233 C  
BRANCH   8   9
HETATM    9  C   UNL     1      -9.817  17.679  67.236  1.00  0.00    -0.303 A  
HETATM   10  C   UNL     1     -10.140  19.815  68.382  1.00  0.00    -0.568 A  
HETATM   11  C   UNL     1      -9.406  18.394  66.100  1.00  0.00    -0.147 A  
HETATM   12  C   UNL     1      -9.700  20.500  67.253  1.00  0.00    -0.600 A  
HETATM   13  C   UNL     1      -9.352  19.791  66.107  1.00  0.00    -0.439 A  
HETATM   14  C   UNL     1     -10.209  18.418  68.372  1.00  0.00    -0.407 A  
ENDBRANCH   8   9
BRANCH   8  15
HETATM   15  C   UNL     1     -10.817  15.407  66.536  1.00  0.00    -0.298 A  
HETATM   16  C   UNL     1     -12.504  13.647  66.490  1.00  0.00    -0.337 A  
HETATM   17  C   UNL     1     -11.726  14.608  64.420  1.00  0.00    -0.358 A  
HETATM   18  C   UNL     1     -12.529  13.695  65.098  1.00  0.00    -0.488 A  
HETATM   19  C   UNL     1     -10.875  15.454  65.132  1.00  0.00    -0.447 A  
HETATM   20  C   UNL     1     -11.665  14.504  67.206  1.00  0.00    -0.429 A  
ENDBRANCH   8  15
ENDBRANCH   4   8
ENDBRANCH   1   2
BRANCH   1  21
HETATM   21  C   UNL     1      -5.939  12.159  69.066  1.00  0.00    -0.069 C  
HETATM   22  C   UNL     1      -5.998  11.404  70.175  1.00  0.00    -0.152 C  
BRANCH  22  23
HETATM   23  C   UNL     1      -5.973   9.949  70.113  1.00  0.00    -0.058 A  
HETATM   24  C   UNL     1      -5.556   9.224  71.235  1.00  0.00    -0.060 A  
HETATM   25  C   UNL     1      -5.526   7.831  71.198  1.00  0.00    -0.030 A  
HETATM   26  C   UNL     1      -6.355   9.271  68.952  1.00  0.00    -0.044 A  
HETATM   27  C   UNL     1      -6.325   7.876  68.917  1.00  0.00    -0.040 A  
HETATM   28  C   UNL     1      -5.914   7.157  70.039  1.00  0.00    -0.024 A  
ENDBRANCH  22  23
ENDBRANCH   1  21
TORSDOF 6
ENDMDL
MODEL       79
REMARK 921   NORMALIZED FREE ENERGY PREDICTED BY IDOCK:   -5.43 KCAL/MOL
REMARK 922        TOTAL FREE ENERGY PREDICTED BY IDOCK:   -7.28 KCAL/MOL
REMARK 923 INTER-LIGAND FREE ENERGY PREDICTED BY IDOCK:   -6.42 KCAL/MOL
REMARK 924 INTRA-LIGAND FREE ENERGY PREDICTED BY IDOCK:   -0.85 KCAL/MOL
REMARK 927      BINDING AFFINITY PREDICTED BY RF-SCORE:    0.00 PKD
ROOT
HETATM    1  C   UNL     1     -12.662   8.459  72.079  1.00  0.00    -0.360 C  
ENDROOT
BRANCH   1   2
HETATM    2  N   UNL     1     -12.607   7.147  71.414  1.00  0.00    -0.379 NA 
HETATM    3  C   UNL     1     -10.849   6.042  72.894  1.00  0.00    -0.258 C  
HETATM    4  N   UNL     1      -9.841   5.936  71.805  1.00  0.00    -0.163 NA 
HETATM    5  C   UNL     1     -11.580   7.095  70.349  1.00  0.00    -0.258 C  
HETATM    6  C   UNL     1     -12.322   6.092  72.413  1.00  0.00    -0.007 C  
HETATM    7  C   UNL     1     -10.118   7.040  70.855  1.00  0.00    -0.193 C  
BRANCH   4   8
HETATM    8  C   UNL     1      -9.860   4.587  71.146  1.00  0.00    -0.193 C  
BRANCH   8   9
HETATM    9  C   UNL     1      -8.977   4.531  69.888  1.00  0.00    -0.145 A  
HETATM   10  C   UNL     1      -8.827   4.437  67.448  1.00  0.00    -0.116 A  
HETATM   11  C   UNL     1      -7.601   4.805  69.924  1.00  0.00    -0.055 A  
HETATM   12  C   UNL     1      -7.470   4.740  67.509  1.00  0.00    -0.079 A  
HETATM   13  C   UNL     1      -6.854   4.906  68.747  1.00  0.00    -0.051 A  
HETATM   14  C   UNL     1      -9.573   4.322  68.626  1.00  0.00    -0.210 A  
ENDBRANCH   8   9
BRANCH   8  15
HETATM   15  C   UNL     1      -9.566   3.475  72.165  1.00  0.00    -0.207 A  
HETATM   16  C   UNL     1     -10.421   1.684  73.583  1.00  0.00    -0.178 A  
HETATM   17  C   UNL     1      -8.226   2.590  74.000  1.00  0.00    -0.063 A  
HETATM   18  C   UNL     1      -9.250   1.710  74.336  1.00  0.00    -0.077 A  
HETATM   19  C   UNL     1      -8.384   3.468  72.927  1.00  0.00    -0.082 A  
HETATM   20  C   UNL     1     -10.575   2.550  72.497  1.00  0.00    -0.106 A  
ENDBRANCH   8  15
ENDBRANCH   4   8
ENDBRANCH   1   2
BRANCH   1  21
HETATM   21  C   UNL     1     -12.722   9.596  71.108  1.00  0.00    -0.407 C  
HETATM   22  C   UNL     1     -11.712  10.466  70.943  1.00  0.00    -0.455 C  
BRANCH  22  23
HETATM   23  C   UNL     1     -11.807  11.581  70.010  1.00  0.00    -0.435 A  
HETATM   24  C   UNL     1     -11.643  11.341  68.641  1.00  0.00    -0.384 A  
HETATM   25  C   UNL     1     -11.732  12.394  67.730  1.00  0.00    -0.413 A  
HETATM   26  C   UNL     1     -12.053  12.879  70.463  1.00  0.00    -0.364 A  
HETATM   27  C   UNL     1     -12.142  13.932  69.549  1.00  0.00    -0.393 A  
HETATM   28  C   UNL     1     -11.985  13.688  68.185  1.00  0.00    -0.390 A  
ENDBRANCH  22  23
ENDBRANCH   1  21
TORSDOF 6
ENDMDL
MODEL       80
REMARK 921   NORMALIZED FREE ENERGY PREDICTED BY IDOCK:   -5.42 KCAL/MOL
REMARK 922        TOTAL FREE ENERGY PREDICTED BY IDOCK:   -7.26 KCAL/MOL
REMARK 923 INTER-LIGAND FREE ENERGY PREDICTED BY IDOCK:   -6.85 KCAL/MOL
REMARK 924 INTRA-LIGAND FREE ENERGY PREDICTED BY IDOCK:   -0.41 KCAL/MOL
REMARK 927      BINDING AFFINITY PREDICTED BY RF-SCORE:    0.00 PKD
ROOT
HETATM    1  C   UNL     1     -12.206   8.650  71.900  1.00  0.00    -0.355 C  
ENDROOT
BRANCH   1   2
HETATM    2  N   UNL     1     -11.782   8.241  70.552  1.00  0.00    -0.143 NA 
HETATM    3  C   UNL     1     -10.947   5.897  71.108  1.00  0.00    -0.260 C  
HETATM    4  N   UNL     1      -9.529   6.206  70.781  1.00  0.00    -0.167 NA 
HETATM    5  C   UNL     1     -10.360   8.561  70.285  1.00  0.00    -0.205 C  
HETATM    6  C   UNL     1     -11.989   6.785  70.382  1.00  0.00    -0.285 C  
HETATM    7  C   UNL     1      -9.340   7.656  71.017  1.00  0.00    -0.152 C  
BRANCH   4   8
HETATM    8  C   UNL     1      -9.170   5.796  69.382  1.00  0.00    -0.125 C  
BRANCH   8   9
HETATM    9  C   UNL     1      -7.899   6.495  68.868  1.00  0.00    -0.110 A  
HETATM   10  C   UNL     1      -5.458   6.552  68.738  1.00  0.00    -0.016 A  
HETATM   11  C   UNL     1      -7.938   7.480  67.868  1.00  0.00    -0.119 A  
HETATM   12  C   UNL     1      -5.523   7.506  67.726  1.00  0.00    -0.030 A  
HETATM   13  C   UNL     1      -6.761   7.982  67.305  1.00  0.00    -0.065 A  
HETATM   14  C   UNL     1      -6.634   6.059  69.313  1.00  0.00    -0.051 A  
ENDBRANCH   8   9
BRANCH   8  15
HETATM   15  C   UNL     1      -9.136   4.264  69.250  1.00  0.00    -0.182 A  
HETATM   16  C   UNL     1      -9.528   2.294  67.868  1.00  0.00    -0.172 A  
HETATM   17  C   UNL     1      -9.324   2.053  70.258  1.00  0.00    -0.180 A  
HETATM   18  C   UNL     1      -9.538   1.488  69.005  1.00  0.00    -0.135 A  
HETATM   19  C   UNL     1      -9.128   3.429  70.381  1.00  0.00    -0.193 A  
HETATM   20  C   UNL     1      -9.316   3.670  67.987  1.00  0.00    -0.237 A  
ENDBRANCH   8  15
ENDBRANCH   4   8
ENDBRANCH   1   2
BRANCH   1  21
HETATM   21  C   UNL     1     -12.660  10.075  71.956  1.00  0.00    -0.379 C  
HETATM   22  C   UNL     1     -12.239  11.006  71.084  1.00  0.00    -0.415 C  
BRANCH  22  23
HETATM   23  C   UNL     1     -12.676  12.393  71.177  1.00  0.00    -0.336 A  
HETATM   24  C   UNL     1     -13.599  12.754  72.165  1.00  0.00    -0.547 A  
HETATM   25  C   UNL     1     -14.029  14.077  72.273  1.00  0.00    -0.651 A  
HETATM   26  C   UNL     1     -12.189  13.362  70.295  1.00  0.00    -0.405 A  
HETATM   27  C   UNL     1     -12.620  14.685  70.406  1.00  0.00    -0.399 A  
HETATM   28  C   UNL     1     -13.536  15.042  71.395  1.00  0.00    -0.538 A  
ENDBRANCH  22  23
ENDBRANCH   1  21
TORSDOF 6
ENDMDL
MODEL       81
REMARK 921   NORMALIZED FREE ENERGY PREDICTED BY IDOCK:   -5.34 KCAL/MOL
REMARK 922        TOTAL FREE ENERGY PREDICTED BY IDOCK:   -7.16 KCAL/MOL
REMARK 923 INTER-LIGAND FREE ENERGY PREDICTED BY IDOCK:   -6.20 KCAL/MOL
REMARK 924 INTRA-LIGAND FREE ENERGY PREDICTED BY IDOCK:   -0.96 KCAL/MOL
REMARK 927      BINDING AFFINITY PREDICTED BY RF-SCORE:    0.00 PKD
ROOT
HETATM    1  C   UNL     1      -7.999  11.735  68.285  1.00  0.00    -0.147 C  
ENDROOT
BRANCH   1   2
HETATM    2  N   UNL     1      -9.183  10.882  68.093  1.00  0.00    -0.153 NA 
HETATM    3  C   UNL     1      -8.853   9.317  70.080  1.00  0.00    -0.197 C  
HETATM    4  N   UNL     1      -8.623   8.115  69.235  1.00  0.00    -0.134 NA 
HETATM    5  C   UNL     1      -8.894   9.694  67.255  1.00  0.00    -0.132 C  
HETATM    6  C   UNL     1      -9.694  10.433  69.407  1.00  0.00    -0.200 C  
HETATM    7  C   UNL     1      -8.057   8.594  67.952  1.00  0.00    -0.108 C  
BRANCH   4   8
HETATM    8  C   UNL     1      -9.875   7.307  69.050  1.00  0.00    -0.165 C  
BRANCH   8   9
HETATM    9  C   UNL     1      -9.711   6.193  68.002  1.00  0.00    -0.122 A  
HETATM   10  C   UNL     1      -8.612   4.117  67.320  1.00  0.00    -0.103 A  
HETATM   11  C   UNL     1     -10.627   6.008  66.954  1.00  0.00    -0.384 A  
HETATM   12  C   UNL     1      -9.551   3.940  66.307  1.00  0.00    -0.198 A  
HETATM   13  C   UNL     1     -10.546   4.894  66.113  1.00  0.00    -0.322 A  
HETATM   14  C   UNL     1      -8.684   5.238  68.153  1.00  0.00    -0.102 A  
ENDBRANCH   8   9
BRANCH   8  15
HETATM   15  C   UNL     1     -10.417   6.817  70.402  1.00  0.00    -0.236 A  
HETATM   16  C   UNL     1     -10.160   5.339  72.325  1.00  0.00    -0.237 A  
HETATM   17  C   UNL     1     -12.298   6.363  71.885  1.00  0.00    -0.279 A  
HETATM   18  C   UNL     1     -11.501   5.521  72.655  1.00  0.00    -0.331 A  
HETATM   19  C   UNL     1     -11.763   7.002  70.767  1.00  0.00    -0.394 A  
HETATM   20  C   UNL     1      -9.617   5.991  71.215  1.00  0.00    -0.189 A  
ENDBRANCH   8  15
ENDBRANCH   4   8
ENDBRANCH   1   2
BRANCH   1  21
HETATM   21  C   UNL     1      -8.264  13.171  67.961  1.00  0.00    -0.158 C  
HETATM   22  C   UNL     1      -9.457  13.612  67.530  1.00  0.00    -0.222 C  
BRANCH  22  23
HETATM   23  C   UNL     1      -9.681  15.012  67.196  1.00  0.00    -0.228 A  
HETATM   24  C   UNL     1     -10.262  15.336  65.964  1.00  0.00    -0.335 A  
HETATM   25  C   UNL     1     -10.487  16.669  65.625  1.00  0.00    -0.313 A  
HETATM   26  C   UNL     1      -9.321  16.030  68.082  1.00  0.00    -0.200 A  
HETATM   27  C   UNL     1      -9.548  17.365  67.740  1.00  0.00    -0.264 A  
HETATM   28  C   UNL     1     -10.132  17.683  66.515  1.00  0.00    -0.350 A  
ENDBRANCH  22  23
ENDBRANCH   1  21
TORSDOF 6
ENDMDL
MODEL       82
REMARK 921   NORMALIZED FREE ENERGY PREDICTED BY IDOCK:   -5.34 KCAL/MOL
REMARK 922        TOTAL FREE ENERGY PREDICTED BY IDOCK:   -7.16 KCAL/MOL
REMARK 923 INTER-LIGAND FREE ENERGY PREDICTED BY IDOCK:   -7.48 KCAL/MOL
REMARK 924 INTRA-LIGAND FREE ENERGY PREDICTED BY IDOCK:    0.32 KCAL/MOL
REMARK 927      BINDING AFFINITY PREDICTED BY RF-SCORE:    0.00 PKD
ROOT
HETATM    1  C   UNL     1      -9.137  10.221  66.297  1.00  0.00    -0.154 C  
ENDROOT
BRANCH   1   2
HETATM    2  N   UNL     1     -10.290  11.136  66.273  1.00  0.00    -0.242 NA 
HETATM    3  C   UNL     1      -9.240  13.108  67.502  1.00  0.00    -0.206 C  
HETATM    4  N   UNL     1     -10.146  12.999  68.677  1.00  0.00    -0.186 NA 
HETATM    5  C   UNL     1     -11.150  10.994  67.471  1.00  0.00    -0.302 C  
HETATM    6  C   UNL     1      -9.816  12.536  66.182  1.00  0.00    -0.258 C  
HETATM    7  C   UNL     1     -10.553  11.578  68.774  1.00  0.00    -0.211 C  
BRANCH   4   8
HETATM    8  C   UNL     1     -11.318  13.932  68.575  1.00  0.00    -0.280 C  
BRANCH   8   9
HETATM    9  C   UNL     1     -12.214  13.895  69.824  1.00  0.00    -0.388 A  
HETATM   10  C   UNL     1     -13.045  12.650  71.758  1.00  0.00    -0.461 A  
HETATM   11  C   UNL     1     -12.781  15.056  70.375  1.00  0.00    -0.371 A  
HETATM   12  C   UNL     1     -13.572  13.819  72.299  1.00  0.00    -0.656 A  
HETATM   13  C   UNL     1     -13.456  15.017  71.599  1.00  0.00    -0.504 A  
HETATM   14  C   UNL     1     -12.382  12.684  70.527  1.00  0.00    -0.350 A  
ENDBRANCH   8   9
BRANCH   8  15
HETATM   15  C   UNL     1     -10.862  15.345  68.176  1.00  0.00    -0.285 A  
HETATM   16  C   UNL     1     -10.396  16.947  66.397  1.00  0.00    -0.302 A  
HETATM   17  C   UNL     1      -9.519  17.333  68.609  1.00  0.00    -0.278 A  
HETATM   18  C   UNL     1      -9.646  17.721  67.279  1.00  0.00    -0.272 A  
HETATM   19  C   UNL     1     -10.118  16.154  69.054  1.00  0.00    -0.247 A  
HETATM   20  C   UNL     1     -11.011  15.774  66.843  1.00  0.00    -0.207 A  
ENDBRANCH   8  15
ENDBRANCH   4   8
ENDBRANCH   1   2
BRANCH   1  21
HETATM   21  C   UNL     1      -9.529   8.806  66.581  1.00  0.00    -0.263 C  
HETATM   22  C   UNL     1      -8.653   7.879  67.003  1.00  0.00    -0.128 C  
BRANCH  22  23
HETATM   23  C   UNL     1      -9.055   6.500  67.246  1.00  0.00    -0.117 A  
HETATM   24  C   UNL     1      -9.282   5.653  66.155  1.00  0.00    -0.169 A  
HETATM   25  C   UNL     1      -9.666   4.329  66.365  1.00  0.00    -0.228 A  
HETATM   26  C   UNL     1      -9.221   6.017  68.546  1.00  0.00    -0.114 A  
HETATM   27  C   UNL     1      -9.605   4.690  68.754  1.00  0.00    -0.229 A  
HETATM   28  C   UNL     1      -9.824   3.848  67.664  1.00  0.00    -0.069 A  
ENDBRANCH  22  23
ENDBRANCH   1  21
TORSDOF 6
ENDMDL
MODEL       83
REMARK 921   NORMALIZED FREE ENERGY PREDICTED BY IDOCK:   -5.34 KCAL/MOL
REMARK 922        TOTAL FREE ENERGY PREDICTED BY IDOCK:   -7.16 KCAL/MOL
REMARK 923 INTER-LIGAND FREE ENERGY PREDICTED BY IDOCK:   -6.31 KCAL/MOL
REMARK 924 INTRA-LIGAND FREE ENERGY PREDICTED BY IDOCK:   -0.85 KCAL/MOL
REMARK 927      BINDING AFFINITY PREDICTED BY RF-SCORE:    0.00 PKD
ROOT
HETATM    1  C   UNL     1     -11.091  11.412  69.403  1.00  0.00    -0.241 C  
ENDROOT
BRANCH   1   2
HETATM    2  N   UNL     1     -10.867   9.993  69.084  1.00  0.00    -0.216 NA 
HETATM    3  C   UNL     1     -10.984   9.045  71.448  1.00  0.00    -0.324 C  
HETATM    4  N   UNL     1      -9.559   8.620  71.466  1.00  0.00    -0.230 NA 
HETATM    5  C   UNL     1      -9.433   9.623  69.128  1.00  0.00    -0.171 C  
HETATM    6  C   UNL     1     -11.615   9.142  70.036  1.00  0.00     0.060 C  
HETATM    7  C   UNL     1      -8.829   9.528  70.550  1.00  0.00    -0.201 C  
BRANCH   4   8
HETATM    8  C   UNL     1      -9.396   7.174  71.098  1.00  0.00    -0.157 C  
BRANCH   8   9
HETATM    9  C   UNL     1      -7.952   6.823  70.699  1.00  0.00    -0.110 A  
HETATM   10  C   UNL     1      -5.648   6.378  71.386  1.00  0.00    -0.027 A  
HETATM   11  C   UNL     1      -7.623   6.347  69.420  1.00  0.00    -0.095 A  
HETATM   12  C   UNL     1      -5.354   5.882  70.119  1.00  0.00    -0.012 A  
HETATM   13  C   UNL     1      -6.335   5.884  69.132  1.00  0.00    -0.041 A  
HETATM   14  C   UNL     1      -6.931   6.855  71.672  1.00  0.00    -0.070 A  
ENDBRANCH   8   9
BRANCH   8  15
HETATM   15  C   UNL     1      -9.980   6.261  72.189  1.00  0.00    -0.184 A  
HETATM   16  C   UNL     1     -10.296   5.812  74.565  1.00  0.00    -0.245 A  
HETATM   17  C   UNL     1     -10.633   4.043  72.961  1.00  0.00    -0.256 A  
HETATM   18  C   UNL     1     -10.608   4.484  74.281  1.00  0.00    -0.316 A  
HETATM   19  C   UNL     1     -10.319   4.922  71.924  1.00  0.00    -0.259 A  
HETATM   20  C   UNL     1      -9.998   6.698  73.527  1.00  0.00    -0.251 A  
ENDBRANCH   8  15
ENDBRANCH   4   8
ENDBRANCH   1   2
BRANCH   1  21
HETATM   21  C   UNL     1     -10.902  12.307  68.220  1.00  0.00    -0.254 C  
HETATM   22  C   UNL     1     -11.825  13.201  67.829  1.00  0.00    -0.392 C  
BRANCH  22  23
HETATM   23  C   UNL     1     -11.627  14.042  66.656  1.00  0.00    -0.400 A  
HETATM   24  C   UNL     1     -12.564  13.997  65.617  1.00  0.00    -0.542 A  
HETATM   25  C   UNL     1     -12.396  14.795  64.487  1.00  0.00    -0.384 A  
HETATM   26  C   UNL     1     -10.518  14.886  66.554  1.00  0.00    -0.297 A  
HETATM   27  C   UNL     1     -10.352  15.685  65.421  1.00  0.00    -0.421 A  
HETATM   28  C   UNL     1     -11.291  15.641  64.391  1.00  0.00    -0.272 A  
ENDBRANCH  22  23
ENDBRANCH   1  21
TORSDOF 6
ENDMDL
MODEL       84
REMARK 921   NORMALIZED FREE ENERGY PREDICTED BY IDOCK:   -5.33 KCAL/MOL
REMARK 922        TOTAL FREE ENERGY PREDICTED BY IDOCK:   -7.14 KCAL/MOL
REMARK 923 INTER-LIGAND FREE ENERGY PREDICTED BY IDOCK:   -6.66 KCAL/MOL
REMARK 924 INTRA-LIGAND FREE ENERGY PREDICTED BY IDOCK:   -0.49 KCAL/MOL
REMARK 927      BINDING AFFINITY PREDICTED BY RF-SCORE:    0.00 PKD
ROOT
HETATM    1  C   UNL     1      -7.336  10.869  68.940  1.00  0.00    -0.111 C  
ENDROOT
BRANCH   1   2
HETATM    2  N   UNL     1      -7.442  11.657  67.702  1.00  0.00    -0.109 NA 
HETATM    3  C   UNL     1      -7.844  13.951  68.742  1.00  0.00    -0.079 C  
HETATM    4  N   UNL     1      -9.223  14.076  68.200  1.00  0.00    -0.191 NA 
HETATM    5  C   UNL     1      -8.838  11.759  67.215  1.00  0.00    -0.167 C  
HETATM    6  C   UNL     1      -6.909  13.019  67.929  1.00  0.00    -0.130 C  
HETATM    7  C   UNL     1      -9.748  12.699  68.041  1.00  0.00    -0.215 C  
BRANCH   4   8
HETATM    8  C   UNL     1      -9.259  14.860  66.920  1.00  0.00    -0.246 C  
BRANCH   8   9
HETATM    9  C   UNL     1     -10.393  14.412  65.983  1.00  0.00    -0.319 A  
HETATM   10  C   UNL     1     -11.078  13.211  63.965  1.00  0.00    -0.395 A  
HETATM   11  C   UNL     1     -11.745  14.487  66.352  1.00  0.00    -0.372 A  
HETATM   12  C   UNL     1     -12.410  13.272  64.368  1.00  0.00    -0.410 A  
HETATM   13  C   UNL     1     -12.744  13.926  65.551  1.00  0.00    -0.536 A  
HETATM   14  C   UNL     1     -10.079  13.785  64.758  1.00  0.00    -0.259 A  
ENDBRANCH   8   9
BRANCH   8  15
HETATM   15  C   UNL     1      -9.243  16.372  67.202  1.00  0.00    -0.225 A  
HETATM   16  C   UNL     1     -10.034  18.234  68.563  1.00  0.00    -0.413 A  
HETATM   17  C   UNL     1      -9.050  18.667  66.405  1.00  0.00    -0.288 A  
HETATM   18  C   UNL     1      -9.655  19.133  67.569  1.00  0.00    -0.373 A  
HETATM   19  C   UNL     1      -8.849  17.299  66.221  1.00  0.00    -0.250 A  
HETATM   20  C   UNL     1      -9.819  16.864  68.389  1.00  0.00    -0.266 A  
ENDBRANCH   8  15
ENDBRANCH   4   8
ENDBRANCH   1   2
BRANCH   1  21
HETATM   21  C   UNL     1      -8.169   9.627  68.908  1.00  0.00    -0.110 C  
HETATM   22  C   UNL     1      -7.860   8.563  68.150  1.00  0.00    -0.103 C  
BRANCH  22  23
HETATM   23  C   UNL     1      -8.704   7.376  68.116  1.00  0.00    -0.122 A  
HETATM   24  C   UNL     1      -8.125   6.134  67.832  1.00  0.00    -0.114 A  
HETATM   25  C   UNL     1      -8.914   4.985  67.797  1.00  0.00    -0.117 A  
HETATM   26  C   UNL     1     -10.077   7.462  68.359  1.00  0.00    -0.196 A  
HETATM   27  C   UNL     1     -10.865   6.310  68.324  1.00  0.00    -0.397 A  
HETATM   28  C   UNL     1     -10.284   5.073  68.046  1.00  0.00    -0.144 A  
ENDBRANCH  22  23
ENDBRANCH   1  21
TORSDOF 6
ENDMDL
MODEL       85
REMARK 921   NORMALIZED FREE ENERGY PREDICTED BY IDOCK:   -5.26 KCAL/MOL
REMARK 922        TOTAL FREE ENERGY PREDICTED BY IDOCK:   -7.04 KCAL/MOL
REMARK 923 INTER-LIGAND FREE ENERGY PREDICTED BY IDOCK:   -7.19 KCAL/MOL
REMARK 924 INTRA-LIGAND FREE ENERGY PREDICTED BY IDOCK:    0.15 KCAL/MOL
REMARK 927      BINDING AFFINITY PREDICTED BY RF-SCORE:    0.00 PKD
ROOT
HETATM    1  C   UNL     1     -10.381  17.645  67.340  1.00  0.00    -0.360 C  
ENDROOT
BRANCH   1   2
HETATM    2  N   UNL     1     -11.396  16.597  67.147  1.00  0.00     0.254 NA 
HETATM    3  C   UNL     1     -10.296  14.744  68.511  1.00  0.00    -0.237 C  
HETATM    4  N   UNL     1     -10.066  13.864  67.334  1.00  0.00    -0.242 NA 
HETATM    5  C   UNL     1     -11.110  15.744  65.970  1.00  0.00    -0.085 C  
HETATM    6  C   UNL     1     -11.470  15.744  68.355  1.00  0.00    -0.365 C  
HETATM    7  C   UNL     1      -9.937  14.751  66.154  1.00  0.00    -0.304 C  
BRANCH   4   8
HETATM    8  C   UNL     1     -11.152  12.840  67.173  1.00  0.00    -0.277 C  
BRANCH   8   9
HETATM    9  C   UNL     1     -11.214  12.262  65.749  1.00  0.00    -0.378 A  
HETATM   10  C   UNL     1     -12.370  12.139  63.597  1.00  0.00    -0.673 A  
HETATM   11  C   UNL     1     -10.122  11.607  65.157  1.00  0.00    -0.304 A  
HETATM   12  C   UNL     1     -11.264  11.518  63.025  1.00  0.00     0.066 A  
HETATM   13  C   UNL     1     -10.148  11.236  63.809  1.00  0.00    -0.412 A  
HETATM   14  C   UNL     1     -12.352  12.498  64.949  1.00  0.00    -0.539 A  
ENDBRANCH   8   9
BRANCH   8  15
HETATM   15  C   UNL     1     -11.068  11.773  68.277  1.00  0.00    -0.291 A  
HETATM   16  C   UNL     1     -11.984  10.847  70.338  1.00  0.00    -0.453 A  
HETATM   17  C   UNL     1      -9.743  10.266  69.662  1.00  0.00    -0.216 A  
HETATM   18  C   UNL     1     -10.789  10.170  70.575  1.00  0.00    -0.340 A  
HETATM   19  C   UNL     1      -9.879  11.063  68.525  1.00  0.00    -0.194 A  
HETATM   20  C   UNL     1     -12.128  11.633  69.192  1.00  0.00    -0.315 A  
ENDBRANCH   8  15
ENDBRANCH   4   8
ENDBRANCH   1   2
BRANCH   1  21
HETATM   21  C   UNL     1      -9.341  17.264  68.344  1.00  0.00    -0.275 C  
HETATM   22  C   UNL     1      -8.028  17.253  68.063  1.00  0.00    -0.215 C  
BRANCH  22  23
HETATM   23  C   UNL     1      -7.036  16.851  69.052  1.00  0.00    -0.232 A  
HETATM   24  C   UNL     1      -6.341  17.837  69.762  1.00  0.00    -0.118 A  
HETATM   25  C   UNL     1      -5.390  17.474  70.715  1.00  0.00    -0.224 A  
HETATM   26  C   UNL     1      -6.769  15.502  69.296  1.00  0.00    -0.154 A  
HETATM   27  C   UNL     1      -5.816  15.141  70.251  1.00  0.00    -0.147 A  
HETATM   28  C   UNL     1      -5.130  16.126  70.961  1.00  0.00    -0.157 A  
ENDBRANCH  22  23
ENDBRANCH   1  21
TORSDOF 6
ENDMDL
MODEL       86
REMARK 921   NORMALIZED FREE ENERGY PREDICTED BY IDOCK:   -5.25 KCAL/MOL
REMARK 922        TOTAL FREE ENERGY PREDICTED BY IDOCK:   -7.03 KCAL/MOL
REMARK 923 INTER-LIGAND FREE ENERGY PREDICTED BY IDOCK:   -6.27 KCAL/MOL
REMARK 924 INTRA-LIGAND FREE ENERGY PREDICTED BY IDOCK:   -0.77 KCAL/MOL
REMARK 927      BINDING AFFINITY PREDICTED BY RF-SCORE:    0.00 PKD
ROOT
HETATM    1  C   UNL     1      -5.884  13.457  68.629  1.00  0.00    -0.084 C  
ENDROOT
BRANCH   1   2
HETATM    2  N   UNL     1      -7.203  13.939  69.069  1.00  0.00    -0.103 NA 
HETATM    3  C   UNL     1      -8.358  14.021  66.797  1.00  0.00     0.105 C  
HETATM    4  N   UNL     1      -8.509  15.501  66.805  1.00  0.00    -0.259 NA 
HETATM    5  C   UNL     1      -7.301  15.417  69.045  1.00  0.00    -0.159 C  
HETATM    6  C   UNL     1      -8.259  13.371  68.200  1.00  0.00    -0.160 C  
HETATM    7  C   UNL     1      -7.404  16.040  67.632  1.00  0.00    -0.151 C  
BRANCH   4   8
HETATM    8  C   UNL     1      -9.862  15.928  67.295  1.00  0.00    -0.234 C  
BRANCH   8   9
HETATM    9  C   UNL     1     -10.006  17.457  67.377  1.00  0.00    -0.305 A  
HETATM   10  C   UNL     1     -10.066  19.475  68.758  1.00  0.00    -0.519 A  
HETATM   11  C   UNL     1      -9.914  18.281  66.244  1.00  0.00    -0.361 A  
HETATM   12  C   UNL     1      -9.943  20.270  67.622  1.00  0.00    -0.551 A  
HETATM   13  C   UNL     1      -9.886  19.674  66.365  1.00  0.00    -0.536 A  
HETATM   14  C   UNL     1     -10.109  18.082  68.638  1.00  0.00    -0.401 A  
ENDBRANCH   8   9
BRANCH   8  15
HETATM   15  C   UNL     1     -10.979  15.238  66.495  1.00  0.00    -0.295 A  
HETATM   16  C   UNL     1     -12.679  13.493  66.391  1.00  0.00    -0.068 A  
HETATM   17  C   UNL     1     -11.935  14.556  64.359  1.00  0.00    -0.467 A  
HETATM   18  C   UNL     1     -12.731  13.614  65.004  1.00  0.00    -0.384 A  
HETATM   19  C   UNL     1     -11.064  15.358  65.096  1.00  0.00    -0.402 A  
HETATM   20  C   UNL     1     -11.820  14.307  67.134  1.00  0.00    -0.454 A  
ENDBRANCH   8  15
ENDBRANCH   4   8
ENDBRANCH   1   2
BRANCH   1  21
HETATM   21  C   UNL     1      -5.905  12.022  68.207  1.00  0.00    -0.051 C  
HETATM   22  C   UNL     1      -5.545  11.620  66.977  1.00  0.00    -0.124 C  
BRANCH  22  23
HETATM   23  C   UNL     1      -5.601  10.218  66.584  1.00  0.00    -0.048 A  
HETATM   24  C   UNL     1      -6.079   9.884  65.312  1.00  0.00    -0.091 A  
HETATM   25  C   UNL     1      -6.138   8.549  64.914  1.00  0.00    -0.060 A  
HETATM   26  C   UNL     1      -5.189   9.208  67.457  1.00  0.00    -0.037 A  
HETATM   27  C   UNL     1      -5.248   7.872  67.056  1.00  0.00    -0.031 A  
HETATM   28  C   UNL     1      -5.720   7.544  65.785  1.00  0.00    -0.037 A  
ENDBRANCH  22  23
ENDBRANCH   1  21
TORSDOF 6
ENDMDL
MODEL       87
REMARK 921   NORMALIZED FREE ENERGY PREDICTED BY IDOCK:   -5.21 KCAL/MOL
REMARK 922        TOTAL FREE ENERGY PREDICTED BY IDOCK:   -6.98 KCAL/MOL
REMARK 923 INTER-LIGAND FREE ENERGY PREDICTED BY IDOCK:   -6.21 KCAL/MOL
REMARK 924 INTRA-LIGAND FREE ENERGY PREDICTED BY IDOCK:   -0.76 KCAL/MOL
REMARK 927      BINDING AFFINITY PREDICTED BY RF-SCORE:    0.00 PKD
ROOT
HETATM    1  C   UNL     1     -10.046  10.219  68.943  1.00  0.00    -0.204 C  
ENDROOT
BRANCH   1   2
HETATM    2  N   UNL     1     -10.658   8.904  69.191  1.00  0.00    -0.220 NA 
HETATM    3  C   UNL     1      -8.730   7.818  70.458  1.00  0.00    -0.140 C  
HETATM    4  N   UNL     1      -8.467   6.800  69.406  1.00  0.00    -0.131 NA 
HETATM    5  C   UNL     1     -10.354   7.927  68.119  1.00  0.00    -0.200 C  
HETATM    6  C   UNL     1     -10.180   8.365  70.485  1.00  0.00    -0.196 C  
HETATM    7  C   UNL     1      -8.902   7.392  68.119  1.00  0.00    -0.127 C  
BRANCH   4   8
HETATM    8  C   UNL     1      -9.146   5.494  69.702  1.00  0.00    -0.128 C  
BRANCH   8   9
HETATM    9  C   UNL     1      -8.681   4.361  68.769  1.00  0.00    -0.120 A  
HETATM   10  C   UNL     1      -9.197   2.269  67.612  1.00  0.00    -0.207 A  
HETATM   11  C   UNL     1      -7.516   4.460  67.992  1.00  0.00    -0.069 A  
HETATM   12  C   UNL     1      -8.052   2.405  66.832  1.00  0.00    -0.081 A  
HETATM   13  C   UNL     1      -7.203   3.490  67.036  1.00  0.00    -0.063 A  
HETATM   14  C   UNL     1      -9.505   3.231  68.579  1.00  0.00    -0.206 A  
ENDBRANCH   8   9
BRANCH   8  15
HETATM   15  C   UNL     1      -9.049   5.150  71.197  1.00  0.00    -0.174 A  
HETATM   16  C   UNL     1      -7.704   4.301  73.045  1.00  0.00    -0.082 A  
HETATM   17  C   UNL     1     -10.103   4.410  73.267  1.00  0.00    -0.201 A  
HETATM   18  C   UNL     1      -8.858   4.078  73.793  1.00  0.00    -0.093 A  
HETATM   19  C   UNL     1     -10.199   4.937  71.979  1.00  0.00    -0.263 A  
HETATM   20  C   UNL     1      -7.796   4.845  71.761  1.00  0.00    -0.107 A  
ENDBRANCH   8  15
ENDBRANCH   4   8
ENDBRANCH   1   2
BRANCH   1  21
HETATM   21  C   UNL     1     -10.334  10.739  67.570  1.00  0.00    -0.244 C  
HETATM   22  C   UNL     1     -11.216  11.724  67.336  1.00  0.00    -0.357 C  
BRANCH  22  23
HETATM   23  C   UNL     1     -11.497  12.194  65.986  1.00  0.00    -0.427 A  
HETATM   24  C   UNL     1     -12.167  13.411  65.811  1.00  0.00    -0.507 A  
HETATM   25  C   UNL     1     -12.445  13.880  64.528  1.00  0.00    -0.336 A  
HETATM   26  C   UNL     1     -11.113  11.448  64.869  1.00  0.00    -0.235 A  
HETATM   27  C   UNL     1     -11.392  11.920  63.585  1.00  0.00    -0.536 A  
HETATM   28  C   UNL     1     -12.054  13.136  63.415  1.00  0.00    -0.558 A  
ENDBRANCH  22  23
ENDBRANCH   1  21
TORSDOF 6
ENDMDL
MODEL       88
REMARK 921   NORMALIZED FREE ENERGY PREDICTED BY IDOCK:   -5.18 KCAL/MOL
REMARK 922        TOTAL FREE ENERGY PREDICTED BY IDOCK:   -6.94 KCAL/MOL
REMARK 923 INTER-LIGAND FREE ENERGY PREDICTED BY IDOCK:   -6.62 KCAL/MOL
REMARK 924 INTRA-LIGAND FREE ENERGY PREDICTED BY IDOCK:   -0.32 KCAL/MOL
REMARK 927      BINDING AFFINITY PREDICTED BY RF-SCORE:    0.00 PKD
ROOT
HETATM    1  C   UNL     1      -8.190   7.773  64.480  1.00  0.00    -0.056 C  
ENDROOT
BRANCH   1   2
HETATM    2  N   UNL     1      -7.934   8.919  65.366  1.00  0.00    -0.105 NA 
HETATM    3  C   UNL     1      -9.912   8.630  66.949  1.00  0.00    -0.260 C  
HETATM    4  N   UNL     1     -10.570   9.897  66.533  1.00  0.00    -0.137 NA 
HETATM    5  C   UNL     1      -8.623  10.150  64.911  1.00  0.00    -0.178 C  
HETATM    6  C   UNL     1      -8.376   8.598  66.741  1.00  0.00    -0.108 C  
HETATM    7  C   UNL     1     -10.154  10.158  65.135  1.00  0.00    -0.259 C  
BRANCH   4   8
HETATM    8  C   UNL     1     -10.242  11.034  67.457  1.00  0.00    -0.188 C  
BRANCH   8   9
HETATM    9  C   UNL     1     -10.678  12.398  66.895  1.00  0.00    -0.269 A  
HETATM   10  C   UNL     1     -10.042  14.582  65.996  1.00  0.00    -0.336 A  
HETATM   11  C   UNL     1     -11.994  12.652  66.478  1.00  0.00    -0.401 A  
HETATM   12  C   UNL     1     -11.349  14.798  65.565  1.00  0.00    -0.343 A  
HETATM   13  C   UNL     1     -12.327  13.841  65.823  1.00  0.00    -0.523 A  
HETATM   14  C   UNL     1      -9.711  13.400  66.664  1.00  0.00    -0.275 A  
ENDBRANCH   8   9
BRANCH   8  15
HETATM   15  C   UNL     1     -10.755  10.752  68.878  1.00  0.00    -0.259 A  
HETATM   16  C   UNL     1     -10.472   9.557  70.984  1.00  0.00    -0.377 A  
HETATM   17  C   UNL     1     -12.602  10.555  70.457  1.00  0.00    -0.423 A  
HETATM   18  C   UNL     1     -11.800   9.813  71.318  1.00  0.00    -0.481 A  
HETATM   19  C   UNL     1     -12.086  11.018  69.246  1.00  0.00    -0.363 A  
HETATM   20  C   UNL     1      -9.948  10.033  69.780  1.00  0.00    -0.276 A  
ENDBRANCH   8  15
ENDBRANCH   4   8
ENDBRANCH   1   2
BRANCH   1  21
HETATM   21  C   UNL     1      -7.947   6.458  65.152  1.00  0.00    -0.116 C  
HETATM   22  C   UNL     1      -8.903   5.525  65.290  1.00  0.00    -0.112 C  
BRANCH  22  23
HETATM   23  C   UNL     1      -8.648   4.264  65.973  1.00  0.00    -0.113 A  
HETATM   24  C   UNL     1      -7.589   3.456  65.543  1.00  0.00    -0.077 A  
HETATM   25  C   UNL     1      -7.326   2.246  66.184  1.00  0.00    -0.066 A  
HETATM   26  C   UNL     1      -9.445   3.851  67.044  1.00  0.00    -0.226 A  
HETATM   27  C   UNL     1      -9.179   2.639  67.685  1.00  0.00    -0.232 A  
HETATM   28  C   UNL     1      -8.120   1.840  67.257  1.00  0.00    -0.067 A  
ENDBRANCH  22  23
ENDBRANCH   1  21
TORSDOF 6
ENDMDL
MODEL       89
REMARK 921   NORMALIZED FREE ENERGY PREDICTED BY IDOCK:   -5.11 KCAL/MOL
REMARK 922        TOTAL FREE ENERGY PREDICTED BY IDOCK:   -6.84 KCAL/MOL
REMARK 923 INTER-LIGAND FREE ENERGY PREDICTED BY IDOCK:   -6.30 KCAL/MOL
REMARK 924 INTRA-LIGAND FREE ENERGY PREDICTED BY IDOCK:   -0.54 KCAL/MOL
REMARK 927      BINDING AFFINITY PREDICTED BY RF-SCORE:    0.00 PKD
ROOT
HETATM    1  C   UNL     1      -6.870   9.140  67.849  1.00  0.00    -0.069 C  
ENDROOT
BRANCH   1   2
HETATM    2  N   UNL     1      -7.208  10.572  67.791  1.00  0.00    -0.084 NA 
HETATM    3  C   UNL     1      -9.282  10.537  69.274  1.00  0.00    -0.148 C  
HETATM    4  N   UNL     1     -10.209  10.914  68.173  1.00  0.00    -0.170 NA 
HETATM    5  C   UNL     1      -8.142  10.888  66.686  1.00  0.00    -0.147 C  
HETATM    6  C   UNL     1      -7.815  10.995  69.073  1.00  0.00    -0.126 C  
HETATM    7  C   UNL     1      -9.601  10.425  66.914  1.00  0.00    -0.172 C  
BRANCH   4   8
HETATM    8  C   UNL     1     -10.485  12.389  68.148  1.00  0.00    -0.219 C  
BRANCH   8   9
HETATM    9  C   UNL     1     -10.863  12.897  66.745  1.00  0.00    -0.288 A  
HETATM   10  C   UNL     1     -12.489  12.966  64.920  1.00  0.00    -0.540 A  
HETATM   11  C   UNL     1     -10.162  13.934  66.110  1.00  0.00    -0.307 A  
HETATM   12  C   UNL     1     -11.794  14.015  64.325  1.00  0.00    -0.435 A  
HETATM   13  C   UNL     1     -10.621  14.486  64.910  1.00  0.00    -0.450 A  
HETATM   14  C   UNL     1     -12.023  12.404  66.113  1.00  0.00    -0.397 A  
ENDBRANCH   8   9
BRANCH   8  15
HETATM   15  C   UNL     1     -11.491  12.779  69.244  1.00  0.00    -0.349 A  
HETATM   16  C   UNL     1     -12.400  14.510  70.701  1.00  0.00    -0.407 A  
HETATM   17  C   UNL     1     -12.811  12.188  71.206  1.00  0.00    -0.349 A  
HETATM   18  C   UNL     1     -12.958  13.534  71.525  1.00  0.00    -0.440 A  
HETATM   19  C   UNL     1     -12.081  11.813  70.078  1.00  0.00    -0.387 A  
HETATM   20  C   UNL     1     -11.683  14.137  69.561  1.00  0.00    -0.364 A  
ENDBRANCH   8  15
ENDBRANCH   4   8
ENDBRANCH   1   2
BRANCH   1  21
HETATM   21  C   UNL     1      -6.748   8.520  66.494  1.00  0.00    -0.067 C  
HETATM   22  C   UNL     1      -7.275   7.323  66.191  1.00  0.00    -0.074 C  
BRANCH  22  23
HETATM   23  C   UNL     1      -7.117   6.729  64.870  1.00  0.00    -0.060 A  
HETATM   24  C   UNL     1      -6.661   5.410  64.764  1.00  0.00    -0.047 A  
HETATM   25  C   UNL     1      -6.506   4.822  63.509  1.00  0.00    -0.026 A  
HETATM   26  C   UNL     1      -7.411   7.457  63.714  1.00  0.00    -0.089 A  
HETATM   27  C   UNL     1      -7.255   6.865  62.459  1.00  0.00    -0.061 A  
HETATM   28  C   UNL     1      -6.806   5.549  62.358  1.00  0.00    -0.029 A  
ENDBRANCH  22  23
ENDBRANCH   1  21
TORSDOF 6
ENDMDL
MODEL       90
REMARK 921   NORMALIZED FREE ENERGY PREDICTED BY IDOCK:   -5.10 KCAL/MOL
REMARK 922        TOTAL FREE ENERGY PREDICTED BY IDOCK:   -6.83 KCAL/MOL
REMARK 923 INTER-LIGAND FREE ENERGY PREDICTED BY IDOCK:   -5.94 KCAL/MOL
REMARK 924 INTRA-LIGAND FREE ENERGY PREDICTED BY IDOCK:   -0.89 KCAL/MOL
REMARK 927      BINDING AFFINITY PREDICTED BY RF-SCORE:    0.00 PKD
ROOT
HETATM    1  C   UNL     1     -10.126  10.570  69.291  1.00  0.00    -0.224 C  
ENDROOT
BRANCH   1   2
HETATM    2  N   UNL     1      -9.021   9.609  69.145  1.00  0.00    -0.145 NA 
HETATM    3  C   UNL     1     -10.108   8.029  67.464  1.00  0.00    -0.219 C  
HETATM    4  N   UNL     1     -10.153   6.880  68.408  1.00  0.00    -0.161 NA 
HETATM    5  C   UNL     1      -9.124   8.481  70.100  1.00  0.00    -0.152 C  
HETATM    6  C   UNL     1      -9.003   9.074  67.765  1.00  0.00    -0.127 C  
HETATM    7  C   UNL     1     -10.231   7.450  69.774  1.00  0.00    -0.209 C  
BRANCH   4   8
HETATM    8  C   UNL     1      -8.982   5.957  68.231  1.00  0.00    -0.112 C  
BRANCH   8   9
HETATM    9  C   UNL     1      -8.822   4.973  69.403  1.00  0.00    -0.116 A  
HETATM   10  C   UNL     1      -7.549   4.253  71.363  1.00  0.00    -0.064 A  
HETATM   11  C   UNL     1      -9.856   4.112  69.805  1.00  0.00    -0.220 A  
HETATM   12  C   UNL     1      -8.600   3.430  71.757  1.00  0.00    -0.109 A  
HETATM   13  C   UNL     1      -9.744   3.345  70.969  1.00  0.00    -0.216 A  
HETATM   14  C   UNL     1      -7.653   5.010  70.191  1.00  0.00    -0.060 A  
ENDBRANCH   8   9
BRANCH   8  15
HETATM   15  C   UNL     1      -9.018   5.283  66.850  1.00  0.00    -0.109 A  
HETATM   16  C   UNL     1      -8.122   5.148  64.587  1.00  0.00    -0.119 A  
HETATM   17  C   UNL     1     -10.259   4.149  65.085  1.00  0.00    -0.218 A  
HETATM   18  C   UNL     1      -9.255   4.454  64.170  1.00  0.00    -0.140 A  
HETATM   19  C   UNL     1     -10.144   4.562  66.412  1.00  0.00    -0.271 A  
HETATM   20  C   UNL     1      -7.996   5.549  65.919  1.00  0.00    -0.106 A  
ENDBRANCH   8  15
ENDBRANCH   4   8
ENDBRANCH   1   2
BRANCH   1  21
HETATM   21  C   UNL     1     -10.137  11.606  68.211  1.00  0.00    -0.206 C  
HETATM   22  C   UNL     1     -11.271  12.128  67.716  1.00  0.00    -0.333 C  
BRANCH  22  23
HETATM   23  C   UNL     1     -11.255  13.116  66.645  1.00  0.00    -0.335 A  
HETATM   24  C   UNL     1     -10.130  13.933  66.487  1.00  0.00    -0.286 A  
HETATM   25  C   UNL     1     -10.093  14.883  65.467  1.00  0.00    -0.400 A  
HETATM   26  C   UNL     1     -12.344  13.259  65.782  1.00  0.00    -0.505 A  
HETATM   27  C   UNL     1     -12.304  14.211  64.761  1.00  0.00    -0.436 A  
HETATM   28  C   UNL     1     -11.179  15.019  64.603  1.00  0.00    -0.342 A  
ENDBRANCH  22  23
ENDBRANCH   1  21
TORSDOF 6
ENDMDL
MODEL       91
REMARK 921   NORMALIZED FREE ENERGY PREDICTED BY IDOCK:   -5.04 KCAL/MOL
REMARK 922        TOTAL FREE ENERGY PREDICTED BY IDOCK:   -6.75 KCAL/MOL
REMARK 923 INTER-LIGAND FREE ENERGY PREDICTED BY IDOCK:   -6.33 KCAL/MOL
REMARK 924 INTRA-LIGAND FREE ENERGY PREDICTED BY IDOCK:   -0.42 KCAL/MOL
REMARK 927      BINDING AFFINITY PREDICTED BY RF-SCORE:    0.00 PKD
ROOT
HETATM    1  C   UNL     1     -11.468   8.481  71.523  1.00  0.00    -0.287 C  
ENDROOT
BRANCH   1   2
HETATM    2  N   UNL     1     -11.533   7.996  70.135  1.00  0.00    -0.089 NA 
HETATM    3  C   UNL     1      -9.878   6.066  70.324  1.00  0.00    -0.178 C  
HETATM    4  N   UNL     1      -8.886   6.682  69.402  1.00  0.00    -0.134 NA 
HETATM    5  C   UNL     1     -10.517   8.633  69.265  1.00  0.00    -0.217 C  
HETATM    6  C   UNL     1     -11.341   6.528  70.107  1.00  0.00    -0.402 C  
HETATM    7  C   UNL     1      -9.065   8.150  69.498  1.00  0.00    -0.151 C  
BRANCH   4   8
HETATM    8  C   UNL     1      -9.028   6.172  67.997  1.00  0.00    -0.113 C  
BRANCH   8   9
HETATM    9  C   UNL     1      -8.262   7.030  66.976  1.00  0.00    -0.117 A  
HETATM   10  C   UNL     1      -8.331   8.608  65.109  1.00  0.00    -0.178 A  
HETATM   11  C   UNL     1      -6.888   7.292  67.098  1.00  0.00    -0.077 A  
HETATM   12  C   UNL     1      -6.974   8.875  65.270  1.00  0.00    -0.076 A  
HETATM   13  C   UNL     1      -6.250   8.204  66.251  1.00  0.00    -0.046 A  
HETATM   14  C   UNL     1      -8.968   7.686  65.946  1.00  0.00    -0.144 A  
ENDBRANCH   8   9
BRANCH   8  15
HETATM   15  C   UNL     1      -8.701   4.671  67.922  1.00  0.00    -0.111 A  
HETATM   16  C   UNL     1      -7.218   2.840  68.548  1.00  0.00    -0.048 A  
HETATM   17  C   UNL     1      -8.756   2.555  66.713  1.00  0.00    -0.133 A  
HETATM   18  C   UNL     1      -7.741   2.055  67.523  1.00  0.00    -0.060 A  
HETATM   19  C   UNL     1      -9.230   3.853  66.908  1.00  0.00    -0.190 A  
HETATM   20  C   UNL     1      -7.702   4.134  68.756  1.00  0.00    -0.058 A  
ENDBRANCH   8  15
ENDBRANCH   4   8
ENDBRANCH   1   2
BRANCH   1  21
HETATM   21  C   UNL     1     -12.108   9.821  71.698  1.00  0.00    -0.475 C  
HETATM   22  C   UNL     1     -11.878  10.851  70.867  1.00  0.00    -0.363 C  
BRANCH  22  23
HETATM   23  C   UNL     1     -12.494  12.154  71.075  1.00  0.00    -0.369 A  
HETATM   24  C   UNL     1     -12.070  13.242  70.302  1.00  0.00    -0.405 A  
HETATM   25  C   UNL     1     -12.647  14.498  70.484  1.00  0.00    -0.413 A  
HETATM   26  C   UNL     1     -13.493  12.333  72.035  1.00  0.00    -0.418 A  
HETATM   27  C   UNL     1     -14.070  13.592  72.215  1.00  0.00    -0.602 A  
HETATM   28  C   UNL     1     -13.649  14.671  71.438  1.00  0.00    -0.474 A  
ENDBRANCH  22  23
ENDBRANCH   1  21
TORSDOF 6
ENDMDL
MODEL       92
REMARK 921   NORMALIZED FREE ENERGY PREDICTED BY IDOCK:   -5.04 KCAL/MOL
REMARK 922        TOTAL FREE ENERGY PREDICTED BY IDOCK:   -6.74 KCAL/MOL
REMARK 923 INTER-LIGAND FREE ENERGY PREDICTED BY IDOCK:   -5.80 KCAL/MOL
REMARK 924 INTRA-LIGAND FREE ENERGY PREDICTED BY IDOCK:   -0.94 KCAL/MOL
REMARK 927      BINDING AFFINITY PREDICTED BY RF-SCORE:    0.00 PKD
ROOT
HETATM    1  C   UNL     1      -9.846  10.017  68.322  1.00  0.00    -0.146 C  
ENDROOT
BRANCH   1   2
HETATM    2  N   UNL     1     -10.512   8.708  68.243  1.00  0.00    -0.209 NA 
HETATM    3  C   UNL     1      -8.470   7.219  68.584  1.00  0.00    -0.129 C  
HETATM    4  N   UNL     1      -8.533   6.633  67.219  1.00  0.00    -0.119 NA 
HETATM    5  C   UNL     1     -10.535   8.166  66.864  1.00  0.00    -0.309 C  
HETATM    6  C   UNL     1      -9.823   7.742  69.130  1.00  0.00    -0.173 C  
HETATM    7  C   UNL     1      -9.173   7.645  66.347  1.00  0.00    -0.175 C  
BRANCH   4   8
HETATM    8  C   UNL     1      -9.254   5.316  67.202  1.00  0.00    -0.113 C  
BRANCH   8   9
HETATM    9  C   UNL     1      -9.323   4.697  65.795  1.00  0.00    -0.158 A  
HETATM   10  C   UNL     1     -10.692   3.830  63.963  1.00  0.00    -0.256 A  
HETATM   11  C   UNL     1      -8.219   4.683  64.927  1.00  0.00    -0.113 A  
HETATM   12  C   UNL     1      -9.590   3.855  63.113  1.00  0.00    -0.148 A  
HETATM   13  C   UNL     1      -8.351   4.263  63.600  1.00  0.00    -0.100 A  
HETATM   14  C   UNL     1     -10.559   4.236  65.295  1.00  0.00    -0.165 A  
ENDBRANCH   8   9
BRANCH   8  15
HETATM   15  C   UNL     1      -8.691   4.368  68.273  1.00  0.00    -0.116 A  
HETATM   16  C   UNL     1      -6.926   2.832  68.961  1.00  0.00    -0.044 A  
HETATM   17  C   UNL     1      -9.049   2.797  70.103  1.00  0.00    -0.188 A  
HETATM   18  C   UNL     1      -7.763   2.293  69.935  1.00  0.00    -0.046 A  
HETATM   19  C   UNL     1      -9.511   3.823  69.278  1.00  0.00    -0.252 A  
HETATM   20  C   UNL     1      -7.380   3.871  68.144  1.00  0.00    -0.059 A  
ENDBRANCH   8  15
ENDBRANCH   4   8
ENDBRANCH   1   2
BRANCH   1  21
HETATM   21  C   UNL     1     -10.303  10.962  67.256  1.00  0.00    -0.255 C  
HETATM   22  C   UNL     1     -10.485  12.275  67.476  1.00  0.00    -0.230 C  
BRANCH  22  23
HETATM   23  C   UNL     1     -10.957  13.169  66.428  1.00  0.00    -0.305 A  
HETATM   24  C   UNL     1     -12.046  12.781  65.639  1.00  0.00    -0.514 A  
HETATM   25  C   UNL     1     -12.516  13.623  64.631  1.00  0.00    -0.359 A  
HETATM   26  C   UNL     1     -10.337  14.399  66.198  1.00  0.00    -0.305 A  
HETATM   27  C   UNL     1     -10.810  15.241  65.188  1.00  0.00    -0.441 A  
HETATM   28  C   UNL     1     -11.899  14.854  64.409  1.00  0.00    -0.372 A  
ENDBRANCH  22  23
ENDBRANCH   1  21
TORSDOF 6
ENDMDL
MODEL       93
REMARK 921   NORMALIZED FREE ENERGY PREDICTED BY IDOCK:   -5.03 KCAL/MOL
REMARK 922        TOTAL FREE ENERGY PREDICTED BY IDOCK:   -6.74 KCAL/MOL
REMARK 923 INTER-LIGAND FREE ENERGY PREDICTED BY IDOCK:   -6.41 KCAL/MOL
REMARK 924 INTRA-LIGAND FREE ENERGY PREDICTED BY IDOCK:   -0.32 KCAL/MOL
REMARK 927      BINDING AFFINITY PREDICTED BY RF-SCORE:    0.00 PKD
ROOT
HETATM    1  C   UNL     1     -10.371   7.858  69.231  1.00  0.00    -0.220 C  
ENDROOT
BRANCH   1   2
HETATM    2  N   UNL     1      -9.712   8.617  68.156  1.00  0.00    -0.154 NA 
HETATM    3  C   UNL     1      -9.738  10.923  69.245  1.00  0.00    -0.064 C  
HETATM    4  N   UNL     1     -10.664  11.508  68.238  1.00  0.00    -0.200 NA 
HETATM    5  C   UNL     1     -10.681   9.187  67.191  1.00  0.00    -0.143 C  
HETATM    6  C   UNL     1      -8.908   9.715  68.739  1.00  0.00    -0.130 C  
HETATM    7  C   UNL     1     -11.492  10.395  67.719  1.00  0.00     0.028 C  
BRANCH   4   8
HETATM    8  C   UNL     1      -9.928  12.239  67.152  1.00  0.00    -0.205 C  
BRANCH   8   9
HETATM    9  C   UNL     1     -10.784  12.438  65.889  1.00  0.00    -0.299 A  
HETATM   10  C   UNL     1     -12.140  13.927  64.502  1.00  0.00    -0.473 A  
HETATM   11  C   UNL     1     -10.788  11.511  64.834  1.00  0.00    -0.345 A  
HETATM   12  C   UNL     1     -12.104  13.005  63.458  1.00  0.00    -0.617 A  
HETATM   13  C   UNL     1     -11.445  11.791  63.631  1.00  0.00    -0.524 A  
HETATM   14  C   UNL     1     -11.496  13.642  65.710  1.00  0.00    -0.326 A  
ENDBRANCH   8   9
BRANCH   8  15
HETATM   15  C   UNL     1      -9.300  13.535  67.691  1.00  0.00    -0.216 A  
HETATM   16  C   UNL     1      -9.622  15.724  68.716  1.00  0.00    -0.216 A  
HETATM   17  C   UNL     1      -7.536  15.216  67.618  1.00  0.00    -0.194 A  
HETATM   18  C   UNL     1      -8.348  16.111  68.308  1.00  0.00    -0.171 A  
HETATM   19  C   UNL     1      -8.009  13.940  67.308  1.00  0.00    -0.147 A  
HETATM   20  C   UNL     1     -10.091  14.441  68.422  1.00  0.00    -0.244 A  
ENDBRANCH   8  15
ENDBRANCH   4   8
ENDBRANCH   1   2
BRANCH   1  21
HETATM   21  C   UNL     1     -10.167   6.381  69.104  1.00  0.00    -0.217 C  
HETATM   22  C   UNL     1      -9.534   5.651  70.037  1.00  0.00    -0.199 C  
BRANCH  22  23
HETATM   23  C   UNL     1      -9.325   4.219  69.876  1.00  0.00    -0.232 A  
HETATM   24  C   UNL     1      -9.395   3.658  68.595  1.00  0.00    -0.228 A  
HETATM   25  C   UNL     1      -9.196   2.289  68.418  1.00  0.00    -0.241 A  
HETATM   26  C   UNL     1      -9.062   3.401  70.978  1.00  0.00    -0.182 A  
HETATM   27  C   UNL     1      -8.862   2.031  70.798  1.00  0.00    -0.121 A  
HETATM   28  C   UNL     1      -8.926   1.477  69.519  1.00  0.00    -0.132 A  
ENDBRANCH  22  23
ENDBRANCH   1  21
TORSDOF 6
ENDMDL
MODEL       94
REMARK 921   NORMALIZED FREE ENERGY PREDICTED BY IDOCK:   -5.03 KCAL/MOL
REMARK 922        TOTAL FREE ENERGY PREDICTED BY IDOCK:   -6.73 KCAL/MOL
REMARK 923 INTER-LIGAND FREE ENERGY PREDICTED BY IDOCK:   -6.86 KCAL/MOL
REMARK 924 INTRA-LIGAND FREE ENERGY PREDICTED BY IDOCK:    0.12 KCAL/MOL
REMARK 927      BINDING AFFINITY PREDICTED BY RF-SCORE:    0.00 PKD
ROOT
HETATM    1  C   UNL     1      -6.009  14.954  68.356  1.00  0.00    -0.104 C  
ENDROOT
BRANCH   1   2
HETATM    2  N   UNL     1      -7.041  13.906  68.407  1.00  0.00    -0.093 NA 
HETATM    3  C   UNL     1      -8.844  15.077  67.036  1.00  0.00    -0.234 C  
HETATM    4  N   UNL     1      -9.791  15.192  68.177  1.00  0.00    -0.215 NA 
HETATM    5  C   UNL     1      -7.963  14.076  69.554  1.00  0.00     0.496 C  
HETATM    6  C   UNL     1      -7.826  13.915  67.152  1.00  0.00    -0.012 C  
HETATM    7  C   UNL     1      -8.972  15.240  69.411  1.00  0.00    -0.225 C  
BRANCH   4   8
HETATM    8  C   UNL     1     -10.796  14.076  68.192  1.00  0.00    -0.248 C  
BRANCH   8   9
HETATM    9  C   UNL     1     -11.771  14.173  69.378  1.00  0.00    -0.361 A  
HETATM   10  C   UNL     1     -12.766  13.123  71.350  1.00  0.00    -0.390 A  
HETATM   11  C   UNL     1     -12.330  15.393  69.791  1.00  0.00    -0.288 A  
HETATM   12  C   UNL     1     -13.285  14.350  71.755  1.00  0.00    -0.435 A  
HETATM   13  C   UNL     1     -13.082  15.479  70.966  1.00  0.00    -0.551 A  
HETATM   14  C   UNL     1     -12.025  13.031  70.167  1.00  0.00    -0.374 A  
ENDBRANCH   8   9
BRANCH   8  15
HETATM   15  C   UNL     1     -11.487  13.941  66.825  1.00  0.00    -0.369 A  
HETATM   16  C   UNL     1     -12.084  12.519  64.937  1.00  0.00    -0.499 A  
HETATM   17  C   UNL     1     -12.171  14.917  64.698  1.00  0.00    -0.351 A  
HETATM   18  C   UNL     1     -12.322  13.646  64.153  1.00  0.00    -0.385 A  
HETATM   19  C   UNL     1     -11.753  15.064  66.022  1.00  0.00    -0.094 A  
HETATM   20  C   UNL     1     -11.682  12.664  66.267  1.00  0.00    -0.460 A  
ENDBRANCH   8  15
ENDBRANCH   4   8
ENDBRANCH   1   2
BRANCH   1  21
HETATM   21  C   UNL     1      -6.311  16.014  67.345  1.00  0.00    -0.206 C  
HETATM   22  C   UNL     1      -5.761  17.238  67.388  1.00  0.00    -0.159 C  
BRANCH  22  23
HETATM   23  C   UNL     1      -6.094  18.261  66.406  1.00  0.00    -0.208 A  
HETATM   24  C   UNL     1      -5.269  18.430  65.288  1.00  0.00    -0.206 A  
HETATM   25  C   UNL     1      -5.571  19.402  64.335  1.00  0.00    -0.295 A  
HETATM   26  C   UNL     1      -7.219  19.075  66.567  1.00  0.00    -0.243 A  
HETATM   27  C   UNL     1      -7.519  20.048  65.611  1.00  0.00    -0.275 A  
HETATM   28  C   UNL     1      -6.698  20.208  64.496  1.00  0.00    -0.070 A  
ENDBRANCH  22  23
ENDBRANCH   1  21
TORSDOF 6
ENDMDL
MODEL       95
REMARK 921   NORMALIZED FREE ENERGY PREDICTED BY IDOCK:   -5.03 KCAL/MOL
REMARK 922        TOTAL FREE ENERGY PREDICTED BY IDOCK:   -6.73 KCAL/MOL
REMARK 923 INTER-LIGAND FREE ENERGY PREDICTED BY IDOCK:   -6.20 KCAL/MOL
REMARK 924 INTRA-LIGAND FREE ENERGY PREDICTED BY IDOCK:   -0.53 KCAL/MOL
REMARK 927      BINDING AFFINITY PREDICTED BY RF-SCORE:    0.00 PKD
ROOT
HETATM    1  C   UNL     1      -5.303  14.277  67.893  1.00  0.00    -0.063 C  
ENDROOT
BRANCH   1   2
HETATM    2  N   UNL     1      -6.040  15.219  68.750  1.00  0.00    -0.086 NA 
HETATM    3  C   UNL     1      -8.398  14.332  68.354  1.00  0.00    -0.164 C  
HETATM    4  N   UNL     1      -8.864  15.566  67.665  1.00  0.00    -0.177 NA 
HETATM    5  C   UNL     1      -6.491  16.422  68.010  1.00  0.00    -0.136 C  
HETATM    6  C   UNL     1      -7.219  14.544  69.338  1.00  0.00    -0.120 C  
HETATM    7  C   UNL     1      -7.672  16.184  67.039  1.00  0.00    -0.221 C  
BRANCH   4   8
HETATM    8  C   UNL     1      -9.578  16.499  68.600  1.00  0.00    -0.241 C  
BRANCH   8   9
HETATM    9  C   UNL     1      -9.922  17.846  67.942  1.00  0.00    -0.329 A  
HETATM   10  C   UNL     1      -9.692  20.281  67.932  1.00  0.00    -0.472 A  
HETATM   11  C   UNL     1     -10.487  17.932  66.659  1.00  0.00    -0.318 A  
HETATM   12  C   UNL     1     -10.226  20.337  66.647  1.00  0.00    -0.491 A  
HETATM   13  C   UNL     1     -10.640  19.166  66.020  1.00  0.00    -0.524 A  
HETATM   14  C   UNL     1      -9.551  19.049  68.579  1.00  0.00    -0.442 A  
ENDBRANCH   8   9
BRANCH   8  15
HETATM   15  C   UNL     1     -10.778  15.802  69.262  1.00  0.00    -0.246 A  
HETATM   16  C   UNL     1     -12.034  15.327  71.297  1.00  0.00    -0.409 A  
HETATM   17  C   UNL     1     -12.370  13.958  69.340  1.00  0.00    -0.240 A  
HETATM   18  C   UNL     1     -12.658  14.250  70.670  1.00  0.00    -0.424 A  
HETATM   19  C   UNL     1     -11.436  14.724  68.643  1.00  0.00    -0.325 A  
HETATM   20  C   UNL     1     -11.111  16.106  70.595  1.00  0.00    -0.318 A  
ENDBRANCH   8  15
ENDBRANCH   4   8
ENDBRANCH   1   2
BRANCH   1  21
HETATM   21  C   UNL     1      -5.501  12.851  68.299  1.00  0.00    -0.075 C  
HETATM   22  C   UNL     1      -5.614  11.851  67.410  1.00  0.00    -0.111 C  
BRANCH  22  23
HETATM   23  C   UNL     1      -5.834  10.474  67.832  1.00  0.00    -0.043 A  
HETATM   24  C   UNL     1      -5.631  10.129  69.173  1.00  0.00    -0.038 A  
HETATM   25  C   UNL     1      -5.838   8.817  69.598  1.00  0.00    -0.029 A  
HETATM   26  C   UNL     1      -6.238   9.497  66.918  1.00  0.00    -0.065 A  
HETATM   27  C   UNL     1      -6.445   8.184  67.346  1.00  0.00    -0.057 A  
HETATM   28  C   UNL     1      -6.248   7.846  68.685  1.00  0.00    -0.040 A  
ENDBRANCH  22  23
ENDBRANCH   1  21
TORSDOF 6
ENDMDL
MODEL       96
REMARK 921   NORMALIZED FREE ENERGY PREDICTED BY IDOCK:   -5.00 KCAL/MOL
REMARK 922        TOTAL FREE ENERGY PREDICTED BY IDOCK:   -6.69 KCAL/MOL
REMARK 923 INTER-LIGAND FREE ENERGY PREDICTED BY IDOCK:   -6.02 KCAL/MOL
REMARK 924 INTRA-LIGAND FREE ENERGY PREDICTED BY IDOCK:   -0.67 KCAL/MOL
REMARK 927      BINDING AFFINITY PREDICTED BY RF-SCORE:    0.00 PKD
ROOT
HETATM    1  C   UNL     1      -8.000  11.878  66.749  1.00  0.00    -0.087 C  
ENDROOT
BRANCH   1   2
HETATM    2  N   UNL     1      -7.864  12.840  67.854  1.00  0.00    -0.141 NA 
HETATM    3  C   UNL     1     -10.335  13.350  68.225  1.00  0.00    -0.249 C  
HETATM    4  N   UNL     1     -10.218  14.771  67.802  1.00  0.00    -0.231 NA 
HETATM    5  C   UNL     1      -7.764  14.240  67.376  1.00  0.00    -0.173 C  
HETATM    6  C   UNL     1      -9.024  12.723  68.766  1.00  0.00     0.176 C  
HETATM    7  C   UNL     1      -9.087  14.843  66.847  1.00  0.00    -0.250 C  
BRANCH   4   8
HETATM    8  C   UNL     1     -10.047  15.696  68.972  1.00  0.00    -0.227 C  
BRANCH   8   9
HETATM    9  C   UNL     1      -9.965  17.174  68.551  1.00  0.00    -0.309 A  
HETATM   10  C   UNL     1      -8.666  19.243  68.449  1.00  0.00    -0.395 A  
HETATM   11  C   UNL     1     -10.889  17.755  67.669  1.00  0.00    -0.234 A  
HETATM   12  C   UNL     1      -9.580  19.786  67.551  1.00  0.00    -0.470 A  
HETATM   13  C   UNL     1     -10.701  19.049  67.176  1.00  0.00    -0.541 A  
HETATM   14  C   UNL     1      -8.860  17.954  68.954  1.00  0.00    -0.127 A  
ENDBRANCH   8   9
BRANCH   8  15
HETATM   15  C   UNL     1     -11.102  15.413  70.054  1.00  0.00    -0.317 A  
HETATM   16  C   UNL     1     -13.437  14.982  70.609  1.00  0.00    -0.210 A  
HETATM   17  C   UNL     1     -11.910  15.682  72.339  1.00  0.00    -0.584 A  
HETATM   18  C   UNL     1     -13.193  15.322  71.938  1.00  0.00    -0.506 A  
HETATM   19  C   UNL     1     -10.874  15.731  71.405  1.00  0.00     0.105 A  
HETATM   20  C   UNL     1     -12.398  15.015  69.676  1.00  0.00    -0.238 A  
ENDBRANCH   8  15
ENDBRANCH   4   8
ENDBRANCH   1   2
BRANCH   1  21
HETATM   21  C   UNL     1      -7.871  10.458  67.200  1.00  0.00    -0.110 C  
HETATM   22  C   UNL     1      -8.915   9.615  67.258  1.00  0.00    -0.146 C  
BRANCH  22  23
HETATM   23  C   UNL     1      -8.766   8.244  67.728  1.00  0.00    -0.134 A  
HETATM   24  C   UNL     1      -9.816   7.646  68.434  1.00  0.00    -0.176 A  
HETATM   25  C   UNL     1      -9.695   6.334  68.891  1.00  0.00    -0.144 A  
HETATM   26  C   UNL     1      -7.593   7.524  67.486  1.00  0.00    -0.113 A  
HETATM   27  C   UNL     1      -7.475   6.210  67.944  1.00  0.00    -0.085 A  
HETATM   28  C   UNL     1      -8.526   5.616  68.642  1.00  0.00    -0.105 A  
ENDBRANCH  22  23
ENDBRANCH   1  21
TORSDOF 6
ENDMDL
MODEL       97
REMARK 921   NORMALIZED FREE ENERGY PREDICTED BY IDOCK:   -4.96 KCAL/MOL
REMARK 922        TOTAL FREE ENERGY PREDICTED BY IDOCK:   -6.64 KCAL/MOL
REMARK 923 INTER-LIGAND FREE ENERGY PREDICTED BY IDOCK:   -6.12 KCAL/MOL
REMARK 924 INTRA-LIGAND FREE ENERGY PREDICTED BY IDOCK:   -0.52 KCAL/MOL
REMARK 927      BINDING AFFINITY PREDICTED BY RF-SCORE:    0.00 PKD
ROOT
HETATM    1  C   UNL     1      -8.011  14.434  69.183  1.00  0.00    -0.002 C  
ENDROOT
BRANCH   1   2
HETATM    2  N   UNL     1      -7.364  13.441  68.311  1.00  0.00    -0.102 NA 
HETATM    3  C   UNL     1      -9.398  12.758  66.933  1.00  0.00    -0.234 C  
HETATM    4  N   UNL     1      -9.419  11.365  67.454  1.00  0.00    -0.166 NA 
HETATM    5  C   UNL     1      -7.425  12.071  68.871  1.00  0.00    -0.043 C  
HETATM    6  C   UNL     1      -8.010  13.447  66.979  1.00  0.00     0.042 C  
HETATM    7  C   UNL     1      -8.820  11.404  68.808  1.00  0.00    -0.072 C  
BRANCH   4   8
HETATM    8  C   UNL     1      -8.715  10.408  66.536  1.00  0.00    -0.136 C  
BRANCH   8   9
HETATM    9  C   UNL     1      -8.965   8.937  66.910  1.00  0.00    -0.150 A  
HETATM   10  C   UNL     1      -8.068   6.806  67.708  1.00  0.00    -0.113 A  
HETATM   11  C   UNL     1     -10.257   8.421  67.099  1.00  0.00    -0.362 A  
HETATM   12  C   UNL     1      -9.358   6.328  67.916  1.00  0.00    -0.114 A  
HETATM   13  C   UNL     1     -10.452   7.128  67.594  1.00  0.00    -0.306 A  
HETATM   14  C   UNL     1      -7.871   8.094  67.199  1.00  0.00    -0.101 A  
ENDBRANCH   8   9
BRANCH   8  15
HETATM   15  C   UNL     1      -9.013  10.738  65.064  1.00  0.00    -0.211 A  
HETATM   16  C   UNL     1     -10.670  11.258  63.352  1.00  0.00    -0.349 A  
HETATM   17  C   UNL     1      -8.470  10.518  62.698  1.00  0.00    -0.216 A  
HETATM   18  C   UNL     1      -9.757  10.921  62.355  1.00  0.00    -0.071 A  
HETATM   19  C   UNL     1      -8.102  10.424  64.040  1.00  0.00    -0.092 A  
HETATM   20  C   UNL     1     -10.298  11.180  64.697  1.00  0.00    -0.393 A  
ENDBRANCH   8  15
ENDBRANCH   4   8
ENDBRANCH   1   2
BRANCH   1  21
HETATM   21  C   UNL     1      -8.245  15.741  68.494  1.00  0.00    -0.166 C  
HETATM   22  C   UNL     1      -9.148  16.638  68.924  1.00  0.00    -0.238 C  
BRANCH  22  23
HETATM   23  C   UNL     1      -9.376  17.892  68.219  1.00  0.00    -0.287 A  
HETATM   24  C   UNL     1     -10.598  18.097  67.567  1.00  0.00    -0.419 A  
HETATM   25  C   UNL     1     -10.838  19.292  66.888  1.00  0.00    -0.479 A  
HETATM   26  C   UNL     1      -8.395  18.886  68.182  1.00  0.00    -0.341 A  
HETATM   27  C   UNL     1      -8.638  20.081  67.502  1.00  0.00    -0.401 A  
HETATM   28  C   UNL     1      -9.859  20.284  66.859  1.00  0.00    -0.597 A  
ENDBRANCH  22  23
ENDBRANCH   1  21
TORSDOF 6
ENDMDL
MODEL       98
REMARK 921   NORMALIZED FREE ENERGY PREDICTED BY IDOCK:   -4.90 KCAL/MOL
REMARK 922        TOTAL FREE ENERGY PREDICTED BY IDOCK:   -6.56 KCAL/MOL
REMARK 923 INTER-LIGAND FREE ENERGY PREDICTED BY IDOCK:   -6.44 KCAL/MOL
REMARK 924 INTRA-LIGAND FREE ENERGY PREDICTED BY IDOCK:   -0.12 KCAL/MOL
REMARK 927      BINDING AFFINITY PREDICTED BY RF-SCORE:    0.00 PKD
ROOT
HETATM    1  C   UNL     1      -7.932  10.541  68.220  1.00  0.00    -0.113 C  
ENDROOT
BRANCH   1   2
HETATM    2  N   UNL     1      -8.236  10.006  69.556  1.00  0.00    -0.153 NA 
HETATM    3  C   UNL     1      -8.703   7.586  68.902  1.00  0.00    -0.132 C  
HETATM    4  N   UNL     1     -10.139   7.645  69.285  1.00  0.00    -0.185 NA 
HETATM    5  C   UNL     1      -9.680  10.078  69.880  1.00  0.00    -0.203 C  
HETATM    6  C   UNL     1      -7.791   8.596  69.644  1.00  0.00    -0.094 C  
HETATM    7  C   UNL     1     -10.567   9.055  69.130  1.00  0.00    -0.203 C  
BRANCH   4   8
HETATM    8  C   UNL     1     -10.377   7.116  70.670  1.00  0.00    -0.204 C  
BRANCH   8   9
HETATM    9  C   UNL     1     -11.740   7.543  71.241  1.00  0.00    -0.312 A  
HETATM   10  C   UNL     1     -13.113   9.276  72.287  1.00  0.00    -0.517 A  
HETATM   11  C   UNL     1     -12.913   6.805  71.013  1.00  0.00    -0.069 A  
HETATM   12  C   UNL     1     -14.264   8.539  72.023  1.00  0.00    -0.535 A  
HETATM   13  C   UNL     1     -14.162   7.297  71.404  1.00  0.00    -0.476 A  
HETATM   14  C   UNL     1     -11.861   8.779  71.910  1.00  0.00    -0.437 A  
ENDBRANCH   8   9
BRANCH   8  15
HETATM   15  C   UNL     1     -10.121   5.601  70.731  1.00  0.00    -0.270 A  
HETATM   16  C   UNL     1      -9.350   3.681  72.020  1.00  0.00    -0.183 A  
HETATM   17  C   UNL     1      -9.534   3.511  69.622  1.00  0.00    -0.235 A  
HETATM   18  C   UNL     1      -9.203   2.942  70.848  1.00  0.00    -0.207 A  
HETATM   19  C   UNL     1      -9.986   4.830  69.563  1.00  0.00    -0.287 A  
HETATM   20  C   UNL     1      -9.818   4.996  71.966  1.00  0.00    -0.226 A  
ENDBRANCH   8  15
ENDBRANCH   4   8
ENDBRANCH   1   2
BRANCH   1  21
HETATM   21  C   UNL     1      -8.147  12.018  68.127  1.00  0.00    -0.160 C  
HETATM   22  C   UNL     1      -7.170  12.911  68.355  1.00  0.00    -0.113 C  
BRANCH  22  23
HETATM   23  C   UNL     1      -7.412  14.346  68.285  1.00  0.00    -0.123 A  
HETATM   24  C   UNL     1      -6.604  15.136  67.459  1.00  0.00    -0.167 A  
HETATM   25  C   UNL     1      -6.820  16.511  67.376  1.00  0.00    -0.191 A  
HETATM   26  C   UNL     1      -8.433  14.941  69.030  1.00  0.00    -0.178 A  
HETATM   27  C   UNL     1      -8.648  16.318  68.945  1.00  0.00    -0.260 A  
HETATM   28  C   UNL     1      -7.844  17.100  68.116  1.00  0.00    -0.206 A  
ENDBRANCH  22  23
ENDBRANCH   1  21
TORSDOF 6
ENDMDL
MODEL       99
REMARK 921   NORMALIZED FREE ENERGY PREDICTED BY IDOCK:   -4.89 KCAL/MOL
REMARK 922        TOTAL FREE ENERGY PREDICTED BY IDOCK:   -6.55 KCAL/MOL
REMARK 923 INTER-LIGAND FREE ENERGY PREDICTED BY IDOCK:   -5.75 KCAL/MOL
REMARK 924 INTRA-LIGAND FREE ENERGY PREDICTED BY IDOCK:   -0.80 KCAL/MOL
REMARK 927      BINDING AFFINITY PREDICTED BY RF-SCORE:    0.00 PKD
ROOT
HETATM    1  C   UNL     1      -8.568  11.880  68.550  1.00  0.00    -0.110 C  
ENDROOT
BRANCH   1   2
HETATM    2  N   UNL     1      -7.717  10.679  68.556  1.00  0.00    -0.101 NA 
HETATM    3  C   UNL     1      -9.518   8.930  68.110  1.00  0.00    -0.143 C  
HETATM    4  N   UNL     1      -9.368   8.279  69.439  1.00  0.00    -0.155 NA 
HETATM    5  C   UNL     1      -7.614  10.066  69.900  1.00  0.00    -0.170 C  
HETATM    6  C   UNL     1      -8.256   9.678  67.608  1.00  0.00    -0.114 C  
HETATM    7  C   UNL     1      -8.884   9.321  70.375  1.00  0.00    -0.234 C  
BRANCH   4   8
HETATM    8  C   UNL     1      -8.462   7.083  69.384  1.00  0.00    -0.133 C  
BRANCH   8   9
HETATM    9  C   UNL     1      -8.326   6.380  70.746  1.00  0.00    -0.126 A  
HETATM   10  C   UNL     1      -9.353   5.031  72.508  1.00  0.00    -0.150 A  
HETATM   11  C   UNL     1      -7.080   6.156  71.352  1.00  0.00    -0.078 A  
HETATM   12  C   UNL     1      -8.103   4.798  73.073  1.00  0.00    -0.101 A  
HETATM   13  C   UNL     1      -6.970   5.375  72.507  1.00  0.00    -0.082 A  
HETATM   14  C   UNL     1      -9.467   5.824  71.361  1.00  0.00    -0.174 A  
ENDBRANCH   8   9
BRANCH   8  15
HETATM   15  C   UNL     1      -8.861   6.144  68.234  1.00  0.00    -0.112 A  
HETATM   16  C   UNL     1      -8.239   5.035  66.153  1.00  0.00    -0.109 A  
HETATM   17  C   UNL     1     -10.566   5.218  66.758  1.00  0.00    -0.309 A  
HETATM   18  C   UNL     1      -9.583   4.807  65.863  1.00  0.00    -0.188 A  
HETATM   19  C   UNL     1     -10.210   5.884  67.931  1.00  0.00    -0.225 A  
HETATM   20  C   UNL     1      -7.879   5.687  67.335  1.00  0.00    -0.101 A  
ENDBRANCH   8  15
ENDBRANCH   4   8
ENDBRANCH   1   2
BRANCH   1  21
HETATM   21  C   UNL     1      -9.220  12.119  67.225  1.00  0.00    -0.185 C  
HETATM   22  C   UNL     1     -10.448  12.649  67.104  1.00  0.00    -0.245 C  
BRANCH  22  23
HETATM   23  C   UNL     1     -11.071  12.847  65.802  1.00  0.00    -0.312 A  
HETATM   24  C   UNL     1     -11.142  11.772  64.908  1.00  0.00    -0.345 A  
HETATM   25  C   UNL     1     -11.736  11.939  63.658  1.00  0.00    -0.572 A  
HETATM   26  C   UNL     1     -11.591  14.090  65.434  1.00  0.00    -0.329 A  
HETATM   27  C   UNL     1     -12.186  14.255  64.182  1.00  0.00    -0.410 A  
HETATM   28  C   UNL     1     -12.261  13.179  63.297  1.00  0.00    -0.438 A  
ENDBRANCH  22  23
ENDBRANCH   1  21
TORSDOF 6
ENDMDL
MODEL      100
REMARK 921   NORMALIZED FREE ENERGY PREDICTED BY IDOCK:   -4.86 KCAL/MOL
REMARK 922        TOTAL FREE ENERGY PREDICTED BY IDOCK:   -6.50 KCAL/MOL
REMARK 923 INTER-LIGAND FREE ENERGY PREDICTED BY IDOCK:   -5.78 KCAL/MOL
REMARK 924 INTRA-LIGAND FREE ENERGY PREDICTED BY IDOCK:   -0.72 KCAL/MOL
REMARK 927      BINDING AFFINITY PREDICTED BY RF-SCORE:    0.00 PKD
ROOT
HETATM    1  C   UNL     1      -9.130   7.410  67.977  1.00  0.00    -0.130 C  
ENDROOT
BRANCH   1   2
HETATM    2  N   UNL     1      -8.642   8.429  67.034  1.00  0.00    -0.121 NA 
HETATM    3  C   UNL     1      -8.924  10.486  68.515  1.00  0.00    -0.147 C  
HETATM    4  N   UNL     1      -9.975  11.095  67.657  1.00  0.00    -0.172 NA 
HETATM    5  C   UNL     1      -9.732   9.010  66.215  1.00  0.00    -0.275 C  
HETATM    6  C   UNL     1      -7.965   9.516  67.778  1.00  0.00    -0.099 C  
HETATM    7  C   UNL     1     -10.670   9.979  66.973  1.00  0.00    -0.178 C  
BRANCH   4   8
HETATM    8  C   UNL     1      -9.408  12.100  66.696  1.00  0.00    -0.226 C  
BRANCH   8   9
HETATM    9  C   UNL     1     -10.376  12.430  65.546  1.00  0.00    -0.298 A  
HETATM   10  C   UNL     1     -11.043  12.089  63.218  1.00  0.00    -0.400 A  
HETATM   11  C   UNL     1     -11.599  13.087  65.761  1.00  0.00    -0.396 A  
HETATM   12  C   UNL     1     -12.261  12.716  63.463  1.00  0.00    -0.638 A  
HETATM   13  C   UNL     1     -12.531  13.231  64.729  1.00  0.00    -0.439 A  
HETATM   14  C   UNL     1     -10.104  11.956  64.246  1.00  0.00    -0.325 A  
ENDBRANCH   8   9
BRANCH   8  15
HETATM   15  C   UNL     1      -8.880  13.336  67.441  1.00  0.00    -0.204 A  
HETATM   16  C   UNL     1      -9.352  15.246  68.881  1.00  0.00    -0.213 A  
HETATM   17  C   UNL     1      -7.305  15.189  67.608  1.00  0.00    -0.205 A  
HETATM   18  C   UNL     1      -8.154  15.844  68.495  1.00  0.00    -0.157 A  
HETATM   19  C   UNL     1      -7.666  13.948  67.083  1.00  0.00     0.005 A  
HETATM   20  C   UNL     1      -9.707  13.996  68.369  1.00  0.00    -0.223 A  
ENDBRANCH   8  15
ENDBRANCH   4   8
ENDBRANCH   1   2
BRANCH   1  21
HETATM   21  C   UNL     1      -9.469   6.117  67.305  1.00  0.00    -0.121 C  
HETATM   22  C   UNL     1      -8.810   5.664  66.226  1.00  0.00    -0.137 C  
BRANCH  22  23
HETATM   23  C   UNL     1      -9.178   4.414  65.574  1.00  0.00    -0.150 A  
HETATM   24  C   UNL     1     -10.088   4.440  64.511  1.00  0.00    -0.031 A  
HETATM   25  C   UNL     1     -10.452   3.255  63.872  1.00  0.00    -0.218 A  
HETATM   26  C   UNL     1      -8.640   3.196  65.998  1.00  0.00    -0.119 A  
HETATM   27  C   UNL     1      -9.006   2.011  65.356  1.00  0.00    -0.120 A  
HETATM   28  C   UNL     1      -9.908   2.042  64.293  1.00  0.00    -0.043 A  
ENDBRANCH  22  23
ENDBRANCH   1  21
TORSDOF 6
ENDMDL
MODEL      101
REMARK 921   NORMALIZED FREE ENERGY PREDICTED BY IDOCK:   -4.85 KCAL/MOL
REMARK 922        TOTAL FREE ENERGY PREDICTED BY IDOCK:   -6.50 KCAL/MOL
REMARK 923 INTER-LIGAND FREE ENERGY PREDICTED BY IDOCK:   -5.74 KCAL/MOL
REMARK 924 INTRA-LIGAND FREE ENERGY PREDICTED BY IDOCK:   -0.76 KCAL/MOL
REMARK 927      BINDING AFFINITY PREDICTED BY RF-SCORE:    0.00 PKD
ROOT
HETATM    1  C   UNL     1     -10.829   7.847  67.829  1.00  0.00    -0.024 C  
ENDROOT
BRANCH   1   2
HETATM    2  N   UNL     1      -9.774   6.980  68.378  1.00  0.00    -0.138 NA 
HETATM    3  C   UNL     1     -11.013   6.128  70.438  1.00  0.00    -0.337 C  
HETATM    4  N   UNL     1     -10.097   6.796  71.401  1.00  0.00    -0.183 NA 
HETATM    5  C   UNL     1      -8.900   7.693  69.339  1.00  0.00    -0.139 C  
HETATM    6  C   UNL     1     -10.387   5.814  69.055  1.00  0.00    -0.245 C  
HETATM    7  C   UNL     1      -9.548   7.988  70.713  1.00  0.00    -0.162 C  
BRANCH   4   8
HETATM    8  C   UNL     1      -9.026   5.869  71.897  1.00  0.00    -0.138 C  
BRANCH   8   9
HETATM    9  C   UNL     1      -8.089   6.539  72.918  1.00  0.00    -0.105 A  
HETATM   10  C   UNL     1      -5.859   6.704  73.906  1.00  0.00    -0.059 A  
HETATM   11  C   UNL     1      -8.428   7.732  73.575  1.00  0.00    -0.259 A  
HETATM   12  C   UNL     1      -6.209   7.902  74.523  1.00  0.00    -0.103 A  
HETATM   13  C   UNL     1      -7.498   8.405  74.373  1.00  0.00    -0.250 A  
HETATM   14  C   UNL     1      -6.793   6.022  73.120  1.00  0.00    -0.079 A  
ENDBRANCH   8   9
BRANCH   8  15
HETATM   15  C   UNL     1      -9.629   4.541  72.382  1.00  0.00    -0.193 A  
HETATM   16  C   UNL     1     -10.649   3.268  74.195  1.00  0.00    -0.265 A  
HETATM   17  C   UNL     1      -9.725   2.106  72.294  1.00  0.00    -0.191 A  
HETATM   18  C   UNL     1     -10.354   2.076  73.535  1.00  0.00    -0.191 A  
HETATM   19  C   UNL     1      -9.362   3.327  71.724  1.00  0.00    -0.201 A  
HETATM   20  C   UNL     1     -10.302   4.492  73.618  1.00  0.00    -0.244 A  
ENDBRANCH   8  15
ENDBRANCH   4   8
ENDBRANCH   1   2
BRANCH   1  21
HETATM   21  C   UNL     1     -10.471   8.416  66.493  1.00  0.00    -0.071 C  
HETATM   22  C   UNL     1     -10.089   9.692  66.324  1.00  0.00    -0.322 C  
BRANCH  22  23
HETATM   23  C   UNL     1      -9.772  10.229  65.008  1.00  0.00    -0.370 A  
HETATM   24  C   UNL     1      -8.996   9.466  64.128  1.00  0.00    -0.187 A  
HETATM   25  C   UNL     1      -8.682   9.960  62.862  1.00  0.00    -0.213 A  
HETATM   26  C   UNL     1     -10.227  11.490  64.616  1.00  0.00    -0.334 A  
HETATM   27  C   UNL     1      -9.912  11.982  63.347  1.00  0.00    -0.384 A  
HETATM   28  C   UNL     1      -9.143  11.216  62.471  1.00  0.00    -0.347 A  
ENDBRANCH  22  23
ENDBRANCH   1  21
TORSDOF 6
ENDMDL
MODEL      102
REMARK 921   NORMALIZED FREE ENERGY PREDICTED BY IDOCK:   -4.82 KCAL/MOL
REMARK 922        TOTAL FREE ENERGY PREDICTED BY IDOCK:   -6.45 KCAL/MOL
REMARK 923 INTER-LIGAND FREE ENERGY PREDICTED BY IDOCK:   -6.50 KCAL/MOL
REMARK 924 INTRA-LIGAND FREE ENERGY PREDICTED BY IDOCK:    0.05 KCAL/MOL
REMARK 927      BINDING AFFINITY PREDICTED BY RF-SCORE:    0.00 PKD
ROOT
HETATM    1  C   UNL     1     -11.819  14.541  67.014  1.00  0.00    -0.385 C  
ENDROOT
BRANCH   1   2
HETATM    2  N   UNL     1     -11.753  13.540  68.090  1.00  0.00    -0.341 NA 
HETATM    3  C   UNL     1      -9.294  12.902  67.869  1.00  0.00    -0.208 C  
HETATM    4  N   UNL     1      -9.582  11.507  67.441  1.00  0.00    -0.168 NA 
HETATM    5  C   UNL     1     -12.035  12.169  67.605  1.00  0.00    -0.120 C  
HETATM    6  C   UNL     1     -10.411  13.565  68.715  1.00  0.00    -0.197 C  
HETATM    7  C   UNL     1     -10.902  11.528  66.768  1.00  0.00    -0.282 C  
BRANCH   4   8
HETATM    8  C   UNL     1      -9.532  10.542  68.589  1.00  0.00    -0.172 C  
BRANCH   8   9
HETATM    9  C   UNL     1     -10.095   9.157  68.224  1.00  0.00    -0.221 A  
HETATM   10  C   UNL     1     -10.093   7.241  66.705  1.00  0.00    -0.238 A  
HETATM   11  C   UNL     1     -10.853   8.394  69.126  1.00  0.00    -0.042 A  
HETATM   12  C   UNL     1     -10.819   6.494  67.628  1.00  0.00    -0.419 A  
HETATM   13  C   UNL     1     -11.215   7.077  68.830  1.00  0.00    -0.010 A  
HETATM   14  C   UNL     1      -9.743   8.564  66.994  1.00  0.00    -0.266 A  
ENDBRANCH   8   9
BRANCH   8  15
HETATM   15  C   UNL     1      -8.127  10.500  69.211  1.00  0.00    -0.152 A  
HETATM   16  C   UNL     1      -6.663   9.656  70.970  1.00  0.00    -0.020 A  
HETATM   17  C   UNL     1      -5.989  11.576  69.677  1.00  0.00    -0.102 A  
HETATM   18  C   UNL     1      -5.742  10.666  70.699  1.00  0.00    -0.111 A  
HETATM   19  C   UNL     1      -7.173  11.497  68.941  1.00  0.00    -0.117 A  
HETATM   20  C   UNL     1      -7.841   9.564  70.224  1.00  0.00    -0.180 A  
ENDBRANCH   8  15
ENDBRANCH   4   8
ENDBRANCH   1   2
BRANCH   1  21
HETATM   21  C   UNL     1     -11.096  15.806  67.355  1.00  0.00    -0.235 C  
HETATM   22  C   UNL     1     -10.490  16.569  66.432  1.00  0.00    -0.275 C  
BRANCH  22  23
HETATM   23  C   UNL     1      -9.769  17.782  66.795  1.00  0.00    -0.309 A  
HETATM   24  C   UNL     1      -8.432  17.688  67.196  1.00  0.00    -0.239 A  
HETATM   25  C   UNL     1      -7.723  18.836  67.546  1.00  0.00    -0.244 A  
HETATM   26  C   UNL     1     -10.394  19.031  66.751  1.00  0.00    -0.486 A  
HETATM   27  C   UNL     1      -9.682  20.180  67.101  1.00  0.00    -0.576 A  
HETATM   28  C   UNL     1      -8.348  20.082  67.495  1.00  0.00    -0.381 A  
ENDBRANCH  22  23
ENDBRANCH   1  21
TORSDOF 6
ENDMDL
MODEL      103
REMARK 921   NORMALIZED FREE ENERGY PREDICTED BY IDOCK:   -4.76 KCAL/MOL
REMARK 922        TOTAL FREE ENERGY PREDICTED BY IDOCK:   -6.37 KCAL/MOL
REMARK 923 INTER-LIGAND FREE ENERGY PREDICTED BY IDOCK:   -5.80 KCAL/MOL
REMARK 924 INTRA-LIGAND FREE ENERGY PREDICTED BY IDOCK:   -0.57 KCAL/MOL
REMARK 927      BINDING AFFINITY PREDICTED BY RF-SCORE:    0.00 PKD
ROOT
HETATM    1  C   UNL     1      -9.066  13.944  68.097  1.00  0.00    -0.193 C  
ENDROOT
BRANCH   1   2
HETATM    2  N   UNL     1      -9.577  12.996  67.094  1.00  0.00    -0.223 NA 
HETATM    3  C   UNL     1      -9.289  10.839  68.422  1.00  0.00    -0.167 C  
HETATM    4  N   UNL     1      -8.256  10.284  67.507  1.00  0.00    -0.114 NA 
HETATM    5  C   UNL     1      -8.505  12.467  66.218  1.00  0.00     0.263 C  
HETATM    6  C   UNL     1     -10.250  11.865  67.771  1.00  0.00    -0.200 C  
HETATM    7  C   UNL     1      -7.563  11.440  66.891  1.00  0.00    -0.151 C  
BRANCH   4   8
HETATM    8  C   UNL     1      -8.846   9.353  66.487  1.00  0.00    -0.136 C  
BRANCH   8   9
HETATM    9  C   UNL     1      -7.937   9.166  65.260  1.00  0.00    -0.111 A  
HETATM   10  C   UNL     1      -7.513   9.607  62.892  1.00  0.00    -0.116 A  
HETATM   11  C   UNL     1      -6.622   8.686  65.368  1.00  0.00    -0.067 A  
HETATM   12  C   UNL     1      -6.204   9.155  63.031  1.00  0.00    -0.090 A  
HETATM   13  C   UNL     1      -5.765   8.678  64.263  1.00  0.00    -0.065 A  
HETATM   14  C   UNL     1      -8.377   9.602  63.993  1.00  0.00    -0.171 A  
ENDBRANCH   8   9
BRANCH   8  15
HETATM   15  C   UNL     1      -9.293   8.035  67.140  1.00  0.00    -0.186 A  
HETATM   16  C   UNL     1      -8.687   5.821  67.964  1.00  0.00    -0.103 A  
HETATM   17  C   UNL     1     -10.999   6.335  67.517  1.00  0.00    -0.444 A  
HETATM   18  C   UNL     1     -10.023   5.430  67.921  1.00  0.00    -0.202 A  
HETATM   19  C   UNL     1     -10.638   7.625  67.126  1.00  0.00    -0.410 A  
HETATM   20  C   UNL     1      -8.324   7.118  67.589  1.00  0.00    -0.117 A  
ENDBRANCH   8  15
ENDBRANCH   4   8
ENDBRANCH   1   2
BRANCH   1  21
HETATM   21  C   UNL     1      -9.475  15.355  67.820  1.00  0.00    -0.204 C  
HETATM   22  C   UNL     1      -8.592  16.364  67.729  1.00  0.00    -0.172 C  
BRANCH  22  23
HETATM   23  C   UNL     1      -9.020  17.735  67.485  1.00  0.00    -0.244 A  
HETATM   24  C   UNL     1     -10.366  17.991  67.200  1.00  0.00    -0.382 A  
HETATM   25  C   UNL     1     -10.797  19.296  66.965  1.00  0.00    -0.515 A  
HETATM   26  C   UNL     1      -8.107  18.792  67.527  1.00  0.00    -0.273 A  
HETATM   27  C   UNL     1      -8.541  20.098  67.292  1.00  0.00    -0.414 A  
HETATM   28  C   UNL     1      -9.884  20.349  67.015  1.00  0.00    -0.594 A  
ENDBRANCH  22  23
ENDBRANCH   1  21
TORSDOF 6
ENDMDL
MODEL      104
REMARK 921   NORMALIZED FREE ENERGY PREDICTED BY IDOCK:   -4.74 KCAL/MOL
REMARK 922        TOTAL FREE ENERGY PREDICTED BY IDOCK:   -6.35 KCAL/MOL
REMARK 923 INTER-LIGAND FREE ENERGY PREDICTED BY IDOCK:   -5.93 KCAL/MOL
REMARK 924 INTRA-LIGAND FREE ENERGY PREDICTED BY IDOCK:   -0.42 KCAL/MOL
REMARK 927      BINDING AFFINITY PREDICTED BY RF-SCORE:    0.00 PKD
ROOT
HETATM    1  C   UNL     1      -9.986  13.440  66.995  1.00  0.00    -0.246 C  
ENDROOT
BRANCH   1   2
HETATM    2  N   UNL     1      -9.020  12.498  67.584  1.00  0.00    -0.175 NA 
HETATM    3  C   UNL     1      -9.004  10.753  65.724  1.00  0.00    -0.187 C  
HETATM    4  N   UNL     1      -9.608   9.688  66.569  1.00  0.00    -0.182 NA 
HETATM    5  C   UNL     1      -9.677  11.453  68.404  1.00  0.00    -0.203 C  
HETATM    6  C   UNL     1      -8.236  11.848  66.509  1.00  0.00    -0.026 C  
HETATM    7  C   UNL     1     -10.431  10.370  67.596  1.00  0.00    -0.233 C  
BRANCH   4   8
HETATM    8  C   UNL     1      -8.569   8.784  67.166  1.00  0.00    -0.117 C  
BRANCH   8   9
HETATM    9  C   UNL     1      -9.184   7.639  67.989  1.00  0.00    -0.138 A  
HETATM   10  C   UNL     1      -8.950   6.014  69.802  1.00  0.00    -0.135 A  
HETATM   11  C   UNL     1     -10.555   7.336  67.946  1.00  0.00    -0.266 A  
HETATM   12  C   UNL     1     -10.317   5.754  69.761  1.00  0.00    -0.332 A  
HETATM   13  C   UNL     1     -11.115   6.401  68.821  1.00  0.00    -0.404 A  
HETATM   14  C   UNL     1      -8.385   6.939  68.918  1.00  0.00    -0.121 A  
ENDBRANCH   8   9
BRANCH   8  15
HETATM   15  C   UNL     1      -7.568   8.317  66.098  1.00  0.00    -0.085 A  
HETATM   16  C   UNL     1      -5.406   8.619  65.011  1.00  0.00    -0.039 A  
HETATM   17  C   UNL     1      -7.113   7.308  63.925  1.00  0.00    -0.068 A  
HETATM   18  C   UNL     1      -5.836   7.861  63.925  1.00  0.00    -0.057 A  
HETATM   19  C   UNL     1      -7.973   7.537  65.000  1.00  0.00    -0.132 A  
HETATM   20  C   UNL     1      -6.259   8.836  66.096  1.00  0.00    -0.059 A  
ENDBRANCH   8  15
ENDBRANCH   4   8
ENDBRANCH   1   2
BRANCH   1  21
HETATM   21  C   UNL     1      -9.796  14.841  67.482  1.00  0.00    -0.218 C  
HETATM   22  C   UNL     1      -9.975  15.915  66.696  1.00  0.00    -0.267 C  
BRANCH  22  23
HETATM   23  C   UNL     1      -9.757  17.269  67.187  1.00  0.00    -0.259 A  
HETATM   24  C   UNL     1     -10.477  18.326  66.619  1.00  0.00    -0.382 A  
HETATM   25  C   UNL     1     -10.286  19.630  67.077  1.00  0.00    -0.559 A  
HETATM   26  C   UNL     1      -8.841  17.524  68.211  1.00  0.00    -0.274 A  
HETATM   27  C   UNL     1      -8.651  18.830  68.667  1.00  0.00    -0.358 A  
HETATM   28  C   UNL     1      -9.375  19.880  68.103  1.00  0.00    -0.406 A  
ENDBRANCH  22  23
ENDBRANCH   1  21
TORSDOF 6
ENDMDL
MODEL      105
REMARK 921   NORMALIZED FREE ENERGY PREDICTED BY IDOCK:   -4.72 KCAL/MOL
REMARK 922        TOTAL FREE ENERGY PREDICTED BY IDOCK:   -6.31 KCAL/MOL
REMARK 923 INTER-LIGAND FREE ENERGY PREDICTED BY IDOCK:   -6.27 KCAL/MOL
REMARK 924 INTRA-LIGAND FREE ENERGY PREDICTED BY IDOCK:   -0.05 KCAL/MOL
REMARK 927      BINDING AFFINITY PREDICTED BY RF-SCORE:    0.00 PKD
ROOT
HETATM    1  C   UNL     1     -12.674   7.973  71.300  1.00  0.00    -0.217 C  
ENDROOT
BRANCH   1   2
HETATM    2  N   UNL     1     -11.554   8.926  71.243  1.00  0.00    -0.285 NA 
HETATM    3  C   UNL     1     -12.868  11.027  70.642  1.00  0.00    -0.220 C  
HETATM    4  N   UNL     1     -12.239  11.169  69.301  1.00  0.00    -0.397 NA 
HETATM    5  C   UNL     1     -10.974   9.037  69.884  1.00  0.00    -0.193 C  
HETATM    6  C   UNL     1     -12.011  10.263  71.684  1.00  0.00    -0.160 C  
HETATM    7  C   UNL     1     -11.847   9.808  68.865  1.00  0.00     0.625 C  
BRANCH   4   8
HETATM    8  C   UNL     1     -11.083  12.127  69.319  1.00  0.00    -0.167 C  
BRANCH   8   9
HETATM    9  C   UNL     1     -10.268  12.094  68.014  1.00  0.00    -0.203 A  
HETATM   10  C   UNL     1      -8.211  11.453  66.857  1.00  0.00    -0.157 A  
HETATM   11  C   UNL     1     -10.845  12.362  66.763  1.00  0.00    -0.283 A  
HETATM   12  C   UNL     1      -8.815  11.696  65.626  1.00  0.00     0.050 A  
HETATM   13  C   UNL     1     -10.124  12.168  65.580  1.00  0.00    -0.274 A  
HETATM   14  C   UNL     1      -8.926  11.660  68.041  1.00  0.00    -0.176 A  
ENDBRANCH   8   9
BRANCH   8  15
HETATM   15  C   UNL     1     -11.543  13.535  69.732  1.00  0.00    -0.313 A  
HETATM   16  C   UNL     1     -10.998  15.896  70.003  1.00  0.00    -0.361 A  
HETATM   17  C   UNL     1     -12.930  14.982  71.119  1.00  0.00    -0.457 A  
HETATM   18  C   UNL     1     -12.094  16.060  70.847  1.00  0.00    -0.332 A  
HETATM   19  C   UNL     1     -12.656  13.729  70.569  1.00  0.00    -0.361 A  
HETATM   20  C   UNL     1     -10.731  14.646  69.438  1.00  0.00    -0.237 A  
ENDBRANCH   8  15
ENDBRANCH   4   8
ENDBRANCH   1   2
BRANCH   1  21
HETATM   21  C   UNL     1     -12.243   6.598  71.703  1.00  0.00    -0.401 C  
HETATM   22  C   UNL     1     -11.036   6.340  72.231  1.00  0.00    -0.297 C  
BRANCH  22  23
HETATM   23  C   UNL     1     -10.631   4.987  72.590  1.00  0.00    -0.274 A  
HETATM   24  C   UNL     1      -9.718   4.309  71.774  1.00  0.00    -0.237 A  
HETATM   25  C   UNL     1      -9.316   3.014  72.100  1.00  0.00    -0.182 A  
HETATM   26  C   UNL     1     -11.143   4.361  73.729  1.00  0.00    -0.323 A  
HETATM   27  C   UNL     1     -10.738   3.065  74.053  1.00  0.00    -0.278 A  
HETATM   28  C   UNL     1      -9.823   2.394  73.242  1.00  0.00    -0.158 A  
ENDBRANCH  22  23
ENDBRANCH   1  21
TORSDOF 6
ENDMDL
MODEL      106
REMARK 921   NORMALIZED FREE ENERGY PREDICTED BY IDOCK:   -4.70 KCAL/MOL
REMARK 922        TOTAL FREE ENERGY PREDICTED BY IDOCK:   -6.29 KCAL/MOL
REMARK 923 INTER-LIGAND FREE ENERGY PREDICTED BY IDOCK:   -6.01 KCAL/MOL
REMARK 924 INTRA-LIGAND FREE ENERGY PREDICTED BY IDOCK:   -0.28 KCAL/MOL
REMARK 927      BINDING AFFINITY PREDICTED BY RF-SCORE:    0.00 PKD
ROOT
HETATM    1  C   UNL     1      -8.378   8.537  64.672  1.00  0.00    -0.146 C  
ENDROOT
BRANCH   1   2
HETATM    2  N   UNL     1      -8.078   9.218  65.942  1.00  0.00    -0.109 NA 
HETATM    3  C   UNL     1     -10.347   8.938  67.072  1.00  0.00    -0.269 C  
HETATM    4  N   UNL     1     -10.645  10.395  67.082  1.00  0.00    -0.256 NA 
HETATM    5  C   UNL     1      -8.405  10.663  65.899  1.00  0.00    -0.161 C  
HETATM    6  C   UNL     1      -8.838   8.583  67.042  1.00  0.00    -0.133 C  
HETATM    7  C   UNL     1      -9.917  10.989  65.936  1.00  0.00    -0.240 C  
BRANCH   4   8
HETATM    8  C   UNL     1     -10.285  11.036  68.391  1.00  0.00    -0.185 C  
BRANCH   8   9
HETATM    9  C   UNL     1     -10.454  12.565  68.368  1.00  0.00    -0.250 A  
HETATM   10  C   UNL     1     -11.886  14.511  68.750  1.00  0.00    -0.350 A  
HETATM   11  C   UNL     1      -9.361  13.438  68.255  1.00  0.00    -0.205 A  
HETATM   12  C   UNL     1     -10.782  15.354  68.664  1.00  0.00    -0.246 A  
HETATM   13  C   UNL     1      -9.524  14.820  68.398  1.00  0.00    -0.213 A  
HETATM   14  C   UNL     1     -11.727  13.130  68.592  1.00  0.00    -0.362 A  
ENDBRANCH   8   9
BRANCH   8  15
HETATM   15  C   UNL     1     -11.010  10.346  69.558  1.00  0.00    -0.307 A  
HETATM   16  C   UNL     1     -12.920  10.298  71.073  1.00  0.00    -0.488 A  
HETATM   17  C   UNL     1     -10.936   9.040  71.615  1.00  0.00    -0.435 A  
HETATM   18  C   UNL     1     -12.222   9.460  71.940  1.00  0.00    -0.440 A  
HETATM   19  C   UNL     1     -10.333   9.482  70.437  1.00  0.00    -0.334 A  
HETATM   20  C   UNL     1     -12.325  10.728  69.885  1.00  0.00    -0.340 A  
ENDBRANCH   8  15
ENDBRANCH   4   8
ENDBRANCH   1   2
BRANCH   1  21
HETATM   21  C   UNL     1      -8.144   7.061  64.740  1.00  0.00    -0.096 C  
HETATM   22  C   UNL     1      -7.730   6.341  63.684  1.00  0.00    -0.109 C  
BRANCH  22  23
HETATM   23  C   UNL     1      -7.536   4.900  63.769  1.00  0.00    -0.060 A  
HETATM   24  C   UNL     1      -8.323   4.057  62.977  1.00  0.00    -0.088 A  
HETATM   25  C   UNL     1      -8.152   2.674  63.041  1.00  0.00    -0.070 A  
HETATM   26  C   UNL     1      -6.582   4.352  64.630  1.00  0.00    -0.043 A  
HETATM   27  C   UNL     1      -6.412   2.967  64.692  1.00  0.00    -0.027 A  
HETATM   28  C   UNL     1      -7.194   2.131  63.897  1.00  0.00    -0.052 A  
ENDBRANCH  22  23
ENDBRANCH   1  21
TORSDOF 6
ENDMDL
MODEL      107
REMARK 921   NORMALIZED FREE ENERGY PREDICTED BY IDOCK:   -4.68 KCAL/MOL
REMARK 922        TOTAL FREE ENERGY PREDICTED BY IDOCK:   -6.26 KCAL/MOL
REMARK 923 INTER-LIGAND FREE ENERGY PREDICTED BY IDOCK:   -5.51 KCAL/MOL
REMARK 924 INTRA-LIGAND FREE ENERGY PREDICTED BY IDOCK:   -0.75 KCAL/MOL
REMARK 927      BINDING AFFINITY PREDICTED BY RF-SCORE:    0.00 PKD
ROOT
HETATM    1  C   UNL     1      -7.830   9.329  68.927  1.00  0.00    -0.087 C  
ENDROOT
BRANCH   1   2
HETATM    2  N   UNL     1      -8.963  10.266  68.998  1.00  0.00    -0.162 NA 
HETATM    3  C   UNL     1      -9.144  10.837  66.519  1.00  0.00    -0.165 C  
HETATM    4  N   UNL     1      -8.762  12.262  66.708  1.00  0.00    -0.196 NA 
HETATM    5  C   UNL     1      -8.525  11.670  69.173  1.00  0.00     0.293 C  
HETATM    6  C   UNL     1      -9.775  10.164  67.764  1.00  0.00    -0.153 C  
HETATM    7  C   UNL     1      -7.903  12.320  67.914  1.00  0.00    -0.146 C  
BRANCH   4   8
HETATM    8  C   UNL     1      -9.961  13.160  66.807  1.00  0.00    -0.250 C  
BRANCH   8   9
HETATM    9  C   UNL     1      -9.587  14.611  67.155  1.00  0.00    -0.236 A  
HETATM   10  C   UNL     1      -9.502  16.401  68.820  1.00  0.00    -0.247 A  
HETATM   11  C   UNL     1      -8.763  15.392  66.329  1.00  0.00    -0.240 A  
HETATM   12  C   UNL     1      -8.660  17.143  67.996  1.00  0.00    -0.227 A  
HETATM   13  C   UNL     1      -8.307  16.647  66.744  1.00  0.00    -0.270 A  
HETATM   14  C   UNL     1      -9.971  15.151  68.401  1.00  0.00    -0.222 A  
ENDBRANCH   8   9
BRANCH   8  15
HETATM   15  C   UNL     1     -10.852  13.027  65.561  1.00  0.00    -0.298 A  
HETATM   16  C   UNL     1     -13.078  12.669  64.634  1.00  0.00    -0.036 A  
HETATM   17  C   UNL     1     -11.140  12.369  63.231  1.00  0.00    -0.347 A  
HETATM   18  C   UNL     1     -12.521  12.336  63.401  1.00  0.00    -0.592 A  
HETATM   19  C   UNL     1     -10.312  12.708  64.302  1.00  0.00    -0.399 A  
HETATM   20  C   UNL     1     -12.252  13.025  65.703  1.00  0.00    -0.521 A  
ENDBRANCH   8  15
ENDBRANCH   4   8
ENDBRANCH   1   2
BRANCH   1  21
HETATM   21  C   UNL     1      -8.230   7.976  68.430  1.00  0.00    -0.123 C  
HETATM   22  C   UNL     1      -7.549   6.859  68.734  1.00  0.00    -0.105 C  
BRANCH  22  23
HETATM   23  C   UNL     1      -7.945   5.556  68.215  1.00  0.00    -0.096 A  
HETATM   24  C   UNL     1      -7.305   5.052  67.077  1.00  0.00    -0.082 A  
HETATM   25  C   UNL     1      -7.667   3.806  66.565  1.00  0.00    -0.088 A  
HETATM   26  C   UNL     1      -8.952   4.811  68.833  1.00  0.00    -0.142 A  
HETATM   27  C   UNL     1      -9.312   3.563  68.319  1.00  0.00    -0.235 A  
HETATM   28  C   UNL     1      -8.668   3.061  67.188  1.00  0.00    -0.140 A  
ENDBRANCH  22  23
ENDBRANCH   1  21
TORSDOF 6
ENDMDL
MODEL      108
REMARK 921   NORMALIZED FREE ENERGY PREDICTED BY IDOCK:   -4.66 KCAL/MOL
REMARK 922        TOTAL FREE ENERGY PREDICTED BY IDOCK:   -6.23 KCAL/MOL
REMARK 923 INTER-LIGAND FREE ENERGY PREDICTED BY IDOCK:   -6.20 KCAL/MOL
REMARK 924 INTRA-LIGAND FREE ENERGY PREDICTED BY IDOCK:   -0.03 KCAL/MOL
REMARK 927      BINDING AFFINITY PREDICTED BY RF-SCORE:    0.00 PKD
ROOT
HETATM    1  C   UNL     1     -12.452   7.878  72.506  1.00  0.00    -0.090 C  
ENDROOT
BRANCH   1   2
HETATM    2  N   UNL     1     -12.738   8.327  71.134  1.00  0.00    -0.179 NA 
HETATM    3  C   UNL     1     -10.491   9.414  70.611  1.00  0.00    -0.290 C  
HETATM    4  N   UNL     1     -11.055  10.787  70.510  1.00  0.00    -0.133 NA 
HETATM    5  C   UNL     1     -13.285   9.703  71.092  1.00  0.00    -0.303 C  
HETATM    6  C   UNL     1     -11.501   8.274  70.323  1.00  0.00    -0.065 C  
HETATM    7  C   UNL     1     -12.255  10.822  71.378  1.00  0.00    -0.269 C  
BRANCH   4   8
HETATM    8  C   UNL     1     -11.355  11.170  69.090  1.00  0.00    -0.273 C  
BRANCH   8   9
HETATM    9  C   UNL     1     -11.734  12.654  68.945  1.00  0.00    -0.370 A  
HETATM   10  C   UNL     1     -12.218  14.797  70.021  1.00  0.00    -0.383 A  
HETATM   11  C   UNL     1     -11.668  13.329  67.716  1.00  0.00    -0.398 A  
HETATM   12  C   UNL     1     -12.117  15.448  68.794  1.00  0.00    -0.183 A  
HETATM   13  C   UNL     1     -11.861  14.712  67.641  1.00  0.00    -0.366 A  
HETATM   14  C   UNL     1     -12.040  13.412  70.096  1.00  0.00    -0.415 A  
ENDBRANCH   8   9
BRANCH   8  15
HETATM   15  C   UNL     1     -10.226  10.720  68.149  1.00  0.00    -0.194 A  
HETATM   16  C   UNL     1      -9.548   9.420  66.201  1.00  0.00    -0.311 A  
HETATM   17  C   UNL     1      -7.882  10.167  67.775  1.00  0.00    -0.098 A  
HETATM   18  C   UNL     1      -8.219   9.475  66.616  1.00  0.00    -0.116 A  
HETATM   19  C   UNL     1      -8.876  10.781  68.537  1.00  0.00    -0.149 A  
HETATM   20  C   UNL     1     -10.544  10.048  66.953  1.00  0.00    -0.261 A  
ENDBRANCH   8  15
ENDBRANCH   4   8
ENDBRANCH   1   2
BRANCH   1  21
HETATM   21  C   UNL     1     -11.728   6.570  72.547  1.00  0.00    -0.203 C  
HETATM   22  C   UNL     1     -10.696   6.336  73.374  1.00  0.00    -0.281 C  
BRANCH  22  23
HETATM   23  C   UNL     1      -9.990   5.062  73.375  1.00  0.00    -0.180 A  
HETATM   24  C   UNL     1     -10.062   4.240  72.244  1.00  0.00    -0.249 A  
HETATM   25  C   UNL     1      -9.392   3.017  72.223  1.00  0.00    -0.168 A  
HETATM   26  C   UNL     1      -9.249   4.650  74.485  1.00  0.00    -0.119 A  
HETATM   27  C   UNL     1      -8.578   3.425  74.461  1.00  0.00    -0.083 A  
HETATM   28  C   UNL     1      -8.648   2.613  73.330  1.00  0.00    -0.075 A  
ENDBRANCH  22  23
ENDBRANCH   1  21
TORSDOF 6
ENDMDL
MODEL      109
REMARK 921   NORMALIZED FREE ENERGY PREDICTED BY IDOCK:   -4.63 KCAL/MOL
REMARK 922        TOTAL FREE ENERGY PREDICTED BY IDOCK:   -6.20 KCAL/MOL
REMARK 923 INTER-LIGAND FREE ENERGY PREDICTED BY IDOCK:   -6.71 KCAL/MOL
REMARK 924 INTRA-LIGAND FREE ENERGY PREDICTED BY IDOCK:    0.52 KCAL/MOL
REMARK 927      BINDING AFFINITY PREDICTED BY RF-SCORE:    0.00 PKD
ROOT
HETATM    1  C   UNL     1      -9.334  18.389  68.678  1.00  0.00    -0.318 C  
ENDROOT
BRANCH   1   2
HETATM    2  N   UNL     1     -10.167  17.176  68.699  1.00  0.00    -0.315 NA 
HETATM    3  C   UNL     1      -8.310  15.433  68.572  1.00  0.00    -0.151 C  
HETATM    4  N   UNL     1      -8.719  14.936  67.231  1.00  0.00    -0.194 NA 
HETATM    5  C   UNL     1     -10.534  16.719  67.338  1.00  0.00    -0.310 C  
HETATM    6  C   UNL     1      -9.448  16.087  69.397  1.00  0.00    -0.226 C  
HETATM    7  C   UNL     1      -9.382  16.066  66.538  1.00  0.00    -0.268 C  
BRANCH   4   8
HETATM    8  C   UNL     1      -9.594  13.719  67.322  1.00  0.00    -0.237 C  
BRANCH   8   9
HETATM    9  C   UNL     1     -10.554  13.590  66.127  1.00  0.00    -0.290 A  
HETATM   10  C   UNL     1     -10.859  13.275  63.721  1.00  0.00    -0.049 A  
HETATM   11  C   UNL     1     -11.931  13.368  66.293  1.00  0.00    -0.460 A  
HETATM   12  C   UNL     1     -12.215  13.029  63.914  1.00  0.00    -0.511 A  
HETATM   13  C   UNL     1     -12.754  13.093  65.196  1.00  0.00    -0.468 A  
HETATM   14  C   UNL     1     -10.037  13.565  64.815  1.00  0.00    -0.267 A  
ENDBRANCH   8   9
BRANCH   8  15
HETATM   15  C   UNL     1      -8.755  12.459  67.588  1.00  0.00    -0.178 A  
HETATM   16  C   UNL     1      -6.547  11.441  67.783  1.00  0.00    -0.069 A  
HETATM   17  C   UNL     1      -8.484  10.039  67.474  1.00  0.00    -0.118 A  
HETATM   18  C   UNL     1      -7.107  10.176  67.624  1.00  0.00    -0.086 A  
HETATM   19  C   UNL     1      -9.301  11.170  67.452  1.00  0.00    -0.172 A  
HETATM   20  C   UNL     1      -7.365  12.575  67.778  1.00  0.00    -0.124 A  
ENDBRANCH   8  15
ENDBRANCH   4   8
ENDBRANCH   1   2
BRANCH   1  21
HETATM   21  C   UNL     1      -8.569  18.542  67.402  1.00  0.00    -0.266 C  
HETATM   22  C   UNL     1      -7.648  19.502  67.217  1.00  0.00    -0.275 C  
BRANCH  22  23
HETATM   23  C   UNL     1      -6.936  19.647  65.955  1.00  0.00    -0.296 A  
HETATM   24  C   UNL     1      -6.310  18.529  65.391  1.00  0.00    -0.306 A  
HETATM   25  C   UNL     1      -5.625  18.644  64.182  1.00  0.00    -0.085 A  
HETATM   26  C   UNL     1      -6.867  20.881  65.304  1.00  0.00    -0.011 A  
HETATM   27  C   UNL     1      -6.181  20.994  64.093  1.00  0.00    -0.338 A  
HETATM   28  C   UNL     1      -5.564  19.877  63.532  1.00  0.00    -0.326 A  
ENDBRANCH  22  23
ENDBRANCH   1  21
TORSDOF 6
ENDMDL
MODEL      110
REMARK 921   NORMALIZED FREE ENERGY PREDICTED BY IDOCK:   -4.58 KCAL/MOL
REMARK 922        TOTAL FREE ENERGY PREDICTED BY IDOCK:   -6.13 KCAL/MOL
REMARK 923 INTER-LIGAND FREE ENERGY PREDICTED BY IDOCK:   -5.52 KCAL/MOL
REMARK 924 INTRA-LIGAND FREE ENERGY PREDICTED BY IDOCK:   -0.61 KCAL/MOL
REMARK 927      BINDING AFFINITY PREDICTED BY RF-SCORE:    0.00 PKD
ROOT
HETATM    1  C   UNL     1     -10.844  13.345  65.173  1.00  0.00    -0.313 C  
ENDROOT
BRANCH   1   2
HETATM    2  N   UNL     1     -10.927  12.221  66.120  1.00  0.00    -0.281 NA 
HETATM    3  C   UNL     1      -8.437  11.717  66.336  1.00  0.00    -0.081 C  
HETATM    4  N   UNL     1      -8.542  10.376  65.702  1.00  0.00    -0.161 NA 
HETATM    5  C   UNL     1     -11.017  10.910  65.435  1.00  0.00     0.038 C  
HETATM    6  C   UNL     1      -9.740  12.223  67.005  1.00  0.00    -0.205 C  
HETATM    7  C   UNL     1      -9.701  10.426  64.781  1.00  0.00    -0.320 C  
BRANCH   4   8
HETATM    8  C   UNL     1      -8.658   9.278  66.720  1.00  0.00    -0.127 C  
BRANCH   8   9
HETATM    9  C   UNL     1      -8.674   7.878  66.081  1.00  0.00    -0.181 A  
HETATM   10  C   UNL     1      -7.840   6.367  64.348  1.00  0.00    -0.115 A  
HETATM   11  C   UNL     1      -9.239   6.766  66.726  1.00  0.00    -0.172 A  
HETATM   12  C   UNL     1      -8.383   5.277  65.021  1.00  0.00    -0.146 A  
HETATM   13  C   UNL     1      -9.098   5.479  66.199  1.00  0.00    -0.155 A  
HETATM   14  C   UNL     1      -7.993   7.658  64.866  1.00  0.00    -0.135 A  
ENDBRANCH   8   9
BRANCH   8  15
HETATM   15  C   UNL     1      -7.608   9.445  67.830  1.00  0.00    -0.087 A  
HETATM   16  C   UNL     1      -7.113  10.055  70.139  1.00  0.00    -0.157 A  
HETATM   17  C   UNL     1      -5.327   9.959  68.521  1.00  0.00    -0.035 A  
HETATM   18  C   UNL     1      -5.766  10.208  69.818  1.00  0.00    -0.043 A  
HETATM   19  C   UNL     1      -6.240   9.585  67.534  1.00  0.00    -0.057 A  
HETATM   20  C   UNL     1      -8.026   9.664  69.156  1.00  0.00    -0.099 A  
ENDBRANCH   8  15
ENDBRANCH   4   8
ENDBRANCH   1   2
BRANCH   1  21
HETATM   21  C   UNL     1     -10.178  14.548  65.761  1.00  0.00    -0.354 C  
HETATM   22  C   UNL     1     -10.497  15.803  65.406  1.00  0.00    -0.438 C  
BRANCH  22  23
HETATM   23  C   UNL     1      -9.813  16.957  65.974  1.00  0.00    -0.281 A  
HETATM   24  C   UNL     1      -8.431  16.896  66.186  1.00  0.00    -0.281 A  
HETATM   25  C   UNL     1      -7.757  17.990  66.727  1.00  0.00    -0.252 A  
HETATM   26  C   UNL     1     -10.517  18.115  66.314  1.00  0.00    -0.374 A  
HETATM   27  C   UNL     1      -9.839  19.210  66.855  1.00  0.00    -0.403 A  
HETATM   28  C   UNL     1      -8.461  19.147  67.058  1.00  0.00    -0.304 A  
ENDBRANCH  22  23
ENDBRANCH   1  21
TORSDOF 6
ENDMDL
MODEL      111
REMARK 921   NORMALIZED FREE ENERGY PREDICTED BY IDOCK:   -4.56 KCAL/MOL
REMARK 922        TOTAL FREE ENERGY PREDICTED BY IDOCK:   -6.10 KCAL/MOL
REMARK 923 INTER-LIGAND FREE ENERGY PREDICTED BY IDOCK:   -6.07 KCAL/MOL
REMARK 924 INTRA-LIGAND FREE ENERGY PREDICTED BY IDOCK:   -0.03 KCAL/MOL
REMARK 927      BINDING AFFINITY PREDICTED BY RF-SCORE:    0.00 PKD
ROOT
HETATM    1  C   UNL     1      -8.503   5.370  68.801  1.00  0.00    -0.096 C  
ENDROOT
BRANCH   1   2
HETATM    2  N   UNL     1      -8.224   6.809  68.933  1.00  0.00    -0.120 NA 
HETATM    3  C   UNL     1     -10.321   7.489  70.216  1.00  0.00    -0.213 C  
HETATM    4  N   UNL     1     -10.856   8.330  69.113  1.00  0.00    -0.092 NA 
HETATM    5  C   UNL     1      -8.790   7.599  67.815  1.00  0.00    -0.125 C  
HETATM    6  C   UNL     1      -8.781   7.311  70.210  1.00  0.00    -0.147 C  
HETATM    7  C   UNL     1     -10.328   7.766  67.848  1.00  0.00    -0.217 C  
BRANCH   4   8
HETATM    8  C   UNL     1     -10.509   9.780  69.289  1.00  0.00    -0.219 C  
BRANCH   8   9
HETATM    9  C   UNL     1     -10.153  10.469  67.960  1.00  0.00    -0.190 A  
HETATM   10  C   UNL     1     -10.905  11.409  65.831  1.00  0.00    -0.292 A  
HETATM   11  C   UNL     1      -8.898  11.056  67.733  1.00  0.00    -0.133 A  
HETATM   12  C   UNL     1      -9.662  12.007  65.643  1.00  0.00    -0.241 A  
HETATM   13  C   UNL     1      -8.654  11.815  66.584  1.00  0.00    -0.170 A  
HETATM   14  C   UNL     1     -11.146  10.638  66.973  1.00  0.00    -0.217 A  
ENDBRANCH   8   9
BRANCH   8  15
HETATM   15  C   UNL     1     -11.592  10.510  70.100  1.00  0.00    -0.408 A  
HETATM   16  C   UNL     1     -12.494  12.620  70.925  1.00  0.00    -0.368 A  
HETATM   17  C   UNL     1     -13.182  10.547  71.947  1.00  0.00    -0.526 A  
HETATM   18  C   UNL     1     -13.234  11.936  71.887  1.00  0.00    -0.467 A  
HETATM   19  C   UNL     1     -12.365   9.840  71.064  1.00  0.00    -0.422 A  
HETATM   20  C   UNL     1     -11.688  11.913  70.029  1.00  0.00    -0.366 A  
ENDBRANCH   8  15
ENDBRANCH   4   8
ENDBRANCH   1   2
BRANCH   1  21
HETATM   21  C   UNL     1      -8.328   4.874  67.401  1.00  0.00    -0.105 C  
HETATM   22  C   UNL     1      -9.318   4.287  66.709  1.00  0.00    -0.180 C  
BRANCH  22  23
HETATM   23  C   UNL     1      -9.114   3.788  65.355  1.00  0.00    -0.145 A  
HETATM   24  C   UNL     1     -10.172   3.843  64.440  1.00  0.00    -0.239 A  
HETATM   25  C   UNL     1      -9.997   3.373  63.139  1.00  0.00    -0.136 A  
HETATM   26  C   UNL     1      -7.884   3.255  64.963  1.00  0.00    -0.082 A  
HETATM   27  C   UNL     1      -7.711   2.785  63.659  1.00  0.00    -0.068 A  
HETATM   28  C   UNL     1      -8.766   2.847  62.748  1.00  0.00    -0.085 A  
ENDBRANCH  22  23
ENDBRANCH   1  21
TORSDOF 6
ENDMDL
MODEL      112
REMARK 921   NORMALIZED FREE ENERGY PREDICTED BY IDOCK:   -4.48 KCAL/MOL
REMARK 922        TOTAL FREE ENERGY PREDICTED BY IDOCK:   -5.99 KCAL/MOL
REMARK 923 INTER-LIGAND FREE ENERGY PREDICTED BY IDOCK:   -6.33 KCAL/MOL
REMARK 924 INTRA-LIGAND FREE ENERGY PREDICTED BY IDOCK:    0.34 KCAL/MOL
REMARK 927      BINDING AFFINITY PREDICTED BY RF-SCORE:    0.00 PKD
ROOT
HETATM    1  C   UNL     1     -10.055  16.825  66.817  1.00  0.00    -0.294 C  
ENDROOT
BRANCH   1   2
HETATM    2  N   UNL     1     -10.255  15.691  67.734  1.00  0.00    -0.248 NA 
HETATM    3  C   UNL     1      -7.905  14.705  67.640  1.00  0.00    -0.181 C  
HETATM    4  N   UNL     1      -8.342  13.444  66.984  1.00  0.00    -0.129 NA 
HETATM    5  C   UNL     1     -10.677  14.460  67.025  1.00  0.00    -0.285 C  
HETATM    6  C   UNL     1      -9.001  15.418  68.472  1.00  0.00    -0.192 C  
HETATM    7  C   UNL     1      -9.562  13.765  66.207  1.00  0.00    -0.249 C  
BRANCH   4   8
HETATM    8  C   UNL     1      -8.561  12.337  67.975  1.00  0.00    -0.176 C  
BRANCH   8   9
HETATM    9  C   UNL     1      -9.190  11.087  67.336  1.00  0.00    -0.157 A  
HETATM   10  C   UNL     1      -9.059   9.312  65.658  1.00  0.00    -0.268 A  
HETATM   11  C   UNL     1     -10.241  10.383  67.945  1.00  0.00    -0.211 A  
HETATM   12  C   UNL     1     -10.082   8.618  66.297  1.00  0.00    -0.215 A  
HETATM   13  C   UNL     1     -10.685   9.162  67.428  1.00  0.00    -0.247 A  
HETATM   14  C   UNL     1      -8.623  10.541  66.165  1.00  0.00    -0.155 A  
ENDBRANCH   8   9
BRANCH   8  15
HETATM   15  C   UNL     1      -7.278  12.053  68.772  1.00  0.00    -0.108 A  
HETATM   16  C   UNL     1      -6.183  10.810  70.562  1.00  0.00    -0.086 A  
HETATM   17  C   UNL     1      -5.153  12.811  69.697  1.00  0.00    -0.073 A  
HETATM   18  C   UNL     1      -5.147  11.741  70.587  1.00  0.00    -0.119 A  
HETATM   19  C   UNL     1      -6.210  12.968  68.800  1.00  0.00    -0.079 A  
HETATM   20  C   UNL     1      -7.235  10.956  69.654  1.00  0.00    -0.098 A  
ENDBRANCH   8  15
ENDBRANCH   4   8
ENDBRANCH   1   2
BRANCH   1  21
HETATM   21  C   UNL     1      -8.840  17.630  67.151  1.00  0.00    -0.251 C  
HETATM   22  C   UNL     1      -8.902  18.811  67.789  1.00  0.00    -0.313 C  
BRANCH  22  23
HETATM   23  C   UNL     1      -7.704  19.588  68.079  1.00  0.00    -0.334 A  
HETATM   24  C   UNL     1      -7.302  20.583  67.180  1.00  0.00    -0.374 A  
HETATM   25  C   UNL     1      -6.160  21.341  67.439  1.00  0.00    -0.434 A  
HETATM   26  C   UNL     1      -6.953  19.351  69.233  1.00  0.00    -0.371 A  
HETATM   27  C   UNL     1      -5.810  20.111  69.490  1.00  0.00    -0.354 A  
HETATM   28  C   UNL     1      -5.417  21.106  68.595  1.00  0.00    -0.325 A  
ENDBRANCH  22  23
ENDBRANCH   1  21
TORSDOF 6
ENDMDL
MODEL      113
REMARK 921   NORMALIZED FREE ENERGY PREDICTED BY IDOCK:   -4.43 KCAL/MOL
REMARK 922        TOTAL FREE ENERGY PREDICTED BY IDOCK:   -5.92 KCAL/MOL
REMARK 923 INTER-LIGAND FREE ENERGY PREDICTED BY IDOCK:   -5.20 KCAL/MOL
REMARK 924 INTRA-LIGAND FREE ENERGY PREDICTED BY IDOCK:   -0.72 KCAL/MOL
REMARK 927      BINDING AFFINITY PREDICTED BY RF-SCORE:    0.00 PKD
ROOT
HETATM    1  C   UNL     1      -9.732   7.147  69.515  1.00  0.00    -0.157 C  
ENDROOT
BRANCH   1   2
HETATM    2  N   UNL     1     -10.848   8.089  69.332  1.00  0.00    -0.155 NA 
HETATM    3  C   UNL     1     -10.029   9.244  67.211  1.00  0.00    -0.207 C  
HETATM    4  N   UNL     1      -9.843  10.564  67.871  1.00  0.00    -0.158 NA 
HETATM    5  C   UNL     1     -10.604   9.390  69.998  1.00  0.00    -0.235 C  
HETATM    6  C   UNL     1     -11.075   8.322  67.888  1.00  0.00     0.383 C  
HETATM    7  C   UNL     1      -9.560  10.294  69.300  1.00  0.00    -0.224 C  
BRANCH   4   8
HETATM    8  C   UNL     1     -11.028  11.465  67.676  1.00  0.00    -0.250 C  
BRANCH   8   9
HETATM    9  C   UNL     1     -10.940  12.750  68.518  1.00  0.00    -0.288 A  
HETATM   10  C   UNL     1      -9.761  14.830  69.032  1.00  0.00    -0.190 A  
HETATM   11  C   UNL     1     -12.013  13.208  69.300  1.00  0.00    -0.344 A  
HETATM   12  C   UNL     1     -10.849  15.275  69.777  1.00  0.00    -0.300 A  
HETATM   13  C   UNL     1     -11.966  14.457  69.926  1.00  0.00    -0.391 A  
HETATM   14  C   UNL     1      -9.800  13.574  68.417  1.00  0.00    -0.225 A  
ENDBRANCH   8   9
BRANCH   8  15
HETATM   15  C   UNL     1     -11.288  11.716  66.181  1.00  0.00    -0.275 A  
HETATM   16  C   UNL     1     -10.377  11.957  63.932  1.00  0.00    -0.426 A  
HETATM   17  C   UNL     1     -12.601  12.756  64.410  1.00  0.00    -0.431 A  
HETATM   18  C   UNL     1     -11.550  12.582  63.515  1.00  0.00    -0.584 A  
HETATM   19  C   UNL     1     -12.471  12.330  65.733  1.00  0.00     0.301 A  
HETATM   20  C   UNL     1     -10.250  11.514  65.251  1.00  0.00    -0.315 A  
ENDBRANCH   8  15
ENDBRANCH   4   8
ENDBRANCH   1   2
BRANCH   1  21
HETATM   21  C   UNL     1      -9.865   5.923  68.665  1.00  0.00    -0.170 C  
HETATM   22  C   UNL     1      -8.848   5.425  67.943  1.00  0.00    -0.105 C  
BRANCH  22  23
HETATM   23  C   UNL     1      -9.012   4.247  67.102  1.00  0.00    -0.133 A  
HETATM   24  C   UNL     1      -8.862   4.371  65.716  1.00  0.00    -0.122 A  
HETATM   25  C   UNL     1      -9.012   3.255  64.892  1.00  0.00    -0.135 A  
HETATM   26  C   UNL     1      -9.319   3.002  67.658  1.00  0.00    -0.242 A  
HETATM   27  C   UNL     1      -9.468   1.887  66.832  1.00  0.00     0.153 A  
HETATM   28  C   UNL     1      -9.312   2.013  65.451  1.00  0.00     0.020 A  
ENDBRANCH  22  23
ENDBRANCH   1  21
TORSDOF 6
ENDMDL
MODEL      114
REMARK 921   NORMALIZED FREE ENERGY PREDICTED BY IDOCK:   -4.39 KCAL/MOL
REMARK 922        TOTAL FREE ENERGY PREDICTED BY IDOCK:   -5.87 KCAL/MOL
REMARK 923 INTER-LIGAND FREE ENERGY PREDICTED BY IDOCK:   -7.21 KCAL/MOL
REMARK 924 INTRA-LIGAND FREE ENERGY PREDICTED BY IDOCK:    1.34 KCAL/MOL
REMARK 927      BINDING AFFINITY PREDICTED BY RF-SCORE:    0.00 PKD
ROOT
HETATM    1  C   UNL     1     -10.950  11.531  66.536  1.00  0.00    -0.293 C  
ENDROOT
BRANCH   1   2
HETATM    2  N   UNL     1     -11.609  12.833  66.725  1.00  0.00    -0.350 NA 
HETATM    3  C   UNL     1      -9.644  14.117  67.722  1.00  0.00    -0.219 C  
HETATM    4  N   UNL     1     -10.294  14.299  69.047  1.00  0.00    -0.212 NA 
HETATM    5  C   UNL     1     -12.228  12.965  68.064  1.00  0.00     0.031 C  
HETATM    6  C   UNL     1     -10.625  13.924  66.538  1.00  0.00    -0.279 C  
HETATM    7  C   UNL     1     -11.227  13.162  69.228  1.00  0.00    -0.206 C  
BRANCH   4   8
HETATM    8  C   UNL     1     -10.976  15.632  69.162  1.00  0.00    -0.259 C  
BRANCH   8   9
HETATM    9  C   UNL     1     -11.915  15.713  70.379  1.00  0.00    -0.405 A  
HETATM   10  C   UNL     1     -14.080  15.178  71.382  1.00  0.00    -0.598 A  
HETATM   11  C   UNL     1     -11.459  16.086  71.654  1.00  0.00    -0.443 A  
HETATM   12  C   UNL     1     -13.596  15.525  72.640  1.00  0.00    -0.657 A  
HETATM   13  C   UNL     1     -12.292  15.996  72.773  1.00  0.00    -0.603 A  
HETATM   14  C   UNL     1     -13.252  15.281  70.259  1.00  0.00    -0.054 A  
ENDBRANCH   8   9
BRANCH   8  15
HETATM   15  C   UNL     1      -9.957  16.780  69.083  1.00  0.00    -0.252 A  
HETATM   16  C   UNL     1      -9.529  19.147  68.688  1.00  0.00    -0.460 A  
HETATM   17  C   UNL     1      -7.704  17.574  68.596  1.00  0.00    -0.275 A  
HETATM   18  C   UNL     1      -8.178  18.877  68.480  1.00  0.00    -0.388 A  
HETATM   19  C   UNL     1      -8.586  16.533  68.891  1.00  0.00    -0.241 A  
HETATM   20  C   UNL     1     -10.411  18.110  69.000  1.00  0.00    -0.135 A  
ENDBRANCH   8  15
ENDBRANCH   4   8
ENDBRANCH   1   2
BRANCH   1  21
HETATM   21  C   UNL     1      -9.691  11.400  67.333  1.00  0.00    -0.196 C  
HETATM   22  C   UNL     1      -9.277  10.233  67.853  1.00  0.00    -0.143 C  
BRANCH  22  23
HETATM   23  C   UNL     1      -8.061  10.138  68.648  1.00  0.00    -0.109 A  
HETATM   24  C   UNL     1      -6.846  10.554  68.092  1.00  0.00    -0.072 A  
HETATM   25  C   UNL     1      -5.670  10.474  68.837  1.00  0.00    -0.040 A  
HETATM   26  C   UNL     1      -8.090   9.636  69.952  1.00  0.00    -0.180 A  
HETATM   27  C   UNL     1      -6.912   9.557  70.696  1.00  0.00    -0.121 A  
HETATM   28  C   UNL     1      -5.704   9.979  70.140  1.00  0.00    -0.050 A  
ENDBRANCH  22  23
ENDBRANCH   1  21
TORSDOF 6
ENDMDL
MODEL      115
REMARK 921   NORMALIZED FREE ENERGY PREDICTED BY IDOCK:   -4.36 KCAL/MOL
REMARK 922        TOTAL FREE ENERGY PREDICTED BY IDOCK:   -5.84 KCAL/MOL
REMARK 923 INTER-LIGAND FREE ENERGY PREDICTED BY IDOCK:   -4.93 KCAL/MOL
REMARK 924 INTRA-LIGAND FREE ENERGY PREDICTED BY IDOCK:   -0.91 KCAL/MOL
REMARK 927      BINDING AFFINITY PREDICTED BY RF-SCORE:    0.00 PKD
ROOT
HETATM    1  C   UNL     1      -7.236  14.274  67.347  1.00  0.00    -0.112 C  
ENDROOT
BRANCH   1   2
HETATM    2  N   UNL     1      -8.144  13.155  67.050  1.00  0.00    -0.085 NA 
HETATM    3  C   UNL     1      -8.268  12.132  69.383  1.00  0.00     0.879 C  
HETATM    4  N   UNL     1      -7.591  10.869  68.984  1.00  0.00    -0.126 NA 
HETATM    5  C   UNL     1      -7.417  11.921  66.671  1.00  0.00     0.060 C  
HETATM    6  C   UNL     1      -8.993  12.872  68.230  1.00  0.00    -0.175 C  
HETATM    7  C   UNL     1      -6.707  11.198  67.841  1.00  0.00    -0.063 C  
BRANCH   4   8
HETATM    8  C   UNL     1      -8.572   9.779  68.661  1.00  0.00    -0.121 C  
BRANCH   8   9
HETATM    9  C   UNL     1      -7.885   8.465  68.255  1.00  0.00    -0.110 A  
HETATM   10  C   UNL     1      -6.135   6.809  68.677  1.00  0.00    -0.026 A  
HETATM   11  C   UNL     1      -8.466   7.564  67.348  1.00  0.00    -0.115 A  
HETATM   12  C   UNL     1      -6.747   5.921  67.797  1.00  0.00    -0.058 A  
HETATM   13  C   UNL     1      -7.900   6.306  67.119  1.00  0.00    -0.105 A  
HETATM   14  C   UNL     1      -6.691   8.073  68.897  1.00  0.00    -0.053 A  
ENDBRANCH   8   9
BRANCH   8  15
HETATM   15  C   UNL     1      -9.606   9.620  69.788  1.00  0.00    -0.242 A  
HETATM   16  C   UNL     1     -10.182   8.650  71.950  1.00  0.00    -0.404 A  
HETATM   17  C   UNL     1     -11.927   9.512  70.527  1.00  0.00    -0.197 A  
HETATM   18  C   UNL     1     -11.533   8.888  71.707  1.00  0.00    -0.423 A  
HETATM   19  C   UNL     1     -10.973   9.871  69.574  1.00  0.00    -0.274 A  
HETATM   20  C   UNL     1      -9.223   9.024  71.005  1.00  0.00    -0.331 A  
ENDBRANCH   8  15
ENDBRANCH   4   8
ENDBRANCH   1   2
BRANCH   1  21
HETATM   21  C   UNL     1      -7.835  15.606  67.025  1.00  0.00    -0.266 C  
HETATM   22  C   UNL     1      -7.973  16.581  67.938  1.00  0.00    -0.165 C  
BRANCH  22  23
HETATM   23  C   UNL     1      -8.585  17.860  67.604  1.00  0.00    -0.242 A  
HETATM   24  C   UNL     1      -8.156  18.546  66.462  1.00  0.00    -0.299 A  
HETATM   25  C   UNL     1      -8.730  19.771  66.124  1.00  0.00    -0.368 A  
HETATM   26  C   UNL     1      -9.587  18.410  68.408  1.00  0.00    -0.366 A  
HETATM   27  C   UNL     1     -10.161  19.636  68.067  1.00  0.00    -0.555 A  
HETATM   28  C   UNL     1      -9.735  20.314  66.925  1.00  0.00    -0.584 A  
ENDBRANCH  22  23
ENDBRANCH   1  21
TORSDOF 6
ENDMDL
MODEL      116
REMARK 921   NORMALIZED FREE ENERGY PREDICTED BY IDOCK:   -4.34 KCAL/MOL
REMARK 922        TOTAL FREE ENERGY PREDICTED BY IDOCK:   -5.80 KCAL/MOL
REMARK 923 INTER-LIGAND FREE ENERGY PREDICTED BY IDOCK:   -5.71 KCAL/MOL
REMARK 924 INTRA-LIGAND FREE ENERGY PREDICTED BY IDOCK:   -0.09 KCAL/MOL
REMARK 927      BINDING AFFINITY PREDICTED BY RF-SCORE:    0.00 PKD
ROOT
HETATM    1  C   UNL     1      -8.100   8.702  68.291  1.00  0.00    -0.118 C  
ENDROOT
BRANCH   1   2
HETATM    2  N   UNL     1      -8.712   8.909  69.613  1.00  0.00    -0.136 NA 
HETATM    3  C   UNL     1      -8.463   6.541  70.525  1.00  0.00    -0.138 C  
HETATM    4  N   UNL     1      -9.928   6.289  70.578  1.00  0.00    -0.183 NA 
HETATM    5  C   UNL     1     -10.168   8.633  69.611  1.00  0.00    -0.208 C  
HETATM    6  C   UNL     1      -8.057   8.034  70.611  1.00  0.00    -0.104 C  
HETATM    7  C   UNL     1     -10.547   7.134  69.530  1.00  0.00    -0.234 C  
BRANCH   4   8
HETATM    8  C   UNL     1     -10.497   6.551  71.943  1.00  0.00    -0.206 C  
BRANCH   8   9
HETATM    9  C   UNL     1     -11.897   7.187  71.889  1.00  0.00    -0.336 A  
HETATM   10  C   UNL     1     -13.322   9.129  72.309  1.00  0.00    -0.540 A  
HETATM   11  C   UNL     1     -12.950   6.620  71.153  1.00  0.00    -0.008 A  
HETATM   12  C   UNL     1     -14.341   8.560  71.549  1.00  0.00    -0.451 A  
HETATM   13  C   UNL     1     -14.161   7.298  70.988  1.00  0.00    -0.023 A  
HETATM   14  C   UNL     1     -12.115   8.445  72.487  1.00  0.00    -0.403 A  
ENDBRANCH   8   9
BRANCH   8  15
HETATM   15  C   UNL     1     -10.417   5.292  72.822  1.00  0.00    -0.262 A  
HETATM   16  C   UNL     1      -9.201   4.014  74.505  1.00  0.00    -0.118 A  
HETATM   17  C   UNL     1     -10.888   2.926  73.171  1.00  0.00    -0.236 A  
HETATM   18  C   UNL     1      -9.911   2.866  74.160  1.00  0.00    -0.160 A  
HETATM   19  C   UNL     1     -11.137   4.126  72.505  1.00  0.00     0.137 A  
HETATM   20  C   UNL     1      -9.459   5.221  73.851  1.00  0.00    -0.134 A  
ENDBRANCH   8  15
ENDBRANCH   4   8
ENDBRANCH   1   2
BRANCH   1  21
HETATM   21  C   UNL     1      -8.798   9.458  67.206  1.00  0.00    -0.136 C  
HETATM   22  C   UNL     1      -8.212   9.760  66.036  1.00  0.00    -0.117 C  
BRANCH  22  23
HETATM   23  C   UNL     1      -8.906  10.521  65.006  1.00  0.00    -0.207 A  
HETATM   24  C   UNL     1      -8.495  10.401  63.674  1.00  0.00    -0.168 A  
HETATM   25  C   UNL     1      -9.147  11.120  62.672  1.00  0.00    -0.366 A  
HETATM   26  C   UNL     1      -9.969  11.369  65.331  1.00  0.00    -0.289 A  
HETATM   27  C   UNL     1     -10.620  12.087  64.326  1.00  0.00    -0.377 A  
HETATM   28  C   UNL     1     -10.212  11.960  62.999  1.00  0.00    -0.185 A  
ENDBRANCH  22  23
ENDBRANCH   1  21
TORSDOF 6
ENDMDL
MODEL      117
REMARK 921   NORMALIZED FREE ENERGY PREDICTED BY IDOCK:   -4.33 KCAL/MOL
REMARK 922        TOTAL FREE ENERGY PREDICTED BY IDOCK:   -5.78 KCAL/MOL
REMARK 923 INTER-LIGAND FREE ENERGY PREDICTED BY IDOCK:   -6.51 KCAL/MOL
REMARK 924 INTRA-LIGAND FREE ENERGY PREDICTED BY IDOCK:    0.72 KCAL/MOL
REMARK 927      BINDING AFFINITY PREDICTED BY RF-SCORE:    0.00 PKD
ROOT
HETATM    1  C   UNL     1      -8.562   9.459  67.814  1.00  0.00    -0.116 C  
ENDROOT
BRANCH   1   2
HETATM    2  N   UNL     1      -9.111   9.595  69.172  1.00  0.00    -0.146 NA 
HETATM    3  C   UNL     1      -8.428   7.318  70.093  1.00  0.00    -0.138 C  
HETATM    4  N   UNL     1      -9.827   6.839  70.249  1.00  0.00    -0.175 NA 
HETATM    5  C   UNL     1     -10.501   9.092  69.273  1.00  0.00    -0.221 C  
HETATM    6  C   UNL     1      -8.260   8.858  70.133  1.00  0.00    -0.125 C  
HETATM    7  C   UNL     1     -10.640   7.551  69.236  1.00  0.00    -0.210 C  
BRANCH   4   8
HETATM    8  C   UNL     1     -10.339   7.037  71.646  1.00  0.00    -0.198 C  
BRANCH   8   9
HETATM    9  C   UNL     1     -11.756   7.637  71.678  1.00  0.00    -0.313 A  
HETATM   10  C   UNL     1     -14.174   7.280  71.598  1.00  0.00    -0.558 A  
HETATM   11  C   UNL     1     -12.001   8.957  72.089  1.00  0.00    -0.419 A  
HETATM   12  C   UNL     1     -14.392   8.583  72.037  1.00  0.00    -0.537 A  
HETATM   13  C   UNL     1     -13.307   9.426  72.264  1.00  0.00    -0.539 A  
HETATM   14  C   UNL     1     -12.869   6.813  71.409  1.00  0.00    -0.287 A  
ENDBRANCH   8   9
BRANCH   8  15
HETATM   15  C   UNL     1     -10.188   5.750  72.474  1.00  0.00    -0.218 A  
HETATM   16  C   UNL     1     -10.094   3.314  72.519  1.00  0.00    -0.229 A  
HETATM   17  C   UNL     1     -10.513   4.530  74.559  1.00  0.00    -0.298 A  
HETATM   18  C   UNL     1     -10.358   3.321  73.887  1.00  0.00    -0.231 A  
HETATM   19  C   UNL     1     -10.432   5.734  73.859  1.00  0.00    -0.295 A  
HETATM   20  C   UNL     1      -9.997   4.519  71.819  1.00  0.00    -0.264 A  
ENDBRANCH   8  15
ENDBRANCH   4   8
ENDBRANCH   1   2
BRANCH   1  21
HETATM   21  C   UNL     1      -9.093   8.261  67.094  1.00  0.00    -0.162 C  
HETATM   22  C   UNL     1      -8.296   7.346  66.517  1.00  0.00    -0.124 C  
BRANCH  22  23
HETATM   23  C   UNL     1      -8.840   6.202  65.798  1.00  0.00    -0.133 A  
HETATM   24  C   UNL     1      -8.042   5.547  64.852  1.00  0.00    -0.124 A  
HETATM   25  C   UNL     1      -8.542   4.449  64.154  1.00  0.00    -0.124 A  
HETATM   26  C   UNL     1     -10.142   5.755  66.036  1.00  0.00     0.032 A  
HETATM   27  C   UNL     1     -10.640   4.654  65.336  1.00  0.00    -0.167 A  
HETATM   28  C   UNL     1      -9.840   4.001  64.399  1.00  0.00    -0.183 A  
ENDBRANCH  22  23
ENDBRANCH   1  21
TORSDOF 6
ENDMDL
MODEL      118
REMARK 921   NORMALIZED FREE ENERGY PREDICTED BY IDOCK:   -4.25 KCAL/MOL
REMARK 922        TOTAL FREE ENERGY PREDICTED BY IDOCK:   -5.69 KCAL/MOL
REMARK 923 INTER-LIGAND FREE ENERGY PREDICTED BY IDOCK:   -8.76 KCAL/MOL
REMARK 924 INTRA-LIGAND FREE ENERGY PREDICTED BY IDOCK:    3.07 KCAL/MOL
REMARK 927      BINDING AFFINITY PREDICTED BY RF-SCORE:    0.00 PKD
ROOT
HETATM    1  C   UNL     1     -11.949  12.277  70.106  1.00  0.00    -0.298 C  
ENDROOT
BRANCH   1   2
HETATM    2  N   UNL     1     -11.973  12.889  68.768  1.00  0.00    -0.298 NA 
HETATM    3  C   UNL     1      -9.463  13.186  68.436  1.00  0.00    -0.166 C  
HETATM    4  N   UNL     1      -9.528  14.672  68.432  1.00  0.00    -0.203 NA 
HETATM    5  C   UNL     1     -12.026  14.369  68.824  1.00  0.00    -0.295 C  
HETATM    6  C   UNL     1     -10.772  12.477  68.007  1.00  0.00    -0.221 C  
HETATM    7  C   UNL     1     -10.705  15.052  69.250  1.00  0.00    -0.248 C  
BRANCH   4   8
HETATM    8  C   UNL     1      -9.586  15.231  67.040  1.00  0.00    -0.224 C  
BRANCH   8   9
HETATM    9  C   UNL     1     -10.367  14.327  66.071  1.00  0.00    -0.318 A  
HETATM   10  C   UNL     1     -12.462  13.833  64.911  1.00  0.00    -0.420 A  
HETATM   11  C   UNL     1      -9.729  13.392  65.240  1.00  0.00     0.002 A  
HETATM   12  C   UNL     1     -11.802  12.932  64.079  1.00  0.00    -0.512 A  
HETATM   13  C   UNL     1     -10.441  12.699  64.256  1.00  0.00    -0.417 A  
HETATM   14  C   UNL     1     -11.755  14.516  65.905  1.00  0.00    -0.345 A  
ENDBRANCH   8   9
BRANCH   8  15
HETATM   15  C   UNL     1     -10.065  16.692  67.054  1.00  0.00    -0.281 A  
HETATM   16  C   UNL     1     -10.683  18.682  65.788  1.00  0.00    -0.224 A  
HETATM   17  C   UNL     1     -10.150  18.877  68.131  1.00  0.00    -0.447 A  
HETATM   18  C   UNL     1     -10.516  19.468  66.926  1.00  0.00    -0.589 A  
HETATM   19  C   UNL     1      -9.923  17.502  68.195  1.00  0.00    -0.321 A  
HETATM   20  C   UNL     1     -10.473  17.302  65.853  1.00  0.00    -0.267 A  
ENDBRANCH   8  15
ENDBRANCH   4   8
ENDBRANCH   1   2
BRANCH   1  21
HETATM   21  C   UNL     1     -11.828  10.787  70.058  1.00  0.00    -0.424 C  
HETATM   22  C   UNL     1     -11.564  10.043  71.144  1.00  0.00    -0.460 C  
BRANCH  22  23
HETATM   23  C   UNL     1     -11.424   8.595  71.065  1.00  0.00    -0.324 A  
HETATM   24  C   UNL     1     -11.561   7.830  72.229  1.00  0.00    -0.390 A  
HETATM   25  C   UNL     1     -11.433   6.443  72.175  1.00  0.00    -0.344 A  
HETATM   26  C   UNL     1     -11.152   7.964  69.848  1.00  0.00    -0.123 A  
HETATM   27  C   UNL     1     -11.025   6.574  69.796  1.00  0.00    -0.396 A  
HETATM   28  C   UNL     1     -11.168   5.815  70.957  1.00  0.00    -0.208 A  
ENDBRANCH  22  23
ENDBRANCH   1  21
TORSDOF 6
ENDMDL
MODEL      119
REMARK 921   NORMALIZED FREE ENERGY PREDICTED BY IDOCK:   -4.16 KCAL/MOL
REMARK 922        TOTAL FREE ENERGY PREDICTED BY IDOCK:   -5.57 KCAL/MOL
REMARK 923 INTER-LIGAND FREE ENERGY PREDICTED BY IDOCK:   -5.97 KCAL/MOL
REMARK 924 INTRA-LIGAND FREE ENERGY PREDICTED BY IDOCK:    0.40 KCAL/MOL
REMARK 927      BINDING AFFINITY PREDICTED BY RF-SCORE:    0.00 PKD
ROOT
HETATM    1  C   UNL     1     -10.370   8.486  68.698  1.00  0.00    -0.198 C  
ENDROOT
BRANCH   1   2
HETATM    2  N   UNL     1     -11.222   9.578  68.202  1.00  0.00     0.011 NA 
HETATM    3  C   UNL     1      -9.461  10.870  66.885  1.00  0.00    -0.176 C  
HETATM    4  N   UNL     1      -9.519  12.065  67.769  1.00  0.00    -0.184 NA 
HETATM    5  C   UNL     1     -11.233  10.746  69.114  1.00  0.00    -0.262 C  
HETATM    6  C   UNL     1     -10.752  10.012  66.867  1.00  0.00    -0.140 C  
HETATM    7  C   UNL     1      -9.935  11.588  69.109  1.00  0.00     0.074 C  
BRANCH   4   8
HETATM    8  C   UNL     1     -10.430  13.126  67.224  1.00  0.00    -0.243 C  
BRANCH   8   9
HETATM    9  C   UNL     1      -9.775  14.518  67.210  1.00  0.00    -0.232 A  
HETATM   10  C   UNL     1      -7.786  15.883  66.803  1.00  0.00    -0.273 A  
HETATM   11  C   UNL     1     -10.527  15.702  67.279  1.00  0.00    -0.292 A  
HETATM   12  C   UNL     1      -8.558  17.040  66.845  1.00  0.00    -0.250 A  
HETATM   13  C   UNL     1      -9.924  16.951  67.101  1.00  0.00    -0.276 A  
HETATM   14  C   UNL     1      -8.385  14.633  66.994  1.00  0.00    -0.214 A  
ENDBRANCH   8   9
BRANCH   8  15
HETATM   15  C   UNL     1     -11.022  12.701  65.871  1.00  0.00    -0.310 A  
HETATM   16  C   UNL     1     -10.722  12.459  63.463  1.00  0.00    -0.473 A  
HETATM   17  C   UNL     1     -12.945  12.429  64.397  1.00  0.00    -0.219 A  
HETATM   18  C   UNL     1     -12.102  12.376  63.291  1.00  0.00    -0.519 A  
HETATM   19  C   UNL     1     -12.410  12.593  65.675  1.00  0.00    -0.390 A  
HETATM   20  C   UNL     1     -10.183  12.607  64.743  1.00  0.00    -0.307 A  
ENDBRANCH   8  15
ENDBRANCH   4   8
ENDBRANCH   1   2
BRANCH   1  21
HETATM   21  C   UNL     1     -10.158   7.410  67.680  1.00  0.00    -0.240 C  
HETATM   22  C   UNL     1      -8.981   6.785  67.517  1.00  0.00    -0.115 C  
BRANCH  22  23
HETATM   23  C   UNL     1      -8.793   5.760  66.499  1.00  0.00    -0.126 A  
HETATM   24  C   UNL     1      -7.767   5.909  65.559  1.00  0.00    -0.091 A  
HETATM   25  C   UNL     1      -7.569   4.939  64.578  1.00  0.00    -0.077 A  
HETATM   26  C   UNL     1      -9.624   4.638  66.447  1.00  0.00    -0.188 A  
HETATM   27  C   UNL     1      -9.423   3.667  65.464  1.00  0.00    -0.158 A  
HETATM   28  C   UNL     1      -8.395   3.816  64.533  1.00  0.00    -0.097 A  
ENDBRANCH  22  23
ENDBRANCH   1  21
TORSDOF 6
ENDMDL
MODEL      120
REMARK 921   NORMALIZED FREE ENERGY PREDICTED BY IDOCK:   -4.12 KCAL/MOL
REMARK 922        TOTAL FREE ENERGY PREDICTED BY IDOCK:   -5.51 KCAL/MOL
REMARK 923 INTER-LIGAND FREE ENERGY PREDICTED BY IDOCK:   -5.52 KCAL/MOL
REMARK 924 INTRA-LIGAND FREE ENERGY PREDICTED BY IDOCK:    0.02 KCAL/MOL
REMARK 927      BINDING AFFINITY PREDICTED BY RF-SCORE:    0.00 PKD
ROOT
HETATM    1  C   UNL     1      -7.264   8.074  67.984  1.00  0.00    -0.094 C  
ENDROOT
BRANCH   1   2
HETATM    2  N   UNL     1      -7.632   8.415  69.367  1.00  0.00    -0.089 NA 
HETATM    3  C   UNL     1      -8.764   6.223  70.013  1.00  0.00    -0.141 C  
HETATM    4  N   UNL     1     -10.111   6.836  70.166  1.00  0.00    -0.177 NA 
HETATM    5  C   UNL     1      -8.986   9.010  69.462  1.00  0.00    -0.147 C  
HETATM    6  C   UNL     1      -7.578   7.201  70.213  1.00  0.00    -0.090 C  
HETATM    7  C   UNL     1     -10.151   8.011  69.264  1.00  0.00    -0.198 C  
BRANCH   4   8
HETATM    8  C   UNL     1     -10.411   7.191  71.593  1.00  0.00    -0.197 C  
BRANCH   8   9
HETATM    9  C   UNL     1     -11.825   7.769  71.774  1.00  0.00    -0.328 A  
HETATM   10  C   UNL     1     -13.254   9.731  72.078  1.00  0.00    -0.557 A  
HETATM   11  C   UNL     1     -12.982   7.012  71.526  1.00  0.00    -0.411 A  
HETATM   12  C   UNL     1     -14.383   8.966  71.798  1.00  0.00    -0.351 A  
HETATM   13  C   UNL     1     -14.248   7.605  71.541  1.00  0.00    -0.564 A  
HETATM   14  C   UNL     1     -11.987   9.137  72.078  1.00  0.00    -0.421 A  
ENDBRANCH   8   9
BRANCH   8  15
HETATM   15  C   UNL     1     -10.092   6.015  72.530  1.00  0.00    -0.200 A  
HETATM   16  C   UNL     1      -8.699   5.104  74.312  1.00  0.00    -0.113 A  
HETATM   17  C   UNL     1     -10.041   3.617  72.969  1.00  0.00    -0.220 A  
HETATM   18  C   UNL     1      -9.121   3.814  73.994  1.00  0.00    -0.095 A  
HETATM   19  C   UNL     1     -10.521   4.707  72.241  1.00  0.00    -0.238 A  
HETATM   20  C   UNL     1      -9.190   6.198  73.595  1.00  0.00    -0.131 A  
ENDBRANCH   8  15
ENDBRANCH   4   8
ENDBRANCH   1   2
BRANCH   1  21
HETATM   21  C   UNL     1      -7.461   6.624  67.674  1.00  0.00    -0.097 C  
HETATM   22  C   UNL     1      -7.665   6.168  66.427  1.00  0.00    -0.102 C  
BRANCH  22  23
HETATM   23  C   UNL     1      -7.882   4.753  66.156  1.00  0.00    -0.099 A  
HETATM   24  C   UNL     1      -8.482   4.372  64.951  1.00  0.00    -0.126 A  
HETATM   25  C   UNL     1      -8.696   3.023  64.670  1.00  0.00    -0.102 A  
HETATM   26  C   UNL     1      -7.504   3.777  67.082  1.00  0.00    -0.072 A  
HETATM   27  C   UNL     1      -7.719   2.426  66.798  1.00  0.00    -0.071 A  
HETATM   28  C   UNL     1      -8.312   2.051  65.593  1.00  0.00    -0.093 A  
ENDBRANCH  22  23
ENDBRANCH   1  21
TORSDOF 6
ENDMDL
MODEL      121
REMARK 921   NORMALIZED FREE ENERGY PREDICTED BY IDOCK:   -4.12 KCAL/MOL
REMARK 922        TOTAL FREE ENERGY PREDICTED BY IDOCK:   -5.50 KCAL/MOL
REMARK 923 INTER-LIGAND FREE ENERGY PREDICTED BY IDOCK:   -4.75 KCAL/MOL
REMARK 924 INTRA-LIGAND FREE ENERGY PREDICTED BY IDOCK:   -0.75 KCAL/MOL
REMARK 927      BINDING AFFINITY PREDICTED BY RF-SCORE:    0.00 PKD
ROOT
HETATM    1  C   UNL     1      -8.691   8.341  71.461  1.00  0.00    -0.163 C  
ENDROOT
BRANCH   1   2
HETATM    2  N   UNL     1      -9.451   8.352  70.201  1.00  0.00    -0.163 NA 
HETATM    3  C   UNL     1      -7.547   8.938  68.609  1.00  0.00    -0.096 C  
HETATM    4  N   UNL     1      -8.118  10.261  68.239  1.00  0.00    -0.105 NA 
HETATM    5  C   UNL     1      -9.985   9.696  69.875  1.00  0.00    -0.241 C  
HETATM    6  C   UNL     1      -8.587   7.894  69.090  1.00  0.00    -0.138 C  
HETATM    7  C   UNL     1      -8.927  10.717  69.393  1.00  0.00     0.041 C  
BRANCH   4   8
HETATM    8  C   UNL     1      -8.909  10.197  66.964  1.00  0.00    -0.135 C  
BRANCH   8   9
HETATM    9  C   UNL     1      -9.709  11.485  66.701  1.00  0.00    -0.221 A  
HETATM   10  C   UNL     1     -11.860  12.647  66.741  1.00  0.00    -0.440 A  
HETATM   11  C   UNL     1      -9.086  12.723  66.482  1.00  0.00    -0.150 A  
HETATM   12  C   UNL     1     -11.217  13.868  66.554  1.00  0.00    -0.327 A  
HETATM   13  C   UNL     1      -9.833  13.903  66.406  1.00  0.00    -0.304 A  
HETATM   14  C   UNL     1     -11.116  11.465  66.802  1.00  0.00    -0.343 A  
ENDBRANCH   8   9
BRANCH   8  15
HETATM   15  C   UNL     1      -8.021   9.762  65.787  1.00  0.00    -0.116 A  
HETATM   16  C   UNL     1      -5.976  10.095  64.501  1.00  0.00    -0.130 A  
HETATM   17  C   UNL     1      -7.790   8.821  63.550  1.00  0.00    -0.149 A  
HETATM   18  C   UNL     1      -6.516   9.372  63.440  1.00  0.00    -0.094 A  
HETATM   19  C   UNL     1      -8.537   9.018  64.712  1.00  0.00    -0.201 A  
HETATM   20  C   UNL     1      -6.716  10.279  65.672  1.00  0.00    -0.122 A  
ENDBRANCH   8  15
ENDBRANCH   4   8
ENDBRANCH   1   2
BRANCH   1  21
HETATM   21  C   UNL     1      -8.976   7.134  72.296  1.00  0.00    -0.147 C  
HETATM   22  C   UNL     1      -9.478   5.997  71.786  1.00  0.00    -0.165 C  
BRANCH  22  23
HETATM   23  C   UNL     1      -9.772   4.845  72.627  1.00  0.00    -0.184 A  
HETATM   24  C   UNL     1     -11.087   4.371  72.701  1.00  0.00    -0.044 A  
HETATM   25  C   UNL     1     -11.390   3.268  73.498  1.00  0.00    -0.227 A  
HETATM   26  C   UNL     1      -8.764   4.212  73.359  1.00  0.00    -0.091 A  
HETATM   27  C   UNL     1      -9.070   3.107  74.156  1.00  0.00    -0.092 A  
HETATM   28  C   UNL     1     -10.381   2.635  74.223  1.00  0.00    -0.202 A  
ENDBRANCH  22  23
ENDBRANCH   1  21
TORSDOF 6
ENDMDL
MODEL      122
REMARK 921   NORMALIZED FREE ENERGY PREDICTED BY IDOCK:   -4.07 KCAL/MOL
REMARK 922        TOTAL FREE ENERGY PREDICTED BY IDOCK:   -5.43 KCAL/MOL
REMARK 923 INTER-LIGAND FREE ENERGY PREDICTED BY IDOCK:   -5.44 KCAL/MOL
REMARK 924 INTRA-LIGAND FREE ENERGY PREDICTED BY IDOCK:    0.01 KCAL/MOL
REMARK 927      BINDING AFFINITY PREDICTED BY RF-SCORE:    0.00 PKD
ROOT
HETATM    1  C   UNL     1      -8.090   7.534  67.344  1.00  0.00    -0.116 C  
ENDROOT
BRANCH   1   2
HETATM    2  N   UNL     1      -7.778   8.762  66.595  1.00  0.00    -0.092 NA 
HETATM    3  C   UNL     1      -8.608  10.471  68.295  1.00  0.00    -0.127 C  
HETATM    4  N   UNL     1      -9.708  10.966  67.424  1.00  0.00    -0.167 NA 
HETATM    5  C   UNL     1      -8.911   9.215  65.755  1.00  0.00    -0.175 C  
HETATM    6  C   UNL     1      -7.411   9.844  67.536  1.00  0.00    -0.091 C  
HETATM    7  C   UNL     1     -10.090   9.843  66.536  1.00  0.00    -0.232 C  
BRANCH   4   8
HETATM    8  C   UNL     1      -9.314  12.198  66.662  1.00  0.00    -0.226 C  
BRANCH   8   9
HETATM    9  C   UNL     1     -10.498  12.833  65.912  1.00  0.00    -0.295 A  
HETATM   10  C   UNL     1     -12.789  13.685  65.972  1.00  0.00    -0.242 A  
HETATM   11  C   UNL     1     -10.356  13.413  64.641  1.00  0.00    -0.400 A  
HETATM   12  C   UNL     1     -12.614  14.277  64.725  1.00  0.00    -0.310 A  
HETATM   13  C   UNL     1     -11.405  14.125  64.052  1.00  0.00     0.028 A  
HETATM   14  C   UNL     1     -11.746  12.960  66.557  1.00  0.00    -0.453 A  
ENDBRANCH   8   9
BRANCH   8  15
HETATM   15  C   UNL     1      -8.547  13.179  67.563  1.00  0.00    -0.196 A  
HETATM   16  C   UNL     1      -8.618  15.085  69.082  1.00  0.00    -0.188 A  
HETATM   17  C   UNL     1      -6.526  14.445  68.068  1.00  0.00    -0.158 A  
HETATM   18  C   UNL     1      -7.253  15.296  68.894  1.00  0.00    -0.137 A  
HETATM   19  C   UNL     1      -7.167  13.398  67.405  1.00  0.00    -0.116 A  
HETATM   20  C   UNL     1      -9.259  14.027  68.433  1.00  0.00    -0.196 A  
ENDBRANCH   8  15
ENDBRANCH   4   8
ENDBRANCH   1   2
BRANCH   1  21
HETATM   21  C   UNL     1      -8.335   7.792  68.797  1.00  0.00    -0.128 C  
HETATM   22  C   UNL     1      -8.886   6.880  69.615  1.00  0.00    -0.141 C  
BRANCH  22  23
HETATM   23  C   UNL     1      -9.138   7.166  71.021  1.00  0.00    -0.151 A  
HETATM   24  C   UNL     1      -8.239   6.698  71.986  1.00  0.00    -0.106 A  
HETATM   25  C   UNL     1      -8.461   6.962  73.337  1.00  0.00    -0.139 A  
HETATM   26  C   UNL     1     -10.263   7.894  71.416  1.00  0.00    -0.226 A  
HETATM   27  C   UNL     1     -10.483   8.158  72.770  1.00  0.00    -0.385 A  
HETATM   28  C   UNL     1      -9.582   7.695  73.728  1.00  0.00    -0.275 A  
ENDBRANCH  22  23
ENDBRANCH   1  21
TORSDOF 6
ENDMDL
MODEL      123
REMARK 921   NORMALIZED FREE ENERGY PREDICTED BY IDOCK:   -4.05 KCAL/MOL
REMARK 922        TOTAL FREE ENERGY PREDICTED BY IDOCK:   -5.42 KCAL/MOL
REMARK 923 INTER-LIGAND FREE ENERGY PREDICTED BY IDOCK:   -6.00 KCAL/MOL
REMARK 924 INTRA-LIGAND FREE ENERGY PREDICTED BY IDOCK:    0.58 KCAL/MOL
REMARK 927      BINDING AFFINITY PREDICTED BY RF-SCORE:    0.00 PKD
ROOT
HETATM    1  C   UNL     1      -8.211   8.089  67.841  1.00  0.00    -0.129 C  
ENDROOT
BRANCH   1   2
HETATM    2  N   UNL     1      -9.587   8.590  67.992  1.00  0.00    -0.147 NA 
HETATM    3  C   UNL     1      -9.563  10.340  66.137  1.00  0.00    -0.197 C  
HETATM    4  N   UNL     1      -9.708  11.489  67.070  1.00  0.00    -0.183 NA 
HETATM    5  C   UNL     1      -9.670   9.741  68.921  1.00  0.00    -0.171 C  
HETATM    6  C   UNL     1     -10.119   8.996  66.671  1.00  0.00    -0.285 C  
HETATM    7  C   UNL     1      -9.113  11.071  68.361  1.00  0.00    -0.161 C  
BRANCH   4   8
HETATM    8  C   UNL     1     -11.137  11.930  67.206  1.00  0.00    -0.288 C  
BRANCH   8   9
HETATM    9  C   UNL     1     -11.599  11.993  68.672  1.00  0.00    -0.372 A  
HETATM   10  C   UNL     1     -12.048  13.344  70.660  1.00  0.00    -0.374 A  
HETATM   11  C   UNL     1     -12.257  10.922  69.297  1.00  0.00    -0.240 A  
HETATM   12  C   UNL     1     -12.722  12.277  71.247  1.00  0.00    -0.351 A  
HETATM   13  C   UNL     1     -12.810  11.061  70.574  1.00  0.00    -0.255 A  
HETATM   14  C   UNL     1     -11.482  13.202  69.389  1.00  0.00    -0.321 A  
ENDBRANCH   8   9
BRANCH   8  15
HETATM   15  C   UNL     1     -11.390  13.223  66.415  1.00  0.00    -0.341 A  
HETATM   16  C   UNL     1     -12.571  14.344  64.599  1.00  0.00    -0.256 A  
HETATM   17  C   UNL     1     -10.595  15.355  65.540  1.00  0.00    -0.400 A  
HETATM   18  C   UNL     1     -11.635  15.376  64.617  1.00  0.00    -0.311 A  
HETATM   19  C   UNL     1     -10.470  14.287  66.429  1.00  0.00    -0.282 A  
HETATM   20  C   UNL     1     -12.458  13.281  65.499  1.00  0.00    -0.531 A  
ENDBRANCH   8  15
ENDBRANCH   4   8
ENDBRANCH   1   2
BRANCH   1  21
HETATM   21  C   UNL     1      -8.107   6.613  68.062  1.00  0.00    -0.110 C  
HETATM   22  C   UNL     1      -6.991   5.915  67.795  1.00  0.00    -0.069 C  
BRANCH  22  23
HETATM   23  C   UNL     1      -6.924   4.473  67.994  1.00  0.00    -0.056 A  
HETATM   24  C   UNL     1      -5.956   3.733  67.307  1.00  0.00    -0.024 A  
HETATM   25  C   UNL     1      -5.873   2.352  67.485  1.00  0.00    -0.019 A  
HETATM   26  C   UNL     1      -7.813   3.824  68.855  1.00  0.00    -0.052 A  
HETATM   27  C   UNL     1      -7.728   2.441  69.031  1.00  0.00    -0.045 A  
HETATM   28  C   UNL     1      -6.757   1.708  68.349  1.00  0.00    -0.029 A  
ENDBRANCH  22  23
ENDBRANCH   1  21
TORSDOF 6
ENDMDL
MODEL      124
REMARK 921   NORMALIZED FREE ENERGY PREDICTED BY IDOCK:   -4.05 KCAL/MOL
REMARK 922        TOTAL FREE ENERGY PREDICTED BY IDOCK:   -5.41 KCAL/MOL
REMARK 923 INTER-LIGAND FREE ENERGY PREDICTED BY IDOCK:   -4.51 KCAL/MOL
REMARK 924 INTRA-LIGAND FREE ENERGY PREDICTED BY IDOCK:   -0.90 KCAL/MOL
REMARK 927      BINDING AFFINITY PREDICTED BY RF-SCORE:    0.00 PKD
ROOT
HETATM    1  C   UNL     1      -8.513  13.603  67.146  1.00  0.00    -0.174 C  
ENDROOT
BRANCH   1   2
HETATM    2  N   UNL     1      -7.851  12.752  68.147  1.00  0.00    -0.137 NA 
HETATM    3  C   UNL     1      -8.072  10.511  66.950  1.00  0.00    -0.120 C  
HETATM    4  N   UNL     1      -8.981   9.930  67.973  1.00  0.00    -0.122 NA 
HETATM    5  C   UNL     1      -8.805  12.190  69.132  1.00  0.00     0.594 C  
HETATM    6  C   UNL     1      -7.146  11.640  67.470  1.00  0.00    -0.111 C  
HETATM    7  C   UNL     1      -9.713  11.062  68.588  1.00  0.00    -0.195 C  
BRANCH   4   8
HETATM    8  C   UNL     1      -8.241   9.101  68.982  1.00  0.00    -0.115 C  
BRANCH   8   9
HETATM    9  C   UNL     1      -9.165   8.530  70.072  1.00  0.00    -0.155 A  
HETATM   10  C   UNL     1      -9.817   8.464  72.428  1.00  0.00    -0.378 A  
HETATM   11  C   UNL     1     -10.341   7.829  69.765  1.00  0.00    -0.221 A  
HETATM   12  C   UNL     1     -10.992   7.795  72.095  1.00  0.00    -0.318 A  
HETATM   13  C   UNL     1     -11.245   7.462  70.767  1.00  0.00    -0.293 A  
HETATM   14  C   UNL     1      -8.906   8.819  71.428  1.00  0.00    -0.292 A  
ENDBRANCH   8   9
BRANCH   8  15
HETATM   15  C   UNL     1      -7.365   8.044  68.289  1.00  0.00    -0.095 A  
HETATM   16  C   UNL     1      -7.217   5.869  67.197  1.00  0.00    -0.075 A  
HETATM   17  C   UNL     1      -5.214   6.930  68.020  1.00  0.00    -0.015 A  
HETATM   18  C   UNL     1      -5.839   5.852  67.401  1.00  0.00    -0.017 A  
HETATM   19  C   UNL     1      -5.970   8.015  68.464  1.00  0.00    -0.040 A  
HETATM   20  C   UNL     1      -7.974   6.962  67.626  1.00  0.00    -0.113 A  
ENDBRANCH   8  15
ENDBRANCH   4   8
ENDBRANCH   1   2
BRANCH   1  21
HETATM   21  C   UNL     1      -8.160  15.049  67.293  1.00  0.00    -0.237 C  
HETATM   22  C   UNL     1      -9.051  15.982  67.665  1.00  0.00    -0.200 C  
BRANCH  22  23
HETATM   23  C   UNL     1      -8.687  17.388  67.774  1.00  0.00    -0.232 A  
HETATM   24  C   UNL     1      -7.390  17.787  67.431  1.00  0.00    -0.202 A  
HETATM   25  C   UNL     1      -7.020  19.128  67.526  1.00  0.00    -0.226 A  
HETATM   26  C   UNL     1      -9.610  18.339  68.217  1.00  0.00    -0.332 A  
HETATM   27  C   UNL     1      -9.238  19.681  68.311  1.00  0.00    -0.412 A  
HETATM   28  C   UNL     1      -7.946  20.075  67.963  1.00  0.00    -0.277 A  
ENDBRANCH  22  23
ENDBRANCH   1  21
TORSDOF 6
ENDMDL
MODEL      125
REMARK 921   NORMALIZED FREE ENERGY PREDICTED BY IDOCK:   -4.02 KCAL/MOL
REMARK 922        TOTAL FREE ENERGY PREDICTED BY IDOCK:   -5.38 KCAL/MOL
REMARK 923 INTER-LIGAND FREE ENERGY PREDICTED BY IDOCK:   -4.61 KCAL/MOL
REMARK 924 INTRA-LIGAND FREE ENERGY PREDICTED BY IDOCK:   -0.76 KCAL/MOL
REMARK 927      BINDING AFFINITY PREDICTED BY RF-SCORE:    0.00 PKD
ROOT
HETATM    1  C   UNL     1      -8.295   9.855  69.167  1.00  0.00    -0.145 C  
ENDROOT
BRANCH   1   2
HETATM    2  N   UNL     1      -9.246   8.733  69.215  1.00  0.00    -0.148 NA 
HETATM    3  C   UNL     1      -7.986   7.234  70.849  1.00  0.00    -0.098 C  
HETATM    4  N   UNL     1      -7.737   6.164  69.846  1.00  0.00    -0.098 NA 
HETATM    5  C   UNL     1      -8.944   7.692  68.205  1.00  0.00    -0.126 C  
HETATM    6  C   UNL     1      -9.226   8.118  70.562  1.00  0.00    -0.154 C  
HETATM    7  C   UNL     1      -7.704   6.820  68.518  1.00  0.00    -0.113 C  
BRANCH   4   8
HETATM    8  C   UNL     1      -8.760   5.067  69.925  1.00  0.00    -0.101 C  
BRANCH   8   9
HETATM    9  C   UNL     1      -8.485   3.929  68.927  1.00  0.00    -0.100 A  
HETATM   10  C   UNL     1      -6.856   2.590  67.689  1.00  0.00    -0.040 A  
HETATM   11  C   UNL     1      -9.472   3.003  68.555  1.00  0.00    -0.204 A  
HETATM   12  C   UNL     1      -7.846   1.670  67.358  1.00  0.00    -0.060 A  
HETATM   13  C   UNL     1      -9.157   1.886  67.776  1.00  0.00    -0.197 A  
HETATM   14  C   UNL     1      -7.172   3.716  68.456  1.00  0.00    -0.051 A  
ENDBRANCH   8   9
BRANCH   8  15
HETATM   15  C   UNL     1      -8.947   4.594  71.376  1.00  0.00    -0.163 A  
HETATM   16  C   UNL     1      -8.294   3.059  73.155  1.00  0.00    -0.079 A  
HETATM   17  C   UNL     1     -10.376   4.264  73.323  1.00  0.00    -0.232 A  
HETATM   18  C   UNL     1      -9.472   3.343  73.843  1.00  0.00    -0.119 A  
HETATM   19  C   UNL     1     -10.118   4.882  72.098  1.00  0.00    -0.250 A  
HETATM   20  C   UNL     1      -8.026   3.689  71.937  1.00  0.00    -0.063 A  
ENDBRANCH   8  15
ENDBRANCH   4   8
ENDBRANCH   1   2
BRANCH   1  21
HETATM   21  C   UNL     1      -8.875  11.075  68.525  1.00  0.00    -0.159 C  
HETATM   22  C   UNL     1      -8.732  11.347  67.217  1.00  0.00    -0.148 C  
BRANCH  22  23
HETATM   23  C   UNL     1      -9.284  12.557  66.622  1.00  0.00    -0.223 A  
HETATM   24  C   UNL     1      -8.780  13.802  67.015  1.00  0.00    -0.212 A  
HETATM   25  C   UNL     1      -9.293  14.973  66.457  1.00  0.00    -0.309 A  
HETATM   26  C   UNL     1     -10.307  12.490  65.673  1.00  0.00    -0.294 A  
HETATM   27  C   UNL     1     -10.818  13.664  65.114  1.00  0.00    -0.338 A  
HETATM   28  C   UNL     1     -10.309  14.903  65.504  1.00  0.00    -0.388 A  
ENDBRANCH  22  23
ENDBRANCH   1  21
TORSDOF 6
ENDMDL
MODEL      126
REMARK 921   NORMALIZED FREE ENERGY PREDICTED BY IDOCK:   -4.01 KCAL/MOL
REMARK 922        TOTAL FREE ENERGY PREDICTED BY IDOCK:   -5.36 KCAL/MOL
REMARK 923 INTER-LIGAND FREE ENERGY PREDICTED BY IDOCK:   -5.51 KCAL/MOL
REMARK 924 INTRA-LIGAND FREE ENERGY PREDICTED BY IDOCK:    0.15 KCAL/MOL
REMARK 927      BINDING AFFINITY PREDICTED BY RF-SCORE:    0.00 PKD
ROOT
HETATM    1  C   UNL     1      -7.076   9.546  70.741  1.00  0.00    -0.097 C  
ENDROOT
BRANCH   1   2
HETATM    2  N   UNL     1      -6.654   9.291  69.354  1.00  0.00    -0.044 NA 
HETATM    3  C   UNL     1      -8.549  10.498  68.149  1.00  0.00    -0.123 C  
HETATM    4  N   UNL     1      -9.105   9.256  67.547  1.00  0.00    -0.121 NA 
HETATM    5  C   UNL     1      -7.246   8.050  68.802  1.00  0.00    -0.083 C  
HETATM    6  C   UNL     1      -7.040  10.433  68.496  1.00  0.00    -0.074 C  
HETATM    7  C   UNL     1      -8.752   8.143  68.460  1.00  0.00    -0.134 C  
BRANCH   4   8
HETATM    8  C   UNL     1      -8.609   9.036  66.147  1.00  0.00    -0.135 C  
BRANCH   8   9
HETATM    9  C   UNL     1      -8.544   7.546  65.770  1.00  0.00    -0.158 A  
HETATM   10  C   UNL     1      -7.199   5.634  65.053  1.00  0.00    -0.066 A  
HETATM   11  C   UNL     1      -9.595   6.657  66.045  1.00  0.00     0.072 A  
HETATM   12  C   UNL     1      -8.245   4.768  65.362  1.00  0.00    -0.118 A  
HETATM   13  C   UNL     1      -9.448   5.281  65.840  1.00  0.00    -0.156 A  
HETATM   14  C   UNL     1      -7.350   7.011  65.244  1.00  0.00    -0.077 A  
ENDBRANCH   8   9
BRANCH   8  15
HETATM   15  C   UNL     1      -9.393   9.900  65.146  1.00  0.00    -0.317 A  
HETATM   16  C   UNL     1      -9.522  10.892  62.922  1.00  0.00    -0.377 A  
HETATM   17  C   UNL     1     -10.926  11.740  64.689  1.00  0.00    -0.368 A  
HETATM   18  C   UNL     1     -10.486  11.793  63.370  1.00  0.00    -0.485 A  
HETATM   19  C   UNL     1     -10.383  10.804  65.570  1.00  0.00    -0.308 A  
HETATM   20  C   UNL     1      -8.988   9.944  63.798  1.00  0.00    -0.279 A  
ENDBRANCH   8  15
ENDBRANCH   4   8
ENDBRANCH   1   2
BRANCH   1  21
HETATM   21  C   UNL     1      -7.861   8.413  71.323  1.00  0.00    -0.128 C  
HETATM   22  C   UNL     1      -8.986   8.597  72.033  1.00  0.00    -0.286 C  
BRANCH  22  23
HETATM   23  C   UNL     1      -9.716   7.478  72.613  1.00  0.00    -0.229 A  
HETATM   24  C   UNL     1     -10.632   6.776  71.821  1.00  0.00    -0.237 A  
HETATM   25  C   UNL     1     -11.340   5.700  72.355  1.00  0.00    -0.327 A  
HETATM   26  C   UNL     1      -9.519   7.102  73.944  1.00  0.00    -0.297 A  
HETATM   27  C   UNL     1     -10.229   6.023  74.477  1.00  0.00    -0.307 A  
HETATM   28  C   UNL     1     -11.135   5.322  73.682  1.00  0.00    -0.251 A  
ENDBRANCH  22  23
ENDBRANCH   1  21
TORSDOF 6
ENDMDL
MODEL      127
REMARK 921   NORMALIZED FREE ENERGY PREDICTED BY IDOCK:   -3.95 KCAL/MOL
REMARK 922        TOTAL FREE ENERGY PREDICTED BY IDOCK:   -5.27 KCAL/MOL
REMARK 923 INTER-LIGAND FREE ENERGY PREDICTED BY IDOCK:   -5.42 KCAL/MOL
REMARK 924 INTRA-LIGAND FREE ENERGY PREDICTED BY IDOCK:    0.15 KCAL/MOL
REMARK 927      BINDING AFFINITY PREDICTED BY RF-SCORE:    0.00 PKD
ROOT
HETATM    1  C   UNL     1      -7.964   8.091  68.442  1.00  0.00    -0.120 C  
ENDROOT
BRANCH   1   2
HETATM    2  N   UNL     1      -9.210   8.840  68.667  1.00  0.00    -0.141 NA 
HETATM    3  C   UNL     1      -9.390   9.975  66.390  1.00  0.00    -0.168 C  
HETATM    4  N   UNL     1      -9.203  11.346  66.937  1.00  0.00    -0.172 NA 
HETATM    5  C   UNL     1      -8.964  10.201  69.199  1.00  0.00    -0.175 C  
HETATM    6  C   UNL     1      -9.965   8.947  67.398  1.00  0.00    -0.209 C  
HETATM    7  C   UNL     1      -8.395  11.209  68.171  1.00  0.00    -0.136 C  
BRANCH   4   8
HETATM    8  C   UNL     1     -10.511  12.043  67.175  1.00  0.00    -0.220 C  
BRANCH   8   9
HETATM    9  C   UNL     1     -10.358  13.315  68.026  1.00  0.00    -0.243 A  
HETATM   10  C   UNL     1     -11.025  14.598  69.998  1.00  0.00    -0.149 A  
HETATM   11  C   UNL     1      -9.286  14.206  67.855  1.00  0.00    -0.204 A  
HETATM   12  C   UNL     1      -9.938  15.450  69.826  1.00  0.00    -0.251 A  
HETATM   13  C   UNL     1      -9.080  15.265  68.745  1.00  0.00    -0.200 A  
HETATM   14  C   UNL     1     -11.241  13.547  69.101  1.00  0.00    -0.310 A  
ENDBRANCH   8   9
BRANCH   8  15
HETATM   15  C   UNL     1     -11.265  12.263  65.854  1.00  0.00    -0.381 A  
HETATM   16  C   UNL     1     -11.438  11.802  63.465  1.00  0.00    -0.489 A  
HETATM   17  C   UNL     1     -12.624  13.679  64.407  1.00  0.00    -0.220 A  
HETATM   18  C   UNL     1     -12.270  12.908  63.304  1.00  0.00    -0.481 A  
HETATM   19  C   UNL     1     -12.123  13.362  65.670  1.00  0.00    -0.476 A  
HETATM   20  C   UNL     1     -10.949  11.473  64.732  1.00  0.00    -0.338 A  
ENDBRANCH   8  15
ENDBRANCH   4   8
ENDBRANCH   1   2
BRANCH   1  21
HETATM   21  C   UNL     1      -7.548   7.290  69.635  1.00  0.00    -0.099 C  
HETATM   22  C   UNL     1      -6.776   6.195  69.543  1.00  0.00    -0.052 C  
BRANCH  22  23
HETATM   23  C   UNL     1      -6.408   5.417  70.719  1.00  0.00    -0.031 A  
HETATM   24  C   UNL     1      -6.833   5.845  71.982  1.00  0.00    -0.076 A  
HETATM   25  C   UNL     1      -6.494   5.114  73.120  1.00  0.00    -0.061 A  
HETATM   26  C   UNL     1      -5.636   4.258  70.603  1.00  0.00    -0.012 A  
HETATM   27  C   UNL     1      -5.299   3.528  71.744  1.00  0.00    -0.004 A  
HETATM   28  C   UNL     1      -5.730   3.954  73.000  1.00  0.00    -0.003 A  
ENDBRANCH  22  23
ENDBRANCH   1  21
TORSDOF 6
ENDMDL
MODEL      128
REMARK 921   NORMALIZED FREE ENERGY PREDICTED BY IDOCK:   -3.93 KCAL/MOL
REMARK 922        TOTAL FREE ENERGY PREDICTED BY IDOCK:   -5.25 KCAL/MOL
REMARK 923 INTER-LIGAND FREE ENERGY PREDICTED BY IDOCK:   -5.33 KCAL/MOL
REMARK 924 INTRA-LIGAND FREE ENERGY PREDICTED BY IDOCK:    0.08 KCAL/MOL
REMARK 927      BINDING AFFINITY PREDICTED BY RF-SCORE:    0.00 PKD
ROOT
HETATM    1  C   UNL     1      -8.256   3.633  70.345  1.00  0.00    -0.056 C  
ENDROOT
BRANCH   1   2
HETATM    2  N   UNL     1      -8.273   5.016  70.847  1.00  0.00    -0.105 NA 
HETATM    3  C   UNL     1     -10.729   5.550  70.414  1.00  0.00    -0.251 C  
HETATM    4  N   UNL     1     -10.435   6.588  69.390  1.00  0.00    -0.203 NA 
HETATM    5  C   UNL     1      -7.987   6.007  69.784  1.00  0.00    -0.106 C  
HETATM    6  C   UNL     1      -9.594   5.315  71.444  1.00  0.00    -0.158 C  
HETATM    7  C   UNL     1      -9.138   6.227  68.773  1.00  0.00    -0.127 C  
BRANCH   4   8
HETATM    8  C   UNL     1     -10.434   7.972  69.973  1.00  0.00    -0.228 C  
BRANCH   8   9
HETATM    9  C   UNL     1      -9.959   9.036  68.969  1.00  0.00    -0.191 A  
HETATM   10  C   UNL     1     -10.425  10.383  66.981  1.00  0.00    -0.309 A  
HETATM   11  C   UNL     1      -8.839   9.848  69.210  1.00  0.00    -0.178 A  
HETATM   12  C   UNL     1      -9.327  11.192  67.258  1.00  0.00    -0.170 A  
HETATM   13  C   UNL     1      -8.524  10.913  68.361  1.00  0.00    -0.141 A  
HETATM   14  C   UNL     1     -10.733   9.308  67.821  1.00  0.00    -0.270 A  
ENDBRANCH   8   9
BRANCH   8  15
HETATM   15  C   UNL     1     -11.787   8.292  70.629  1.00  0.00    -0.092 A  
HETATM   16  C   UNL     1     -13.109   9.792  72.026  1.00  0.00    -0.546 A  
HETATM   17  C   UNL     1     -13.882   7.543  71.626  1.00  0.00    -0.486 A  
HETATM   18  C   UNL     1     -14.049   8.785  72.233  1.00  0.00    -0.511 A  
HETATM   19  C   UNL     1     -12.759   7.297  70.834  1.00  0.00    -0.202 A  
HETATM   20  C   UNL     1     -11.992   9.554  71.220  1.00  0.00    -0.445 A  
ENDBRANCH   8  15
ENDBRANCH   4   8
ENDBRANCH   1   2
BRANCH   1  21
HETATM   21  C   UNL     1      -7.825   3.543  68.916  1.00  0.00    -0.052 C  
HETATM   22  C   UNL     1      -8.456   2.775  68.012  1.00  0.00    -0.103 C  
BRANCH  22  23
HETATM   23  C   UNL     1      -7.999   2.684  66.632  1.00  0.00    -0.080 A  
HETATM   24  C   UNL     1      -6.758   3.232  66.286  1.00  0.00    -0.048 A  
HETATM   25  C   UNL     1      -6.301   3.155  64.971  1.00  0.00    -0.024 A  
HETATM   26  C   UNL     1      -8.781   2.065  65.654  1.00  0.00    -0.119 A  
HETATM   27  C   UNL     1      -8.320   1.988  64.338  1.00  0.00    -0.082 A  
HETATM   28  C   UNL     1      -7.081   2.529  63.998  1.00  0.00    -0.045 A  
ENDBRANCH  22  23
ENDBRANCH   1  21
TORSDOF 6
ENDMDL
MODEL      129
REMARK 921   NORMALIZED FREE ENERGY PREDICTED BY IDOCK:   -3.90 KCAL/MOL
REMARK 922        TOTAL FREE ENERGY PREDICTED BY IDOCK:   -5.21 KCAL/MOL
REMARK 923 INTER-LIGAND FREE ENERGY PREDICTED BY IDOCK:   -4.31 KCAL/MOL
REMARK 924 INTRA-LIGAND FREE ENERGY PREDICTED BY IDOCK:   -0.90 KCAL/MOL
REMARK 927      BINDING AFFINITY PREDICTED BY RF-SCORE:    0.00 PKD
ROOT
HETATM    1  C   UNL     1      -9.301   6.432  66.461  1.00  0.00    -0.155 C  
ENDROOT
BRANCH   1   2
HETATM    2  N   UNL     1      -8.568   5.663  67.479  1.00  0.00    -0.109 NA 
HETATM    3  C   UNL     1     -10.234   5.878  69.397  1.00  0.00    -0.221 C  
HETATM    4  N   UNL     1      -9.318   6.685  70.247  1.00  0.00    -0.159 NA 
HETATM    5  C   UNL     1      -7.681   6.517  68.304  1.00  0.00    -0.105 C  
HETATM    6  C   UNL     1      -9.526   4.964  68.365  1.00  0.00    -0.139 C  
HETATM    7  C   UNL     1      -8.413   7.416  69.329  1.00  0.00    -0.136 C  
BRANCH   4   8
HETATM    8  C   UNL     1      -8.576   5.838  71.240  1.00  0.00    -0.129 C  
BRANCH   8   9
HETATM    9  C   UNL     1      -7.756   6.675  72.236  1.00  0.00    -0.096 A  
HETATM   10  C   UNL     1      -7.668   8.541  73.815  1.00  0.00    -0.092 A  
HETATM   11  C   UNL     1      -6.512   6.248  72.730  1.00  0.00    -0.063 A  
HETATM   12  C   UNL     1      -6.450   8.081  74.308  1.00  0.00    -0.127 A  
HETATM   13  C   UNL     1      -5.864   6.946  73.753  1.00  0.00    -0.058 A  
HETATM   14  C   UNL     1      -8.310   7.852  72.781  1.00  0.00    -0.203 A  
ENDBRANCH   8   9
BRANCH   8  15
HETATM   15  C   UNL     1      -9.516   4.820  71.905  1.00  0.00    -0.192 A  
HETATM   16  C   UNL     1     -11.126   4.332  73.671  1.00  0.00    -0.351 A  
HETATM   17  C   UNL     1     -10.063   2.517  72.491  1.00  0.00    -0.232 A  
HETATM   18  C   UNL     1     -10.936   2.965  73.478  1.00  0.00    -0.320 A  
HETATM   19  C   UNL     1      -9.356   3.436  71.714  1.00  0.00    -0.200 A  
HETATM   20  C   UNL     1     -10.432   5.254  72.882  1.00  0.00    -0.253 A  
ENDBRANCH   8  15
ENDBRANCH   4   8
ENDBRANCH   1   2
BRANCH   1  21
HETATM   21  C   UNL     1      -8.393   7.159  65.521  1.00  0.00    -0.132 C  
HETATM   22  C   UNL     1      -8.410   8.494  65.379  1.00  0.00    -0.164 C  
BRANCH  22  23
HETATM   23  C   UNL     1      -7.534   9.174  64.435  1.00  0.00    -0.101 A  
HETATM   24  C   UNL     1      -6.147   9.066  64.590  1.00  0.00    -0.066 A  
HETATM   25  C   UNL     1      -5.290   9.707  63.696  1.00  0.00    -0.073 A  
HETATM   26  C   UNL     1      -8.057   9.934  63.385  1.00  0.00    -0.156 A  
HETATM   27  C   UNL     1      -7.197  10.575  62.491  1.00  0.00    -0.138 A  
HETATM   28  C   UNL     1      -5.816  10.459  62.646  1.00  0.00    -0.137 A  
ENDBRANCH  22  23
ENDBRANCH   1  21
TORSDOF 6
ENDMDL
MODEL      130
REMARK 921   NORMALIZED FREE ENERGY PREDICTED BY IDOCK:   -3.88 KCAL/MOL
REMARK 922        TOTAL FREE ENERGY PREDICTED BY IDOCK:   -5.18 KCAL/MOL
REMARK 923 INTER-LIGAND FREE ENERGY PREDICTED BY IDOCK:   -7.91 KCAL/MOL
REMARK 924 INTRA-LIGAND FREE ENERGY PREDICTED BY IDOCK:    2.73 KCAL/MOL
REMARK 927      BINDING AFFINITY PREDICTED BY RF-SCORE:    0.00 PKD
ROOT
HETATM    1  C   UNL     1     -10.088  11.943  65.285  1.00  0.00    -0.257 C  
ENDROOT
BRANCH   1   2
HETATM    2  N   UNL     1     -10.071  13.313  65.822  1.00  0.00    -0.292 NA 
HETATM    3  C   UNL     1     -10.421  12.763  68.288  1.00  0.00    -0.241 C  
HETATM    4  N   UNL     1     -11.753  13.421  68.358  1.00  0.00    -0.334 NA 
HETATM    5  C   UNL     1     -11.424  13.914  65.882  1.00  0.00    -0.325 C  
HETATM    6  C   UNL     1      -9.484  13.311  67.181  1.00  0.00    -0.240 C  
HETATM    7  C   UNL     1     -12.337  13.354  66.998  1.00  0.00    -0.177 C  
BRANCH   4   8
HETATM    8  C   UNL     1     -11.662  14.826  68.881  1.00  0.00    -0.309 C  
BRANCH   8   9
HETATM    9  C   UNL     1     -12.147  14.948  70.336  1.00  0.00    -0.386 A  
HETATM   10  C   UNL     1     -13.253  13.918  72.259  1.00  0.00    -0.568 A  
HETATM   11  C   UNL     1     -11.725  15.986  71.182  1.00  0.00    -0.487 A  
HETATM   12  C   UNL     1     -12.797  14.943  73.084  1.00  0.00    -0.619 A  
HETATM   13  C   UNL     1     -12.050  15.985  72.542  1.00  0.00    -0.635 A  
HETATM   14  C   UNL     1     -12.941  13.925  70.895  1.00  0.00    -0.316 A  
ENDBRANCH   8   9
BRANCH   8  15
HETATM   15  C   UNL     1     -10.262  15.413  68.638  1.00  0.00    -0.217 A  
HETATM   16  C   UNL     1      -8.025  15.859  69.498  1.00  0.00    -0.098 A  
HETATM   17  C   UNL     1      -8.818  17.055  67.561  1.00  0.00    -0.214 A  
HETATM   18  C   UNL     1      -7.823  16.812  68.503  1.00  0.00    -0.229 A  
HETATM   19  C   UNL     1     -10.029  16.364  67.629  1.00  0.00    -0.252 A  
HETATM   20  C   UNL     1      -9.229  15.154  69.559  1.00  0.00    -0.139 A  
ENDBRANCH   8  15
ENDBRANCH   4   8
ENDBRANCH   1   2
BRANCH   1  21
HETATM   21  C   UNL     1     -10.079  10.902  66.359  1.00  0.00    -0.280 C  
HETATM   22  C   UNL     1      -9.564   9.675  66.178  1.00  0.00    -0.295 C  
BRANCH  22  23
HETATM   23  C   UNL     1      -9.592   8.670  67.233  1.00  0.00    -0.216 A  
HETATM   24  C   UNL     1     -10.569   8.755  68.231  1.00  0.00    -0.194 A  
HETATM   25  C   UNL     1     -10.615   7.802  69.249  1.00  0.00    -0.199 A  
HETATM   26  C   UNL     1      -8.659   7.631  67.262  1.00  0.00    -0.121 A  
HETATM   27  C   UNL     1      -8.708   6.677  68.281  1.00  0.00    -0.118 A  
HETATM   28  C   UNL     1      -9.686   6.762  69.271  1.00  0.00    -0.153 A  
ENDBRANCH  22  23
ENDBRANCH   1  21
TORSDOF 6
ENDMDL
MODEL      131
REMARK 921   NORMALIZED FREE ENERGY PREDICTED BY IDOCK:   -3.86 KCAL/MOL
REMARK 922        TOTAL FREE ENERGY PREDICTED BY IDOCK:   -5.16 KCAL/MOL
REMARK 923 INTER-LIGAND FREE ENERGY PREDICTED BY IDOCK:   -6.52 KCAL/MOL
REMARK 924 INTRA-LIGAND FREE ENERGY PREDICTED BY IDOCK:    1.36 KCAL/MOL
REMARK 927      BINDING AFFINITY PREDICTED BY RF-SCORE:    0.00 PKD
ROOT
HETATM    1  C   UNL     1     -10.572  17.026  68.080  1.00  0.00    -0.369 C  
ENDROOT
BRANCH   1   2
HETATM    2  N   UNL     1     -10.042  15.685  68.375  1.00  0.00    -0.212 NA 
HETATM    3  C   UNL     1      -9.358  15.016  66.012  1.00  0.00    -0.269 C  
HETATM    4  N   UNL     1     -10.355  13.916  65.917  1.00  0.00    -0.302 NA 
HETATM    5  C   UNL     1     -11.074  14.629  68.254  1.00  0.00    -0.271 C  
HETATM    6  C   UNL     1      -8.924  15.376  67.455  1.00  0.00    -0.183 C  
HETATM    7  C   UNL     1     -11.485  14.285  66.802  1.00  0.00    -0.367 C  
BRANCH   4   8
HETATM    8  C   UNL     1      -9.760  12.582  66.263  1.00  0.00    -0.254 C  
BRANCH   8   9
HETATM    9  C   UNL     1     -10.312  12.011  67.580  1.00  0.00    -0.217 A  
HETATM   10  C   UNL     1     -12.158  10.943  68.778  1.00  0.00    -0.124 A  
HETATM   11  C   UNL     1      -9.488  11.738  68.683  1.00  0.00    -0.107 A  
HETATM   12  C   UNL     1     -11.313  10.657  69.847  1.00  0.00    -0.386 A  
HETATM   13  C   UNL     1      -9.984  11.071  69.807  1.00  0.00     0.367 A  
HETATM   14  C   UNL     1     -11.666  11.623  67.659  1.00  0.00    -0.300 A  
ENDBRANCH   8   9
BRANCH   8  15
HETATM   15  C   UNL     1      -9.856  11.613  65.073  1.00  0.00    -0.280 A  
HETATM   16  C   UNL     1      -8.816   9.851  63.747  1.00  0.00    -0.254 A  
HETATM   17  C   UNL     1     -10.678  11.085  62.840  1.00  0.00     0.296 A  
HETATM   18  C   UNL     1      -9.701  10.103  62.701  1.00  0.00    -0.073 A  
HETATM   19  C   UNL     1     -10.753  11.836  64.013  1.00  0.00    -0.434 A  
HETATM   20  C   UNL     1      -8.899  10.590  64.929  1.00  0.00    -0.207 A  
ENDBRANCH   8  15
ENDBRANCH   4   8
ENDBRANCH   1   2
BRANCH   1  21
HETATM   21  C   UNL     1      -9.559  18.106  68.285  1.00  0.00    -0.324 C  
HETATM   22  C   UNL     1      -8.535  18.312  67.440  1.00  0.00    -0.249 C  
BRANCH  22  23
HETATM   23  C   UNL     1      -7.545  19.355  67.677  1.00  0.00    -0.292 A  
HETATM   24  C   UNL     1      -7.302  20.306  66.679  1.00  0.00    -0.316 A  
HETATM   25  C   UNL     1      -6.361  21.314  66.886  1.00  0.00    -0.391 A  
HETATM   26  C   UNL     1      -6.836  19.415  68.880  1.00  0.00    -0.370 A  
HETATM   27  C   UNL     1      -5.895  20.425  69.085  1.00  0.00    -0.375 A  
HETATM   28  C   UNL     1      -5.660  21.374  68.091  1.00  0.00    -0.258 A  
ENDBRANCH  22  23
ENDBRANCH   1  21
TORSDOF 6
ENDMDL
MODEL      132
REMARK 921   NORMALIZED FREE ENERGY PREDICTED BY IDOCK:   -3.86 KCAL/MOL
REMARK 922        TOTAL FREE ENERGY PREDICTED BY IDOCK:   -5.15 KCAL/MOL
REMARK 923 INTER-LIGAND FREE ENERGY PREDICTED BY IDOCK:   -4.58 KCAL/MOL
REMARK 924 INTRA-LIGAND FREE ENERGY PREDICTED BY IDOCK:   -0.57 KCAL/MOL
REMARK 927      BINDING AFFINITY PREDICTED BY RF-SCORE:    0.00 PKD
ROOT
HETATM    1  C   UNL     1     -10.030  15.847  67.735  1.00  0.00    -0.229 C  
ENDROOT
BRANCH   1   2
HETATM    2  N   UNL     1      -9.221  14.687  68.141  1.00  0.00    -0.186 NA 
HETATM    3  C   UNL     1      -9.170  13.456  65.908  1.00  0.00     0.208 C  
HETATM    4  N   UNL     1      -9.953  12.294  66.406  1.00  0.00    -0.223 NA 
HETATM    5  C   UNL     1     -10.052  13.556  68.616  1.00  0.00    -0.166 C  
HETATM    6  C   UNL     1      -8.392  14.232  67.001  1.00  0.00    -0.131 C  
HETATM    7  C   UNL     1     -10.813  12.795  67.504  1.00  0.00    -0.239 C  
BRANCH   4   8
HETATM    8  C   UNL     1      -9.069  11.159  66.835  1.00  0.00    -0.159 C  
BRANCH   8   9
HETATM    9  C   UNL     1      -9.804  10.138  67.722  1.00  0.00    -0.190 A  
HETATM   10  C   UNL     1     -11.020   8.024  67.899  1.00  0.00     0.087 A  
HETATM   11  C   UNL     1      -9.716  10.162  69.123  1.00  0.00    -0.225 A  
HETATM   12  C   UNL     1     -10.893   8.055  69.285  1.00  0.00    -0.072 A  
HETATM   13  C   UNL     1     -10.259   9.132  69.897  1.00  0.00    -0.222 A  
HETATM   14  C   UNL     1     -10.490   9.061  67.124  1.00  0.00    -0.333 A  
ENDBRANCH   8   9
BRANCH   8  15
HETATM   15  C   UNL     1      -8.352  10.534  65.627  1.00  0.00    -0.167 A  
HETATM   16  C   UNL     1      -6.293   9.644  64.673  1.00  0.00    -0.091 A  
HETATM   17  C   UNL     1      -8.102  10.288  63.215  1.00  0.00    -0.157 A  
HETATM   18  C   UNL     1      -6.812   9.795  63.389  1.00  0.00    -0.119 A  
HETATM   19  C   UNL     1      -8.864  10.658  64.323  1.00  0.00    -0.175 A  
HETATM   20  C   UNL     1      -7.060   9.998  65.785  1.00  0.00    -0.117 A  
ENDBRANCH   8  15
ENDBRANCH   4   8
ENDBRANCH   1   2
BRANCH   1  21
HETATM   21  C   UNL     1      -9.214  16.926  67.098  1.00  0.00    -0.238 C  
HETATM   22  C   UNL     1      -8.384  17.719  67.796  1.00  0.00    -0.235 C  
BRANCH  22  23
HETATM   23  C   UNL     1      -7.621  18.781  67.154  1.00  0.00    -0.239 A  
HETATM   24  C   UNL     1      -6.317  19.044  67.589  1.00  0.00    -0.212 A  
HETATM   25  C   UNL     1      -5.568  20.055  66.988  1.00  0.00    -0.181 A  
HETATM   26  C   UNL     1      -8.173  19.540  66.119  1.00  0.00    -0.336 A  
HETATM   27  C   UNL     1      -7.421  20.551  65.518  1.00  0.00     0.035 A  
HETATM   28  C   UNL     1      -6.120  20.806  65.950  1.00  0.00    -0.270 A  
ENDBRANCH  22  23
ENDBRANCH   1  21
TORSDOF 6
ENDMDL
MODEL      133
REMARK 921   NORMALIZED FREE ENERGY PREDICTED BY IDOCK:   -3.83 KCAL/MOL
REMARK 922        TOTAL FREE ENERGY PREDICTED BY IDOCK:   -5.11 KCAL/MOL
REMARK 923 INTER-LIGAND FREE ENERGY PREDICTED BY IDOCK:   -8.49 KCAL/MOL
REMARK 924 INTRA-LIGAND FREE ENERGY PREDICTED BY IDOCK:    3.38 KCAL/MOL
REMARK 927      BINDING AFFINITY PREDICTED BY RF-SCORE:    0.00 PKD
ROOT
HETATM    1  C   UNL     1     -10.333  14.771  67.525  1.00  0.00    -0.238 C  
ENDROOT
BRANCH   1   2
HETATM    2  N   UNL     1      -9.584  13.527  67.288  1.00  0.00    -0.228 NA 
HETATM    3  C   UNL     1     -11.464  12.133  66.275  1.00  0.00    -0.374 C  
HETATM    4  N   UNL     1     -11.498  11.162  67.401  1.00  0.00    -0.512 NA 
HETATM    5  C   UNL     1      -9.663  12.592  68.435  1.00  0.00    -0.189 C  
HETATM    6  C   UNL     1     -10.104  12.851  66.078  1.00  0.00    -0.285 C  
HETATM    7  C   UNL     1     -11.028  11.885  68.606  1.00  0.00    -0.228 C  
BRANCH   4   8
HETATM    8  C   UNL     1     -10.688   9.932  67.110  1.00  0.00    -0.207 C  
BRANCH   8   9
HETATM    9  C   UNL     1      -9.701  10.134  65.947  1.00  0.00    -0.292 A  
HETATM   10  C   UNL     1      -7.385  10.220  65.169  1.00  0.00    -0.127 A  
HETATM   11  C   UNL     1     -10.113  10.121  64.605  1.00  0.00    -0.210 A  
HETATM   12  C   UNL     1      -7.816  10.176  63.846  1.00  0.00    -0.149 A  
HETATM   13  C   UNL     1      -9.179  10.145  63.564  1.00  0.00    -0.322 A  
HETATM   14  C   UNL     1      -8.318  10.211  66.211  1.00  0.00    -0.130 A  
ENDBRANCH   8   9
BRANCH   8  15
HETATM   15  C   UNL     1     -10.038   9.387  68.392  1.00  0.00    -0.208 A  
HETATM   16  C   UNL     1      -8.166   8.218  69.431  1.00  0.00    -0.117 A  
HETATM   17  C   UNL     1     -10.246   8.442  70.630  1.00  0.00    -0.222 A  
HETATM   18  C   UNL     1      -8.940   7.969  70.563  1.00  0.00    -0.152 A  
HETATM   19  C   UNL     1     -10.792   9.142  69.553  1.00  0.00    -0.194 A  
HETATM   20  C   UNL     1      -8.705   8.933  68.358  1.00  0.00    -0.134 A  
ENDBRANCH   8  15
ENDBRANCH   4   8
ENDBRANCH   1   2
BRANCH   1  21
HETATM   21  C   UNL     1     -10.832  14.885  68.931  1.00  0.00    -0.253 C  
HETATM   22  C   UNL     1     -12.007  15.458  69.241  1.00  0.00    -0.335 C  
BRANCH  22  23
HETATM   23  C   UNL     1     -12.457  15.582  70.621  1.00  0.00    -0.483 A  
HETATM   24  C   UNL     1     -11.579  16.095  71.583  1.00  0.00    -0.503 A  
HETATM   25  C   UNL     1     -11.991  16.223  72.909  1.00  0.00    -0.615 A  
HETATM   26  C   UNL     1     -13.746  15.192  70.996  1.00  0.00    -0.450 A  
HETATM   27  C   UNL     1     -14.156  15.322  72.324  1.00  0.00    -0.651 A  
HETATM   28  C   UNL     1     -13.280  15.840  73.278  1.00  0.00    -0.687 A  
ENDBRANCH  22  23
ENDBRANCH   1  21
TORSDOF 6
ENDMDL
MODEL      134
REMARK 921   NORMALIZED FREE ENERGY PREDICTED BY IDOCK:   -3.82 KCAL/MOL
REMARK 922        TOTAL FREE ENERGY PREDICTED BY IDOCK:   -5.10 KCAL/MOL
REMARK 923 INTER-LIGAND FREE ENERGY PREDICTED BY IDOCK:   -4.15 KCAL/MOL
REMARK 924 INTRA-LIGAND FREE ENERGY PREDICTED BY IDOCK:   -0.95 KCAL/MOL
REMARK 927      BINDING AFFINITY PREDICTED BY RF-SCORE:    0.00 PKD
ROOT
HETATM    1  C   UNL     1      -9.800   9.981  68.322  1.00  0.00    -0.146 C  
ENDROOT
BRANCH   1   2
HETATM    2  N   UNL     1     -10.002   8.524  68.274  1.00  0.00    -0.177 NA 
HETATM    3  C   UNL     1      -8.052   7.818  69.757  1.00  0.00    -0.117 C  
HETATM    4  N   UNL     1      -7.326   7.124  68.660  1.00  0.00    -0.094 NA 
HETATM    5  C   UNL     1      -9.246   7.885  67.171  1.00  0.00    -0.146 C  
HETATM    6  C   UNL     1      -9.586   7.918  69.559  1.00  0.00    -0.160 C  
HETATM    7  C   UNL     1      -7.718   7.792  67.397  1.00  0.00    -0.113 C  
BRANCH   4   8
HETATM    8  C   UNL     1      -7.601   5.648  68.645  1.00  0.00    -0.088 C  
BRANCH   8   9
HETATM    9  C   UNL     1      -6.972   4.942  67.431  1.00  0.00    -0.061 A  
HETATM   10  C   UNL     1      -7.277   3.579  65.423  1.00  0.00    -0.067 A  
HETATM   11  C   UNL     1      -5.658   5.201  67.011  1.00  0.00    -0.013 A  
HETATM   12  C   UNL     1      -5.980   3.875  65.012  1.00  0.00    -0.023 A  
HETATM   13  C   UNL     1      -5.166   4.670  65.814  1.00  0.00    -0.009 A  
HETATM   14  C   UNL     1      -7.766   4.098  66.626  1.00  0.00    -0.089 A  
ENDBRANCH   8   9
BRANCH   8  15
HETATM   15  C   UNL     1      -7.240   5.009  69.995  1.00  0.00    -0.058 A  
HETATM   16  C   UNL     1      -5.509   4.178  71.498  1.00  0.00    -0.007 A  
HETATM   17  C   UNL     1      -7.805   3.533  71.852  1.00  0.00    -0.062 A  
HETATM   18  C   UNL     1      -6.464   3.463  72.217  1.00  0.00    -0.014 A  
HETATM   19  C   UNL     1      -8.190   4.296  70.748  1.00  0.00    -0.079 A  
HETATM   20  C   UNL     1      -5.894   4.956  70.403  1.00  0.00    -0.017 A  
ENDBRANCH   8  15
ENDBRANCH   4   8
ENDBRANCH   1   2
BRANCH   1  21
HETATM   21  C   UNL     1     -10.259  10.670  67.076  1.00  0.00    -0.267 C  
HETATM   22  C   UNL     1     -10.888  11.856  67.091  1.00  0.00    -0.301 C  
BRANCH  22  23
HETATM   23  C   UNL     1     -11.350  12.493  65.864  1.00  0.00    -0.380 A  
HETATM   24  C   UNL     1     -12.032  11.727  64.912  1.00  0.00    -0.069 A  
HETATM   25  C   UNL     1     -12.485  12.316  63.732  1.00  0.00    -0.619 A  
HETATM   26  C   UNL     1     -11.118  13.850  65.626  1.00  0.00    -0.298 A  
HETATM   27  C   UNL     1     -11.573  14.438  64.444  1.00  0.00    -0.346 A  
HETATM   28  C   UNL     1     -12.258  13.673  63.501  1.00  0.00    -0.329 A  
ENDBRANCH  22  23
ENDBRANCH   1  21
TORSDOF 6
ENDMDL
MODEL      135
REMARK 921   NORMALIZED FREE ENERGY PREDICTED BY IDOCK:   -3.77 KCAL/MOL
REMARK 922        TOTAL FREE ENERGY PREDICTED BY IDOCK:   -5.03 KCAL/MOL
REMARK 923 INTER-LIGAND FREE ENERGY PREDICTED BY IDOCK:   -5.70 KCAL/MOL
REMARK 924 INTRA-LIGAND FREE ENERGY PREDICTED BY IDOCK:    0.68 KCAL/MOL
REMARK 927      BINDING AFFINITY PREDICTED BY RF-SCORE:    0.00 PKD
ROOT
HETATM    1  C   UNL     1     -10.557  12.889  67.562  1.00  0.00    -0.226 C  
ENDROOT
BRANCH   1   2
HETATM    2  N   UNL     1      -9.935  12.062  68.608  1.00  0.00    -0.183 NA 
HETATM    3  C   UNL     1      -9.255  10.070  67.169  1.00  0.00    -0.141 C  
HETATM    4  N   UNL     1     -10.180   9.124  67.848  1.00  0.00    -0.204 NA 
HETATM    5  C   UNL     1     -10.898  11.131  69.241  1.00  0.00    -0.229 C  
HETATM    6  C   UNL     1      -8.817  11.282  68.031  1.00  0.00    -0.148 C  
HETATM    7  C   UNL     1     -11.314   9.928  68.361  1.00  0.00     0.016 C  
BRANCH   4   8
HETATM    8  C   UNL     1      -9.493   8.337  68.926  1.00  0.00    -0.151 C  
BRANCH   8   9
HETATM    9  C   UNL     1     -10.338   8.223  70.206  1.00  0.00    -0.211 A  
HETATM   10  C   UNL     1     -11.921   6.934  71.552  1.00  0.00    -0.386 A  
HETATM   11  C   UNL     1     -10.137   9.062  71.314  1.00  0.00    -0.384 A  
HETATM   12  C   UNL     1     -11.682   7.761  72.646  1.00  0.00    -0.364 A  
HETATM   13  C   UNL     1     -10.805   8.835  72.521  1.00  0.00    -0.091 A  
HETATM   14  C   UNL     1     -11.265   7.168  70.339  1.00  0.00    -0.320 A  
ENDBRANCH   8   9
BRANCH   8  15
HETATM   15  C   UNL     1      -8.993   6.987  68.386  1.00  0.00    -0.122 A  
HETATM   16  C   UNL     1      -9.533   4.752  67.573  1.00  0.00    -0.171 A  
HETATM   17  C   UNL     1      -7.288   5.246  68.300  1.00  0.00    -0.072 A  
HETATM   18  C   UNL     1      -8.222   4.342  67.805  1.00  0.00    -0.095 A  
HETATM   19  C   UNL     1      -7.670   6.556  68.592  1.00  0.00    -0.102 A  
HETATM   20  C   UNL     1      -9.914   6.068  67.848  1.00  0.00    -0.151 A  
ENDBRANCH   8  15
ENDBRANCH   4   8
ENDBRANCH   1   2
BRANCH   1  21
HETATM   21  C   UNL     1      -9.865  14.202  67.375  1.00  0.00    -0.239 C  
HETATM   22  C   UNL     1      -8.538  14.306  67.197  1.00  0.00    -0.234 C  
BRANCH  22  23
HETATM   23  C   UNL     1      -7.886  15.599  67.044  1.00  0.00    -0.266 A  
HETATM   24  C   UNL     1      -8.567  16.636  66.397  1.00  0.00    -0.345 A  
HETATM   25  C   UNL     1      -7.962  17.883  66.243  1.00  0.00    -0.279 A  
HETATM   26  C   UNL     1      -6.593  15.815  67.530  1.00  0.00    -0.213 A  
HETATM   27  C   UNL     1      -5.989  17.064  67.374  1.00  0.00    -0.171 A  
HETATM   28  C   UNL     1      -6.674  18.097  66.734  1.00  0.00    -0.221 A  
ENDBRANCH  22  23
ENDBRANCH   1  21
TORSDOF 6
ENDMDL
MODEL      136
REMARK 921   NORMALIZED FREE ENERGY PREDICTED BY IDOCK:   -3.74 KCAL/MOL
REMARK 922        TOTAL FREE ENERGY PREDICTED BY IDOCK:   -5.00 KCAL/MOL
REMARK 923 INTER-LIGAND FREE ENERGY PREDICTED BY IDOCK:   -5.22 KCAL/MOL
REMARK 924 INTRA-LIGAND FREE ENERGY PREDICTED BY IDOCK:    0.22 KCAL/MOL
REMARK 927      BINDING AFFINITY PREDICTED BY RF-SCORE:    0.00 PKD
ROOT
HETATM    1  C   UNL     1      -6.857  14.815  68.522  1.00  0.00    -0.107 C  
ENDROOT
BRANCH   1   2
HETATM    2  N   UNL     1      -6.767  13.687  67.580  1.00  0.00    -0.172 NA 
HETATM    3  C   UNL     1      -8.653  12.251  68.522  1.00  0.00    -0.068 C  
HETATM    4  N   UNL     1      -7.748  11.152  68.951  1.00  0.00    -0.138 NA 
HETATM    5  C   UNL     1      -5.864  12.617  68.063  1.00  0.00    -0.091 C  
HETATM    6  C   UNL     1      -8.114  13.117  67.354  1.00  0.00    -0.179 C  
HETATM    7  C   UNL     1      -6.427  11.765  69.226  1.00  0.00    -0.107 C  
BRANCH   4   8
HETATM    8  C   UNL     1      -7.674  10.051  67.933  1.00  0.00    -0.090 C  
BRANCH   8   9
HETATM    9  C   UNL     1      -7.559   8.657  68.576  1.00  0.00    -0.095 A  
HETATM   10  C   UNL     1      -8.162   7.147  70.403  1.00  0.00    -0.126 A  
HETATM   11  C   UNL     1      -7.050   7.550  67.879  1.00  0.00    -0.085 A  
HETATM   12  C   UNL     1      -7.677   6.061  69.680  1.00  0.00    -0.097 A  
HETATM   13  C   UNL     1      -7.105   6.265  68.427  1.00  0.00    -0.083 A  
HETATM   14  C   UNL     1      -8.094   8.436  69.862  1.00  0.00    -0.119 A  
ENDBRANCH   8   9
BRANCH   8  15
HETATM   15  C   UNL     1      -8.814  10.173  66.909  1.00  0.00    -0.142 A  
HETATM   16  C   UNL     1      -9.524  10.817  64.666  1.00  0.00    -0.297 A  
HETATM   17  C   UNL     1     -11.172  10.534  66.404  1.00  0.00     0.270 A  
HETATM   18  C   UNL     1     -10.851  10.857  65.089  1.00  0.00    -0.133 A  
HETATM   19  C   UNL     1     -10.162  10.199  67.307  1.00  0.00    -0.273 A  
HETATM   20  C   UNL     1      -8.513  10.465  65.565  1.00  0.00    -0.171 A  
ENDBRANCH   8  15
ENDBRANCH   4   8
ENDBRANCH   1   2
BRANCH   1  21
HETATM   21  C   UNL     1      -7.492  16.025  67.915  1.00  0.00    -0.142 C  
HETATM   22  C   UNL     1      -8.558  16.636  68.457  1.00  0.00    -0.234 C  
BRANCH  22  23
HETATM   23  C   UNL     1      -9.174  17.798  67.830  1.00  0.00    -0.265 A  
HETATM   24  C   UNL     1      -8.979  19.063  68.396  1.00  0.00    -0.378 A  
HETATM   25  C   UNL     1      -9.558  20.189  67.811  1.00  0.00    -0.508 A  
HETATM   26  C   UNL     1      -9.957  17.666  66.680  1.00  0.00    -0.328 A  
HETATM   27  C   UNL     1     -10.535  18.795  66.096  1.00  0.00    -0.499 A  
HETATM   28  C   UNL     1     -10.333  20.054  66.660  1.00  0.00    -0.565 A  
ENDBRANCH  22  23
ENDBRANCH   1  21
TORSDOF 6
ENDMDL
MODEL      137
REMARK 921   NORMALIZED FREE ENERGY PREDICTED BY IDOCK:   -3.65 KCAL/MOL
REMARK 922        TOTAL FREE ENERGY PREDICTED BY IDOCK:   -4.87 KCAL/MOL
REMARK 923 INTER-LIGAND FREE ENERGY PREDICTED BY IDOCK:   -8.04 KCAL/MOL
REMARK 924 INTRA-LIGAND FREE ENERGY PREDICTED BY IDOCK:    3.17 KCAL/MOL
REMARK 927      BINDING AFFINITY PREDICTED BY RF-SCORE:    0.00 PKD
ROOT
HETATM    1  C   UNL     1      -9.087   8.313  67.646  1.00  0.00    -0.131 C  
ENDROOT
BRANCH   1   2
HETATM    2  N   UNL     1      -9.788   7.661  68.764  1.00  0.00    -0.160 NA 
HETATM    3  C   UNL     1     -10.134   9.707  70.246  1.00  0.00    -0.275 C  
HETATM    4  N   UNL     1      -9.248   9.207  71.330  1.00  0.00    -0.292 NA 
HETATM    5  C   UNL     1      -8.859   7.195  69.819  1.00  0.00    -0.142 C  
HETATM    6  C   UNL     1     -10.764   8.602  69.360  1.00  0.00    -0.158 C  
HETATM    7  C   UNL     1      -8.249   8.317  70.692  1.00  0.00    -0.112 C  
BRANCH   4   8
HETATM    8  C   UNL     1     -10.020   8.523  72.421  1.00  0.00    -0.295 C  
BRANCH   8   9
HETATM    9  C   UNL     1     -11.513   8.369  72.082  1.00  0.00    -0.442 A  
HETATM   10  C   UNL     1     -13.385   6.894  71.535  1.00  0.00    -0.303 A  
HETATM   11  C   UNL     1     -12.437   9.408  72.275  1.00  0.00    -0.338 A  
HETATM   12  C   UNL     1     -14.284   7.932  71.761  1.00  0.00    -0.555 A  
HETATM   13  C   UNL     1     -13.809   9.193  72.113  1.00  0.00    -0.508 A  
HETATM   14  C   UNL     1     -12.011   7.111  71.682  1.00  0.00    -0.353 A  
ENDBRANCH   8   9
BRANCH   8  15
HETATM   15  C   UNL     1      -9.336   7.212  72.839  1.00  0.00    -0.179 A  
HETATM   16  C   UNL     1      -7.290   6.061  73.500  1.00  0.00    -0.089 A  
HETATM   17  C   UNL     1      -9.184   4.781  72.733  1.00  0.00    -0.143 A  
HETATM   18  C   UNL     1      -7.871   4.833  73.191  1.00  0.00    -0.096 A  
HETATM   19  C   UNL     1      -9.909   5.960  72.554  1.00  0.00    -0.179 A  
HETATM   20  C   UNL     1      -8.020   7.241  73.338  1.00  0.00    -0.127 A  
ENDBRANCH   8  15
ENDBRANCH   4   8
ENDBRANCH   1   2
BRANCH   1  21
HETATM   21  C   UNL     1      -9.979   9.212  66.850  1.00  0.00    -0.304 C  
HETATM   22  C   UNL     1      -9.525  10.290  66.192  1.00  0.00    -0.229 C  
BRANCH  22  23
HETATM   23  C   UNL     1     -10.420  11.165  65.446  1.00  0.00    -0.321 A  
HETATM   24  C   UNL     1     -10.344  11.189  64.048  1.00  0.00    -0.437 A  
HETATM   25  C   UNL     1     -11.193  12.018  63.315  1.00  0.00    -0.403 A  
HETATM   26  C   UNL     1     -11.345  11.979  66.104  1.00  0.00    -0.407 A  
HETATM   27  C   UNL     1     -12.194  12.807  65.368  1.00  0.00    -0.532 A  
HETATM   28  C   UNL     1     -12.120  12.823  63.975  1.00  0.00    -0.533 A  
ENDBRANCH  22  23
ENDBRANCH   1  21
TORSDOF 6
ENDMDL
MODEL      138
REMARK 921   NORMALIZED FREE ENERGY PREDICTED BY IDOCK:   -3.64 KCAL/MOL
REMARK 922        TOTAL FREE ENERGY PREDICTED BY IDOCK:   -4.86 KCAL/MOL
REMARK 923 INTER-LIGAND FREE ENERGY PREDICTED BY IDOCK:   -8.41 KCAL/MOL
REMARK 924 INTRA-LIGAND FREE ENERGY PREDICTED BY IDOCK:    3.55 KCAL/MOL
REMARK 927      BINDING AFFINITY PREDICTED BY RF-SCORE:    0.00 PKD
ROOT
HETATM    1  C   UNL     1     -12.102  13.258  70.031  1.00  0.00    -0.315 C  
ENDROOT
BRANCH   1   2
HETATM    2  N   UNL     1     -11.062  13.203  68.992  1.00  0.00    -0.249 NA 
HETATM    3  C   UNL     1     -11.063  15.662  68.318  1.00  0.00    -0.336 C  
HETATM    4  N   UNL     1     -11.569  15.399  66.944  1.00  0.00    -0.081 NA 
HETATM    5  C   UNL     1     -11.622  12.951  67.643  1.00  0.00    -0.355 C  
HETATM    6  C   UNL     1     -10.307  14.477  68.970  1.00  0.00    -0.223 C  
HETATM    7  C   UNL     1     -12.367  14.152  67.013  1.00  0.00    -0.218 C  
BRANCH   4   8
HETATM    8  C   UNL     1     -10.457  15.321  65.938  1.00  0.00    -0.331 C  
BRANCH   8   9
HETATM    9  C   UNL     1      -9.068  15.259  66.595  1.00  0.00    -0.312 A  
HETATM   10  C   UNL     1      -7.257  16.422  67.757  1.00  0.00    -0.155 A  
HETATM   11  C   UNL     1      -8.447  14.043  66.923  1.00  0.00    -0.102 A  
HETATM   12  C   UNL     1      -6.676  15.203  68.096  1.00  0.00    -0.139 A  
HETATM   13  C   UNL     1      -7.261  14.015  67.664  1.00  0.00    -0.190 A  
HETATM   14  C   UNL     1      -8.435  16.452  67.004  1.00  0.00    -0.226 A  
ENDBRANCH   8   9
BRANCH   8  15
HETATM   15  C   UNL     1     -10.717  14.199  64.919  1.00  0.00    -0.444 A  
HETATM   16  C   UNL     1     -12.311  13.006  63.512  1.00  0.00    -0.500 A  
HETATM   17  C   UNL     1     -10.179  12.000  64.016  1.00  0.00    -0.391 A  
HETATM   18  C   UNL     1     -11.424  11.938  63.399  1.00  0.00    -0.470 A  
HETATM   19  C   UNL     1      -9.829  13.118  64.773  1.00  0.00    -0.030 A  
HETATM   20  C   UNL     1     -11.957  14.135  64.256  1.00  0.00    -0.460 A  
ENDBRANCH   8  15
ENDBRANCH   4   8
ENDBRANCH   1   2
BRANCH   1  21
HETATM   21  C   UNL     1     -12.628  11.906  70.394  1.00  0.00    -0.153 C  
HETATM   22  C   UNL     1     -11.830  10.885  70.748  1.00  0.00    -0.424 C  
BRANCH  22  23
HETATM   23  C   UNL     1     -12.367   9.570  71.070  1.00  0.00    -0.363 A  
HETATM   24  C   UNL     1     -11.543   8.446  70.941  1.00  0.00    -0.288 A  
HETATM   25  C   UNL     1     -12.036   7.177  71.246  1.00  0.00    -0.386 A  
HETATM   26  C   UNL     1     -13.687   9.417  71.500  1.00  0.00    -0.363 A  
HETATM   27  C   UNL     1     -14.179   8.146  71.805  1.00  0.00    -0.548 A  
HETATM   28  C   UNL     1     -13.353   7.029  71.681  1.00  0.00    -0.356 A  
ENDBRANCH  22  23
ENDBRANCH   1  21
TORSDOF 6
ENDMDL
MODEL      139
REMARK 921   NORMALIZED FREE ENERGY PREDICTED BY IDOCK:   -3.62 KCAL/MOL
REMARK 922        TOTAL FREE ENERGY PREDICTED BY IDOCK:   -4.83 KCAL/MOL
REMARK 923 INTER-LIGAND FREE ENERGY PREDICTED BY IDOCK:   -6.08 KCAL/MOL
REMARK 924 INTRA-LIGAND FREE ENERGY PREDICTED BY IDOCK:    1.25 KCAL/MOL
REMARK 927      BINDING AFFINITY PREDICTED BY RF-SCORE:    0.00 PKD
ROOT
HETATM    1  C   UNL     1      -8.206  17.616  67.693  1.00  0.00    -0.224 C  
ENDROOT
BRANCH   1   2
HETATM    2  N   UNL     1      -9.400  17.011  67.082  1.00  0.00    -0.232 NA 
HETATM    3  C   UNL     1      -9.781  15.133  68.764  1.00  0.00    -0.221 C  
HETATM    4  N   UNL     1      -9.498  14.050  67.784  1.00  0.00    -0.203 NA 
HETATM    5  C   UNL     1      -9.060  15.932  66.125  1.00  0.00    -0.350 C  
HETATM    6  C   UNL     1     -10.279  16.461  68.139  1.00  0.00    -0.262 C  
HETATM    7  C   UNL     1      -8.571  14.616  66.776  1.00  0.00    -0.162 C  
BRANCH   4   8
HETATM    8  C   UNL     1     -10.754  13.499  67.173  1.00  0.00    -0.279 C  
BRANCH   8   9
HETATM    9  C   UNL     1     -10.528  12.948  65.754  1.00  0.00    -0.293 A  
HETATM   10  C   UNL     1      -9.445  11.304  64.304  1.00  0.00    -0.203 A  
HETATM   11  C   UNL     1     -11.344  13.311  64.670  1.00  0.00    -0.372 A  
HETATM   12  C   UNL     1     -10.286  11.660  63.253  1.00  0.00    -0.445 A  
HETATM   13  C   UNL     1     -11.221  12.676  63.431  1.00  0.00    -0.404 A  
HETATM   14  C   UNL     1      -9.557  11.948  65.540  1.00  0.00    -0.200 A  
ENDBRANCH   8   9
BRANCH   8  15
HETATM   15  C   UNL     1     -11.440  12.507  68.126  1.00  0.00    -0.368 A  
HETATM   16  C   UNL     1     -12.446  12.089  70.307  1.00  0.00    -0.176 A  
HETATM   17  C   UNL     1     -11.757  10.230  68.935  1.00  0.00    -0.057 A  
HETATM   18  C   UNL     1     -12.303  10.716  70.119  1.00  0.00    -0.370 A  
HETATM   19  C   UNL     1     -11.325  11.117  67.948  1.00  0.00    -0.378 A  
HETATM   20  C   UNL     1     -12.030  12.979  69.314  1.00  0.00    -0.331 A  
ENDBRANCH   8  15
ENDBRANCH   4   8
ENDBRANCH   1   2
BRANCH   1  21
HETATM   21  C   UNL     1      -7.724  16.860  68.890  1.00  0.00    -0.237 C  
HETATM   22  C   UNL     1      -6.577  16.162  68.896  1.00  0.00    -0.138 C  
BRANCH  22  23
HETATM   23  C   UNL     1      -6.143  15.412  70.067  1.00  0.00    -0.146 A  
HETATM   24  C   UNL     1      -6.306  14.022  70.087  1.00  0.00    -0.107 A  
HETATM   25  C   UNL     1      -5.897  13.284  71.197  1.00  0.00     0.009 A  
HETATM   26  C   UNL     1      -5.574  16.059  71.167  1.00  0.00     0.216 A  
HETATM   27  C   UNL     1      -5.163  15.318  72.277  1.00  0.00     0.063 A  
HETATM   28  C   UNL     1      -5.322  13.933  72.290  1.00  0.00    -0.208 A  
ENDBRANCH  22  23
ENDBRANCH   1  21
TORSDOF 6
ENDMDL
MODEL      140
REMARK 921   NORMALIZED FREE ENERGY PREDICTED BY IDOCK:   -3.60 KCAL/MOL
REMARK 922        TOTAL FREE ENERGY PREDICTED BY IDOCK:   -4.80 KCAL/MOL
REMARK 923 INTER-LIGAND FREE ENERGY PREDICTED BY IDOCK:   -4.53 KCAL/MOL
REMARK 924 INTRA-LIGAND FREE ENERGY PREDICTED BY IDOCK:   -0.27 KCAL/MOL
REMARK 927      BINDING AFFINITY PREDICTED BY RF-SCORE:    0.00 PKD
ROOT
HETATM    1  C   UNL     1      -5.324  14.971  67.901  1.00  0.00    -0.096 C  
ENDROOT
BRANCH   1   2
HETATM    2  N   UNL     1      -5.728  13.687  67.306  1.00  0.00    -0.280 NA 
HETATM    3  C   UNL     1      -7.845  13.282  68.669  1.00  0.00    -0.063 C  
HETATM    4  N   UNL     1      -7.304  12.080  69.357  1.00  0.00     0.125 NA 
HETATM    5  C   UNL     1      -5.171  12.525  68.038  1.00  0.00    -0.078 C  
HETATM    6  C   UNL     1      -7.205  13.585  67.290  1.00  0.00     0.013 C  
HETATM    7  C   UNL     1      -5.832  12.241  69.409  1.00  0.00    -0.092 C  
BRANCH   4   8
HETATM    8  C   UNL     1      -7.723  10.806  68.683  1.00  0.00    -0.114 C  
BRANCH   8   9
HETATM    9  C   UNL     1      -7.070   9.562  69.308  1.00  0.00    -0.058 A  
HETATM   10  C   UNL     1      -5.610   7.617  69.044  1.00  0.00    -0.022 A  
HETATM   11  C   UNL     1      -7.042   9.347  70.696  1.00  0.00    -0.127 A  
HETATM   12  C   UNL     1      -5.574   7.443  70.425  1.00  0.00    -0.024 A  
HETATM   13  C   UNL     1      -6.304   8.296  71.248  1.00  0.00    -0.038 A  
HETATM   14  C   UNL     1      -6.360   8.659  68.489  1.00  0.00    -0.054 A  
ENDBRANCH   8   9
BRANCH   8  15
HETATM   15  C   UNL     1      -9.255  10.720  68.576  1.00  0.00    -0.174 A  
HETATM   16  C   UNL     1     -11.314  11.570  67.584  1.00  0.00    -0.358 A  
HETATM   17  C   UNL     1     -11.419  10.230  69.586  1.00  0.00    -0.297 A  
HETATM   18  C   UNL     1     -12.059  10.973  68.598  1.00  0.00    -0.129 A  
HETATM   19  C   UNL     1     -10.029  10.107  69.578  1.00  0.00    -0.257 A  
HETATM   20  C   UNL     1      -9.923  11.434  67.564  1.00  0.00    -0.201 A  
ENDBRANCH   8  15
ENDBRANCH   4   8
ENDBRANCH   1   2
BRANCH   1  21
HETATM   21  C   UNL     1      -6.170  16.114  67.436  1.00  0.00    -0.200 C  
HETATM   22  C   UNL     1      -6.371  17.217  68.174  1.00  0.00    -0.155 C  
BRANCH  22  23
HETATM   23  C   UNL     1      -7.222  18.305  67.709  1.00  0.00    -0.215 A  
HETATM   24  C   UNL     1      -6.923  18.934  66.495  1.00  0.00    -0.231 A  
HETATM   25  C   UNL     1      -7.725  19.976  66.030  1.00  0.00    -0.318 A  
HETATM   26  C   UNL     1      -8.323  18.729  68.457  1.00  0.00    -0.379 A  
HETATM   27  C   UNL     1      -9.125  19.771  67.989  1.00  0.00    -0.393 A  
HETATM   28  C   UNL     1      -8.827  20.391  66.776  1.00  0.00    -0.315 A  
ENDBRANCH  22  23
ENDBRANCH   1  21
TORSDOF 6
ENDMDL
MODEL      141
REMARK 921   NORMALIZED FREE ENERGY PREDICTED BY IDOCK:   -3.56 KCAL/MOL
REMARK 922        TOTAL FREE ENERGY PREDICTED BY IDOCK:   -4.74 KCAL/MOL
REMARK 923 INTER-LIGAND FREE ENERGY PREDICTED BY IDOCK:   -8.04 KCAL/MOL
REMARK 924 INTRA-LIGAND FREE ENERGY PREDICTED BY IDOCK:    3.30 KCAL/MOL
REMARK 927      BINDING AFFINITY PREDICTED BY RF-SCORE:    0.00 PKD
ROOT
HETATM    1  C   UNL     1     -12.135  12.363  69.793  1.00  0.00    -0.223 C  
ENDROOT
BRANCH   1   2
HETATM    2  N   UNL     1     -11.014  12.410  68.840  1.00  0.00    -0.233 NA 
HETATM    3  C   UNL     1     -11.452  14.718  67.847  1.00  0.00    -0.342 C  
HETATM    4  N   UNL     1     -11.766  14.195  66.491  1.00  0.00    -0.379 NA 
HETATM    5  C   UNL     1     -11.387  11.889  67.504  1.00  0.00    -0.314 C  
HETATM    6  C   UNL     1     -10.535  13.804  68.699  1.00  0.00    -0.239 C  
HETATM    7  C   UNL     1     -12.298  12.823  66.672  1.00  0.00     0.113 C  
BRANCH   4   8
HETATM    8  C   UNL     1     -10.575  14.238  65.578  1.00  0.00    -0.340 C  
BRANCH   8   9
HETATM    9  C   UNL     1      -9.400  15.031  66.177  1.00  0.00    -0.327 A  
HETATM   10  C   UNL     1      -7.210  15.011  67.264  1.00  0.00    -0.175 A  
HETATM   11  C   UNL     1      -9.239  16.409  65.962  1.00  0.00    -0.328 A  
HETATM   12  C   UNL     1      -7.060  16.372  67.013  1.00  0.00    -0.259 A  
HETATM   13  C   UNL     1      -8.082  17.074  66.379  1.00  0.00    -0.335 A  
HETATM   14  C   UNL     1      -8.373  14.348  66.861  1.00  0.00    -0.109 A  
ENDBRANCH   8   9
BRANCH   8  15
HETATM   15  C   UNL     1     -10.196  12.826  65.101  1.00  0.00    -0.297 A  
HETATM   16  C   UNL     1      -8.697  10.912  65.279  1.00  0.00    -0.147 A  
HETATM   17  C   UNL     1     -10.109  11.144  63.339  1.00  0.00    -0.439 A  
HETATM   18  C   UNL     1      -9.130  10.446  64.040  1.00  0.00    -0.271 A  
HETATM   19  C   UNL     1     -10.635  12.326  63.863  1.00  0.00    -0.462 A  
HETATM   20  C   UNL     1      -9.234  12.086  65.814  1.00  0.00    -0.064 A  
ENDBRANCH   8  15
ENDBRANCH   4   8
ENDBRANCH   1   2
BRANCH   1  21
HETATM   21  C   UNL     1     -12.165  11.096  70.588  1.00  0.00    -0.492 C  
HETATM   22  C   UNL     1     -11.162  10.203  70.571  1.00  0.00    -0.411 C  
BRANCH  22  23
HETATM   23  C   UNL     1     -11.228   8.964  71.333  1.00  0.00    -0.382 A  
HETATM   24  C   UNL     1     -12.288   8.078  71.106  1.00  0.00    -0.234 A  
HETATM   25  C   UNL     1     -12.369   6.885  71.823  1.00  0.00    -0.401 A  
HETATM   26  C   UNL     1     -10.255   8.651  72.286  1.00  0.00    -0.372 A  
HETATM   27  C   UNL     1     -10.338   7.456  73.002  1.00  0.00    -0.356 A  
HETATM   28  C   UNL     1     -11.392   6.573  72.769  1.00  0.00    -0.221 A  
ENDBRANCH  22  23
ENDBRANCH   1  21
TORSDOF 6
ENDMDL
MODEL      142
REMARK 921   NORMALIZED FREE ENERGY PREDICTED BY IDOCK:   -3.45 KCAL/MOL
REMARK 922        TOTAL FREE ENERGY PREDICTED BY IDOCK:   -4.60 KCAL/MOL
REMARK 923 INTER-LIGAND FREE ENERGY PREDICTED BY IDOCK:   -4.39 KCAL/MOL
REMARK 924 INTRA-LIGAND FREE ENERGY PREDICTED BY IDOCK:   -0.21 KCAL/MOL
REMARK 927      BINDING AFFINITY PREDICTED BY RF-SCORE:    0.00 PKD
ROOT
HETATM    1  C   UNL     1      -5.609  10.867  68.512  1.00  0.00    -0.043 C  
ENDROOT
BRANCH   1   2
HETATM    2  N   UNL     1      -6.266  11.614  67.427  1.00  0.00    -0.086 NA 
HETATM    3  C   UNL     1      -5.631  13.976  68.149  1.00  0.00    -0.123 C  
HETATM    4  N   UNL     1      -7.033  14.383  68.434  1.00  0.00    -0.100 NA 
HETATM    5  C   UNL     1      -7.654  12.004  67.769  1.00  0.00    -0.130 C  
HETATM    6  C   UNL     1      -5.485  12.832  67.114  1.00  0.00     0.153 C  
HETATM    7  C   UNL     1      -7.772  13.152  68.801  1.00  0.00    -0.006 C  
BRANCH   4   8
HETATM    8  C   UNL     1      -7.656  15.109  67.277  1.00  0.00    -0.203 C  
BRANCH   8   9
HETATM    9  C   UNL     1      -9.136  14.741  67.074  1.00  0.00    -0.257 A  
HETATM   10  C   UNL     1     -11.466  15.010  67.768  1.00  0.00    -0.347 A  
HETATM   11  C   UNL     1      -9.595  14.087  65.920  1.00  0.00    -0.186 A  
HETATM   12  C   UNL     1     -11.897  14.386  66.601  1.00  0.00    -0.417 A  
HETATM   13  C   UNL     1     -10.962  13.908  65.687  1.00  0.00    -0.290 A  
HETATM   14  C   UNL     1     -10.098  15.177  68.009  1.00  0.00    -0.222 A  
ENDBRANCH   8   9
BRANCH   8  15
HETATM   15  C   UNL     1      -7.397  16.621  67.374  1.00  0.00    -0.189 A  
HETATM   16  C   UNL     1      -7.582  18.676  68.673  1.00  0.00    -0.341 A  
HETATM   17  C   UNL     1      -7.168  18.799  66.301  1.00  0.00    -0.279 A  
HETATM   18  C   UNL     1      -7.385  19.433  67.520  1.00  0.00    -0.261 A  
HETATM   19  C   UNL     1      -7.178  17.405  66.227  1.00  0.00    -0.346 A  
HETATM   20  C   UNL     1      -7.576  17.281  68.604  1.00  0.00    -0.260 A  
ENDBRANCH   8  15
ENDBRANCH   4   8
ENDBRANCH   1   2
BRANCH   1  21
HETATM   21  C   UNL     1      -5.697   9.385  68.329  1.00  0.00    -0.037 C  
HETATM   22  C   UNL     1      -6.638   8.800  67.569  1.00  0.00    -0.062 C  
BRANCH  22  23
HETATM   23  C   UNL     1      -6.717   7.353  67.429  1.00  0.00    -0.069 A  
HETATM   24  C   UNL     1      -5.697   6.675  66.751  1.00  0.00    -0.014 A  
HETATM   25  C   UNL     1      -5.753   5.289  66.607  1.00  0.00    -0.018 A  
HETATM   26  C   UNL     1      -7.795   6.636  67.956  1.00  0.00    -0.113 A  
HETATM   27  C   UNL     1      -7.847   5.248  67.812  1.00  0.00    -0.092 A  
HETATM   28  C   UNL     1      -6.826   4.576  67.140  1.00  0.00    -0.055 A  
ENDBRANCH  22  23
ENDBRANCH   1  21
TORSDOF 6
ENDMDL
MODEL      143
REMARK 921   NORMALIZED FREE ENERGY PREDICTED BY IDOCK:   -3.43 KCAL/MOL
REMARK 922        TOTAL FREE ENERGY PREDICTED BY IDOCK:   -4.58 KCAL/MOL
REMARK 923 INTER-LIGAND FREE ENERGY PREDICTED BY IDOCK:   -4.65 KCAL/MOL
REMARK 924 INTRA-LIGAND FREE ENERGY PREDICTED BY IDOCK:    0.07 KCAL/MOL
REMARK 927      BINDING AFFINITY PREDICTED BY RF-SCORE:    0.00 PKD
ROOT
HETATM    1  C   UNL     1      -9.244   6.808  67.317  1.00  0.00    -0.133 C  
ENDROOT
BRANCH   1   2
HETATM    2  N   UNL     1      -8.653   8.018  66.723  1.00  0.00    -0.126 NA 
HETATM    3  C   UNL     1      -9.035   9.625  68.666  1.00  0.00    -0.129 C  
HETATM    4  N   UNL     1      -9.991  10.480  67.914  1.00  0.00    -0.166 NA 
HETATM    5  C   UNL     1      -9.652   8.838  65.998  1.00  0.00    -0.226 C  
HETATM    6  C   UNL     1      -8.029   8.843  67.783  1.00  0.00    -0.102 C  
HETATM    7  C   UNL     1     -10.640   9.612  66.903  1.00  0.00    -0.171 C  
BRANCH   4   8
HETATM    8  C   UNL     1      -9.321  11.677  67.305  1.00  0.00    -0.169 C  
BRANCH   8   9
HETATM    9  C   UNL     1     -10.130  12.972  67.498  1.00  0.00    -0.218 A  
HETATM   10  C   UNL     1     -11.811  14.209  68.773  1.00  0.00    -0.384 A  
HETATM   11  C   UNL     1      -9.792  14.171  66.852  1.00  0.00    -0.265 A  
HETATM   12  C   UNL     1     -11.437  15.391  68.141  1.00  0.00    -0.352 A  
HETATM   13  C   UNL     1     -10.441  15.368  67.167  1.00  0.00    -0.290 A  
HETATM   14  C   UNL     1     -11.172  13.007  68.448  1.00  0.00    -0.304 A  
ENDBRANCH   8   9
BRANCH   8  15
HETATM   15  C   UNL     1      -7.858  11.781  67.766  1.00  0.00    -0.135 A  
HETATM   16  C   UNL     1      -6.263  12.550  69.443  1.00  0.00    -0.113 A  
HETATM   17  C   UNL     1      -5.484  11.960  67.239  1.00  0.00    -0.121 A  
HETATM   18  C   UNL     1      -5.224  12.426  68.523  1.00  0.00    -0.052 A  
HETATM   19  C   UNL     1      -6.790  11.644  66.861  1.00  0.00    -0.129 A  
HETATM   20  C   UNL     1      -7.569  12.218  69.072  1.00  0.00     0.103 A  
ENDBRANCH   8  15
ENDBRANCH   4   8
ENDBRANCH   1   2
BRANCH   1  21
HETATM   21  C   UNL     1      -9.599   5.777  66.294  1.00  0.00    -0.159 C  
HETATM   22  C   UNL     1      -8.677   5.026  65.668  1.00  0.00    -0.139 C  
BRANCH  22  23
HETATM   23  C   UNL     1      -9.048   4.047  64.656  1.00  0.00    -0.141 A  
HETATM   24  C   UNL     1     -10.403   3.827  64.381  1.00  0.00    -0.235 A  
HETATM   25  C   UNL     1     -10.779   2.895  63.414  1.00  0.00    -0.242 A  
HETATM   26  C   UNL     1      -8.074   3.325  63.962  1.00  0.00    -0.082 A  
HETATM   27  C   UNL     1      -8.453   2.393  62.993  1.00  0.00    -0.077 A  
HETATM   28  C   UNL     1      -9.804   2.181  62.718  1.00  0.00    -0.089 A  
ENDBRANCH  22  23
ENDBRANCH   1  21
TORSDOF 6
ENDMDL
MODEL      144
REMARK 921   NORMALIZED FREE ENERGY PREDICTED BY IDOCK:   -3.33 KCAL/MOL
REMARK 922        TOTAL FREE ENERGY PREDICTED BY IDOCK:   -4.44 KCAL/MOL
REMARK 923 INTER-LIGAND FREE ENERGY PREDICTED BY IDOCK:   -5.47 KCAL/MOL
REMARK 924 INTRA-LIGAND FREE ENERGY PREDICTED BY IDOCK:    1.03 KCAL/MOL
REMARK 927      BINDING AFFINITY PREDICTED BY RF-SCORE:    0.00 PKD
ROOT
HETATM    1  C   UNL     1      -8.259   6.269  66.494  1.00  0.00    -0.112 C  
ENDROOT
BRANCH   1   2
HETATM    2  N   UNL     1      -7.701   7.563  66.071  1.00  0.00    -0.091 NA 
HETATM    3  C   UNL     1      -8.748   9.038  67.868  1.00  0.00    -0.129 C  
HETATM    4  N   UNL     1      -9.593   9.797  66.907  1.00  0.00    -0.172 NA 
HETATM    5  C   UNL     1      -8.588   8.280  65.125  1.00  0.00    -0.105 C  
HETATM    6  C   UNL     1      -7.466   8.418  67.256  1.00  0.00    -0.093 C  
HETATM    7  C   UNL     1      -9.858   8.893  65.763  1.00  0.00    -0.036 C  
BRANCH   4   8
HETATM    8  C   UNL     1      -8.953  11.089  66.489  1.00  0.00    -0.173 C  
BRANCH   8   9
HETATM    9  C   UNL     1      -9.910  12.288  66.604  1.00  0.00    -0.230 A  
HETATM   10  C   UNL     1     -11.866  13.300  67.667  1.00  0.00    -0.400 A  
HETATM   11  C   UNL     1      -9.613  13.540  66.043  1.00  0.00    -0.179 A  
HETATM   12  C   UNL     1     -11.534  14.538  67.124  1.00  0.00    -0.383 A  
HETATM   13  C   UNL     1     -10.419  14.654  66.298  1.00  0.00    -0.302 A  
HETATM   14  C   UNL     1     -11.069  12.182  67.401  1.00  0.00    -0.330 A  
ENDBRANCH   8   9
BRANCH   8  15
HETATM   15  C   UNL     1      -7.608  11.292  67.207  1.00  0.00    -0.130 A  
HETATM   16  C   UNL     1      -6.397  12.190  69.124  1.00  0.00    -0.094 A  
HETATM   17  C   UNL     1      -5.193  11.610  67.117  1.00  0.00    -0.096 A  
HETATM   18  C   UNL     1      -5.201  12.115  68.414  1.00  0.00    -0.051 A  
HETATM   19  C   UNL     1      -6.386  11.206  66.517  1.00  0.00    -0.132 A  
HETATM   20  C   UNL     1      -7.591  11.770  68.531  1.00  0.00    -0.131 A  
ENDBRANCH   8  15
ENDBRANCH   4   8
ENDBRANCH   1   2
BRANCH   1  21
HETATM   21  C   UNL     1      -8.762   6.289  67.902  1.00  0.00    -0.114 C  
HETATM   22  C   UNL     1      -9.464   5.278  68.439  1.00  0.00    -0.159 C  
BRANCH  22  23
HETATM   23  C   UNL     1      -9.966   5.335  69.805  1.00  0.00    -0.306 A  
HETATM   24  C   UNL     1      -9.398   4.503  70.777  1.00  0.00    -0.218 A  
HETATM   25  C   UNL     1      -9.862   4.543  72.092  1.00  0.00    -0.237 A  
HETATM   26  C   UNL     1     -11.004   6.203  70.155  1.00  0.00    -0.426 A  
HETATM   27  C   UNL     1     -11.466   6.242  71.472  1.00  0.00    -0.351 A  
HETATM   28  C   UNL     1     -10.894   5.415  72.439  1.00  0.00    -0.297 A  
ENDBRANCH  22  23
ENDBRANCH   1  21
TORSDOF 6
ENDMDL
MODEL      145
REMARK 921   NORMALIZED FREE ENERGY PREDICTED BY IDOCK:   -3.26 KCAL/MOL
REMARK 922        TOTAL FREE ENERGY PREDICTED BY IDOCK:   -4.35 KCAL/MOL
REMARK 923 INTER-LIGAND FREE ENERGY PREDICTED BY IDOCK:   -4.79 KCAL/MOL
REMARK 924 INTRA-LIGAND FREE ENERGY PREDICTED BY IDOCK:    0.44 KCAL/MOL
REMARK 927      BINDING AFFINITY PREDICTED BY RF-SCORE:    0.00 PKD
ROOT
HETATM    1  C   UNL     1      -9.967  17.645  67.327  1.00  0.00    -0.322 C  
ENDROOT
BRANCH   1   2
HETATM    2  N   UNL     1     -10.906  16.511  67.322  1.00  0.00    -0.234 NA 
HETATM    3  C   UNL     1      -9.363  14.731  68.297  1.00  0.00    -0.199 C  
HETATM    4  N   UNL     1      -9.343  13.912  67.055  1.00  0.00    -0.242 NA 
HETATM    5  C   UNL     1     -10.836  15.724  66.069  1.00  0.00    -0.255 C  
HETATM    6  C   UNL     1     -10.621  15.620  68.469  1.00  0.00    -0.256 C  
HETATM    7  C   UNL     1      -9.573  14.841  65.925  1.00  0.00    -0.285 C  
BRANCH   4   8
HETATM    8  C   UNL     1     -10.346  12.795  67.100  1.00  0.00    -0.233 C  
BRANCH   8   9
HETATM    9  C   UNL     1     -11.193  12.709  65.819  1.00  0.00    -0.347 A  
HETATM   10  C   UNL     1     -11.394  11.964  63.498  1.00  0.00    -0.516 A  
HETATM   11  C   UNL     1     -12.570  12.983  65.810  1.00  0.00    -0.269 A  
HETATM   12  C   UNL     1     -12.762  12.215  63.524  1.00  0.00    -0.553 A  
HETATM   13  C   UNL     1     -13.346  12.742  64.673  1.00  0.00     0.521 A  
HETATM   14  C   UNL     1     -10.613  12.218  64.630  1.00  0.00    -0.338 A  
ENDBRANCH   8   9
BRANCH   8  15
HETATM   15  C   UNL     1      -9.675  11.470  67.495  1.00  0.00    -0.189 A  
HETATM   16  C   UNL     1      -7.862   9.878  67.138  1.00  0.00    -0.099 A  
HETATM   17  C   UNL     1      -9.838   9.187  68.335  1.00  0.00    -0.181 A  
HETATM   18  C   UNL     1      -8.587   8.891  67.802  1.00  0.00    -0.125 A  
HETATM   19  C   UNL     1     -10.379  10.464  68.180  1.00  0.00    -0.202 A  
HETATM   20  C   UNL     1      -8.395  11.162  66.996  1.00  0.00    -0.144 A  
ENDBRANCH   8  15
ENDBRANCH   4   8
ENDBRANCH   1   2
BRANCH   1  21
HETATM   21  C   UNL     1      -8.998  17.587  68.464  1.00  0.00    -0.279 C  
HETATM   22  C   UNL     1      -7.905  18.365  68.529  1.00  0.00    -0.325 C  
BRANCH  22  23
HETATM   23  C   UNL     1      -6.962  18.269  69.636  1.00  0.00     0.112 A  
HETATM   24  C   UNL     1      -6.761  19.382  70.460  1.00  0.00     0.301 A  
HETATM   25  C   UNL     1      -5.865  19.311  71.526  1.00  0.00    -0.017 A  
HETATM   26  C   UNL     1      -6.257  17.088  69.880  1.00  0.00    -0.132 A  
HETATM   27  C   UNL     1      -5.360  17.019  70.948  1.00  0.00    -0.123 A  
HETATM   28  C   UNL     1      -5.167  18.129  71.771  1.00  0.00     0.140 A  
ENDBRANCH  22  23
ENDBRANCH   1  21
TORSDOF 6
ENDMDL
MODEL      146
REMARK 921   NORMALIZED FREE ENERGY PREDICTED BY IDOCK:   -3.21 KCAL/MOL
REMARK 922        TOTAL FREE ENERGY PREDICTED BY IDOCK:   -4.28 KCAL/MOL
REMARK 923 INTER-LIGAND FREE ENERGY PREDICTED BY IDOCK:   -7.89 KCAL/MOL
REMARK 924 INTRA-LIGAND FREE ENERGY PREDICTED BY IDOCK:    3.61 KCAL/MOL
REMARK 927      BINDING AFFINITY PREDICTED BY RF-SCORE:    0.00 PKD
ROOT
HETATM    1  C   UNL     1      -9.445   8.652  67.004  1.00  0.00    -0.171 C  
ENDROOT
BRANCH   1   2
HETATM    2  N   UNL     1     -10.195   9.757  66.386  1.00  0.00    -0.237 NA 
HETATM    3  C   UNL     1      -8.366  11.533  66.427  1.00  0.00    -0.118 C  
HETATM    4  N   UNL     1      -9.087  12.410  67.387  1.00  0.00    -0.176 NA 
HETATM    5  C   UNL     1     -10.882  10.604  67.389  1.00  0.00    -0.296 C  
HETATM    6  C   UNL     1      -9.277  10.601  65.588  1.00  0.00    -0.196 C  
HETATM    7  C   UNL     1      -9.951  11.529  68.208  1.00  0.00    -0.202 C  
BRANCH   4   8
HETATM    8  C   UNL     1      -9.859  13.494  66.693  1.00  0.00    -0.279 C  
BRANCH   8   9
HETATM    9  C   UNL     1     -10.757  12.952  65.567  1.00  0.00    -0.301 A  
HETATM   10  C   UNL     1     -13.010  12.488  64.738  1.00  0.00    -0.115 A  
HETATM   11  C   UNL     1     -10.271  12.707  64.273  1.00  0.00    -0.358 A  
HETATM   12  C   UNL     1     -12.508  12.280  63.456  1.00  0.00    -0.642 A  
HETATM   13  C   UNL     1     -11.138  12.371  63.228  1.00  0.00    -0.347 A  
HETATM   14  C   UNL     1     -12.143  12.810  65.787  1.00  0.00    -0.505 A  
ENDBRANCH   8   9
BRANCH   8  15
HETATM   15  C   UNL     1     -10.598  14.380  67.709  1.00  0.00    -0.246 A  
HETATM   16  C   UNL     1     -10.650  16.442  69.009  1.00  0.00    -0.308 A  
HETATM   17  C   UNL     1     -12.080  14.604  69.632  1.00  0.00    -0.355 A  
HETATM   18  C   UNL     1     -11.605  15.892  69.860  1.00  0.00    -0.337 A  
HETATM   19  C   UNL     1     -11.579  13.852  68.568  1.00  0.00    -0.367 A  
HETATM   20  C   UNL     1     -10.158  15.698  67.933  1.00  0.00    -0.225 A  
ENDBRANCH   8  15
ENDBRANCH   4   8
ENDBRANCH   1   2
BRANCH   1  21
HETATM   21  C   UNL     1     -10.048   8.194  68.294  1.00  0.00    -0.230 C  
HETATM   22  C   UNL     1      -9.332   8.042  69.419  1.00  0.00    -0.155 C  
BRANCH  22  23
HETATM   23  C   UNL     1      -9.939   7.568  70.655  1.00  0.00    -0.183 A  
HETATM   24  C   UNL     1      -9.609   8.194  71.863  1.00  0.00    -0.264 A  
HETATM   25  C   UNL     1     -10.181   7.757  73.058  1.00  0.00    -0.393 A  
HETATM   26  C   UNL     1     -10.840   6.500  70.652  1.00  0.00    -0.317 A  
HETATM   27  C   UNL     1     -11.412   6.065  71.849  1.00  0.00    -0.328 A  
HETATM   28  C   UNL     1     -11.084   6.695  73.049  1.00  0.00    -0.238 A  
ENDBRANCH  22  23
ENDBRANCH   1  21
TORSDOF 6
ENDMDL
MODEL      147
REMARK 921   NORMALIZED FREE ENERGY PREDICTED BY IDOCK:   -3.06 KCAL/MOL
REMARK 922        TOTAL FREE ENERGY PREDICTED BY IDOCK:   -4.08 KCAL/MOL
REMARK 923 INTER-LIGAND FREE ENERGY PREDICTED BY IDOCK:   -4.74 KCAL/MOL
REMARK 924 INTRA-LIGAND FREE ENERGY PREDICTED BY IDOCK:    0.66 KCAL/MOL
REMARK 927      BINDING AFFINITY PREDICTED BY RF-SCORE:    0.00 PKD
ROOT
HETATM    1  C   UNL     1      -7.143  12.348  68.736  1.00  0.00    -0.098 C  
ENDROOT
BRANCH   1   2
HETATM    2  N   UNL     1      -8.426  12.953  68.345  1.00  0.00    -0.148 NA 
HETATM    3  C   UNL     1      -7.531  15.066  67.232  1.00  0.00    -0.181 C  
HETATM    4  N   UNL     1      -8.122  15.981  68.245  1.00  0.00    -0.147 NA 
HETATM    5  C   UNL     1      -8.962  13.864  69.384  1.00  0.00     0.727 C  
HETATM    6  C   UNL     1      -8.260  13.706  67.081  1.00  0.00    -0.107 C  
HETATM    7  C   UNL     1      -8.220  15.215  69.510  1.00  0.00    -0.160 C  
BRANCH   4   8
HETATM    8  C   UNL     1      -9.444  16.536  67.800  1.00  0.00    -0.222 C  
BRANCH   8   9
HETATM    9  C   UNL     1     -10.592  16.168  68.756  1.00  0.00    -0.279 A  
HETATM   10  C   UNL     1     -12.399  14.631  69.350  1.00  0.00    -0.199 A  
HETATM   11  C   UNL     1     -10.743  16.772  70.015  1.00  0.00    -0.056 A  
HETATM   12  C   UNL     1     -12.509  15.226  70.604  1.00  0.00    -0.458 A  
HETATM   13  C   UNL     1     -11.694  16.307  70.928  1.00  0.00    -0.270 A  
HETATM   14  C   UNL     1     -11.458  15.103  68.430  1.00  0.00    -0.347 A  
ENDBRANCH   8   9
BRANCH   8  15
HETATM   15  C   UNL     1      -9.337  18.041  67.505  1.00  0.00    -0.257 A  
HETATM   16  C   UNL     1      -9.960  19.924  66.086  1.00  0.00    -0.593 A  
HETATM   17  C   UNL     1      -8.064  20.120  67.564  1.00  0.00    -0.356 A  
HETATM   18  C   UNL     1      -8.894  20.667  66.590  1.00  0.00    -0.086 A  
HETATM   19  C   UNL     1      -8.280  18.817  68.015  1.00  0.00    -0.317 A  
HETATM   20  C   UNL     1     -10.189  18.625  66.549  1.00  0.00    -0.449 A  
ENDBRANCH   8  15
ENDBRANCH   4   8
ENDBRANCH   1   2
BRANCH   1  21
HETATM   21  C   UNL     1      -6.979  10.955  68.218  1.00  0.00    -0.069 C  
HETATM   22  C   UNL     1      -8.019  10.188  67.852  1.00  0.00    -0.101 C  
BRANCH  22  23
HETATM   23  C   UNL     1      -7.834   8.823  67.376  1.00  0.00    -0.098 A  
HETATM   24  C   UNL     1      -7.120   8.604  66.193  1.00  0.00    -0.084 A  
HETATM   25  C   UNL     1      -6.929   7.306  65.720  1.00  0.00    -0.061 A  
HETATM   26  C   UNL     1      -8.361   7.737  68.080  1.00  0.00    -0.124 A  
HETATM   27  C   UNL     1      -8.168   6.438  67.605  1.00  0.00    -0.118 A  
HETATM   28  C   UNL     1      -7.450   6.224  66.428  1.00  0.00    -0.086 A  
ENDBRANCH  22  23
ENDBRANCH   1  21
TORSDOF 6
ENDMDL
MODEL      148
REMARK 921   NORMALIZED FREE ENERGY PREDICTED BY IDOCK:   -3.02 KCAL/MOL
REMARK 922        TOTAL FREE ENERGY PREDICTED BY IDOCK:   -4.02 KCAL/MOL
REMARK 923 INTER-LIGAND FREE ENERGY PREDICTED BY IDOCK:   -5.11 KCAL/MOL
REMARK 924 INTRA-LIGAND FREE ENERGY PREDICTED BY IDOCK:    1.09 KCAL/MOL
REMARK 927      BINDING AFFINITY PREDICTED BY RF-SCORE:    0.00 PKD
ROOT
HETATM    1  C   UNL     1      -8.645   8.563  67.675  1.00  0.00    -0.133 C  
ENDROOT
BRANCH   1   2
HETATM    2  N   UNL     1      -8.839   8.510  69.132  1.00  0.00    -0.141 NA 
HETATM    3  C   UNL     1      -6.543   7.618  69.793  1.00  0.00    -0.039 C  
HETATM    4  N   UNL     1      -7.071   6.325  70.304  1.00  0.00    -0.072 NA 
HETATM    5  C   UNL     1      -9.353   7.197  69.587  1.00  0.00    -0.149 C  
HETATM    6  C   UNL     1      -7.557   8.790  69.818  1.00  0.00    -0.072 C  
HETATM    7  C   UNL     1      -8.319   6.046  69.557  1.00  0.00    -0.115 C  
BRANCH   4   8
HETATM    8  C   UNL     1      -7.278   6.349  71.791  1.00  0.00    -0.087 C  
BRANCH   8   9
HETATM    9  C   UNL     1      -8.763   6.459  72.180  1.00  0.00    -0.132 A  
HETATM   10  C   UNL     1     -10.812   5.348  72.920  1.00  0.00    -0.318 A  
HETATM   11  C   UNL     1      -9.378   7.691  72.450  1.00  0.00    -0.211 A  
HETATM   12  C   UNL     1     -11.389   6.581  73.209  1.00  0.00     0.100 A  
HETATM   13  C   UNL     1     -10.679   7.752  72.957  1.00  0.00    -0.446 A  
HETATM   14  C   UNL     1      -9.515   5.286  72.400  1.00  0.00    -0.160 A  
ENDBRANCH   8   9
BRANCH   8  15
HETATM   15  C   UNL     1      -6.541   5.181  72.467  1.00  0.00    -0.053 A  
HETATM   16  C   UNL     1      -5.657   2.915  72.301  1.00  0.00    -0.008 A  
HETATM   17  C   UNL     1      -5.986   3.910  74.472  1.00  0.00    -0.020 A  
HETATM   18  C   UNL     1      -5.601   2.826  73.690  1.00  0.00     0.000 A  
HETATM   19  C   UNL     1      -6.455   5.077  73.867  1.00  0.00    -0.067 A  
HETATM   20  C   UNL     1      -6.111   4.088  71.692  1.00  0.00    -0.014 A  
ENDBRANCH   8  15
ENDBRANCH   4   8
ENDBRANCH   1   2
BRANCH   1  21
HETATM   21  C   UNL     1      -9.707   9.352  66.979  1.00  0.00    -0.233 C  
HETATM   22  C   UNL     1      -9.445  10.472  66.285  1.00  0.00    -0.217 C  
BRANCH  22  23
HETATM   23  C   UNL     1     -10.502  11.238  65.639  1.00  0.00    -0.317 A  
HETATM   24  C   UNL     1     -11.366  12.008  66.426  1.00  0.00    -0.411 A  
HETATM   25  C   UNL     1     -12.384  12.750  65.828  1.00  0.00    -0.388 A  
HETATM   26  C   UNL     1     -10.667  11.210  64.252  1.00  0.00    -0.403 A  
HETATM   27  C   UNL     1     -11.686  11.955  63.655  1.00  0.00    -0.572 A  
HETATM   28  C   UNL     1     -12.541  12.726  64.442  1.00  0.00    -0.431 A  
ENDBRANCH  22  23
ENDBRANCH   1  21
TORSDOF 6
ENDMDL
MODEL      149
REMARK 921   NORMALIZED FREE ENERGY PREDICTED BY IDOCK:   -2.99 KCAL/MOL
REMARK 922        TOTAL FREE ENERGY PREDICTED BY IDOCK:   -3.99 KCAL/MOL
REMARK 923 INTER-LIGAND FREE ENERGY PREDICTED BY IDOCK:   -7.08 KCAL/MOL
REMARK 924 INTRA-LIGAND FREE ENERGY PREDICTED BY IDOCK:    3.09 KCAL/MOL
REMARK 927      BINDING AFFINITY PREDICTED BY RF-SCORE:    0.00 PKD
ROOT
HETATM    1  C   UNL     1      -8.101   8.612  68.486  1.00  0.00    -0.117 C  
ENDROOT
BRANCH   1   2
HETATM    2  N   UNL     1      -8.750   8.664  69.806  1.00  0.00    -0.130 NA 
HETATM    3  C   UNL     1      -8.668   6.179  70.372  1.00  0.00    -0.142 C  
HETATM    4  N   UNL     1     -10.146   6.013  70.346  1.00  0.00    -0.186 NA 
HETATM    5  C   UNL     1     -10.218   8.481  69.723  1.00  0.00    -0.206 C  
HETATM    6  C   UNL     1      -8.181   7.617  70.685  1.00  0.00    -0.113 C  
HETATM    7  C   UNL     1     -10.677   7.035  69.414  1.00  0.00    -0.238 C  
BRANCH   4   8
HETATM    8  C   UNL     1     -10.749   6.110  71.718  1.00  0.00    -0.242 C  
BRANCH   8   9
HETATM    9  C   UNL     1      -9.700   6.394  72.807  1.00  0.00    -0.163 A  
HETATM   10  C   UNL     1      -7.772   5.619  74.097  1.00  0.00    -0.099 A  
HETATM   11  C   UNL     1      -9.468   7.685  73.307  1.00  0.00    -0.317 A  
HETATM   12  C   UNL     1      -7.544   6.914  74.555  1.00  0.00    -0.126 A  
HETATM   13  C   UNL     1      -8.403   7.942  74.175  1.00  0.00    -0.312 A  
HETATM   14  C   UNL     1      -8.846   5.358  73.240  1.00  0.00    -0.118 A  
ENDBRANCH   8   9
BRANCH   8  15
HETATM   15  C   UNL     1     -11.937   7.085  71.727  1.00  0.00    -0.361 A  
HETATM   16  C   UNL     1     -12.968   9.087  72.664  1.00  0.00    -0.339 A  
HETATM   17  C   UNL     1     -14.318   7.518  71.427  1.00  0.00    -0.540 A  
HETATM   18  C   UNL     1     -14.207   8.693  72.164  1.00  0.00    -0.520 A  
HETATM   19  C   UNL     1     -13.194   6.719  71.213  1.00  0.00    -0.125 A  
HETATM   20  C   UNL     1     -11.838   8.297  72.438  1.00  0.00    -0.461 A  
ENDBRANCH   8  15
ENDBRANCH   4   8
ENDBRANCH   1   2
BRANCH   1  21
HETATM   21  C   UNL     1      -8.838   9.398  67.449  1.00  0.00    -0.135 C  
HETATM   22  C   UNL     1      -8.344   9.625  66.221  1.00  0.00    -0.117 C  
BRANCH  22  23
HETATM   23  C   UNL     1      -9.072  10.417  65.238  1.00  0.00    -0.227 A  
HETATM   24  C   UNL     1     -10.068  11.298  65.673  1.00  0.00    -0.295 A  
HETATM   25  C   UNL     1     -10.774  12.067  64.749  1.00  0.00    -0.352 A  
HETATM   26  C   UNL     1      -8.792  10.304  63.874  1.00  0.00    -0.234 A  
HETATM   27  C   UNL     1      -9.500  11.076  62.950  1.00  0.00    -0.378 A  
HETATM   28  C   UNL     1     -10.488  11.958  63.388  1.00  0.00    -0.487 A  
ENDBRANCH  22  23
ENDBRANCH   1  21
TORSDOF 6
ENDMDL
MODEL      150
REMARK 921   NORMALIZED FREE ENERGY PREDICTED BY IDOCK:   -2.95 KCAL/MOL
REMARK 922        TOTAL FREE ENERGY PREDICTED BY IDOCK:   -3.93 KCAL/MOL
REMARK 923 INTER-LIGAND FREE ENERGY PREDICTED BY IDOCK:   -3.83 KCAL/MOL
REMARK 924 INTRA-LIGAND FREE ENERGY PREDICTED BY IDOCK:   -0.10 KCAL/MOL
REMARK 927      BINDING AFFINITY PREDICTED BY RF-SCORE:    0.00 PKD
ROOT
HETATM    1  C   UNL     1      -9.434   8.470  67.750  1.00  0.00    -0.145 C  
ENDROOT
BRANCH   1   2
HETATM    2  N   UNL     1      -9.911   8.353  69.137  1.00  0.00    -0.178 NA 
HETATM    3  C   UNL     1      -7.805   7.364  70.183  1.00  0.00    -0.099 C  
HETATM    4  N   UNL     1      -8.448   6.064  70.513  1.00  0.00    -0.131 NA 
HETATM    5  C   UNL     1     -10.529   7.035  69.413  1.00  0.00    -0.214 C  
HETATM    6  C   UNL     1      -8.783   8.562  70.073  1.00  0.00    -0.136 C  
HETATM    7  C   UNL     1      -9.532   5.857  69.524  1.00  0.00    -0.138 C  
BRANCH   4   8
HETATM    8  C   UNL     1      -8.942   6.022  71.930  1.00  0.00    -0.138 C  
BRANCH   8   9
HETATM    9  C   UNL     1      -9.609   4.681  72.285  1.00  0.00    -0.200 A  
HETATM   10  C   UNL     1     -11.326   3.474  73.541  1.00  0.00    -0.222 A  
HETATM   11  C   UNL     1      -9.386   3.513  71.540  1.00  0.00    -0.209 A  
HETATM   12  C   UNL     1     -11.107   2.337  72.769  1.00  0.00     0.016 A  
HETATM   13  C   UNL     1     -10.125   2.351  71.782  1.00  0.00    -0.131 A  
HETATM   14  C   UNL     1     -10.577   4.633  73.310  1.00  0.00    -0.284 A  
ENDBRANCH   8   9
BRANCH   8  15
HETATM   15  C   UNL     1      -7.836   6.447  72.910  1.00  0.00    -0.103 A  
HETATM   16  C   UNL     1      -6.705   8.248  74.102  1.00  0.00    -0.161 A  
HETATM   17  C   UNL     1      -5.627   6.102  73.882  1.00  0.00    -0.049 A  
HETATM   18  C   UNL     1      -5.609   7.418  74.333  1.00  0.00    -0.066 A  
HETATM   19  C   UNL     1      -6.729   5.621  73.173  1.00  0.00    -0.074 A  
HETATM   20  C   UNL     1      -7.816   7.764  73.408  1.00  0.00    -0.184 A  
ENDBRANCH   8  15
ENDBRANCH   4   8
ENDBRANCH   1   2
BRANCH   1  21
HETATM   21  C   UNL     1      -9.712   7.244  66.938  1.00  0.00    -0.252 C  
HETATM   22  C   UNL     1      -8.773   6.634  66.198  1.00  0.00    -0.154 C  
BRANCH  22  23
HETATM   23  C   UNL     1      -9.077   5.457  65.395  1.00  0.00    -0.097 A  
HETATM   24  C   UNL     1      -8.227   5.112  64.338  1.00  0.00    -0.130 A  
HETATM   25  C   UNL     1      -8.498   3.989  63.558  1.00  0.00    -0.097 A  
HETATM   26  C   UNL     1     -10.203   4.674  65.662  1.00  0.00    -0.255 A  
HETATM   27  C   UNL     1     -10.473   3.549  64.881  1.00  0.00     0.132 A  
HETATM   28  C   UNL     1      -9.620   3.206  63.832  1.00  0.00    -0.135 A  
ENDBRANCH  22  23
ENDBRANCH   1  21
TORSDOF 6
ENDMDL
MODEL      151
REMARK 921   NORMALIZED FREE ENERGY PREDICTED BY IDOCK:   -2.84 KCAL/MOL
REMARK 922        TOTAL FREE ENERGY PREDICTED BY IDOCK:   -3.77 KCAL/MOL
REMARK 923 INTER-LIGAND FREE ENERGY PREDICTED BY IDOCK:   -2.90 KCAL/MOL
REMARK 924 INTRA-LIGAND FREE ENERGY PREDICTED BY IDOCK:   -0.87 KCAL/MOL
REMARK 927      BINDING AFFINITY PREDICTED BY RF-SCORE:    0.00 PKD
ROOT
HETATM    1  C   UNL     1      -6.594   8.860  71.521  1.00  0.00    -0.080 C  
ENDROOT
BRANCH   1   2
HETATM    2  N   UNL     1      -7.815   8.158  71.097  1.00  0.00    -0.087 NA 
HETATM    3  C   UNL     1      -7.515   6.017  72.449  1.00  0.00    -0.099 C  
HETATM    4  N   UNL     1      -7.351   5.152  71.250  1.00  0.00    -0.075 NA 
HETATM    5  C   UNL     1      -7.591   7.303  69.907  1.00  0.00    -0.094 C  
HETATM    6  C   UNL     1      -8.321   7.318  72.207  1.00  0.00    -0.104 C  
HETATM    7  C   UNL     1      -6.789   6.008  70.178  1.00  0.00    -0.057 C  
BRANCH   4   8
HETATM    8  C   UNL     1      -8.638   4.492  70.849  1.00  0.00    -0.093 C  
BRANCH   8   9
HETATM    9  C   UNL     1      -8.456   3.491  69.696  1.00  0.00    -0.096 A  
HETATM   10  C   UNL     1      -9.119   2.734  67.466  1.00  0.00    -0.213 A  
HETATM   11  C   UNL     1      -7.348   2.632  69.617  1.00  0.00    -0.044 A  
HETATM   12  C   UNL     1      -7.997   1.913  67.399  1.00  0.00    -0.065 A  
HETATM   13  C   UNL     1      -7.122   1.848  68.481  1.00  0.00    -0.039 A  
HETATM   14  C   UNL     1      -9.354   3.508  68.608  1.00  0.00    -0.230 A  
ENDBRANCH   8   9
BRANCH   8  15
HETATM   15  C   UNL     1      -9.361   3.909  72.074  1.00  0.00    -0.186 A  
HETATM   16  C   UNL     1      -9.622   2.055  73.637  1.00  0.00    -0.103 A  
HETATM   17  C   UNL     1     -11.363   3.714  73.452  1.00  0.00    -0.209 A  
HETATM   18  C   UNL     1     -10.872   2.540  74.016  1.00  0.00    -0.260 A  
HETATM   19  C   UNL     1     -10.616   4.391  72.487  1.00  0.00    -0.203 A  
HETATM   20  C   UNL     1      -8.865   2.740  72.684  1.00  0.00    -0.093 A  
ENDBRANCH   8  15
ENDBRANCH   4   8
ENDBRANCH   1   2
BRANCH   1  21
HETATM   21  C   UNL     1      -6.502  10.246  70.965  1.00  0.00     0.182 C  
HETATM   22  C   UNL     1      -5.500  10.643  70.164  1.00  0.00    -0.060 C  
BRANCH  22  23
HETATM   23  C   UNL     1      -5.419  12.007  69.658  1.00  0.00    -0.078 A  
HETATM   24  C   UNL     1      -5.547  13.076  70.552  1.00  0.00    -0.175 A  
HETATM   25  C   UNL     1      -5.471  14.389  70.089  1.00  0.00    -0.106 A  
HETATM   26  C   UNL     1      -5.222  12.259  68.298  1.00  0.00    -0.056 A  
HETATM   27  C   UNL     1      -5.146  13.575  67.837  1.00  0.00    -0.086 A  
HETATM   28  C   UNL     1      -5.267  14.638  68.732  1.00  0.00    -0.089 A  
ENDBRANCH  22  23
ENDBRANCH   1  21
TORSDOF 6
ENDMDL
MODEL      152
REMARK 921   NORMALIZED FREE ENERGY PREDICTED BY IDOCK:   -2.80 KCAL/MOL
REMARK 922        TOTAL FREE ENERGY PREDICTED BY IDOCK:   -3.72 KCAL/MOL
REMARK 923 INTER-LIGAND FREE ENERGY PREDICTED BY IDOCK:   -6.90 KCAL/MOL
REMARK 924 INTRA-LIGAND FREE ENERGY PREDICTED BY IDOCK:    3.18 KCAL/MOL
REMARK 927      BINDING AFFINITY PREDICTED BY RF-SCORE:    0.00 PKD
ROOT
HETATM    1  C   UNL     1      -8.399  10.428  69.167  1.00  0.00    -0.158 C  
ENDROOT
BRANCH   1   2
HETATM    2  N   UNL     1      -8.395   8.962  69.041  1.00  0.00    -0.123 NA 
HETATM    3  C   UNL     1     -10.893   8.603  68.677  1.00  0.00     0.043 C  
HETATM    4  N   UNL     1     -11.085   7.868  69.956  1.00  0.00    -0.211 NA 
HETATM    5  C   UNL     1      -8.603   8.283  70.342  1.00  0.00    -0.134 C  
HETATM    6  C   UNL     1      -9.456   8.538  68.100  1.00  0.00    -0.141 C  
HETATM    7  C   UNL     1     -10.047   8.358  70.893  1.00  0.00    -0.194 C  
BRANCH   4   8
HETATM    8  C   UNL     1     -11.037   6.380  69.766  1.00  0.00    -0.396 C  
BRANCH   8   9
HETATM    9  C   UNL     1     -10.175   5.965  68.561  1.00  0.00    -0.240 A  
HETATM   10  C   UNL     1      -8.078   5.027  67.721  1.00  0.00    -0.098 A  
HETATM   11  C   UNL     1     -10.706   5.838  67.267  1.00  0.00    -0.345 A  
HETATM   12  C   UNL     1      -8.637   4.883  66.455  1.00  0.00    -0.110 A  
HETATM   13  C   UNL     1      -9.943   5.306  66.224  1.00  0.00    -0.216 A  
HETATM   14  C   UNL     1      -8.835   5.573  68.763  1.00  0.00    -0.109 A  
ENDBRANCH   8   9
BRANCH   8  15
HETATM   15  C   UNL     1     -10.661   5.670  71.076  1.00  0.00    -0.318 A  
HETATM   16  C   UNL     1      -9.636   3.747  72.171  1.00  0.00    -0.212 A  
HETATM   17  C   UNL     1     -11.117   5.182  73.421  1.00  0.00    -0.385 A  
HETATM   18  C   UNL     1     -10.297   4.059  73.357  1.00  0.00    -0.232 A  
HETATM   19  C   UNL     1     -11.301   5.978  72.290  1.00  0.00    -0.353 A  
HETATM   20  C   UNL     1      -9.805   4.553  71.042  1.00  0.00    -0.266 A  
ENDBRANCH   8  15
ENDBRANCH   4   8
ENDBRANCH   1   2
BRANCH   1  21
HETATM   21  C   UNL     1      -9.044  11.106  68.000  1.00  0.00    -0.153 C  
HETATM   22  C   UNL     1      -9.844  12.177  68.131  1.00  0.00    -0.207 C  
BRANCH  22  23
HETATM   23  C   UNL     1     -10.482  12.801  66.980  1.00  0.00    -0.245 A  
HETATM   24  C   UNL     1      -9.842  13.869  66.340  1.00  0.00    -0.304 A  
HETATM   25  C   UNL     1     -10.434  14.480  65.235  1.00  0.00    -0.411 A  
HETATM   26  C   UNL     1     -11.720  12.354  66.512  1.00  0.00    -0.443 A  
HETATM   27  C   UNL     1     -12.311  12.967  65.406  1.00  0.00    -0.538 A  
HETATM   28  C   UNL     1     -11.666  14.026  64.767  1.00  0.00    -0.403 A  
ENDBRANCH  22  23
ENDBRANCH   1  21
TORSDOF 6
ENDMDL
MODEL      153
REMARK 921   NORMALIZED FREE ENERGY PREDICTED BY IDOCK:   -2.78 KCAL/MOL
REMARK 922        TOTAL FREE ENERGY PREDICTED BY IDOCK:   -3.70 KCAL/MOL
REMARK 923 INTER-LIGAND FREE ENERGY PREDICTED BY IDOCK:   -7.02 KCAL/MOL
REMARK 924 INTRA-LIGAND FREE ENERGY PREDICTED BY IDOCK:    3.32 KCAL/MOL
REMARK 927      BINDING AFFINITY PREDICTED BY RF-SCORE:    0.00 PKD
ROOT
HETATM    1  C   UNL     1     -10.201  11.192  66.882  1.00  0.00    -0.222 C  
ENDROOT
BRANCH   1   2
HETATM    2  N   UNL     1      -9.805  12.428  67.577  1.00  0.00    -0.192 NA 
HETATM    3  C   UNL     1     -11.967  12.856  68.859  1.00  0.00    -0.250 C  
HETATM    4  N   UNL     1     -12.282  14.111  68.126  1.00  0.00    -0.243 NA 
HETATM    5  C   UNL     1     -10.153  13.646  66.808  1.00  0.00    -0.269 C  
HETATM    6  C   UNL     1     -10.462  12.489  68.902  1.00  0.00    -0.080 C  
HETATM    7  C   UNL     1     -11.662  13.992  66.785  1.00  0.00    -0.407 C  
BRANCH   4   8
HETATM    8  C   UNL     1     -11.823  15.331  68.870  1.00  0.00    -0.320 C  
BRANCH   8   9
HETATM    9  C   UNL     1     -12.181  15.281  70.366  1.00  0.00    -0.404 A  
HETATM   10  C   UNL     1     -11.697  16.006  72.651  1.00  0.00    -0.513 A  
HETATM   11  C   UNL     1     -13.403  14.767  70.827  1.00  0.00    -0.302 A  
HETATM   12  C   UNL     1     -12.928  15.516  73.079  1.00  0.00    -0.609 A  
HETATM   13  C   UNL     1     -13.771  14.880  72.172  1.00  0.00    -0.550 A  
HETATM   14  C   UNL     1     -11.321  15.881  71.310  1.00  0.00    -0.425 A  
ENDBRANCH   8   9
BRANCH   8  15
HETATM   15  C   UNL     1     -10.338  15.617  68.593  1.00  0.00    -0.216 A  
HETATM   16  C   UNL     1      -8.034  15.568  69.390  1.00  0.00    -0.229 A  
HETATM   17  C   UNL     1      -8.611  16.943  67.496  1.00  0.00    -0.211 A  
HETATM   18  C   UNL     1      -7.664  16.478  68.403  1.00  0.00    -0.189 A  
HETATM   19  C   UNL     1      -9.937  16.519  67.592  1.00  0.00    -0.254 A  
HETATM   20  C   UNL     1      -9.358  15.129  69.478  1.00  0.00    -0.139 A  
ENDBRANCH   8  15
ENDBRANCH   4   8
ENDBRANCH   1   2
BRANCH   1  21
HETATM   21  C   UNL     1      -9.222  10.784  65.828  1.00  0.00    -0.215 C  
HETATM   22  C   UNL     1      -8.886   9.503  65.604  1.00  0.00    -0.194 C  
BRANCH  22  23
HETATM   23  C   UNL     1      -7.909   9.134  64.589  1.00  0.00    -0.118 A  
HETATM   24  C   UNL     1      -7.547   7.789  64.445  1.00  0.00    -0.110 A  
HETATM   25  C   UNL     1      -6.615   7.414  63.478  1.00  0.00    -0.053 A  
HETATM   26  C   UNL     1      -7.328  10.100  63.764  1.00  0.00    -0.113 A  
HETATM   27  C   UNL     1      -6.395   9.722  62.796  1.00  0.00    -0.107 A  
HETATM   28  C   UNL     1      -6.043   8.381  62.651  1.00  0.00    -0.087 A  
ENDBRANCH  22  23
ENDBRANCH   1  21
TORSDOF 6
ENDMDL
MODEL      154
REMARK 921   NORMALIZED FREE ENERGY PREDICTED BY IDOCK:   -2.69 KCAL/MOL
REMARK 922        TOTAL FREE ENERGY PREDICTED BY IDOCK:   -3.58 KCAL/MOL
REMARK 923 INTER-LIGAND FREE ENERGY PREDICTED BY IDOCK:   -7.16 KCAL/MOL
REMARK 924 INTRA-LIGAND FREE ENERGY PREDICTED BY IDOCK:    3.58 KCAL/MOL
REMARK 927      BINDING AFFINITY PREDICTED BY RF-SCORE:    0.00 PKD
ROOT
HETATM    1  C   UNL     1      -9.766   8.521  66.400  1.00  0.00    -0.258 C  
ENDROOT
BRANCH   1   2
HETATM    2  N   UNL     1     -10.404   8.181  67.682  1.00  0.00    -0.236 NA 
HETATM    3  C   UNL     1      -8.324   8.181  69.157  1.00  0.00    -0.131 C  
HETATM    4  N   UNL     1      -8.397   6.725  69.449  1.00  0.00    -0.130 NA 
HETATM    5  C   UNL     1     -10.438   6.720  67.926  1.00  0.00    -0.218 C  
HETATM    6  C   UNL     1      -9.679   8.839  68.792  1.00  0.00    -0.165 C  
HETATM    7  C   UNL     1      -9.073   6.089  68.294  1.00  0.00    -0.111 C  
BRANCH   4   8
HETATM    8  C   UNL     1      -9.088   6.443  70.752  1.00  0.00    -0.151 C  
BRANCH   8   9
HETATM    9  C   UNL     1     -10.367   7.279  70.936  1.00  0.00    -0.210 A  
HETATM   10  C   UNL     1     -12.810   7.375  70.957  1.00  0.00    -0.226 A  
HETATM   11  C   UNL     1     -10.349   8.559  71.513  1.00  0.00    -0.321 A  
HETATM   12  C   UNL     1     -12.767   8.630  71.556  1.00  0.00    -0.351 A  
HETATM   13  C   UNL     1     -11.537   9.229  71.817  1.00  0.00    -0.458 A  
HETATM   14  C   UNL     1     -11.622   6.709  70.639  1.00  0.00    -0.439 A  
ENDBRANCH   8   9
BRANCH   8  15
HETATM   15  C   UNL     1      -9.296   4.932  70.948  1.00  0.00    -0.210 A  
HETATM   16  C   UNL     1      -9.625   3.068  72.485  1.00  0.00    -0.187 A  
HETATM   17  C   UNL     1      -8.922   2.636  70.220  1.00  0.00    -0.164 A  
HETATM   18  C   UNL     1      -9.249   2.170  71.489  1.00  0.00    -0.170 A  
HETATM   19  C   UNL     1      -8.941   4.005  69.952  1.00  0.00    -0.161 A  
HETATM   20  C   UNL     1      -9.662   4.439  72.214  1.00  0.00    -0.221 A  
ENDBRANCH   8  15
ENDBRANCH   4   8
ENDBRANCH   1   2
BRANCH   1  21
HETATM   21  C   UNL     1     -10.177   9.866  65.890  1.00  0.00    -0.264 C  
HETATM   22  C   UNL     1     -10.027  10.993  66.605  1.00  0.00    -0.249 C  
BRANCH  22  23
HETATM   23  C   UNL     1     -10.461  12.286  66.095  1.00  0.00    -0.270 A  
HETATM   24  C   UNL     1      -9.539  13.337  66.022  1.00  0.00    -0.174 A  
HETATM   25  C   UNL     1      -9.933  14.582  65.535  1.00  0.00    -0.373 A  
HETATM   26  C   UNL     1     -11.780  12.492  65.683  1.00  0.00    -0.473 A  
HETATM   27  C   UNL     1     -12.172  13.740  65.195  1.00  0.00    -0.453 A  
HETATM   28  C   UNL     1     -11.249  14.782  65.119  1.00  0.00    -0.384 A  
ENDBRANCH  22  23
ENDBRANCH   1  21
TORSDOF 6
ENDMDL
MODEL      155
REMARK 921   NORMALIZED FREE ENERGY PREDICTED BY IDOCK:   -2.69 KCAL/MOL
REMARK 922        TOTAL FREE ENERGY PREDICTED BY IDOCK:   -3.58 KCAL/MOL
REMARK 923 INTER-LIGAND FREE ENERGY PREDICTED BY IDOCK:   -6.92 KCAL/MOL
REMARK 924 INTRA-LIGAND FREE ENERGY PREDICTED BY IDOCK:    3.35 KCAL/MOL
REMARK 927      BINDING AFFINITY PREDICTED BY RF-SCORE:    0.00 PKD
ROOT
HETATM    1  C   UNL     1     -10.734   9.004  69.206  1.00  0.00    -0.174 C  
ENDROOT
BRANCH   1   2
HETATM    2  N   UNL     1     -11.215  10.326  68.775  1.00  0.00    -0.230 NA 
HETATM    3  C   UNL     1      -9.889  10.530  66.607  1.00  0.00    -0.199 C  
HETATM    4  N   UNL     1      -9.072  11.676  67.087  1.00  0.00    -0.167 NA 
HETATM    5  C   UNL     1     -10.358  11.428  69.270  1.00  0.00    -0.024 C  
HETATM    6  C   UNL     1     -11.269  10.382  67.297  1.00  0.00    -0.075 C  
HETATM    7  C   UNL     1      -8.989  11.557  68.561  1.00  0.00    -0.146 C  
BRANCH   4   8
HETATM    8  C   UNL     1      -9.634  12.995  66.643  1.00  0.00    -0.259 C  
BRANCH   8   9
HETATM    9  C   UNL     1     -10.650  12.850  65.497  1.00  0.00    -0.298 A  
HETATM   10  C   UNL     1     -11.284  11.769  63.397  1.00  0.00    -0.440 A  
HETATM   11  C   UNL     1     -11.952  13.371  65.578  1.00  0.00    -0.433 A  
HETATM   12  C   UNL     1     -12.577  12.271  63.515  1.00  0.00    -0.589 A  
HETATM   13  C   UNL     1     -12.905  13.087  64.595  1.00  0.00    -0.279 A  
HETATM   14  C   UNL     1     -10.325  12.064  64.372  1.00  0.00    -0.342 A  
ENDBRANCH   8   9
BRANCH   8  15
HETATM   15  C   UNL     1     -10.159  13.801  67.843  1.00  0.00    -0.246 A  
HETATM   16  C   UNL     1     -12.072  14.698  69.060  1.00  0.00    -0.270 A  
HETATM   17  C   UNL     1      -9.870  15.586  69.477  1.00  0.00    -0.284 A  
HETATM   18  C   UNL     1     -11.239  15.595  69.725  1.00  0.00    -0.322 A  
HETATM   19  C   UNL     1      -9.334  14.700  68.542  1.00  0.00    -0.201 A  
HETATM   20  C   UNL     1     -11.536  13.798  68.135  1.00  0.00    -0.348 A  
ENDBRANCH   8  15
ENDBRANCH   4   8
ENDBRANCH   1   2
BRANCH   1  21
HETATM   21  C   UNL     1      -9.948   9.061  70.478  1.00  0.00    -0.263 C  
HETATM   22  C   UNL     1      -9.098   8.091  70.851  1.00  0.00    -0.161 C  
BRANCH  22  23
HETATM   23  C   UNL     1      -8.365   8.159  72.109  1.00  0.00    -0.209 A  
HETATM   24  C   UNL     1      -9.031   7.864  73.304  1.00  0.00    -0.326 A  
HETATM   25  C   UNL     1      -8.348   7.921  74.519  1.00  0.00    -0.228 A  
HETATM   26  C   UNL     1      -7.015   8.516  72.137  1.00  0.00    -0.096 A  
HETATM   27  C   UNL     1      -6.333   8.572  73.354  1.00  0.00    -0.111 A  
HETATM   28  C   UNL     1      -6.998   8.271  74.542  1.00  0.00    -0.206 A  
ENDBRANCH  22  23
ENDBRANCH   1  21
TORSDOF 6
ENDMDL
MODEL      156
REMARK 921   NORMALIZED FREE ENERGY PREDICTED BY IDOCK:   -2.54 KCAL/MOL
REMARK 922        TOTAL FREE ENERGY PREDICTED BY IDOCK:   -3.37 KCAL/MOL
REMARK 923 INTER-LIGAND FREE ENERGY PREDICTED BY IDOCK:   -6.94 KCAL/MOL
REMARK 924 INTRA-LIGAND FREE ENERGY PREDICTED BY IDOCK:    3.57 KCAL/MOL
REMARK 927      BINDING AFFINITY PREDICTED BY RF-SCORE:    0.00 PKD
ROOT
HETATM    1  C   UNL     1     -11.823  10.493  69.903  1.00  0.00    -0.282 C  
ENDROOT
BRANCH   1   2
HETATM    2  N   UNL     1     -12.002  11.407  68.764  1.00  0.00    -0.487 NA 
HETATM    3  C   UNL     1      -9.769  11.009  67.599  1.00  0.00    -0.168 C  
HETATM    4  N   UNL     1      -9.278  12.394  67.829  1.00  0.00    -0.185 NA 
HETATM    5  C   UNL     1     -11.484  12.767  69.043  1.00  0.00    -0.309 C  
HETATM    6  C   UNL     1     -11.311  10.863  67.573  1.00  0.00    -0.232 C  
HETATM    7  C   UNL     1      -9.942  12.886  69.058  1.00  0.00     0.247 C  
BRANCH   4   8
HETATM    8  C   UNL     1      -9.520  13.283  66.643  1.00  0.00    -0.260 C  
BRANCH   8   9
HETATM    9  C   UNL     1     -10.563  12.702  65.672  1.00  0.00    -0.299 A  
HETATM   10  C   UNL     1     -12.809  12.816  64.712  1.00  0.00    -0.374 A  
HETATM   11  C   UNL     1     -10.222  11.780  64.669  1.00  0.00    -0.326 A  
HETATM   12  C   UNL     1     -12.438  11.924  63.710  1.00  0.00    -0.537 A  
HETATM   13  C   UNL     1     -11.151  11.392  63.700  1.00  0.00    -0.411 A  
HETATM   14  C   UNL     1     -11.885  13.194  65.691  1.00  0.00    -0.430 A  
ENDBRANCH   8   9
BRANCH   8  15
HETATM   15  C   UNL     1      -9.817  14.724  67.089  1.00  0.00    -0.232 A  
HETATM   16  C   UNL     1      -9.055  16.736  68.236  1.00  0.00    -0.228 A  
HETATM   17  C   UNL     1     -11.406  16.431  67.798  1.00  0.00    -0.034 A  
HETATM   18  C   UNL     1     -10.370  17.187  68.337  1.00  0.00    -0.362 A  
HETATM   19  C   UNL     1     -11.134  15.208  67.183  1.00  0.00    -0.335 A  
HETATM   20  C   UNL     1      -8.778  15.520  67.606  1.00  0.00    -0.183 A  
ENDBRANCH   8  15
ENDBRANCH   4   8
ENDBRANCH   1   2
BRANCH   1  21
HETATM   21  C   UNL     1     -11.198   9.192  69.508  1.00  0.00     0.022 C  
HETATM   22  C   UNL     1     -11.047   8.169  70.364  1.00  0.00    -0.239 C  
BRANCH  22  23
HETATM   23  C   UNL     1     -10.410   6.922  69.961  1.00  0.00    -0.219 A  
HETATM   24  C   UNL     1      -9.587   6.910  68.829  1.00  0.00    -0.134 A  
HETATM   25  C   UNL     1      -8.966   5.728  68.426  1.00  0.00    -0.111 A  
HETATM   26  C   UNL     1     -10.614   5.743  70.683  1.00  0.00    -0.346 A  
HETATM   27  C   UNL     1      -9.990   4.561  70.279  1.00  0.00    -0.288 A  
HETATM   28  C   UNL     1      -9.166   4.555  69.154  1.00  0.00    -0.194 A  
ENDBRANCH  22  23
ENDBRANCH   1  21
TORSDOF 6
ENDMDL
MODEL      157
REMARK 921   NORMALIZED FREE ENERGY PREDICTED BY IDOCK:   -2.42 KCAL/MOL
REMARK 922        TOTAL FREE ENERGY PREDICTED BY IDOCK:   -3.20 KCAL/MOL
REMARK 923 INTER-LIGAND FREE ENERGY PREDICTED BY IDOCK:   -7.23 KCAL/MOL
REMARK 924 INTRA-LIGAND FREE ENERGY PREDICTED BY IDOCK:    4.03 KCAL/MOL
REMARK 927      BINDING AFFINITY PREDICTED BY RF-SCORE:    0.00 PKD
ROOT
HETATM    1  C   UNL     1      -7.779   6.392  68.587  1.00  0.00    -0.101 C  
ENDROOT
BRANCH   1   2
HETATM    2  N   UNL     1      -8.316   6.829  69.886  1.00  0.00    -0.134 NA 
HETATM    3  C   UNL     1     -10.732   6.072  69.575  1.00  0.00    -0.335 C  
HETATM    4  N   UNL     1     -11.281   7.454  69.589  1.00  0.00    -0.114 NA 
HETATM    5  C   UNL     1      -8.861   8.206  69.838  1.00  0.00    -0.139 C  
HETATM    6  C   UNL     1      -9.384   5.902  70.323  1.00  0.00    -0.158 C  
HETATM    7  C   UNL     1     -10.209   8.347  69.091  1.00  0.00    -0.211 C  
BRANCH   4   8
HETATM    8  C   UNL     1     -11.780   7.850  70.949  1.00  0.00    -0.257 C  
BRANCH   8   9
HETATM    9  C   UNL     1     -10.920   7.273  72.086  1.00  0.00    -0.274 A  
HETATM   10  C   UNL     1      -9.212   7.635  73.799  1.00  0.00    -0.333 A  
HETATM   11  C   UNL     1     -11.194   6.028  72.676  1.00  0.00    -0.326 A  
HETATM   12  C   UNL     1      -9.523   6.411  74.383  1.00  0.00    -0.254 A  
HETATM   13  C   UNL     1     -10.500   5.600  73.811  1.00  0.00    -0.295 A  
HETATM   14  C   UNL     1      -9.896   8.059  72.654  1.00  0.00    -0.347 A  
ENDBRANCH   8   9
BRANCH   8  15
HETATM   15  C   UNL     1     -11.991   9.370  71.035  1.00  0.00    -0.389 A  
HETATM   16  C   UNL     1     -13.322  11.234  71.874  1.00  0.00    -0.413 A  
HETATM   17  C   UNL     1     -11.785  11.591  70.051  1.00  0.00    -0.414 A  
HETATM   18  C   UNL     1     -12.750  12.080  70.926  1.00  0.00    -0.291 A  
HETATM   19  C   UNL     1     -11.411  10.248  70.102  1.00  0.00    -0.383 A  
HETATM   20  C   UNL     1     -12.937   9.892  71.938  1.00  0.00    -0.545 A  
ENDBRANCH   8  15
ENDBRANCH   4   8
ENDBRANCH   1   2
BRANCH   1  21
HETATM   21  C   UNL     1      -8.016   7.391  67.499  1.00  0.00    -0.113 C  
HETATM   22  C   UNL     1      -8.286   7.037  66.232  1.00  0.00    -0.129 C  
BRANCH  22  23
HETATM   23  C   UNL     1      -8.486   8.030  65.185  1.00  0.00    -0.117 A  
HETATM   24  C   UNL     1      -7.975   7.786  63.905  1.00  0.00    -0.103 A  
HETATM   25  C   UNL     1      -8.156   8.723  62.888  1.00  0.00    -0.174 A  
HETATM   26  C   UNL     1      -9.173   9.219  65.443  1.00  0.00    -0.284 A  
HETATM   27  C   UNL     1      -9.354  10.155  64.423  1.00  0.00    -0.348 A  
HETATM   28  C   UNL     1      -8.849   9.905  63.147  1.00  0.00    -0.254 A  
ENDBRANCH  22  23
ENDBRANCH   1  21
TORSDOF 6
ENDMDL
MODEL      158
REMARK 921   NORMALIZED FREE ENERGY PREDICTED BY IDOCK:   -2.33 KCAL/MOL
REMARK 922        TOTAL FREE ENERGY PREDICTED BY IDOCK:   -3.09 KCAL/MOL
REMARK 923 INTER-LIGAND FREE ENERGY PREDICTED BY IDOCK:   -6.38 KCAL/MOL
REMARK 924 INTRA-LIGAND FREE ENERGY PREDICTED BY IDOCK:    3.29 KCAL/MOL
REMARK 927      BINDING AFFINITY PREDICTED BY RF-SCORE:    0.00 PKD
ROOT
HETATM    1  C   UNL     1     -11.551  13.567  66.616  1.00  0.00    -0.363 C  
ENDROOT
BRANCH   1   2
HETATM    2  N   UNL     1     -10.954  12.222  66.632  1.00  0.00    -0.265 NA 
HETATM    3  C   UNL     1     -11.639  11.526  68.988  1.00  0.00    -0.318 C  
HETATM    4  N   UNL     1     -10.243  11.472  69.496  1.00  0.00     0.184 NA 
HETATM    5  C   UNL     1      -9.569  12.225  67.159  1.00  0.00    -0.200 C  
HETATM    6  C   UNL     1     -11.783  11.316  67.459  1.00  0.00    -0.082 C  
HETATM    7  C   UNL     1      -9.454  12.432  68.688  1.00  0.00    -0.011 C  
BRANCH   4   8
HETATM    8  C   UNL     1      -9.680  10.081  69.455  1.00  0.00    -0.225 C  
BRANCH   8   9
HETATM    9  C   UNL     1     -10.718   9.011  69.835  1.00  0.00    -0.240 A  
HETATM   10  C   UNL     1     -11.405   6.664  69.796  1.00  0.00    -0.412 A  
HETATM   11  C   UNL     1     -11.738   9.254  70.770  1.00  0.00    -0.328 A  
HETATM   12  C   UNL     1     -12.389   6.924  70.745  1.00  0.00    -0.314 A  
HETATM   13  C   UNL     1     -12.567   8.221  71.218  1.00  0.00    -0.237 A  
HETATM   14  C   UNL     1     -10.584   7.699  69.335  1.00  0.00    -0.217 A  
ENDBRANCH   8   9
BRANCH   8  15
HETATM   15  C   UNL     1      -8.971   9.814  68.117  1.00  0.00    -0.119 A  
HETATM   16  C   UNL     1      -8.952   8.640  65.980  1.00  0.00    -0.227 A  
HETATM   17  C   UNL     1      -6.920   9.636  66.812  1.00  0.00    -0.085 A  
HETATM   18  C   UNL     1      -7.591   8.902  65.839  1.00  0.00    -0.093 A  
HETATM   19  C   UNL     1      -7.602  10.086  67.943  1.00  0.00    -0.089 A  
HETATM   20  C   UNL     1      -9.641   9.103  67.103  1.00  0.00    -0.215 A  
ENDBRANCH   8  15
ENDBRANCH   4   8
ENDBRANCH   1   2
BRANCH   1  21
HETATM   21  C   UNL     1     -10.538  14.646  66.405  1.00  0.00    -0.301 C  
HETATM   22  C   UNL     1     -10.681  15.886  66.902  1.00  0.00    -0.289 C  
BRANCH  22  23
HETATM   23  C   UNL     1      -9.692  16.927  66.658  1.00  0.00    -0.283 A  
HETATM   24  C   UNL     1      -8.405  16.564  66.245  1.00  0.00    -0.364 A  
HETATM   25  C   UNL     1      -7.444  17.545  66.004  1.00  0.00    -0.274 A  
HETATM   26  C   UNL     1     -10.009  18.276  66.834  1.00  0.00    -0.356 A  
HETATM   27  C   UNL     1      -9.045  19.257  66.591  1.00  0.00    -0.374 A  
HETATM   28  C   UNL     1      -7.766  18.891  66.174  1.00  0.00    -0.281 A  
ENDBRANCH  22  23
ENDBRANCH   1  21
TORSDOF 6
ENDMDL
MODEL      159
REMARK 921   NORMALIZED FREE ENERGY PREDICTED BY IDOCK:   -1.96 KCAL/MOL
REMARK 922        TOTAL FREE ENERGY PREDICTED BY IDOCK:   -2.59 KCAL/MOL
REMARK 923 INTER-LIGAND FREE ENERGY PREDICTED BY IDOCK:   -5.57 KCAL/MOL
REMARK 924 INTRA-LIGAND FREE ENERGY PREDICTED BY IDOCK:    2.98 KCAL/MOL
REMARK 927      BINDING AFFINITY PREDICTED BY RF-SCORE:    0.00 PKD
ROOT
HETATM    1  C   UNL     1     -10.703  10.582  67.546  1.00  0.00    -0.276 C  
ENDROOT
BRANCH   1   2
HETATM    2  N   UNL     1     -11.376   9.534  68.329  1.00  0.00     0.130 NA 
HETATM    3  C   UNL     1     -10.006   9.717  70.473  1.00  0.00    -0.193 C  
HETATM    4  N   UNL     1      -9.411   8.361  70.338  1.00  0.00    -0.158 NA 
HETATM    5  C   UNL     1     -10.734   8.208  68.168  1.00  0.00    -0.029 C  
HETATM    6  C   UNL     1     -11.373   9.900  69.764  1.00  0.00    -0.193 C  
HETATM    7  C   UNL     1      -9.375   8.050  68.889  1.00  0.00    -0.150 C  
BRANCH   4   8
HETATM    8  C   UNL     1     -10.162   7.333  71.132  1.00  0.00    -0.190 C  
BRANCH   8   9
HETATM    9  C   UNL     1      -9.415   6.908  72.408  1.00  0.00    -0.153 A  
HETATM   10  C   UNL     1      -8.122   5.207  73.599  1.00  0.00    -0.110 A  
HETATM   11  C   UNL     1      -9.058   7.826  73.409  1.00  0.00    -0.336 A  
HETATM   12  C   UNL     1      -7.758   6.143  74.563  1.00  0.00    -0.099 A  
HETATM   13  C   UNL     1      -8.241   7.446  74.478  1.00  0.00    -0.233 A  
HETATM   14  C   UNL     1      -8.952   5.581  72.537  1.00  0.00    -0.134 A  
ENDBRANCH   8   9
BRANCH   8  15
HETATM   15  C   UNL     1     -11.612   7.781  71.379  1.00  0.00    -0.305 A  
HETATM   16  C   UNL     1     -13.153   9.250  72.567  1.00  0.00    -0.416 A  
HETATM   17  C   UNL     1     -13.993   7.268  71.481  1.00  0.00    -0.486 A  
HETATM   18  C   UNL     1     -14.215   8.407  72.250  1.00  0.00    -0.436 A  
HETATM   19  C   UNL     1     -12.703   6.955  71.052  1.00  0.00    -0.269 A  
HETATM   20  C   UNL     1     -11.863   8.948  72.125  1.00  0.00    -0.417 A  
ENDBRANCH   8  15
ENDBRANCH   4   8
ENDBRANCH   1   2
BRANCH   1  21
HETATM   21  C   UNL     1      -9.836  10.027  66.462  1.00  0.00    -0.267 C  
HETATM   22  C   UNL     1      -8.631  10.537  66.161  1.00  0.00    -0.155 C  
BRANCH  22  23
HETATM   23  C   UNL     1      -7.817   9.994  65.081  1.00  0.00    -0.136 A  
HETATM   24  C   UNL     1      -6.423  10.092  65.160  1.00  0.00    -0.115 A  
HETATM   25  C   UNL     1      -5.626   9.576  64.138  1.00  0.00    -0.072 A  
HETATM   26  C   UNL     1      -8.408   9.383  63.972  1.00  0.00    -0.174 A  
HETATM   27  C   UNL     1      -7.608   8.867  62.951  1.00  0.00    -0.110 A  
HETATM   28  C   UNL     1      -6.219   8.961  63.036  1.00  0.00    -0.090 A  
ENDBRANCH  22  23
ENDBRANCH   1  21
TORSDOF 6
ENDMDL
MODEL      160
REMARK 921   NORMALIZED FREE ENERGY PREDICTED BY IDOCK:   -1.40 KCAL/MOL
REMARK 922        TOTAL FREE ENERGY PREDICTED BY IDOCK:   -1.83 KCAL/MOL
REMARK 923 INTER-LIGAND FREE ENERGY PREDICTED BY IDOCK:   -3.29 KCAL/MOL
REMARK 924 INTRA-LIGAND FREE ENERGY PREDICTED BY IDOCK:    1.46 KCAL/MOL
REMARK 927      BINDING AFFINITY PREDICTED BY RF-SCORE:    0.00 PKD
ROOT
HETATM    1  C   UNL     1     -10.668   8.022  70.041  1.00  0.00    -0.244 C  
ENDROOT
BRANCH   1   2
HETATM    2  N   UNL     1     -10.353   8.274  68.626  1.00  0.00    -0.208 NA 
HETATM    3  C   UNL     1     -10.450   5.870  67.779  1.00  0.00    -0.238 C  
HETATM    4  N   UNL     1      -9.001   5.815  67.444  1.00  0.00    -0.109 NA 
HETATM    5  C   UNL     1      -8.900   8.194  68.347  1.00  0.00    -0.133 C  
HETATM    6  C   UNL     1     -11.063   7.294  67.773  1.00  0.00     0.039 C  
HETATM    7  C   UNL     1      -8.314   6.761  68.353  1.00  0.00    -0.123 C  
BRANCH   4   8
HETATM    8  C   UNL     1      -8.745   6.113  65.995  1.00  0.00    -0.153 C  
BRANCH   8   9
HETATM    9  C   UNL     1      -7.478   6.959  65.780  1.00  0.00    -0.084 A  
HETATM   10  C   UNL     1      -6.465   9.023  64.947  1.00  0.00    -0.066 A  
HETATM   11  C   UNL     1      -6.263   6.665  66.421  1.00  0.00    -0.041 A  
HETATM   12  C   UNL     1      -5.281   8.725  65.616  1.00  0.00    -0.034 A  
HETATM   13  C   UNL     1      -5.175   7.538  66.337  1.00  0.00    -0.024 A  
HETATM   14  C   UNL     1      -7.550   8.144  65.018  1.00  0.00    -0.096 A  
ENDBRANCH   8   9
BRANCH   8  15
HETATM   15  C   UNL     1      -8.788   4.827  65.153  1.00  0.00    -0.151 A  
HETATM   16  C   UNL     1      -7.816   3.492  63.360  1.00  0.00    -0.068 A  
HETATM   17  C   UNL     1     -10.057   3.023  64.116  1.00  0.00    -0.134 A  
HETATM   18  C   UNL     1      -8.992   2.752  63.261  1.00  0.00    -0.088 A  
HETATM   19  C   UNL     1      -9.958   4.054  65.051  1.00  0.00    -0.207 A  
HETATM   20  C   UNL     1      -7.708   4.514  64.306  1.00  0.00    -0.077 A  
ENDBRANCH   8  15
ENDBRANCH   4   8
ENDBRANCH   1   2
BRANCH   1  21
HETATM   21  C   UNL     1      -9.774   6.994  70.657  1.00  0.00    -0.174 C  
HETATM   22  C   UNL     1     -10.225   5.808  71.098  1.00  0.00    -0.275 C  
BRANCH  22  23
HETATM   23  C   UNL     1      -9.338   4.834  71.720  1.00  0.00    -0.186 A  
HETATM   24  C   UNL     1      -9.641   4.352  72.998  1.00  0.00    -0.156 A  
HETATM   25  C   UNL     1      -8.806   3.418  73.611  1.00  0.00    -0.084 A  
HETATM   26  C   UNL     1      -8.192   4.381  71.061  1.00  0.00    -0.082 A  
HETATM   27  C   UNL     1      -7.358   3.445  71.676  1.00  0.00    -0.043 A  
HETATM   28  C   UNL     1      -7.667   2.963  72.947  1.00  0.00    -0.051 A  
ENDBRANCH  22  23
ENDBRANCH   1  21
TORSDOF 6
ENDMDL
MODEL      161
REMARK 921   NORMALIZED FREE ENERGY PREDICTED BY IDOCK:   -1.30 KCAL/MOL
REMARK 922        TOTAL FREE ENERGY PREDICTED BY IDOCK:   -1.70 KCAL/MOL
REMARK 923 INTER-LIGAND FREE ENERGY PREDICTED BY IDOCK:   -4.02 KCAL/MOL
REMARK 924 INTRA-LIGAND FREE ENERGY PREDICTED BY IDOCK:    2.32 KCAL/MOL
REMARK 927      BINDING AFFINITY PREDICTED BY RF-SCORE:    0.00 PKD
ROOT
HETATM    1  C   UNL     1      -5.949   7.288  68.678  1.00  0.00    -0.026 C  
ENDROOT
BRANCH   1   2
HETATM    2  N   UNL     1      -6.505   7.584  70.008  1.00  0.00    -0.034 NA 
HETATM    3  C   UNL     1      -8.970   7.180  69.492  1.00  0.00    -0.140 C  
HETATM    4  N   UNL     1      -9.359   8.600  69.703  1.00  0.00    -0.160 NA 
HETATM    5  C   UNL     1      -6.887   9.008  70.158  1.00  0.00    -0.045 C  
HETATM    6  C   UNL     1      -7.695   6.737  70.253  1.00  0.00    -0.101 C  
HETATM    7  C   UNL     1      -8.166   9.423  69.393  1.00  0.00    -0.119 C  
BRANCH   4   8
HETATM    8  C   UNL     1      -9.886   8.842  71.088  1.00  0.00    -0.244 C  
BRANCH   8   9
HETATM    9  C   UNL     1     -11.373   9.235  71.095  1.00  0.00    -0.412 A  
HETATM   10  C   UNL     1     -13.697   8.596  71.512  1.00  0.00    -0.368 A  
HETATM   11  C   UNL     1     -11.796  10.571  71.005  1.00  0.00    -0.438 A  
HETATM   12  C   UNL     1     -14.087   9.931  71.448  1.00  0.00     0.207 A  
HETATM   13  C   UNL     1     -13.140  10.915  71.177  1.00  0.00    -0.351 A  
HETATM   14  C   UNL     1     -12.355   8.249  71.326  1.00  0.00    -0.285 A  
ENDBRANCH   8   9
BRANCH   8  15
HETATM   15  C   UNL     1      -9.546   7.665  72.018  1.00  0.00    -0.200 A  
HETATM   16  C   UNL     1     -10.232   5.549  73.016  1.00  0.00    -0.214 A  
HETATM   17  C   UNL     1      -8.405   6.789  73.986  1.00  0.00    -0.149 A  
HETATM   18  C   UNL     1      -9.254   5.686  73.999  1.00  0.00    -0.126 A  
HETATM   19  C   UNL     1      -8.552   7.772  73.006  1.00  0.00    -0.218 A  
HETATM   20  C   UNL     1     -10.370   6.524  72.025  1.00  0.00    -0.221 A  
ENDBRANCH   8  15
ENDBRANCH   4   8
ENDBRANCH   1   2
BRANCH   1  21
HETATM   21  C   UNL     1      -6.566   6.079  68.050  1.00  0.00    -0.055 C  
HETATM   22  C   UNL     1      -5.846   5.017  67.655  1.00  0.00    -0.022 C  
BRANCH  22  23
HETATM   23  C   UNL     1      -6.468   3.863  67.020  1.00  0.00    -0.041 A  
HETATM   24  C   UNL     1      -7.444   3.143  67.719  1.00  0.00    -0.054 A  
HETATM   25  C   UNL     1      -8.054   2.036  67.130  1.00  0.00    -0.068 A  
HETATM   26  C   UNL     1      -6.103   3.465  65.732  1.00  0.00    -0.027 A  
HETATM   27  C   UNL     1      -6.716   2.357  65.143  1.00  0.00    -0.039 A  
HETATM   28  C   UNL     1      -7.692   1.646  65.841  1.00  0.00    -0.067 A  
ENDBRANCH  22  23
ENDBRANCH   1  21
TORSDOF 6
ENDMDL
MODEL      162
REMARK 921   NORMALIZED FREE ENERGY PREDICTED BY IDOCK:   -1.22 KCAL/MOL
REMARK 922        TOTAL FREE ENERGY PREDICTED BY IDOCK:   -1.60 KCAL/MOL
REMARK 923 INTER-LIGAND FREE ENERGY PREDICTED BY IDOCK:   -4.87 KCAL/MOL
REMARK 924 INTRA-LIGAND FREE ENERGY PREDICTED BY IDOCK:    3.28 KCAL/MOL
REMARK 927      BINDING AFFINITY PREDICTED BY RF-SCORE:    0.00 PKD
ROOT
HETATM    1  C   UNL     1     -12.374   8.545  70.524  1.00  0.00     0.316 C  
ENDROOT
BRANCH   1   2
HETATM    2  N   UNL     1     -10.967   8.200  70.786  1.00  0.00    -0.240 NA 
HETATM    3  C   UNL     1     -10.840   6.049  69.421  1.00  0.00    -0.363 C  
HETATM    4  N   UNL     1     -10.622   5.180  70.608  1.00  0.00    -0.199 NA 
HETATM    5  C   UNL     1     -10.811   7.323  71.970  1.00  0.00    -0.233 C  
HETATM    6  C   UNL     1     -10.390   7.521  69.603  1.00  0.00    -0.225 C  
HETATM    7  C   UNL     1     -11.262   5.858  71.760  1.00  0.00    -0.250 C  
BRANCH   4   8
HETATM    8  C   UNL     1      -9.167   4.894  70.840  1.00  0.00    -0.146 C  
BRANCH   8   9
HETATM    9  C   UNL     1      -8.309   6.171  70.861  1.00  0.00    -0.127 A  
HETATM   10  C   UNL     1      -7.113   7.859  72.166  1.00  0.00    -0.080 A  
HETATM   11  C   UNL     1      -7.682   6.672  69.709  1.00  0.00    -0.113 A  
HETATM   12  C   UNL     1      -6.481   8.318  71.014  1.00  0.00    -0.039 A  
HETATM   13  C   UNL     1      -6.779   7.737  69.784  1.00  0.00    -0.039 A  
HETATM   14  C   UNL     1      -8.027   6.803  72.091  1.00  0.00    -0.096 A  
ENDBRANCH   8   9
BRANCH   8  15
HETATM   15  C   UNL     1      -8.973   3.992  72.070  1.00  0.00    -0.152 A  
HETATM   16  C   UNL     1      -7.654   2.277  73.195  1.00  0.00    -0.042 A  
HETATM   17  C   UNL     1      -9.912   2.710  73.919  1.00  0.00    -0.154 A  
HETATM   18  C   UNL     1      -8.727   1.990  74.035  1.00  0.00    -0.062 A  
HETATM   19  C   UNL     1     -10.036   3.700  72.943  1.00  0.00    -0.221 A  
HETATM   20  C   UNL     1      -7.769   3.279  72.228  1.00  0.00    -0.058 A  
ENDBRANCH   8  15
ENDBRANCH   4   8
ENDBRANCH   1   2
BRANCH   1  21
HETATM   21  C   UNL     1     -12.532   9.901  69.914  1.00  0.00     0.289 C  
HETATM   22  C   UNL     1     -11.507  10.579  69.373  1.00  0.00    -0.329 C  
BRANCH  22  23
HETATM   23  C   UNL     1     -11.683  11.911  68.809  1.00  0.00    -0.379 A  
HETATM   24  C   UNL     1     -11.896  12.994  69.669  1.00  0.00    -0.385 A  
HETATM   25  C   UNL     1     -12.065  14.278  69.151  1.00  0.00    -0.337 A  
HETATM   26  C   UNL     1     -11.647  12.119  67.428  1.00  0.00    -0.410 A  
HETATM   27  C   UNL     1     -11.816  13.405  66.911  1.00  0.00    -0.453 A  
HETATM   28  C   UNL     1     -12.021  14.482  67.772  1.00  0.00    -0.345 A  
ENDBRANCH  22  23
ENDBRANCH   1  21
TORSDOF 6
ENDMDL
MODEL      163
REMARK 921   NORMALIZED FREE ENERGY PREDICTED BY IDOCK:   -1.11 KCAL/MOL
REMARK 922        TOTAL FREE ENERGY PREDICTED BY IDOCK:   -1.45 KCAL/MOL
REMARK 923 INTER-LIGAND FREE ENERGY PREDICTED BY IDOCK:   -2.49 KCAL/MOL
REMARK 924 INTRA-LIGAND FREE ENERGY PREDICTED BY IDOCK:    1.05 KCAL/MOL
REMARK 927      BINDING AFFINITY PREDICTED BY RF-SCORE:    0.00 PKD
ROOT
HETATM    1  C   UNL     1     -12.197  13.734  71.104  1.00  0.00    -0.278 C  
ENDROOT
BRANCH   1   2
HETATM    2  N   UNL     1     -11.026  13.891  70.226  1.00  0.00     0.307 NA 
HETATM    3  C   UNL     1     -12.242  14.523  68.075  1.00  0.00    -0.092 C  
HETATM    4  N   UNL     1     -11.835  13.288  67.353  1.00  0.00    -0.368 NA 
HETATM    5  C   UNL     1     -10.673  12.635  69.524  1.00  0.00     0.318 C  
HETATM    6  C   UNL     1     -11.291  14.947  69.223  1.00  0.00    -0.296 C  
HETATM    7  C   UNL     1     -11.635  12.237  68.379  1.00  0.00    -0.326 C  
BRANCH   4   8
HETATM    8  C   UNL     1     -10.616  13.506  66.504  1.00  0.00    -0.281 C  
BRANCH   8   9
HETATM    9  C   UNL     1     -10.490  12.469  65.374  1.00  0.00    -0.308 A  
HETATM   10  C   UNL     1     -10.343  12.004  62.977  1.00  0.00    -0.095 A  
HETATM   11  C   UNL     1     -10.118  11.137  65.617  1.00  0.00    -0.304 A  
HETATM   12  C   UNL     1      -9.947  10.697  63.244  1.00  0.00    -0.314 A  
HETATM   13  C   UNL     1      -9.853  10.259  64.562  1.00  0.00    -0.384 A  
HETATM   14  C   UNL     1     -10.623  12.881  64.031  1.00  0.00    -0.418 A  
ENDBRANCH   8   9
BRANCH   8  15
HETATM   15  C   UNL     1     -10.535  14.964  66.024  1.00  0.00    -0.326 A  
HETATM   16  C   UNL     1     -11.256  16.666  64.433  1.00  0.00     0.218 A  
HETATM   17  C   UNL     1      -9.272  17.032  65.754  1.00  0.00     0.074 A  
HETATM   18  C   UNL     1     -10.165  17.461  64.777  1.00  0.00     1.856 A  
HETATM   19  C   UNL     1      -9.453  15.793  66.370  1.00  0.00    -0.326 A  
HETATM   20  C   UNL     1     -11.449  15.433  65.061  1.00  0.00    -0.263 A  
ENDBRANCH   8  15
ENDBRANCH   4   8
ENDBRANCH   1   2
BRANCH   1  21
HETATM   21  C   UNL     1     -12.740  12.340  71.098  1.00  0.00    -0.340 C  
HETATM   22  C   UNL     1     -12.214  11.351  71.839  1.00  0.00     0.591 C  
BRANCH  22  23
HETATM   23  C   UNL     1     -12.746   9.996  71.793  1.00  0.00    -0.526 A  
HETATM   24  C   UNL     1     -12.308   9.123  70.790  1.00  0.00    -0.103 A  
HETATM   25  C   UNL     1     -12.803   7.821  70.730  1.00  0.00     0.156 A  
HETATM   26  C   UNL     1     -13.686   9.559  72.731  1.00  0.00    -0.113 A  
HETATM   27  C   UNL     1     -14.179   8.254  72.669  1.00  0.00    -0.087 A  
HETATM   28  C   UNL     1     -13.735   7.386  71.671  1.00  0.00    -0.468 A  
ENDBRANCH  22  23
ENDBRANCH   1  21
TORSDOF 6
ENDMDL
MODEL      164
REMARK 921   NORMALIZED FREE ENERGY PREDICTED BY IDOCK:   -0.89 KCAL/MOL
REMARK 922        TOTAL FREE ENERGY PREDICTED BY IDOCK:   -1.14 KCAL/MOL
REMARK 923 INTER-LIGAND FREE ENERGY PREDICTED BY IDOCK:   -6.33 KCAL/MOL
REMARK 924 INTRA-LIGAND FREE ENERGY PREDICTED BY IDOCK:    5.19 KCAL/MOL
REMARK 927      BINDING AFFINITY PREDICTED BY RF-SCORE:    0.00 PKD
ROOT
HETATM    1  C   UNL     1      -8.302   6.604  68.233  1.00  0.00    -0.117 C  
ENDROOT
BRANCH   1   2
HETATM    2  N   UNL     1      -8.013   8.028  67.996  1.00  0.00    -0.126 NA 
HETATM    3  C   UNL     1     -10.187   8.672  66.828  1.00  0.00    -0.291 C  
HETATM    4  N   UNL     1      -9.528   8.965  65.527  1.00  0.00    -0.163 NA 
HETATM    5  C   UNL     1      -7.370   8.263  66.682  1.00  0.00    -0.082 C  
HETATM    6  C   UNL     1      -9.267   8.812  68.068  1.00  0.00    -0.139 C  
HETATM    7  C   UNL     1      -8.311   8.122  65.462  1.00  0.00    -0.153 C  
BRANCH   4   8
HETATM    8  C   UNL     1      -9.230  10.427  65.363  1.00  0.00    -0.193 C  
BRANCH   8   9
HETATM    9  C   UNL     1     -10.487  11.256  65.049  1.00  0.00    -0.359 A  
HETATM   10  C   UNL     1     -12.147  12.890  65.795  1.00  0.00    -0.513 A  
HETATM   11  C   UNL     1     -10.974  11.414  63.742  1.00  0.00    -0.448 A  
HETATM   12  C   UNL     1     -12.593  13.052  64.486  1.00  0.00    -0.387 A  
HETATM   13  C   UNL     1     -12.019  12.300  63.463  1.00  0.00    -0.625 A  
HETATM   14  C   UNL     1     -11.112  11.993  66.077  1.00  0.00    -0.364 A  
ENDBRANCH   8   9
BRANCH   8  15
HETATM   15  C   UNL     1      -8.412  10.958  66.552  1.00  0.00    -0.159 A  
HETATM   16  C   UNL     1      -6.239  11.194  67.631  1.00  0.00    -0.053 A  
HETATM   17  C   UNL     1      -8.251  11.536  68.915  1.00  0.00    -0.019 A  
HETATM   18  C   UNL     1      -6.863  11.483  68.843  1.00  0.00    -0.095 A  
HETATM   19  C   UNL     1      -9.020  11.273  67.780  1.00  0.00    -0.141 A  
HETATM   20  C   UNL     1      -7.006  10.947  66.490  1.00  0.00    -0.139 A  
ENDBRANCH   8  15
ENDBRANCH   4   8
ENDBRANCH   1   2
BRANCH   1  21
HETATM   21  C   UNL     1      -8.888   6.351  69.586  1.00  0.00    -0.137 C  
HETATM   22  C   UNL     1      -8.954   5.126  70.132  1.00  0.00    -0.151 C  
BRANCH  22  23
HETATM   23  C   UNL     1      -9.555   4.903  71.441  1.00  0.00    -0.226 A  
HETATM   24  C   UNL     1      -8.931   4.030  72.339  1.00  0.00    -0.133 A  
HETATM   25  C   UNL     1      -9.488   3.804  73.597  1.00  0.00    -0.120 A  
HETATM   26  C   UNL     1     -10.742   5.543  71.806  1.00  0.00    -0.289 A  
HETATM   27  C   UNL     1     -11.297   5.316  73.067  1.00  0.00    -0.376 A  
HETATM   28  C   UNL     1     -10.669   4.450  73.962  1.00  0.00    -0.334 A  
ENDBRANCH  22  23
ENDBRANCH   1  21
TORSDOF 6
ENDMDL
MODEL      165
REMARK 921   NORMALIZED FREE ENERGY PREDICTED BY IDOCK:   -0.37 KCAL/MOL
REMARK 922        TOTAL FREE ENERGY PREDICTED BY IDOCK:   -0.44 KCAL/MOL
REMARK 923 INTER-LIGAND FREE ENERGY PREDICTED BY IDOCK:   -3.16 KCAL/MOL
REMARK 924 INTRA-LIGAND FREE ENERGY PREDICTED BY IDOCK:    2.71 KCAL/MOL
REMARK 927      BINDING AFFINITY PREDICTED BY RF-SCORE:    0.00 PKD
ROOT
HETATM    1  C   UNL     1     -11.363   8.509  71.715  1.00  0.00    -0.307 C  
ENDROOT
BRANCH   1   2
HETATM    2  N   UNL     1     -11.210   8.718  70.267  1.00  0.00    -0.233 NA 
HETATM    3  C   UNL     1     -11.448   6.296  69.503  1.00  0.00    -0.317 C  
HETATM    4  N   UNL     1     -10.050   6.201  69.005  1.00  0.00    -0.161 NA 
HETATM    5  C   UNL     1      -9.801   8.600  69.824  1.00  0.00    -0.183 C  
HETATM    6  C   UNL     1     -12.032   7.732  69.529  1.00  0.00     1.121 C  
HETATM    7  C   UNL     1      -9.244   7.156  69.802  1.00  0.00    -0.143 C  
BRANCH   4   8
HETATM    8  C   UNL     1      -9.957   6.458  67.528  1.00  0.00    -0.136 C  
BRANCH   8   9
HETATM    9  C   UNL     1      -9.135   7.715  67.196  1.00  0.00    -0.146 A  
HETATM   10  C   UNL     1      -6.945   8.793  67.039  1.00  0.00    -0.074 A  
HETATM   11  C   UNL     1      -9.680   8.805  66.498  1.00  0.00    -0.328 A  
HETATM   12  C   UNL     1      -7.504   9.847  66.322  1.00  0.00    -0.102 A  
HETATM   13  C   UNL     1      -8.873   9.862  66.068  1.00  0.00    -0.166 A  
HETATM   14  C   UNL     1      -7.754   7.741  67.483  1.00  0.00    -0.117 A  
ENDBRANCH   8   9
BRANCH   8  15
HETATM   15  C   UNL     1      -9.499   5.196  66.779  1.00  0.00    -0.143 A  
HETATM   16  C   UNL     1      -9.135   4.069  64.648  1.00  0.00    -0.141 A  
HETATM   17  C   UNL     1      -9.248   2.773  66.678  1.00  0.00    -0.114 A  
HETATM   18  C   UNL     1      -9.108   2.836  65.295  1.00  0.00    -0.148 A  
HETATM   19  C   UNL     1      -9.446   3.942  67.414  1.00  0.00    -0.236 A  
HETATM   20  C   UNL     1      -9.316   5.243  65.384  1.00  0.00    -0.049 A  
ENDBRANCH   8  15
ENDBRANCH   4   8
ENDBRANCH   1   2
BRANCH   1  21
HETATM   21  C   UNL     1     -10.540   7.368  72.225  1.00  0.00    -0.270 C  
HETATM   22  C   UNL     1      -9.302   7.529  72.721  1.00  0.00    -0.217 C  
BRANCH  22  23
HETATM   23  C   UNL     1      -8.511   6.397  73.185  1.00  0.00    -0.119 A  
HETATM   24  C   UNL     1      -8.854   5.107  72.766  1.00  0.00    -0.118 A  
HETATM   25  C   UNL     1      -8.108   4.009  73.197  1.00  0.00    -0.089 A  
HETATM   26  C   UNL     1      -7.424   6.583  74.043  1.00  0.00    -0.083 A  
HETATM   27  C   UNL     1      -6.679   5.483  74.473  1.00  0.00    -0.073 A  
HETATM   28  C   UNL     1      -7.019   4.199  74.048  1.00  0.00    -0.061 A  
ENDBRANCH  22  23
ENDBRANCH   1  21
TORSDOF 6
ENDMDL
MODEL      166
REMARK 921   NORMALIZED FREE ENERGY PREDICTED BY IDOCK:   -0.34 KCAL/MOL
REMARK 922        TOTAL FREE ENERGY PREDICTED BY IDOCK:   -0.40 KCAL/MOL
REMARK 923 INTER-LIGAND FREE ENERGY PREDICTED BY IDOCK:   -3.97 KCAL/MOL
REMARK 924 INTRA-LIGAND FREE ENERGY PREDICTED BY IDOCK:    3.57 KCAL/MOL
REMARK 927      BINDING AFFINITY PREDICTED BY RF-SCORE:    0.00 PKD
ROOT
HETATM    1  C   UNL     1     -10.134   6.286  68.071  1.00  0.00    -0.152 C  
ENDROOT
BRANCH   1   2
HETATM    2  N   UNL     1      -8.992   7.212  68.002  1.00  0.00    -0.128 NA 
HETATM    3  C   UNL     1     -10.229   9.385  68.503  1.00  0.00    -0.199 C  
HETATM    4  N   UNL     1      -9.979   9.966  67.157  1.00  0.00    -0.189 NA 
HETATM    5  C   UNL     1      -8.798   7.769  66.643  1.00  0.00    -0.148 C  
HETATM    6  C   UNL     1      -9.191   8.326  68.956  1.00  0.00    -0.147 C  
HETATM    7  C   UNL     1      -9.843   8.828  66.217  1.00  0.00    -0.272 C  
BRANCH   4   8
HETATM    8  C   UNL     1      -8.783  10.872  67.146  1.00  0.00    -0.132 C  
BRANCH   8   9
HETATM    9  C   UNL     1      -9.168  12.359  67.059  1.00  0.00    -0.208 A  
HETATM   10  C   UNL     1      -8.621  14.688  67.566  1.00  0.00    -0.196 A  
HETATM   11  C   UNL     1     -10.180  12.823  66.203  1.00  0.00    -0.286 A  
HETATM   12  C   UNL     1      -9.610  15.124  66.689  1.00  0.00    -0.272 A  
HETATM   13  C   UNL     1     -10.401  14.192  66.022  1.00  0.00    -0.316 A  
HETATM   14  C   UNL     1      -8.408  13.320  67.759  1.00  0.00    -0.171 A  
ENDBRANCH   8   9
BRANCH   8  15
HETATM   15  C   UNL     1      -7.832  10.541  68.307  1.00  0.00    -0.111 A  
HETATM   16  C   UNL     1      -5.827   9.386  69.079  1.00  0.00    -0.039 A  
HETATM   17  C   UNL     1      -7.454  10.154  70.684  1.00  0.00     0.335 A  
HETATM   18  C   UNL     1      -6.259   9.502  70.398  1.00  0.00    -0.064 A  
HETATM   19  C   UNL     1      -8.236  10.665  69.648  1.00  0.00     0.046 A  
HETATM   20  C   UNL     1      -6.600   9.912  68.041  1.00  0.00    -0.060 A  
ENDBRANCH   8  15
ENDBRANCH   4   8
ENDBRANCH   1   2
BRANCH   1  21
HETATM   21  C   UNL     1     -10.254   5.426  66.854  1.00  0.00    -0.279 C  
HETATM   22  C   UNL     1      -9.458   4.368  66.629  1.00  0.00    -0.190 C  
BRANCH  22  23
HETATM   23  C   UNL     1      -9.579   3.562  65.422  1.00  0.00    -0.132 A  
HETATM   24  C   UNL     1     -10.211   4.105  64.298  1.00  0.00    -0.133 A  
HETATM   25  C   UNL     1     -10.336   3.352  63.131  1.00  0.00    -0.193 A  
HETATM   26  C   UNL     1      -9.077   2.258  65.373  1.00  0.00    -0.106 A  
HETATM   27  C   UNL     1      -9.202   1.506  64.204  1.00  0.00    -0.117 A  
HETATM   28  C   UNL     1      -9.828   2.054  63.084  1.00  0.00    -0.106 A  
ENDBRANCH  22  23
ENDBRANCH   1  21
TORSDOF 6
ENDMDL
MODEL      167
REMARK 921   NORMALIZED FREE ENERGY PREDICTED BY IDOCK:    0.07 KCAL/MOL
REMARK 922        TOTAL FREE ENERGY PREDICTED BY IDOCK:    0.15 KCAL/MOL
REMARK 923 INTER-LIGAND FREE ENERGY PREDICTED BY IDOCK:   -4.46 KCAL/MOL
REMARK 924 INTRA-LIGAND FREE ENERGY PREDICTED BY IDOCK:    4.61 KCAL/MOL
REMARK 927      BINDING AFFINITY PREDICTED BY RF-SCORE:    0.00 PKD
ROOT
HETATM    1  C   UNL     1     -11.260   9.275  70.408  1.00  0.00    -0.247 C  
ENDROOT
BRANCH   1   2
HETATM    2  N   UNL     1      -9.961   8.758  70.867  1.00  0.00    -0.205 NA 
HETATM    3  C   UNL     1      -9.849   6.662  69.420  1.00  0.00    -0.151 C  
HETATM    4  N   UNL     1      -9.925   5.727  70.575  1.00  0.00    -0.185 NA 
HETATM    5  C   UNL     1     -10.096   7.824  72.010  1.00  0.00    -0.191 C  
HETATM    6  C   UNL     1      -9.277   8.063  69.754  1.00  0.00    -0.149 C  
HETATM    7  C   UNL     1     -10.665   6.431  71.648  1.00  0.00    -0.232 C  
BRANCH   4   8
HETATM    8  C   UNL     1      -8.566   5.264  71.016  1.00  0.00    -0.123 C  
BRANCH   8   9
HETATM    9  C   UNL     1      -7.610   6.432  71.311  1.00  0.00    -0.094 A  
HETATM   10  C   UNL     1      -6.690   8.015  72.933  1.00  0.00    -0.092 A  
HETATM   11  C   UNL     1      -6.595   6.814  70.419  1.00  0.00    -0.048 A  
HETATM   12  C   UNL     1      -5.676   8.355  72.042  1.00  0.00    -0.045 A  
HETATM   13  C   UNL     1      -5.639   7.769  70.780  1.00  0.00    -0.030 A  
HETATM   14  C   UNL     1      -7.655   7.071  72.568  1.00  0.00    -0.089 A  
ENDBRANCH   8   9
BRANCH   8  15
HETATM   15  C   UNL     1      -8.679   4.244  72.160  1.00  0.00    -0.120 A  
HETATM   16  C   UNL     1      -9.541   2.105  72.953  1.00  0.00    -0.133 A  
HETATM   17  C   UNL     1      -8.778   3.747  74.545  1.00  0.00    -0.093 A  
HETATM   18  C   UNL     1      -9.333   2.501  74.272  1.00  0.00    -0.101 A  
HETATM   19  C   UNL     1      -8.457   4.613  73.499  1.00  0.00    -0.102 A  
HETATM   20  C   UNL     1      -9.205   2.964  71.903  1.00  0.00    -0.171 A  
ENDBRANCH   8  15
ENDBRANCH   4   8
ENDBRANCH   1   2
BRANCH   1  21
HETATM   21  C   UNL     1     -11.180   9.921  69.062  1.00  0.00    -0.131 C  
HETATM   22  C   UNL     1     -10.016  10.160  68.437  1.00  0.00    -0.173 C  
BRANCH  22  23
HETATM   23  C   UNL     1      -9.965  10.816  67.137  1.00  0.00    -0.230 A  
HETATM   24  C   UNL     1     -10.102  12.207  67.068  1.00  0.00    -0.219 A  
HETATM   25  C   UNL     1     -10.054  12.855  65.834  1.00  0.00    -0.295 A  
HETATM   26  C   UNL     1      -9.788  10.077  65.964  1.00  0.00    -0.321 A  
HETATM   27  C   UNL     1      -9.740  10.728  64.730  1.00  0.00    -0.338 A  
HETATM   28  C   UNL     1      -9.870  12.115  64.666  1.00  0.00    -0.153 A  
ENDBRANCH  22  23
ENDBRANCH   1  21
TORSDOF 6
ENDMDL
MODEL      168
REMARK 921   NORMALIZED FREE ENERGY PREDICTED BY IDOCK:    0.10 KCAL/MOL
REMARK 922        TOTAL FREE ENERGY PREDICTED BY IDOCK:    0.19 KCAL/MOL
REMARK 923 INTER-LIGAND FREE ENERGY PREDICTED BY IDOCK:   -3.43 KCAL/MOL
REMARK 924 INTRA-LIGAND FREE ENERGY PREDICTED BY IDOCK:    3.62 KCAL/MOL
REMARK 927      BINDING AFFINITY PREDICTED BY RF-SCORE:    0.00 PKD
ROOT
HETATM    1  C   UNL     1     -12.597  14.456  71.834  1.00  0.00    -0.337 C  
ENDROOT
BRANCH   1   2
HETATM    2  N   UNL     1     -11.405  14.793  71.039  1.00  0.00    -0.204 NA 
HETATM    3  C   UNL     1     -12.570  15.501  68.884  1.00  0.00     0.478 C  
HETATM    4  N   UNL     1     -12.016  14.375  68.086  1.00  0.00    -0.316 NA 
HETATM    5  C   UNL     1     -10.904  13.640  70.255  1.00  0.00     0.891 C  
HETATM    6  C   UNL     1     -11.718  15.906  70.114  1.00  0.00    -0.334 C  
HETATM    7  C   UNL     1     -11.769  13.260  69.030  1.00  0.00    -0.322 C  
BRANCH   4   8
HETATM    8  C   UNL     1     -10.784  14.774  67.326  1.00  0.00    -0.294 C  
BRANCH   8   9
HETATM    9  C   UNL     1      -9.490  14.500  68.111  1.00  0.00    -0.208 A  
HETATM   10  C   UNL     1      -7.573  13.039  68.525  1.00  0.00    -0.121 A  
HETATM   11  C   UNL     1      -8.855  15.488  68.880  1.00  0.00    -0.217 A  
HETATM   12  C   UNL     1      -6.950  14.045  69.258  1.00  0.00    -0.084 A  
HETATM   13  C   UNL     1      -7.599  15.262  69.450  1.00  0.00    -0.219 A  
HETATM   14  C   UNL     1      -8.836  13.258  67.966  1.00  0.00    -0.190 A  
ENDBRANCH   8   9
BRANCH   8  15
HETATM   15  C   UNL     1     -10.794  14.176  65.910  1.00  0.00    -0.294 A  
HETATM   16  C   UNL     1     -11.965  13.889  63.790  1.00  0.00    -0.305 A  
HETATM   17  C   UNL     1     -10.144  12.413  64.356  1.00  0.00    -0.293 A  
HETATM   18  C   UNL     1     -11.150  12.803  63.478  1.00  0.00    -0.377 A  
HETATM   19  C   UNL     1      -9.970  13.091  65.564  1.00  0.00    -0.226 A  
HETATM   20  C   UNL     1     -11.781  14.580  64.990  1.00  0.00    -0.392 A  
ENDBRANCH   8  15
ENDBRANCH   4   8
ENDBRANCH   1   2
BRANCH   1  21
HETATM   21  C   UNL     1     -13.081  13.063  71.587  1.00  0.00    -0.440 C  
HETATM   22  C   UNL     1     -12.477  11.980  72.105  1.00  0.00     0.587 C  
BRANCH  22  23
HETATM   23  C   UNL     1     -12.953  10.632  71.827  1.00  0.00    -0.577 A  
HETATM   24  C   UNL     1     -13.702   9.958  72.798  1.00  0.00     0.304 A  
HETATM   25  C   UNL     1     -14.170   8.667  72.551  1.00  0.00    -0.371 A  
HETATM   26  C   UNL     1     -12.669  10.005  70.611  1.00  0.00    -0.282 A  
HETATM   27  C   UNL     1     -13.139   8.713  70.365  1.00  0.00     1.048 A  
HETATM   28  C   UNL     1     -13.890   8.047  71.333  1.00  0.00    -0.329 A  
ENDBRANCH  22  23
ENDBRANCH   1  21
TORSDOF 6
ENDMDL
MODEL      169
REMARK 921   NORMALIZED FREE ENERGY PREDICTED BY IDOCK:    0.20 KCAL/MOL
REMARK 922        TOTAL FREE ENERGY PREDICTED BY IDOCK:    0.33 KCAL/MOL
REMARK 923 INTER-LIGAND FREE ENERGY PREDICTED BY IDOCK:   -1.57 KCAL/MOL
REMARK 924 INTRA-LIGAND FREE ENERGY PREDICTED BY IDOCK:    1.90 KCAL/MOL
REMARK 927      BINDING AFFINITY PREDICTED BY RF-SCORE:    0.00 PKD
ROOT
HETATM    1  C   UNL     1     -10.353   4.848  66.545  1.00  0.00    -0.270 C  
ENDROOT
BRANCH   1   2
HETATM    2  N   UNL     1      -9.453   4.320  67.584  1.00  0.00    -0.165 NA 
HETATM    3  C   UNL     1     -10.628   5.281  69.633  1.00  0.00    -0.191 C  
HETATM    4  N   UNL     1      -9.499   6.180  69.994  1.00  0.00    -0.153 NA 
HETATM    5  C   UNL     1      -8.356   5.261  67.912  1.00  0.00    -0.098 C  
HETATM    6  C   UNL     1     -10.224   4.029  68.813  1.00  0.00     0.569 C  
HETATM    7  C   UNL     1      -8.785   6.499  68.735  1.00  0.00    -0.123 C  
BRANCH   4   8
HETATM    8  C   UNL     1      -8.601   5.570  71.031  1.00  0.00    -0.126 C  
BRANCH   8   9
HETATM    9  C   UNL     1      -7.389   6.459  71.362  1.00  0.00    -0.084 A  
HETATM   10  C   UNL     1      -6.085   8.470  70.877  1.00  0.00    -0.035 A  
HETATM   11  C   UNL     1      -6.656   6.315  72.550  1.00  0.00    -0.064 A  
HETATM   12  C   UNL     1      -5.392   8.323  72.076  1.00  0.00    -0.036 A  
HETATM   13  C   UNL     1      -5.664   7.236  72.902  1.00  0.00    -0.041 A  
HETATM   14  C   UNL     1      -7.067   7.542  70.517  1.00  0.00    -0.056 A  
ENDBRANCH   8   9
BRANCH   8  15
HETATM   15  C   UNL     1      -9.406   5.128  72.264  1.00  0.00    -0.158 A  
HETATM   16  C   UNL     1     -11.003   3.569  73.246  1.00  0.00    -0.271 A  
HETATM   17  C   UNL     1     -10.570   5.676  74.335  1.00  0.00    -0.094 A  
HETATM   18  C   UNL     1     -11.252   4.465  74.283  1.00  0.00     0.330 A  
HETATM   19  C   UNL     1      -9.657   6.007  73.332  1.00  0.00    -0.144 A  
HETATM   20  C   UNL     1     -10.077   3.891  72.250  1.00  0.00    -0.234 A  
ENDBRANCH   8  15
ENDBRANCH   4   8
ENDBRANCH   1   2
BRANCH   1  21
HETATM   21  C   UNL     1      -9.654   5.752  65.580  1.00  0.00     0.129 C  
HETATM   22  C   UNL     1      -8.343   5.649  65.306  1.00  0.00    -0.146 C  
BRANCH  22  23
HETATM   23  C   UNL     1      -7.681   6.560  64.382  1.00  0.00    -0.109 A  
HETATM   24  C   UNL     1      -8.414   7.116  63.327  1.00  0.00     0.313 A  
HETATM   25  C   UNL     1      -7.801   7.992  62.432  1.00  0.00    -0.139 A  
HETATM   26  C   UNL     1      -6.329   6.879  64.531  1.00  0.00    -0.036 A  
HETATM   27  C   UNL     1      -5.717   7.757  63.634  1.00  0.00    -0.053 A  
HETATM   28  C   UNL     1      -6.453   8.314  62.588  1.00  0.00    -0.087 A  
ENDBRANCH  22  23
ENDBRANCH   1  21
TORSDOF 6
ENDMDL
MODEL      170
REMARK 921   NORMALIZED FREE ENERGY PREDICTED BY IDOCK:    0.63 KCAL/MOL
REMARK 922        TOTAL FREE ENERGY PREDICTED BY IDOCK:    0.90 KCAL/MOL
REMARK 923 INTER-LIGAND FREE ENERGY PREDICTED BY IDOCK:   -3.16 KCAL/MOL
REMARK 924 INTRA-LIGAND FREE ENERGY PREDICTED BY IDOCK:    4.07 KCAL/MOL
REMARK 927      BINDING AFFINITY PREDICTED BY RF-SCORE:    0.00 PKD
ROOT
HETATM    1  C   UNL     1     -12.208  14.251  71.302  1.00  0.00    -0.350 C  
ENDROOT
BRANCH   1   2
HETATM    2  N   UNL     1     -11.033  14.443  70.436  1.00  0.00     0.075 NA 
HETATM    3  C   UNL     1     -12.242  15.116  68.294  1.00  0.00     0.126 C  
HETATM    4  N   UNL     1     -11.816  13.905  67.543  1.00  0.00    -0.378 NA 
HETATM    5  C   UNL     1     -10.662  13.209  69.704  1.00  0.00     0.420 C  
HETATM    6  C   UNL     1     -11.303  15.522  69.459  1.00  0.00    -0.313 C  
HETATM    7  C   UNL     1     -11.612  12.830  68.543  1.00  0.00    -0.321 C  
BRANCH   4   8
HETATM    8  C   UNL     1     -10.595  14.158  66.708  1.00  0.00    -0.277 C  
BRANCH   8   9
HETATM    9  C   UNL     1      -9.732  15.308  67.255  1.00  0.00    -0.212 A  
HETATM   10  C   UNL     1      -7.826  16.022  68.611  1.00  0.00    -0.179 A  
HETATM   11  C   UNL     1      -9.803  16.611  66.736  1.00  0.00    -0.280 A  
HETATM   12  C   UNL     1      -7.898  17.298  68.060  1.00  0.00    -0.205 A  
HETATM   13  C   UNL     1      -8.897  17.597  67.137  1.00  0.00    -0.251 A  
HETATM   14  C   UNL     1      -8.741  15.038  68.222  1.00  0.00    -0.166 A  
ENDBRANCH   8   9
BRANCH   8  15
HETATM   15  C   UNL     1      -9.816  12.855  66.464  1.00  0.00    -0.254 A  
HETATM   16  C   UNL     1      -9.835  10.546  65.680  1.00  0.00    -0.311 A  
HETATM   17  C   UNL     1      -8.027  11.316  67.077  1.00  0.00    -0.150 A  
HETATM   18  C   UNL     1      -8.648  10.295  66.365  1.00  0.00    -0.138 A  
HETATM   19  C   UNL     1      -8.608  12.584  67.130  1.00  0.00    -0.200 A  
HETATM   20  C   UNL     1     -10.410  11.819  65.717  1.00  0.00    -0.293 A  
ENDBRANCH   8  15
ENDBRANCH   4   8
ENDBRANCH   1   2
BRANCH   1  21
HETATM   21  C   UNL     1     -12.798  12.882  71.178  1.00  0.00    -0.326 C  
HETATM   22  C   UNL     1     -12.452  11.866  71.985  1.00  0.00     0.354 C  
BRANCH  22  23
HETATM   23  C   UNL     1     -13.022  10.534  71.826  1.00  0.00    -0.582 A  
HETATM   24  C   UNL     1     -13.849  10.272  70.728  1.00  0.00     0.582 A  
HETATM   25  C   UNL     1     -14.403   9.004  70.555  1.00  0.00     0.815 A  
HETATM   26  C   UNL     1     -12.760   9.523  72.754  1.00  0.00     0.217 A  
HETATM   27  C   UNL     1     -13.316   8.254  72.579  1.00  0.00    -0.092 A  
HETATM   28  C   UNL     1     -14.133   7.995  71.480  1.00  0.00    -0.475 A  
ENDBRANCH  22  23
ENDBRANCH   1  21
TORSDOF 6
ENDMDL
MODEL      171
REMARK 921   NORMALIZED FREE ENERGY PREDICTED BY IDOCK:    0.68 KCAL/MOL
REMARK 922        TOTAL FREE ENERGY PREDICTED BY IDOCK:    0.98 KCAL/MOL
REMARK 923 INTER-LIGAND FREE ENERGY PREDICTED BY IDOCK:   -3.37 KCAL/MOL
REMARK 924 INTRA-LIGAND FREE ENERGY PREDICTED BY IDOCK:    4.36 KCAL/MOL
REMARK 927      BINDING AFFINITY PREDICTED BY RF-SCORE:    0.00 PKD
ROOT
HETATM    1  C   UNL     1     -11.607   8.404  68.832  1.00  0.00     1.192 C  
ENDROOT
BRANCH   1   2
HETATM    2  N   UNL     1     -10.907   9.333  67.931  1.00  0.00    -0.178 NA 
HETATM    3  C   UNL     1      -8.736   8.025  67.643  1.00  0.00    -0.126 C  
HETATM    4  N   UNL     1      -7.901   9.048  68.329  1.00  0.00    -0.099 NA 
HETATM    5  C   UNL     1     -10.082  10.320  68.666  1.00  0.00    -0.174 C  
HETATM    6  C   UNL     1     -10.038   8.572  67.004  1.00  0.00    -0.277 C  
HETATM    7  C   UNL     1      -8.785   9.750  69.289  1.00  0.00    -0.164 C  
BRANCH   4   8
HETATM    8  C   UNL     1      -7.243   9.984  67.357  1.00  0.00    -0.085 C  
BRANCH   8   9
HETATM    9  C   UNL     1      -7.474   9.574  65.892  1.00  0.00    -0.100 A  
HETATM   10  C   UNL     1      -7.011   8.017  64.064  1.00  0.00    -0.067 A  
HETATM   11  C   UNL     1      -8.511  10.118  65.117  1.00  0.00    -0.167 A  
HETATM   12  C   UNL     1      -8.064   8.552  63.327  1.00  0.00    -0.162 A  
HETATM   13  C   UNL     1      -8.801   9.614  63.845  1.00  0.00    -0.255 A  
HETATM   14  C   UNL     1      -6.711   8.530  65.330  1.00  0.00    -0.063 A  
ENDBRANCH   8   9
BRANCH   8  15
HETATM   15  C   UNL     1      -7.614  11.444  67.663  1.00  0.00    -0.108 A  
HETATM   16  C   UNL     1      -8.706  13.500  66.938  1.00  0.00    -0.158 A  
HETATM   17  C   UNL     1      -7.108  13.571  68.742  1.00  0.00    -0.103 A  
HETATM   18  C   UNL     1      -7.990  14.225  67.888  1.00  0.00    -0.156 A  
HETATM   19  C   UNL     1      -6.919  12.193  68.629  1.00  0.00    -0.097 A  
HETATM   20  C   UNL     1      -8.530  12.118  66.834  1.00  0.00    -0.173 A  
ENDBRANCH   8  15
ENDBRANCH   4   8
ENDBRANCH   1   2
BRANCH   1  21
HETATM   21  C   UNL     1     -10.722   7.875  69.916  1.00  0.00    -0.244 C  
HETATM   22  C   UNL     1     -11.200   7.403  71.079  1.00  0.00    -0.285 C  
BRANCH  22  23
HETATM   23  C   UNL     1     -10.315   6.918  72.130  1.00  0.00    -0.221 A  
HETATM   24  C   UNL     1     -10.734   6.989  73.463  1.00  0.00    -0.368 A  
HETATM   25  C   UNL     1      -9.903   6.529  74.484  1.00  0.00    -0.355 A  
HETATM   26  C   UNL     1      -9.058   6.390  71.825  1.00  0.00    -0.143 A  
HETATM   27  C   UNL     1      -8.228   5.928  72.849  1.00  0.00    -0.118 A  
HETATM   28  C   UNL     1      -8.652   5.996  74.176  1.00  0.00    -0.119 A  
ENDBRANCH  22  23
ENDBRANCH   1  21
TORSDOF 6
ENDMDL
MODEL      172
REMARK 921   NORMALIZED FREE ENERGY PREDICTED BY IDOCK:    0.73 KCAL/MOL
REMARK 922        TOTAL FREE ENERGY PREDICTED BY IDOCK:    1.04 KCAL/MOL
REMARK 923 INTER-LIGAND FREE ENERGY PREDICTED BY IDOCK:    0.72 KCAL/MOL
REMARK 924 INTRA-LIGAND FREE ENERGY PREDICTED BY IDOCK:    0.32 KCAL/MOL
REMARK 927      BINDING AFFINITY PREDICTED BY RF-SCORE:    0.00 PKD
ROOT
HETATM    1  C   UNL     1      -6.815  18.563  69.997  1.00  0.00     0.417 C  
ENDROOT
BRANCH   1   2
HETATM    2  N   UNL     1      -7.611  17.364  70.304  1.00  0.00     1.981 NA 
HETATM    3  C   UNL     1      -6.397  15.701  68.799  1.00  0.00    -0.104 C  
HETATM    4  N   UNL     1      -7.568  15.487  67.907  1.00  0.00    -0.125 NA 
HETATM    5  C   UNL     1      -8.755  17.193  69.378  1.00  0.00     0.334 C  
HETATM    6  C   UNL     1      -6.751  16.161  70.237  1.00  0.00     0.469 C  
HETATM    7  C   UNL     1      -8.374  16.729  67.952  1.00  0.00    -0.195 C  
BRANCH   4   8
HETATM    8  C   UNL     1      -8.357  14.269  68.294  1.00  0.00    -0.165 C  
BRANCH   8   9
HETATM    9  C   UNL     1      -9.601  14.066  67.412  1.00  0.00    -0.227 A  
HETATM   10  C   UNL     1     -12.031  13.838  67.254  1.00  0.00    -0.436 A  
HETATM   11  C   UNL     1      -9.561  14.207  66.015  1.00  0.00    -0.251 A  
HETATM   12  C   UNL     1     -11.968  14.011  65.874  1.00  0.00    -0.424 A  
HETATM   13  C   UNL     1     -10.733  14.176  65.254  1.00  0.00    -0.374 A  
HETATM   14  C   UNL     1     -10.858  13.854  68.016  1.00  0.00    -0.259 A  
ENDBRANCH   8   9
BRANCH   8  15
HETATM   15  C   UNL     1      -7.448  13.033  68.387  1.00  0.00    -0.128 A  
HETATM   16  C   UNL     1      -6.451  11.105  67.275  1.00  0.00    -0.079 A  
HETATM   17  C   UNL     1      -6.509  11.194  69.683  1.00  0.00    -0.128 A  
HETATM   18  C   UNL     1      -6.178  10.523  68.510  1.00  0.00    -0.046 A  
HETATM   19  C   UNL     1      -7.142  12.436  69.623  1.00  0.00     0.359 A  
HETATM   20  C   UNL     1      -7.070  12.357  67.212  1.00  0.00    -0.128 A  
ENDBRANCH   8  15
ENDBRANCH   4   8
ENDBRANCH   1   2
BRANCH   1  21
HETATM   21  C   UNL     1      -6.998  19.033  68.589  1.00  0.00    -0.319 C  
HETATM   22  C   UNL     1      -6.079  18.835  67.630  1.00  0.00    -0.192 C  
BRANCH  22  23
HETATM   23  C   UNL     1      -6.270  19.327  66.273  1.00  0.00    -0.189 A  
HETATM   24  C   UNL     1      -5.195  19.300  65.378  1.00  0.00    -0.183 A  
HETATM   25  C   UNL     1      -5.357  19.765  64.073  1.00  0.00    -0.251 A  
HETATM   26  C   UNL     1      -7.507  19.828  65.856  1.00  0.00    -0.335 A  
HETATM   27  C   UNL     1      -7.667  20.292  64.549  1.00  0.00     1.370 A  
HETATM   28  C   UNL     1      -6.594  20.258  63.659  1.00  0.00     0.326 A  
ENDBRANCH  22  23
ENDBRANCH   1  21
TORSDOF 6
ENDMDL
MODEL      173
REMARK 921   NORMALIZED FREE ENERGY PREDICTED BY IDOCK:    0.97 KCAL/MOL
REMARK 922        TOTAL FREE ENERGY PREDICTED BY IDOCK:    1.37 KCAL/MOL
REMARK 923 INTER-LIGAND FREE ENERGY PREDICTED BY IDOCK:    0.98 KCAL/MOL
REMARK 924 INTRA-LIGAND FREE ENERGY PREDICTED BY IDOCK:    0.39 KCAL/MOL
REMARK 927      BINDING AFFINITY PREDICTED BY RF-SCORE:    0.00 PKD
ROOT
HETATM    1  C   UNL     1     -10.177   4.021  66.121  1.00  0.00     0.073 C  
ENDROOT
BRANCH   1   2
HETATM    2  N   UNL     1      -9.207   3.350  67.002  1.00  0.00    -0.174 NA 
HETATM    3  C   UNL     1     -10.520   3.476  69.184  1.00  0.00     1.936 C  
HETATM    4  N   UNL     1      -9.546   4.386  69.845  1.00  0.00    -0.188 NA 
HETATM    5  C   UNL     1      -8.271   4.303  67.642  1.00  0.00    -0.098 C  
HETATM    6  C   UNL     1      -9.925   2.597  68.055  1.00  0.00     0.817 C  
HETATM    7  C   UNL     1      -8.889   5.165  68.769  1.00  0.00    -0.093 C  
BRANCH   4   8
HETATM    8  C   UNL     1      -8.565   3.637  70.700  1.00  0.00    -0.071 C  
BRANCH   8   9
HETATM    9  C   UNL     1      -7.327   4.478  71.054  1.00  0.00    -0.051 A  
HETATM   10  C   UNL     1      -5.131   5.333  70.400  1.00  0.00    -0.004 A  
HETATM   11  C   UNL     1      -7.314   5.377  72.133  1.00  0.00    -0.093 A  
HETATM   12  C   UNL     1      -5.154   6.236  71.459  1.00  0.00    -0.018 A  
HETATM   13  C   UNL     1      -6.236   6.245  72.335  1.00  0.00    -0.049 A  
HETATM   14  C   UNL     1      -6.201   4.454  70.205  1.00  0.00    -0.022 A  
ENDBRANCH   8   9
BRANCH   8  15
HETATM   15  C   UNL     1      -9.264   3.012  71.919  1.00  0.00    -0.174 A  
HETATM   16  C   UNL     1     -10.864   3.259  73.743  1.00  0.00    -0.310 A  
HETATM   17  C   UNL     1      -9.234   1.485  73.819  1.00  0.00    -0.066 A  
HETATM   18  C   UNL     1     -10.295   2.171  74.400  1.00  0.00    -0.183 A  
HETATM   19  C   UNL     1      -8.720   1.903  72.591  1.00  0.00    -0.067 A  
HETATM   20  C   UNL     1     -10.362   3.670  72.505  1.00  0.00    -0.199 A  
ENDBRANCH   8  15
ENDBRANCH   4   8
ENDBRANCH   1   2
BRANCH   1  21
HETATM   21  C   UNL     1      -9.570   5.147  65.346  1.00  0.00    -0.016 C  
HETATM   22  C   UNL     1      -9.399   6.375  65.860  1.00  0.00     0.017 C  
BRANCH  22  23
HETATM   23  C   UNL     1      -8.830   7.462  65.074  1.00  0.00     0.300 A  
HETATM   24  C   UNL     1      -8.533   7.246  63.724  1.00  0.00     0.327 A  
HETATM   25  C   UNL     1      -7.990   8.273  62.952  1.00  0.00    -0.163 A  
HETATM   26  C   UNL     1      -8.575   8.710  65.649  1.00  0.00    -0.191 A  
HETATM   27  C   UNL     1      -8.032   9.737  64.875  1.00  0.00    -0.133 A  
HETATM   28  C   UNL     1      -7.743   9.519  63.528  1.00  0.00    -0.123 A  
ENDBRANCH  22  23
ENDBRANCH   1  21
TORSDOF 6
ENDMDL
MODEL      174
REMARK 921   NORMALIZED FREE ENERGY PREDICTED BY IDOCK:    1.08 KCAL/MOL
REMARK 922        TOTAL FREE ENERGY PREDICTED BY IDOCK:    1.52 KCAL/MOL
REMARK 923 INTER-LIGAND FREE ENERGY PREDICTED BY IDOCK:   -3.94 KCAL/MOL
REMARK 924 INTRA-LIGAND FREE ENERGY PREDICTED BY IDOCK:    5.46 KCAL/MOL
REMARK 927      BINDING AFFINITY PREDICTED BY RF-SCORE:    0.00 PKD
ROOT
HETATM    1  C   UNL     1     -11.774   9.239  72.165  1.00  0.00    -0.146 C  
ENDROOT
BRANCH   1   2
HETATM    2  N   UNL     1     -11.679   9.502  70.720  1.00  0.00    -0.289 NA 
HETATM    3  C   UNL     1     -10.684   7.270  69.989  1.00  0.00    -0.245 C  
HETATM    4  N   UNL     1      -9.394   7.865  69.548  1.00  0.00    -0.156 NA 
HETATM    5  C   UNL     1     -10.370  10.081  70.336  1.00  0.00    -0.205 C  
HETATM    6  C   UNL     1     -11.890   8.244  69.967  1.00  0.00     0.447 C  
HETATM    7  C   UNL     1      -9.185   9.086  70.360  1.00  0.00    -0.209 C  
BRANCH   4   8
HETATM    8  C   UNL     1      -9.374   8.140  68.072  1.00  0.00    -0.135 C  
BRANCH   8   9
HETATM    9  C   UNL     1      -9.245   9.639  67.752  1.00  0.00    -0.135 A  
HETATM   10  C   UNL     1     -10.242  11.872  67.786  1.00  0.00    -0.211 A  
HETATM   11  C   UNL     1      -8.014  10.234  67.433  1.00  0.00    -0.107 A  
HETATM   12  C   UNL     1      -9.004  12.441  67.500  1.00  0.00    -0.183 A  
HETATM   13  C   UNL     1      -7.896  11.622  67.305  1.00  0.00    -0.157 A  
HETATM   14  C   UNL     1     -10.365  10.484  67.900  1.00  0.00    -0.226 A  
ENDBRANCH   8   9
BRANCH   8  15
HETATM   15  C   UNL     1      -8.334   7.258  67.363  1.00  0.00    -0.119 A  
HETATM   16  C   UNL     1      -6.305   7.123  66.017  1.00  0.00    -0.044 A  
HETATM   17  C   UNL     1      -7.757   5.205  66.182  1.00  0.00    -0.091 A  
HETATM   18  C   UNL     1      -6.612   5.809  65.671  1.00  0.00    -0.044 A  
HETATM   19  C   UNL     1      -8.613   5.924  67.017  1.00  0.00    -0.110 A  
HETATM   20  C   UNL     1      -7.151   7.839  66.867  1.00  0.00    -0.081 A  
ENDBRANCH   8  15
ENDBRANCH   4   8
ENDBRANCH   1   2
BRANCH   1  21
HETATM   21  C   UNL     1     -10.954   8.063  72.593  1.00  0.00    -0.448 C  
HETATM   22  C   UNL     1      -9.687   8.178  73.024  1.00  0.00    -0.327 C  
BRANCH  22  23
HETATM   23  C   UNL     1      -8.902   7.013  73.409  1.00  0.00    -0.164 A  
HETATM   24  C   UNL     1      -9.300   5.745  72.971  1.00  0.00    -0.143 A  
HETATM   25  C   UNL     1      -8.561   4.617  73.327  1.00  0.00    -0.102 A  
HETATM   26  C   UNL     1      -7.765   7.144  74.211  1.00  0.00    -0.134 A  
HETATM   27  C   UNL     1      -7.026   6.014  74.565  1.00  0.00    -0.090 A  
HETATM   28  C   UNL     1      -7.423   4.752  74.121  1.00  0.00    -0.082 A  
ENDBRANCH  22  23
ENDBRANCH   1  21
TORSDOF 6
ENDMDL
MODEL      175
REMARK 921   NORMALIZED FREE ENERGY PREDICTED BY IDOCK:    1.20 KCAL/MOL
REMARK 922        TOTAL FREE ENERGY PREDICTED BY IDOCK:    1.69 KCAL/MOL
REMARK 923 INTER-LIGAND FREE ENERGY PREDICTED BY IDOCK:   -0.59 KCAL/MOL
REMARK 924 INTRA-LIGAND FREE ENERGY PREDICTED BY IDOCK:    2.28 KCAL/MOL
REMARK 927      BINDING AFFINITY PREDICTED BY RF-SCORE:    0.00 PKD
ROOT
HETATM    1  C   UNL     1     -11.609  14.969  69.343  1.00  0.00    -0.315 C  
ENDROOT
BRANCH   1   2
HETATM    2  N   UNL     1     -10.951  16.280  69.467  1.00  0.00    -0.325 NA 
HETATM    3  C   UNL     1     -10.108  16.515  67.072  1.00  0.00    -0.279 C  
HETATM    4  N   UNL     1      -8.672  16.456  67.455  1.00  0.00    -0.177 NA 
HETATM    5  C   UNL     1      -9.521  16.161  69.838  1.00  0.00     0.302 C  
HETATM    6  C   UNL     1     -11.058  17.018  68.189  1.00  0.00    -0.163 C  
HETATM    7  C   UNL     1      -8.594  15.662  68.704  1.00  0.00    -0.188 C  
BRANCH   4   8
HETATM    8  C   UNL     1      -8.070  17.824  67.600  1.00  0.00    -0.222 C  
BRANCH   8   9
HETATM    9  C   UNL     1      -6.953  18.089  66.575  1.00  0.00    -0.255 A  
HETATM   10  C   UNL     1      -5.976  17.610  64.385  1.00  0.00     2.324 A  
HETATM   11  C   UNL     1      -6.083  19.186  66.682  1.00  0.00    -0.176 A  
HETATM   12  C   UNL     1      -5.144  18.720  64.501  1.00  0.00    -0.220 A  
HETATM   13  C   UNL     1      -5.185  19.496  65.656  1.00  0.00    -0.171 A  
HETATM   14  C   UNL     1      -6.864  17.289  65.416  1.00  0.00     1.155 A  
ENDBRANCH   8   9
BRANCH   8  15
HETATM   15  C   UNL     1      -9.162  18.905  67.627  1.00  0.00    -0.318 A  
HETATM   16  C   UNL     1     -10.383  20.647  66.435  1.00  0.00     0.161 A  
HETATM   17  C   UNL     1     -10.442  20.585  68.845  1.00  0.00     0.200 A  
HETATM   18  C   UNL     1     -10.809  21.188  67.646  1.00  0.00     2.128 A  
HETATM   19  C   UNL     1      -9.622  19.456  68.836  1.00  0.00    -0.477 A  
HETATM   20  C   UNL     1      -9.576  19.507  66.423  1.00  0.00    -0.469 A  
ENDBRANCH   8  15
ENDBRANCH   4   8
ENDBRANCH   1   2
BRANCH   1  21
HETATM   21  C   UNL     1     -11.367  14.326  68.014  1.00  0.00    -0.318 C  
HETATM   22  C   UNL     1     -12.341  13.732  67.306  1.00  0.00    -0.203 C  
BRANCH  22  23
HETATM   23  C   UNL     1     -12.074  13.088  66.026  1.00  0.00    -0.493 A  
HETATM   24  C   UNL     1     -12.503  13.707  64.847  1.00  0.00    -0.423 A  
HETATM   25  C   UNL     1     -12.255  13.110  63.612  1.00  0.00    -0.553 A  
HETATM   26  C   UNL     1     -11.401  11.865  65.963  1.00  0.00    -0.375 A  
HETATM   27  C   UNL     1     -11.153  11.269  64.725  1.00  0.00    -0.200 A  
HETATM   28  C   UNL     1     -11.577  11.892  63.551  1.00  0.00    -0.537 A  
ENDBRANCH  22  23
ENDBRANCH   1  21
TORSDOF 6
ENDMDL
MODEL      176
REMARK 921   NORMALIZED FREE ENERGY PREDICTED BY IDOCK:    1.30 KCAL/MOL
REMARK 922        TOTAL FREE ENERGY PREDICTED BY IDOCK:    1.82 KCAL/MOL
REMARK 923 INTER-LIGAND FREE ENERGY PREDICTED BY IDOCK:   -2.37 KCAL/MOL
REMARK 924 INTRA-LIGAND FREE ENERGY PREDICTED BY IDOCK:    4.18 KCAL/MOL
REMARK 927      BINDING AFFINITY PREDICTED BY RF-SCORE:    0.00 PKD
ROOT
HETATM    1  C   UNL     1     -10.579   6.597  69.666  1.00  0.00    -0.234 C  
ENDROOT
BRANCH   1   2
HETATM    2  N   UNL     1      -9.524   6.794  70.673  1.00  0.00    -0.169 NA 
HETATM    3  C   UNL     1      -8.615   9.028  69.844  1.00  0.00    -0.140 C  
HETATM    4  N   UNL     1      -7.287   8.473  69.470  1.00  0.00    -0.064 NA 
HETATM    5  C   UNL     1      -8.221   6.234  70.243  1.00  0.00    -0.125 C  
HETATM    6  C   UNL     1      -9.360   8.239  70.951  1.00  0.00    -0.159 C  
HETATM    7  C   UNL     1      -7.496   7.043  69.142  1.00  0.00    -0.095 C  
BRANCH   4   8
HETATM    8  C   UNL     1      -6.266   8.676  70.552  1.00  0.00    -0.036 C  
BRANCH   8   9
HETATM    9  C   UNL     1      -5.862  10.151  70.716  1.00  0.00    -0.094 A  
HETATM   10  C   UNL     1      -5.840  12.421  69.804  1.00  0.00    -0.123 A  
HETATM   11  C   UNL     1      -5.443  10.682  71.946  1.00  0.00     0.260 A  
HETATM   12  C   UNL     1      -5.454  12.926  71.042  1.00  0.00    -0.176 A  
HETATM   13  C   UNL     1      -5.238  12.056  72.107  1.00  0.00     0.307 A  
HETATM   14  C   UNL     1      -6.032  11.045  69.638  1.00  0.00    -0.070 A  
ENDBRANCH   8   9
BRANCH   8  15
HETATM   15  C   UNL     1      -6.709   8.001  71.860  1.00  0.00    -0.067 A  
HETATM   16  C   UNL     1      -7.920   8.168  73.970  1.00  0.00    -0.290 A  
HETATM   17  C   UNL     1      -6.302   6.407  73.659  1.00  0.00    -0.065 A  
HETATM   18  C   UNL     1      -7.230   7.062  74.463  1.00  0.00    -0.109 A  
HETATM   19  C   UNL     1      -6.041   6.874  72.370  1.00  0.00    -0.042 A  
HETATM   20  C   UNL     1      -7.672   8.627  72.674  1.00  0.00     0.011 A  
ENDBRANCH   8  15
ENDBRANCH   4   8
ENDBRANCH   1   2
BRANCH   1  21
HETATM   21  C   UNL     1     -10.092   5.870  68.453  1.00  0.00    -0.206 C  
HETATM   22  C   UNL     1     -10.843   5.708  67.352  1.00  0.00    -0.202 C  
BRANCH  22  23
HETATM   23  C   UNL     1     -10.354   4.972  66.194  1.00  0.00    -0.309 A  
HETATM   24  C   UNL     1     -11.274   4.423  65.294  1.00  0.00     0.362 A  
HETATM   25  C   UNL     1     -10.828   3.717  64.178  1.00  0.00    -0.151 A  
HETATM   26  C   UNL     1      -8.984   4.804  65.973  1.00  0.00    -0.126 A  
HETATM   27  C   UNL     1      -8.539   4.097  64.854  1.00  0.00    -0.118 A  
HETATM   28  C   UNL     1      -9.460   3.557  63.957  1.00  0.00    -0.138 A  
ENDBRANCH  22  23
ENDBRANCH   1  21
TORSDOF 6
ENDMDL
MODEL      177
REMARK 921   NORMALIZED FREE ENERGY PREDICTED BY IDOCK:    1.63 KCAL/MOL
REMARK 922        TOTAL FREE ENERGY PREDICTED BY IDOCK:    2.26 KCAL/MOL
REMARK 923 INTER-LIGAND FREE ENERGY PREDICTED BY IDOCK:   -2.63 KCAL/MOL
REMARK 924 INTRA-LIGAND FREE ENERGY PREDICTED BY IDOCK:    4.89 KCAL/MOL
REMARK 927      BINDING AFFINITY PREDICTED BY RF-SCORE:    0.00 PKD
ROOT
HETATM    1  C   UNL     1      -9.991   6.371  68.842  1.00  0.00    -0.147 C  
ENDROOT
BRANCH   1   2
HETATM    2  N   UNL     1      -8.640   6.628  69.366  1.00  0.00    -0.134 NA 
HETATM    3  C   UNL     1      -8.738   9.176  69.441  1.00  0.00    -0.140 C  
HETATM    4  N   UNL     1      -7.691   9.356  68.401  1.00  0.00    -0.085 NA 
HETATM    5  C   UNL     1      -7.641   6.812  68.287  1.00  0.00    -0.107 C  
HETATM    6  C   UNL     1      -8.656   7.838  70.220  1.00  0.00    -0.138 C  
HETATM    7  C   UNL     1      -7.741   8.158  67.530  1.00  0.00    -0.102 C  
BRANCH   4   8
HETATM    8  C   UNL     1      -6.332   9.580  68.999  1.00  0.00    -0.042 C  
BRANCH   8   9
HETATM    9  C   UNL     1      -6.106  11.042  69.421  1.00  0.00    -0.060 A  
HETATM   10  C   UNL     1      -6.703  13.401  69.173  1.00  0.00    -0.099 A  
HETATM   11  C   UNL     1      -5.380  11.387  70.573  1.00  0.00    -0.122 A  
HETATM   12  C   UNL     1      -6.002  13.713  70.334  1.00  0.00    -0.148 A  
HETATM   13  C   UNL     1      -5.325  12.709  71.023  1.00  0.00    -0.166 A  
HETATM   14  C   UNL     1      -6.747  12.081  68.713  1.00  0.00    -0.087 A  
ENDBRANCH   8   9
BRANCH   8  15
HETATM   15  C   UNL     1      -6.046   8.558  70.111  1.00  0.00    -0.034 A  
HETATM   16  C   UNL     1      -5.335   6.308  70.724  1.00  0.00    -0.018 A  
HETATM   17  C   UNL     1      -6.512   7.666  72.331  1.00  0.00    -0.056 A  
HETATM   18  C   UNL     1      -5.899   6.465  71.988  1.00  0.00    -0.037 A  
HETATM   19  C   UNL     1      -6.589   8.702  71.400  1.00  0.00    -0.072 A  
HETATM   20  C   UNL     1      -5.396   7.350  69.795  1.00  0.00    -0.023 A  
ENDBRANCH   8  15
ENDBRANCH   4   8
ENDBRANCH   1   2
BRANCH   1  21
HETATM   21  C   UNL     1      -9.975   5.792  67.463  1.00  0.00    -0.171 C  
HETATM   22  C   UNL     1     -10.105   4.477  67.225  1.00  0.00    -0.138 C  
BRANCH  22  23
HETATM   23  C   UNL     1     -10.059   3.936  65.873  1.00  0.00    -0.019 A  
HETATM   24  C   UNL     1      -9.076   2.994  65.547  1.00  0.00    -0.150 A  
HETATM   25  C   UNL     1      -9.015   2.462  64.259  1.00  0.00    -0.106 A  
HETATM   26  C   UNL     1     -10.976   4.346  64.901  1.00  0.00    -0.040 A  
HETATM   27  C   UNL     1     -10.913   3.811  63.613  1.00  0.00    -0.071 A  
HETATM   28  C   UNL     1      -9.936   2.869  63.294  1.00  0.00    -0.119 A  
ENDBRANCH  22  23
ENDBRANCH   1  21
TORSDOF 6
ENDMDL
MODEL      178
REMARK 921   NORMALIZED FREE ENERGY PREDICTED BY IDOCK:    2.12 KCAL/MOL
REMARK 922        TOTAL FREE ENERGY PREDICTED BY IDOCK:    2.92 KCAL/MOL
REMARK 923 INTER-LIGAND FREE ENERGY PREDICTED BY IDOCK:   -1.07 KCAL/MOL
REMARK 924 INTRA-LIGAND FREE ENERGY PREDICTED BY IDOCK:    3.99 KCAL/MOL
REMARK 927      BINDING AFFINITY PREDICTED BY RF-SCORE:    0.00 PKD
ROOT
HETATM    1  C   UNL     1      -7.818  17.332  68.112  1.00  0.00    -0.220 C  
ENDROOT
BRANCH   1   2
HETATM    2  N   UNL     1      -9.028  16.732  67.527  1.00  0.00    -0.204 NA 
HETATM    3  C   UNL     1      -9.580  15.085  69.394  1.00  0.00    -0.139 C  
HETATM    4  N   UNL     1      -9.336  13.882  68.553  1.00  0.00    -0.193 NA 
HETATM    5  C   UNL     1      -8.728  15.532  66.712  1.00  0.00    -0.267 C  
HETATM    6  C   UNL     1      -9.973  16.360  68.605  1.00  0.00    -0.235 C  
HETATM    7  C   UNL     1      -8.344  14.273  67.524  1.00  0.00    -0.188 C  
BRANCH   4   8
HETATM    8  C   UNL     1     -10.604  13.341  67.960  1.00  0.00    -0.240 C  
BRANCH   8   9
HETATM    9  C   UNL     1     -10.993  14.047  66.649  1.00  0.00    -0.300 A  
HETATM   10  C   UNL     1     -11.100  13.997  64.207  1.00  0.00    -0.198 A  
HETATM   11  C   UNL     1     -11.821  15.180  66.625  1.00  0.00     0.038 A  
HETATM   12  C   UNL     1     -11.945  15.103  64.210  1.00  0.00    -0.276 A  
HETATM   13  C   UNL     1     -12.290  15.705  65.417  1.00  0.00     0.974 A  
HETATM   14  C   UNL     1     -10.618  13.479  65.413  1.00  0.00    -0.313 A  
ENDBRANCH   8   9
BRANCH   8  15
HETATM   15  C   UNL     1     -10.549  11.808  67.851  1.00  0.00    -0.231 A  
HETATM   16  C   UNL     1      -9.645   9.703  68.685  1.00  0.00    -0.154 A  
HETATM   17  C   UNL     1     -10.667   9.781  66.503  1.00  0.00    -0.059 A  
HETATM   18  C   UNL     1     -10.012   9.067  67.502  1.00  0.00    -0.262 A  
HETATM   19  C   UNL     1     -10.930  11.140  66.674  1.00  0.00    -0.289 A  
HETATM   20  C   UNL     1      -9.922  11.060  68.866  1.00  0.00    -0.201 A  
ENDBRANCH   8  15
ENDBRANCH   4   8
ENDBRANCH   1   2
BRANCH   1  21
HETATM   21  C   UNL     1      -7.440  16.712  69.420  1.00  0.00    -0.061 C  
HETATM   22  C   UNL     1      -6.324  15.984  69.585  1.00  0.00    -0.186 C  
BRANCH  22  23
HETATM   23  C   UNL     1      -5.994  15.368  70.863  1.00  0.00     0.184 A  
HETATM   24  C   UNL     1      -6.138  13.984  71.013  1.00  0.00    -0.108 A  
HETATM   25  C   UNL     1      -5.826  13.374  72.227  1.00  0.00     0.616 A  
HETATM   26  C   UNL     1      -5.541  16.139  71.938  1.00  0.00     0.717 A  
HETATM   27  C   UNL     1      -5.228  15.526  73.152  1.00  0.00     1.023 A  
HETATM   28  C   UNL     1      -5.368  14.145  73.295  1.00  0.00    -0.301 A  
ENDBRANCH  22  23
ENDBRANCH   1  21
TORSDOF 6
ENDMDL
MODEL      179
REMARK 921   NORMALIZED FREE ENERGY PREDICTED BY IDOCK:    2.38 KCAL/MOL
REMARK 922        TOTAL FREE ENERGY PREDICTED BY IDOCK:    3.27 KCAL/MOL
REMARK 923 INTER-LIGAND FREE ENERGY PREDICTED BY IDOCK:   -0.39 KCAL/MOL
REMARK 924 INTRA-LIGAND FREE ENERGY PREDICTED BY IDOCK:    3.66 KCAL/MOL
REMARK 927      BINDING AFFINITY PREDICTED BY RF-SCORE:    0.00 PKD
ROOT
HETATM    1  C   UNL     1     -11.872   9.249  68.287  1.00  0.00     1.952 C  
ENDROOT
BRANCH   1   2
HETATM    2  N   UNL     1     -10.915  10.355  68.449  1.00  0.00    -0.247 NA 
HETATM    3  C   UNL     1     -10.959  11.251  66.062  1.00  0.00    -0.174 C  
HETATM    4  N   UNL     1      -9.542  10.894  65.785  1.00  0.00    -0.205 NA 
HETATM    5  C   UNL     1      -9.523   9.946  68.149  1.00  0.00    -0.138 C  
HETATM    6  C   UNL     1     -11.292  11.476  67.559  1.00  0.00    -0.299 C  
HETATM    7  C   UNL     1      -9.216   9.733  66.647  1.00  0.00    -0.150 C  
BRANCH   4   8
HETATM    8  C   UNL     1      -8.615  12.054  66.001  1.00  0.00     0.203 C  
BRANCH   8   9
HETATM    9  C   UNL     1      -9.365  13.380  66.218  1.00  0.00    -0.137 A  
HETATM   10  C   UNL     1     -11.076  14.955  65.462  1.00  0.00    -0.353 A  
HETATM   11  C   UNL     1      -9.303  14.087  67.430  1.00  0.00    -0.220 A  
HETATM   12  C   UNL     1     -11.018  15.622  66.683  1.00  0.00    -0.212 A  
HETATM   13  C   UNL     1     -10.119  15.199  67.658  1.00  0.00    -0.231 A  
HETATM   14  C   UNL     1     -10.250  13.851  65.226  1.00  0.00    -0.366 A  
ENDBRANCH   8   9
BRANCH   8  15
HETATM   15  C   UNL     1      -7.581  11.736  67.094  1.00  0.00    -0.155 A  
HETATM   16  C   UNL     1      -6.318  12.497  69.036  1.00  0.00    -0.092 A  
HETATM   17  C   UNL     1      -5.596  10.532  67.839  1.00  0.00    -0.040 A  
HETATM   18  C   UNL     1      -5.413  11.451  68.868  1.00  0.00    -0.039 A  
HETATM   19  C   UNL     1      -6.668  10.675  66.957  1.00  0.00    -0.086 A  
HETATM   20  C   UNL     1      -7.401  12.633  68.164  1.00  0.00    -0.112 A  
ENDBRANCH   8  15
ENDBRANCH   4   8
ENDBRANCH   1   2
BRANCH   1  21
HETATM   21  C   UNL     1     -11.339   7.945  68.792  1.00  0.00     0.639 C  
HETATM   22  C   UNL     1     -11.130   7.700  70.096  1.00  0.00    -0.229 C  
BRANCH  22  23
HETATM   23  C   UNL     1     -10.584   6.432  70.558  1.00  0.00    -0.291 A  
HETATM   24  C   UNL     1      -9.562   6.435  71.514  1.00  0.00    -0.169 A  
HETATM   25  C   UNL     1      -9.027   5.232  71.972  1.00  0.00    -0.144 A  
HETATM   26  C   UNL     1     -11.062   5.217  70.059  1.00  0.00     0.415 A  
HETATM   27  C   UNL     1     -10.525   4.014  70.519  1.00  0.00     0.712 A  
HETATM   28  C   UNL     1      -9.511   4.022  71.477  1.00  0.00    -0.222 A  
ENDBRANCH  22  23
ENDBRANCH   1  21
TORSDOF 6
ENDMDL
MODEL      180
REMARK 921   NORMALIZED FREE ENERGY PREDICTED BY IDOCK:    2.42 KCAL/MOL
REMARK 922        TOTAL FREE ENERGY PREDICTED BY IDOCK:    3.33 KCAL/MOL
REMARK 923 INTER-LIGAND FREE ENERGY PREDICTED BY IDOCK:    1.89 KCAL/MOL
REMARK 924 INTRA-LIGAND FREE ENERGY PREDICTED BY IDOCK:    1.44 KCAL/MOL
REMARK 927      BINDING AFFINITY PREDICTED BY RF-SCORE:    0.00 PKD
ROOT
HETATM    1  C   UNL     1      -8.564  17.629  67.076  1.00  0.00    -0.237 C  
ENDROOT
BRANCH   1   2
HETATM    2  N   UNL     1      -9.114  16.356  67.567  1.00  0.00    -0.193 NA 
HETATM    3  C   UNL     1      -8.125  14.805  65.801  1.00  0.00     2.791 C  
HETATM    4  N   UNL     1      -9.446  14.435  65.228  1.00  0.00     0.151 NA 
HETATM    5  C   UNL     1     -10.424  16.032  66.954  1.00  0.00    -0.306 C  
HETATM    6  C   UNL     1      -8.163  15.257  67.283  1.00  0.00    -0.204 C  
HETATM    7  C   UNL     1     -10.356  15.578  65.476  1.00  0.00    -0.394 C  
BRANCH   4   8
HETATM    8  C   UNL     1      -9.967  13.146  65.794  1.00  0.00    -0.252 C  
BRANCH   8   9
HETATM    9  C   UNL     1     -11.138  12.572  64.978  1.00  0.00    -0.335 A  
HETATM   10  C   UNL     1     -13.545  12.502  64.550  1.00  0.00     1.263 A  
HETATM   11  C   UNL     1     -10.943  11.867  63.779  1.00  0.00    -0.494 A  
HETATM   12  C   UNL     1     -13.324  11.831  63.351  1.00  0.00     0.447 A  
HETATM   13  C   UNL     1     -12.026  11.497  62.975  1.00  0.00     0.200 A  
HETATM   14  C   UNL     1     -12.465  12.860  65.363  1.00  0.00    -0.511 A  
ENDBRANCH   8   9
BRANCH   8  15
HETATM   15  C   UNL     1      -8.822  12.148  66.030  1.00  0.00     0.095 A  
HETATM   16  C   UNL     1      -7.993   9.863  65.837  1.00  0.00    -0.115 A  
HETATM   17  C   UNL     1      -6.903  11.404  67.336  1.00  0.00    -0.101 A  
HETATM   18  C   UNL     1      -7.006  10.132  66.783  1.00  0.00    -0.091 A  
HETATM   19  C   UNL     1      -7.805  12.403  66.966  1.00  0.00    -0.086 A  
HETATM   20  C   UNL     1      -8.887  10.865  65.452  1.00  0.00    -0.192 A  
ENDBRANCH   8  15
ENDBRANCH   4   8
ENDBRANCH   1   2
BRANCH   1  21
HETATM   21  C   UNL     1      -7.601  18.251  68.037  1.00  0.00    -0.257 C  
HETATM   22  C   UNL     1      -7.970  19.168  68.946  1.00  0.00    -0.340 C  
BRANCH  22  23
HETATM   23  C   UNL     1      -7.007  19.778  69.853  1.00  0.00    -0.126 A  
HETATM   24  C   UNL     1      -6.132  20.755  69.363  1.00  0.00    -0.174 A  
HETATM   25  C   UNL     1      -5.203  21.353  70.214  1.00  0.00     0.217 A  
HETATM   26  C   UNL     1      -6.942  19.399  71.196  1.00  0.00     1.353 A  
HETATM   27  C   UNL     1      -6.012  20.000  72.046  1.00  0.00    -0.151 A  
HETATM   28  C   UNL     1      -5.146  20.978  71.556  1.00  0.00    -0.068 A  
ENDBRANCH  22  23
ENDBRANCH   1  21
TORSDOF 6
ENDMDL
MODEL      181
REMARK 921   NORMALIZED FREE ENERGY PREDICTED BY IDOCK:    3.24 KCAL/MOL
REMARK 922        TOTAL FREE ENERGY PREDICTED BY IDOCK:    4.43 KCAL/MOL
REMARK 923 INTER-LIGAND FREE ENERGY PREDICTED BY IDOCK:    0.62 KCAL/MOL
REMARK 924 INTRA-LIGAND FREE ENERGY PREDICTED BY IDOCK:    3.81 KCAL/MOL
REMARK 927      BINDING AFFINITY PREDICTED BY RF-SCORE:    0.00 PKD
ROOT
HETATM    1  C   UNL     1     -10.240   4.001  66.124  1.00  0.00     0.073 C  
ENDROOT
BRANCH   1   2
HETATM    2  N   UNL     1      -9.233   3.329  66.960  1.00  0.00    -0.176 NA 
HETATM    3  C   UNL     1     -10.499   3.350  69.174  1.00  0.00     2.072 C  
HETATM    4  N   UNL     1      -9.535   4.264  69.842  1.00  0.00    -0.171 NA 
HETATM    5  C   UNL     1      -8.309   4.287  67.611  1.00  0.00    -0.098 C  
HETATM    6  C   UNL     1      -9.906   2.524  68.004  1.00  0.00     0.471 C  
HETATM    7  C   UNL     1      -8.924   5.095  68.778  1.00  0.00    -0.101 C  
BRANCH   4   8
HETATM    8  C   UNL     1      -8.515   3.517  70.651  1.00  0.00    -0.068 C  
BRANCH   8   9
HETATM    9  C   UNL     1      -7.288   3.103  69.820  1.00  0.00    -0.044 A  
HETATM   10  C   UNL     1      -6.285   1.560  68.210  1.00  0.00    -0.025 A  
HETATM   11  C   UNL     1      -6.186   3.953  69.636  1.00  0.00    -0.028 A  
HETATM   12  C   UNL     1      -5.217   2.433  68.021  1.00  0.00    -0.012 A  
HETATM   13  C   UNL     1      -5.159   3.620  68.747  1.00  0.00    -0.011 A  
HETATM   14  C   UNL     1      -7.306   1.885  69.109  1.00  0.00    -0.043 A  
ENDBRANCH   8   9
BRANCH   8  15
HETATM   15  C   UNL     1      -8.167   4.281  71.939  1.00  0.00    -0.097 A  
HETATM   16  C   UNL     1      -7.459   4.198  74.271  1.00  0.00    -0.075 A  
HETATM   17  C   UNL     1      -8.484   6.202  73.406  1.00  0.00    -0.119 A  
HETATM   18  C   UNL     1      -7.923   5.497  74.467  1.00  0.00    -0.104 A  
HETATM   19  C   UNL     1      -8.609   5.599  72.154  1.00  0.00    -0.126 A  
HETATM   20  C   UNL     1      -7.567   3.598  73.014  1.00  0.00    -0.065 A  
ENDBRANCH   8  15
ENDBRANCH   4   8
ENDBRANCH   1   2
BRANCH   1  21
HETATM   21  C   UNL     1      -9.678   5.156  65.359  1.00  0.00     0.025 C  
HETATM   22  C   UNL     1      -8.359   5.345  65.191  1.00  0.00    -0.144 C  
BRANCH  22  23
HETATM   23  C   UNL     1      -7.837   6.495  64.464  1.00  0.00    -0.112 A  
HETATM   24  C   UNL     1      -7.942   6.527  63.069  1.00  0.00    -0.081 A  
HETATM   25  C   UNL     1      -7.451   7.618  62.354  1.00  0.00    -0.098 A  
HETATM   26  C   UNL     1      -7.231   7.558  65.139  1.00  0.00    -0.066 A  
HETATM   27  C   UNL     1      -6.740   8.650  64.421  1.00  0.00    -0.070 A  
HETATM   28  C   UNL     1      -6.853   8.681  63.031  1.00  0.00    -0.090 A  
ENDBRANCH  22  23
ENDBRANCH   1  21
TORSDOF 6
ENDMDL
MODEL      182
REMARK 921   NORMALIZED FREE ENERGY PREDICTED BY IDOCK:    3.30 KCAL/MOL
REMARK 922        TOTAL FREE ENERGY PREDICTED BY IDOCK:    4.51 KCAL/MOL
REMARK 923 INTER-LIGAND FREE ENERGY PREDICTED BY IDOCK:    0.95 KCAL/MOL
REMARK 924 INTRA-LIGAND FREE ENERGY PREDICTED BY IDOCK:    3.56 KCAL/MOL
REMARK 927      BINDING AFFINITY PREDICTED BY RF-SCORE:    0.00 PKD
ROOT
HETATM    1  C   UNL     1      -8.603  17.365  66.948  1.00  0.00    -0.249 C  
ENDROOT
BRANCH   1   2
HETATM    2  N   UNL     1      -9.156  16.090  67.432  1.00  0.00    -0.197 NA 
HETATM    3  C   UNL     1      -6.982  14.769  67.604  1.00  0.00    -0.182 C  
HETATM    4  N   UNL     1      -7.354  13.806  66.533  1.00  0.00     1.089 NA 
HETATM    5  C   UNL     1      -9.497  15.165  66.325  1.00  0.00    -0.309 C  
HETATM    6  C   UNL     1      -8.182  15.430  68.330  1.00  0.00    -0.145 C  
HETATM    7  C   UNL     1      -8.282  14.516  65.622  1.00  0.00     3.100 C  
BRANCH   4   8
HETATM    8  C   UNL     1      -7.943  12.542  67.090  1.00  0.00    -0.140 C  
BRANCH   8   9
HETATM    9  C   UNL     1      -9.452  12.663  67.365  1.00  0.00    -0.189 A  
HETATM   10  C   UNL     1     -11.249  13.186  68.939  1.00  0.00    -0.324 A  
HETATM   11  C   UNL     1     -10.403  12.675  66.333  1.00  0.00    -0.264 A  
HETATM   12  C   UNL     1     -12.169  13.221  67.895  1.00  0.00    -0.129 A  
HETATM   13  C   UNL     1     -11.749  12.947  66.596  1.00  0.00    -0.452 A  
HETATM   14  C   UNL     1      -9.905  12.899  68.680  1.00  0.00    -0.074 A  
ENDBRANCH   8   9
BRANCH   8  15
HETATM   15  C   UNL     1      -7.561  11.331  66.224  1.00  0.00    -0.032 A  
HETATM   16  C   UNL     1      -8.257   9.268  65.126  1.00  0.00    -0.143 A  
HETATM   17  C   UNL     1      -5.912   9.689  65.497  1.00  0.00    -0.066 A  
HETATM   18  C   UNL     1      -6.928   8.863  65.026  1.00  0.00    -0.073 A  
HETATM   19  C   UNL     1      -6.226  10.911  66.094  1.00  0.00    -0.130 A  
HETATM   20  C   UNL     1      -8.573  10.498  65.708  1.00  0.00    -0.180 A  
ENDBRANCH   8  15
ENDBRANCH   4   8
ENDBRANCH   1   2
BRANCH   1  21
HETATM   21  C   UNL     1      -7.637  17.977  67.912  1.00  0.00    -0.231 C  
HETATM   22  C   UNL     1      -8.002  18.890  68.827  1.00  0.00    -0.352 C  
BRANCH  22  23
HETATM   23  C   UNL     1      -7.035  19.491  69.736  1.00  0.00    -0.163 A  
HETATM   24  C   UNL     1      -6.158  20.469  69.252  1.00  0.00    -0.348 A  
HETATM   25  C   UNL     1      -5.227  21.059  70.105  1.00  0.00    -0.314 A  
HETATM   26  C   UNL     1      -6.970  19.103  71.077  1.00  0.00     1.641 A  
HETATM   27  C   UNL     1      -6.036  19.696  71.930  1.00  0.00     0.031 A  
HETATM   28  C   UNL     1      -5.169  20.674  71.445  1.00  0.00    -0.228 A  
ENDBRANCH  22  23
ENDBRANCH   1  21
TORSDOF 6
ENDMDL
MODEL      183
REMARK 921   NORMALIZED FREE ENERGY PREDICTED BY IDOCK:    4.93 KCAL/MOL
REMARK 922        TOTAL FREE ENERGY PREDICTED BY IDOCK:    6.72 KCAL/MOL
REMARK 923 INTER-LIGAND FREE ENERGY PREDICTED BY IDOCK:    5.26 KCAL/MOL
REMARK 924 INTRA-LIGAND FREE ENERGY PREDICTED BY IDOCK:    1.46 KCAL/MOL
REMARK 927      BINDING AFFINITY PREDICTED BY RF-SCORE:    0.00 PKD
ROOT
HETATM    1  C   UNL     1      -8.603  17.365  66.948  1.00  0.00    -0.249 C  
ENDROOT
BRANCH   1   2
HETATM    2  N   UNL     1      -9.156  16.090  67.432  1.00  0.00    -0.197 NA 
HETATM    3  C   UNL     1      -6.982  14.769  67.604  1.00  0.00    -0.182 C  
HETATM    4  N   UNL     1      -7.354  13.806  66.533  1.00  0.00     1.089 NA 
HETATM    5  C   UNL     1      -9.497  15.165  66.325  1.00  0.00    -0.309 C  
HETATM    6  C   UNL     1      -8.182  15.430  68.330  1.00  0.00    -0.145 C  
HETATM    7  C   UNL     1      -8.282  14.516  65.622  1.00  0.00     3.100 C  
BRANCH   4   8
HETATM    8  C   UNL     1      -7.943  12.542  67.090  1.00  0.00    -0.140 C  
BRANCH   8   9
HETATM    9  C   UNL     1      -8.008  11.411  66.049  1.00  0.00     0.095 A  
HETATM   10  C   UNL     1      -9.283  10.236  64.324  1.00  0.00    -0.300 A  
HETATM   11  C   UNL     1      -6.865  10.715  65.626  1.00  0.00    -0.075 A  
HETATM   12  C   UNL     1      -8.129   9.581  63.903  1.00  0.00    -0.152 A  
HETATM   13  C   UNL     1      -6.926   9.806  64.566  1.00  0.00    -0.125 A  
HETATM   14  C   UNL     1      -9.227  11.135  65.395  1.00  0.00    -0.225 A  
ENDBRANCH   8   9
BRANCH   8  15
HETATM   15  C   UNL     1      -7.247  12.144  68.402  1.00  0.00    -0.097 A  
HETATM   16  C   UNL     1      -6.260  10.385  69.773  1.00  0.00    -0.067 A  
HETATM   17  C   UNL     1      -6.891  12.478  70.791  1.00  0.00     2.248 A  
HETATM   18  C   UNL     1      -6.371  11.192  70.903  1.00  0.00     0.530 A  
HETATM   19  C   UNL     1      -7.329  12.949  69.552  1.00  0.00     0.486 A  
HETATM   20  C   UNL     1      -6.683  10.860  68.529  1.00  0.00    -0.057 A  
ENDBRANCH   8  15
ENDBRANCH   4   8
ENDBRANCH   1   2
BRANCH   1  21
HETATM   21  C   UNL     1      -7.637  17.977  67.912  1.00  0.00    -0.231 C  
HETATM   22  C   UNL     1      -8.002  18.890  68.827  1.00  0.00    -0.352 C  
BRANCH  22  23
HETATM   23  C   UNL     1      -7.035  19.491  69.736  1.00  0.00    -0.163 A  
HETATM   24  C   UNL     1      -6.158  20.469  69.252  1.00  0.00    -0.348 A  
HETATM   25  C   UNL     1      -5.227  21.059  70.105  1.00  0.00    -0.314 A  
HETATM   26  C   UNL     1      -6.970  19.103  71.077  1.00  0.00     1.641 A  
HETATM   27  C   UNL     1      -6.036  19.696  71.930  1.00  0.00     0.031 A  
HETATM   28  C   UNL     1      -5.169  20.674  71.445  1.00  0.00    -0.228 A  
ENDBRANCH  22  23
ENDBRANCH   1  21
TORSDOF 6
ENDMDL
MODEL      184
REMARK 921   NORMALIZED FREE ENERGY PREDICTED BY IDOCK:   22.53 KCAL/MOL
REMARK 922        TOTAL FREE ENERGY PREDICTED BY IDOCK:   30.50 KCAL/MOL
REMARK 923 INTER-LIGAND FREE ENERGY PREDICTED BY IDOCK:   29.63 KCAL/MOL
REMARK 924 INTRA-LIGAND FREE ENERGY PREDICTED BY IDOCK:    0.87 KCAL/MOL
REMARK 927      BINDING AFFINITY PREDICTED BY RF-SCORE:    0.00 PKD
ROOT
HETATM    1  C   UNL     1      -6.493  17.240  69.022  1.00  0.00    -0.221 C  
ENDROOT
BRANCH   1   2
HETATM    2  N   UNL     1      -7.035  16.553  67.839  1.00  0.00    -0.137 NA 
HETATM    3  C   UNL     1      -8.371  14.736  69.029  1.00  0.00    -0.144 C  
HETATM    4  N   UNL     1      -7.527  13.625  68.512  1.00  0.00    -0.115 NA 
HETATM    5  C   UNL     1      -6.162  15.449  67.375  1.00  0.00    -0.001 C  
HETATM    6  C   UNL     1      -8.378  16.010  68.147  1.00  0.00    -0.160 C  
HETATM    7  C   UNL     1      -6.178  14.187  68.271  1.00  0.00    -0.117 C  
BRANCH   4   8
HETATM    8  C   UNL     1      -8.118  12.990  67.287  1.00  0.00    -0.161 C  
BRANCH   8   9
HETATM    9  C   UNL     1      -7.236  11.864  66.720  1.00  0.00    -0.007 A  
HETATM   10  C   UNL     1      -5.221  11.209  65.499  1.00  0.00     0.008 A  
HETATM   11  C   UNL     1      -7.398  10.522  67.098  1.00  0.00    -0.093 A  
HETATM   12  C   UNL     1      -5.386   9.890  65.912  1.00  0.00    -0.045 A  
HETATM   13  C   UNL     1      -6.484   9.544  66.695  1.00  0.00    -0.067 A  
HETATM   14  C   UNL     1      -6.142  12.186  65.889  1.00  0.00     2.069 A  
ENDBRANCH   8   9
BRANCH   8  15
HETATM   15  C   UNL     1      -9.578  12.575  67.533  1.00  0.00    -0.187 A  
HETATM   16  C   UNL     1     -11.321  11.976  69.129  1.00  0.00    -0.338 A  
HETATM   17  C   UNL     1     -11.602  11.434  66.797  1.00  0.00    -0.038 A  
HETATM   18  C   UNL     1     -12.073  11.403  68.106  1.00  0.00    -0.030 A  
HETATM   19  C   UNL     1     -10.364  12.011  66.512  1.00  0.00    -0.240 A  
HETATM   20  C   UNL     1     -10.088  12.569  68.845  1.00  0.00     0.034 A  
ENDBRANCH   8  15
ENDBRANCH   4   8
ENDBRANCH   1   2
BRANCH   1  21
HETATM   21  C   UNL     1      -7.559  17.676  69.976  1.00  0.00     1.560 C  
HETATM   22  C   UNL     1      -8.517  18.556  69.644  1.00  0.00     0.806 C  
BRANCH  22  23
HETATM   23  C   UNL     1      -9.528  18.985  70.601  1.00  0.00     2.357 A  
HETATM   24  C   UNL     1     -10.318  18.021  71.238  1.00  0.00     3.330 A  
HETATM   25  C   UNL     1     -11.290  18.409  72.159  1.00  0.00     3.858 A  
HETATM   26  C   UNL     1      -9.721  20.339  70.886  1.00  0.00     1.692 A  
HETATM   27  C   UNL     1     -10.694  20.725  71.810  1.00  0.00     6.509 A  
HETATM   28  C   UNL     1     -11.475  19.761  72.447  1.00  0.00     9.503 A  
ENDBRANCH  22  23
ENDBRANCH   1  21
TORSDOF 6
ENDMDL
