MODEL        1
REMARK 921   NORMALIZED FREE ENERGY PREDICTED BY IDOCK:   -4.91 KCAL/MOL
REMARK 922        TOTAL FREE ENERGY PREDICTED BY IDOCK:   -5.61 KCAL/MOL
REMARK 923 INTER-LIGAND FREE ENERGY PREDICTED BY IDOCK:   -5.48 KCAL/MOL
REMARK 924 INTRA-LIGAND FREE ENERGY PREDICTED BY IDOCK:   -0.13 KCAL/MOL
REMARK 927      BINDING AFFINITY PREDICTED BY RF-SCORE:    0.00 PKD
ROOT
HETATM    1  O   UNL     1     -14.105   8.775  73.300  1.00  0.00    -1.180 OA 
HETATM    2  C   UNL     1     -13.379   9.202  72.160  1.00  0.00    -0.463 C  
HETATM    3  H   UNL     1     -14.089   7.826  73.308  1.00  0.00     0.000 HD 
ENDROOT
BRANCH   2   4
HETATM    4  C   UNL     1     -13.405  10.691  72.146  1.00  0.00    -0.335 C  
HETATM    5  C   UNL     1     -12.707  11.458  71.295  1.00  0.00    -0.498 C  
BRANCH   5   6
HETATM    6  C   UNL     1     -12.787  12.914  71.376  1.00  0.00    -0.377 A  
HETATM    7  C   UNL     1     -13.634  13.517  72.313  1.00  0.00    -0.690 A  
HETATM    8  C   UNL     1     -13.759  14.906  72.352  1.00  0.00    -0.576 A  
HETATM    9  C   UNL     1     -13.042  15.697  71.456  1.00  0.00    -0.561 A  
HETATM   10  C   UNL     1     -12.192  15.101  70.524  1.00  0.00    -0.389 A  
HETATM   11  C   UNL     1     -12.065  13.711  70.483  1.00  0.00    -0.411 A  
ENDBRANCH   5   6
ENDBRANCH   2   4
TORSDOF 2
ENDMDL
MODEL        2
REMARK 921   NORMALIZED FREE ENERGY PREDICTED BY IDOCK:   -4.52 KCAL/MOL
REMARK 922        TOTAL FREE ENERGY PREDICTED BY IDOCK:   -5.19 KCAL/MOL
REMARK 923 INTER-LIGAND FREE ENERGY PREDICTED BY IDOCK:   -5.06 KCAL/MOL
REMARK 924 INTRA-LIGAND FREE ENERGY PREDICTED BY IDOCK:   -0.13 KCAL/MOL
REMARK 927      BINDING AFFINITY PREDICTED BY RF-SCORE:    0.00 PKD
ROOT
HETATM    1  O   UNL     1     -13.040  16.106  74.401  1.00  0.00    -0.926 OA 
HETATM    2  C   UNL     1     -13.764  15.961  73.191  1.00  0.00    -0.421 C  
HETATM    3  H   UNL     1     -13.431  16.825  74.883  1.00  0.00     0.000 HD 
ENDROOT
BRANCH   2   4
HETATM    4  C   UNL     1     -13.151  14.835  72.435  1.00  0.00    -0.463 C  
HETATM    5  C   UNL     1     -13.673  13.603  72.346  1.00  0.00    -0.697 C  
BRANCH   5   6
HETATM    6  C   UNL     1     -12.982  12.559  71.592  1.00  0.00    -0.405 A  
HETATM    7  C   UNL     1     -12.191  12.900  70.489  1.00  0.00    -0.395 A  
HETATM    8  C   UNL     1     -11.579  11.901  69.731  1.00  0.00    -0.359 A  
HETATM    9  C   UNL     1     -11.755  10.561  70.070  1.00  0.00    -0.394 A  
HETATM   10  C   UNL     1     -12.537  10.216  71.172  1.00  0.00    -0.486 A  
HETATM   11  C   UNL     1     -13.151  11.214  71.932  1.00  0.00    -0.513 A  
ENDBRANCH   5   6
ENDBRANCH   2   4
TORSDOF 2
ENDMDL
MODEL        3
REMARK 921   NORMALIZED FREE ENERGY PREDICTED BY IDOCK:   -4.46 KCAL/MOL
REMARK 922        TOTAL FREE ENERGY PREDICTED BY IDOCK:   -5.12 KCAL/MOL
REMARK 923 INTER-LIGAND FREE ENERGY PREDICTED BY IDOCK:   -4.99 KCAL/MOL
REMARK 924 INTRA-LIGAND FREE ENERGY PREDICTED BY IDOCK:   -0.13 KCAL/MOL
REMARK 927      BINDING AFFINITY PREDICTED BY RF-SCORE:    0.00 PKD
ROOT
HETATM    1  O   UNL     1     -12.508  13.868  63.119  1.00  0.00    -1.121 OA 
HETATM    2  C   UNL     1     -12.078  12.677  63.755  1.00  0.00    -0.522 C  
HETATM    3  H   UNL     1     -12.428  13.735  62.182  1.00  0.00     0.000 HD 
ENDROOT
BRANCH   2   4
HETATM    4  C   UNL     1     -12.202  12.885  65.224  1.00  0.00    -0.524 C  
HETATM    5  C   UNL     1     -11.573  12.151  66.155  1.00  0.00    -0.418 C  
BRANCH   5   6
HETATM    6  C   UNL     1     -11.777  12.426  67.575  1.00  0.00    -0.425 A  
HETATM    7  C   UNL     1     -11.922  13.745  68.019  1.00  0.00    -0.390 A  
HETATM    8  C   UNL     1     -12.056  14.015  69.381  1.00  0.00    -0.386 A  
HETATM    9  C   UNL     1     -12.043  12.970  70.304  1.00  0.00    -0.388 A  
HETATM   10  C   UNL     1     -11.906  11.653  69.866  1.00  0.00    -0.434 A  
HETATM   11  C   UNL     1     -11.771  11.381  68.503  1.00  0.00    -0.386 A  
ENDBRANCH   5   6
ENDBRANCH   2   4
TORSDOF 2
ENDMDL
MODEL        4
REMARK 921   NORMALIZED FREE ENERGY PREDICTED BY IDOCK:   -4.46 KCAL/MOL
REMARK 922        TOTAL FREE ENERGY PREDICTED BY IDOCK:   -5.12 KCAL/MOL
REMARK 923 INTER-LIGAND FREE ENERGY PREDICTED BY IDOCK:   -4.98 KCAL/MOL
REMARK 924 INTRA-LIGAND FREE ENERGY PREDICTED BY IDOCK:   -0.13 KCAL/MOL
REMARK 927      BINDING AFFINITY PREDICTED BY RF-SCORE:    0.00 PKD
ROOT
HETATM    1  O   UNL     1     -13.292  16.137  74.063  1.00  0.00    -0.930 OA 
HETATM    2  C   UNL     1     -13.852  15.815  72.802  1.00  0.00    -0.523 C  
HETATM    3  H   UNL     1     -13.543  17.031  74.266  1.00  0.00     0.000 HD 
ENDROOT
BRANCH   2   4
HETATM    4  C   UNL     1     -13.459  14.415  72.483  1.00  0.00    -0.593 C  
HETATM    5  C   UNL     1     -13.090  13.984  71.268  1.00  0.00    -0.399 C  
BRANCH   5   6
HETATM    6  C   UNL     1     -12.739  12.582  71.055  1.00  0.00    -0.316 A  
HETATM    7  C   UNL     1     -13.198  11.604  71.945  1.00  0.00    -0.475 A  
HETATM    8  C   UNL     1     -12.814  10.272  71.780  1.00  0.00    -0.565 A  
HETATM    9  C   UNL     1     -11.971   9.913  70.729  1.00  0.00    -0.410 A  
HETATM   10  C   UNL     1     -11.517  10.884  69.836  1.00  0.00    -0.402 A  
HETATM   11  C   UNL     1     -11.899  12.217  69.999  1.00  0.00    -0.372 A  
ENDBRANCH   5   6
ENDBRANCH   2   4
TORSDOF 2
ENDMDL
MODEL        5
REMARK 921   NORMALIZED FREE ENERGY PREDICTED BY IDOCK:   -4.44 KCAL/MOL
REMARK 922        TOTAL FREE ENERGY PREDICTED BY IDOCK:   -5.09 KCAL/MOL
REMARK 923 INTER-LIGAND FREE ENERGY PREDICTED BY IDOCK:   -4.97 KCAL/MOL
REMARK 924 INTRA-LIGAND FREE ENERGY PREDICTED BY IDOCK:   -0.12 KCAL/MOL
REMARK 927      BINDING AFFINITY PREDICTED BY RF-SCORE:    0.00 PKD
ROOT
HETATM    1  O   UNL     1     -12.062  10.771  68.345  1.00  0.00    -0.805 OA 
HETATM    2  C   UNL     1     -11.470  12.056  68.254  1.00  0.00    -0.303 C  
HETATM    3  H   UNL     1     -11.800  10.282  67.575  1.00  0.00     0.000 HD 
ENDROOT
BRANCH   2   4
HETATM    4  C   UNL     1     -11.882  12.824  69.460  1.00  0.00    -0.379 C  
HETATM    5  C   UNL     1     -12.155  14.137  69.472  1.00  0.00    -0.388 C  
BRANCH   5   6
HETATM    6  C   UNL     1     -12.534  14.803  70.717  1.00  0.00    -0.402 A  
HETATM    7  C   UNL     1     -11.561  15.095  71.678  1.00  0.00    -0.463 A  
HETATM    8  C   UNL     1     -11.929  15.675  72.893  1.00  0.00    -0.588 A  
HETATM    9  C   UNL     1     -13.268  15.962  73.153  1.00  0.00    -0.692 A  
HETATM   10  C   UNL     1     -14.241  15.678  72.194  1.00  0.00    -0.529 A  
HETATM   11  C   UNL     1     -13.875  15.098  70.978  1.00  0.00    -0.423 A  
ENDBRANCH   5   6
ENDBRANCH   2   4
TORSDOF 2
ENDMDL
MODEL        6
REMARK 921   NORMALIZED FREE ENERGY PREDICTED BY IDOCK:   -4.43 KCAL/MOL
REMARK 922        TOTAL FREE ENERGY PREDICTED BY IDOCK:   -5.08 KCAL/MOL
REMARK 923 INTER-LIGAND FREE ENERGY PREDICTED BY IDOCK:   -4.95 KCAL/MOL
REMARK 924 INTRA-LIGAND FREE ENERGY PREDICTED BY IDOCK:   -0.13 KCAL/MOL
REMARK 927      BINDING AFFINITY PREDICTED BY RF-SCORE:    0.00 PKD
ROOT
HETATM    1  O   UNL     1     -12.509  14.132  63.299  1.00  0.00    -1.146 OA 
HETATM    2  C   UNL     1     -11.999  12.941  63.875  1.00  0.00    -0.480 C  
HETATM    3  H   UNL     1     -12.444  14.043  62.356  1.00  0.00     0.000 HD 
ENDROOT
BRANCH   2   4
HETATM    4  C   UNL     1     -12.099  13.080  65.353  1.00  0.00    -0.490 C  
HETATM    5  C   UNL     1     -11.565  12.225  66.238  1.00  0.00    -0.446 C  
BRANCH   5   6
HETATM    6  C   UNL     1     -11.737  12.443  67.673  1.00  0.00    -0.412 A  
HETATM    7  C   UNL     1     -11.803  11.349  68.543  1.00  0.00    -0.364 A  
HETATM    8  C   UNL     1     -12.028  11.551  69.905  1.00  0.00    -0.426 A  
HETATM    9  C   UNL     1     -12.190  12.843  70.402  1.00  0.00    -0.381 A  
HETATM   10  C   UNL     1     -12.118  13.937  69.540  1.00  0.00    -0.393 A  
HETATM   11  C   UNL     1     -11.893  13.738  68.176  1.00  0.00    -0.411 A  
ENDBRANCH   5   6
ENDBRANCH   2   4
TORSDOF 2
ENDMDL
MODEL        7
REMARK 921   NORMALIZED FREE ENERGY PREDICTED BY IDOCK:   -4.37 KCAL/MOL
REMARK 922        TOTAL FREE ENERGY PREDICTED BY IDOCK:   -5.02 KCAL/MOL
REMARK 923 INTER-LIGAND FREE ENERGY PREDICTED BY IDOCK:   -4.88 KCAL/MOL
REMARK 924 INTRA-LIGAND FREE ENERGY PREDICTED BY IDOCK:   -0.13 KCAL/MOL
REMARK 927      BINDING AFFINITY PREDICTED BY RF-SCORE:    0.00 PKD
ROOT
HETATM    1  O   UNL     1     -12.098  12.278  66.777  1.00  0.00    -0.593 OA 
HETATM    2  C   UNL     1     -11.629  13.557  67.168  1.00  0.00    -0.357 C  
HETATM    3  H   UNL     1     -11.841  12.144  65.873  1.00  0.00     0.000 HD 
ENDROOT
BRANCH   2   4
HETATM    4  C   UNL     1     -12.032  13.767  68.585  1.00  0.00    -0.401 C  
HETATM    5  C   UNL     1     -11.826  14.898  69.277  1.00  0.00    -0.350 C  
BRANCH   5   6
HETATM    6  C   UNL     1     -12.245  14.997  70.673  1.00  0.00    -0.381 A  
HETATM    7  C   UNL     1     -13.180  14.092  71.189  1.00  0.00    -0.369 A  
HETATM    8  C   UNL     1     -13.628  14.222  72.504  1.00  0.00    -0.620 A  
HETATM    9  C   UNL     1     -13.146  15.254  73.307  1.00  0.00    -0.630 A  
HETATM   10  C   UNL     1     -12.209  16.155  72.800  1.00  0.00    -0.628 A  
HETATM   11  C   UNL     1     -11.760  16.028  71.484  1.00  0.00    -0.554 A  
ENDBRANCH   5   6
ENDBRANCH   2   4
TORSDOF 2
ENDMDL
MODEL        8
REMARK 921   NORMALIZED FREE ENERGY PREDICTED BY IDOCK:   -4.31 KCAL/MOL
REMARK 922        TOTAL FREE ENERGY PREDICTED BY IDOCK:   -4.95 KCAL/MOL
REMARK 923 INTER-LIGAND FREE ENERGY PREDICTED BY IDOCK:   -4.81 KCAL/MOL
REMARK 924 INTRA-LIGAND FREE ENERGY PREDICTED BY IDOCK:   -0.14 KCAL/MOL
REMARK 927      BINDING AFFINITY PREDICTED BY RF-SCORE:    0.00 PKD
ROOT
HETATM    1  O   UNL     1     -11.950  10.469  68.378  1.00  0.00    -0.773 OA 
HETATM    2  C   UNL     1     -11.599  11.705  67.779  1.00  0.00    -0.289 C  
HETATM    3  H   UNL     1     -11.842   9.793  67.720  1.00  0.00     0.000 HD 
ENDROOT
BRANCH   2   4
HETATM    4  C   UNL     1     -11.768  12.765  68.809  1.00  0.00    -0.363 C  
HETATM    5  C   UNL     1     -12.137  12.542  70.080  1.00  0.00    -0.368 C  
BRANCH   5   6
HETATM    6  C   UNL     1     -12.293  13.657  71.011  1.00  0.00    -0.436 A  
HETATM    7  C   UNL     1     -13.193  13.557  72.077  1.00  0.00    -0.529 A  
HETATM    8  C   UNL     1     -13.390  14.643  72.932  1.00  0.00    -0.585 A  
HETATM    9  C   UNL     1     -12.690  15.830  72.725  1.00  0.00    -0.553 A  
HETATM   10  C   UNL     1     -11.786  15.933  71.667  1.00  0.00    -0.565 A  
HETATM   11  C   UNL     1     -11.589  14.848  70.810  1.00  0.00    -0.345 A  
ENDBRANCH   5   6
ENDBRANCH   2   4
TORSDOF 2
ENDMDL
MODEL        9
REMARK 921   NORMALIZED FREE ENERGY PREDICTED BY IDOCK:   -4.25 KCAL/MOL
REMARK 922        TOTAL FREE ENERGY PREDICTED BY IDOCK:   -4.88 KCAL/MOL
REMARK 923 INTER-LIGAND FREE ENERGY PREDICTED BY IDOCK:   -4.76 KCAL/MOL
REMARK 924 INTRA-LIGAND FREE ENERGY PREDICTED BY IDOCK:   -0.12 KCAL/MOL
REMARK 927      BINDING AFFINITY PREDICTED BY RF-SCORE:    0.00 PKD
ROOT
HETATM    1  O   UNL     1     -12.479  11.498  63.031  1.00  0.00    -0.982 OA 
HETATM    2  C   UNL     1     -12.259  12.766  63.625  1.00  0.00    -0.512 C  
HETATM    3  H   UNL     1     -12.399  11.606  62.091  1.00  0.00     0.000 HD 
ENDROOT
BRANCH   2   4
HETATM    4  C   UNL     1     -12.385  12.597  65.098  1.00  0.00    -0.547 C  
HETATM    5  C   UNL     1     -11.578  13.170  66.003  1.00  0.00    -0.393 C  
BRANCH   5   6
HETATM    6  C   UNL     1     -11.775  12.925  67.430  1.00  0.00    -0.428 A  
HETATM    7  C   UNL     1     -11.952  14.001  68.307  1.00  0.00    -0.384 A  
HETATM    8  C   UNL     1     -12.080  13.774  69.678  1.00  0.00    -0.392 A  
HETATM    9  C   UNL     1     -12.029  12.473  70.177  1.00  0.00    -0.377 A  
HETATM   10  C   UNL     1     -11.859  11.397  69.307  1.00  0.00    -0.417 A  
HETATM   11  C   UNL     1     -11.731  11.622  67.935  1.00  0.00    -0.329 A  
ENDBRANCH   5   6
ENDBRANCH   2   4
TORSDOF 2
ENDMDL
MODEL       10
REMARK 921   NORMALIZED FREE ENERGY PREDICTED BY IDOCK:   -4.24 KCAL/MOL
REMARK 922        TOTAL FREE ENERGY PREDICTED BY IDOCK:   -4.87 KCAL/MOL
REMARK 923 INTER-LIGAND FREE ENERGY PREDICTED BY IDOCK:   -4.74 KCAL/MOL
REMARK 924 INTRA-LIGAND FREE ENERGY PREDICTED BY IDOCK:   -0.13 KCAL/MOL
REMARK 927      BINDING AFFINITY PREDICTED BY RF-SCORE:    0.00 PKD
ROOT
HETATM    1  O   UNL     1     -12.197  14.625  63.692  1.00  0.00    -0.987 OA 
HETATM    2  C   UNL     1     -11.113  14.506  64.598  1.00  0.00    -0.346 C  
HETATM    3  H   UNL     1     -12.372  13.759  63.343  1.00  0.00     0.000 HD 
ENDROOT
BRANCH   2   4
HETATM    4  C   UNL     1     -10.837  15.863  65.144  1.00  0.00    -0.438 C  
HETATM    5  C   UNL     1     -10.727  16.152  66.449  1.00  0.00    -0.211 C  
BRANCH   5   6
HETATM    6  C   UNL     1     -10.472  17.524  66.884  1.00  0.00    -0.285 A  
HETATM    7  C   UNL     1     -10.506  18.570  65.955  1.00  0.00    -0.433 A  
HETATM    8  C   UNL     1     -10.202  19.872  66.355  1.00  0.00    -0.617 A  
HETATM    9  C   UNL     1      -9.864  20.133  67.682  1.00  0.00    -0.567 A  
HETATM   10  C   UNL     1      -9.835  19.095  68.613  1.00  0.00    -0.485 A  
HETATM   11  C   UNL     1     -10.138  17.791  68.215  1.00  0.00    -0.371 A  
ENDBRANCH   5   6
ENDBRANCH   2   4
TORSDOF 2
ENDMDL
MODEL       11
REMARK 921   NORMALIZED FREE ENERGY PREDICTED BY IDOCK:   -4.21 KCAL/MOL
REMARK 922        TOTAL FREE ENERGY PREDICTED BY IDOCK:   -4.84 KCAL/MOL
REMARK 923 INTER-LIGAND FREE ENERGY PREDICTED BY IDOCK:   -4.71 KCAL/MOL
REMARK 924 INTRA-LIGAND FREE ENERGY PREDICTED BY IDOCK:   -0.13 KCAL/MOL
REMARK 927      BINDING AFFINITY PREDICTED BY RF-SCORE:    0.00 PKD
ROOT
HETATM    1  O   UNL     1     -12.428  14.777  63.716  1.00  0.00    -1.045 OA 
HETATM    2  C   UNL     1     -11.292  14.612  64.547  1.00  0.00    -0.310 C  
HETATM    3  H   UNL     1     -12.664  13.920  63.382  1.00  0.00     0.000 HD 
ENDROOT
BRANCH   2   4
HETATM    4  C   UNL     1     -10.921  15.955  65.070  1.00  0.00    -0.426 C  
HETATM    5  C   UNL     1     -10.585  16.212  66.343  1.00  0.00    -0.269 C  
BRANCH   5   6
HETATM    6  C   UNL     1     -10.255  17.572  66.761  1.00  0.00    -0.327 A  
HETATM    7  C   UNL     1      -9.813  17.816  68.066  1.00  0.00    -0.317 A  
HETATM    8  C   UNL     1      -9.555  19.121  68.486  1.00  0.00    -0.454 A  
HETATM    9  C   UNL     1      -9.740  20.187  67.607  1.00  0.00    -0.551 A  
HETATM   10  C   UNL     1     -10.174  19.949  66.302  1.00  0.00    -0.614 A  
HETATM   11  C   UNL     1     -10.433  18.643  65.880  1.00  0.00    -0.395 A  
ENDBRANCH   5   6
ENDBRANCH   2   4
TORSDOF 2
ENDMDL
MODEL       12
REMARK 921   NORMALIZED FREE ENERGY PREDICTED BY IDOCK:   -4.18 KCAL/MOL
REMARK 922        TOTAL FREE ENERGY PREDICTED BY IDOCK:   -4.80 KCAL/MOL
REMARK 923 INTER-LIGAND FREE ENERGY PREDICTED BY IDOCK:   -4.68 KCAL/MOL
REMARK 924 INTRA-LIGAND FREE ENERGY PREDICTED BY IDOCK:   -0.12 KCAL/MOL
REMARK 927      BINDING AFFINITY PREDICTED BY RF-SCORE:    0.00 PKD
ROOT
HETATM    1  O   UNL     1     -12.359  14.170  66.181  1.00  0.00    -0.450 OA 
HETATM    2  C   UNL     1     -11.306  14.251  67.126  1.00  0.00    -0.337 C  
HETATM    3  H   UNL     1     -11.989  13.839  65.371  1.00  0.00     0.000 HD 
ENDROOT
BRANCH   2   4
HETATM    4  C   UNL     1     -11.885  14.770  68.396  1.00  0.00    -0.319 C  
HETATM    5  C   UNL     1     -11.577  14.311  69.618  1.00  0.00    -0.351 C  
BRANCH   5   6
HETATM    6  C   UNL     1     -12.217  14.877  70.803  1.00  0.00    -0.387 A  
HETATM    7  C   UNL     1     -11.494  15.723  71.652  1.00  0.00    -0.495 A  
HETATM    8  C   UNL     1     -12.083  16.216  72.817  1.00  0.00    -0.653 A  
HETATM    9  C   UNL     1     -13.393  15.865  73.139  1.00  0.00    -0.681 A  
HETATM   10  C   UNL     1     -14.120  15.027  72.293  1.00  0.00    -0.612 A  
HETATM   11  C   UNL     1     -13.532  14.532  71.127  1.00  0.00    -0.396 A  
ENDBRANCH   5   6
ENDBRANCH   2   4
TORSDOF 2
ENDMDL
MODEL       13
REMARK 921   NORMALIZED FREE ENERGY PREDICTED BY IDOCK:   -4.17 KCAL/MOL
REMARK 922        TOTAL FREE ENERGY PREDICTED BY IDOCK:   -4.79 KCAL/MOL
REMARK 923 INTER-LIGAND FREE ENERGY PREDICTED BY IDOCK:   -4.65 KCAL/MOL
REMARK 924 INTRA-LIGAND FREE ENERGY PREDICTED BY IDOCK:   -0.14 KCAL/MOL
REMARK 927      BINDING AFFINITY PREDICTED BY RF-SCORE:    0.00 PKD
ROOT
HETATM    1  O   UNL     1     -11.610  16.395  63.705  1.00  0.00    -1.605 OA 
HETATM    2  C   UNL     1     -10.918  16.388  64.942  1.00  0.00    -0.263 C  
HETATM    3  H   UNL     1     -11.703  17.301  63.437  1.00  0.00     0.000 HD 
ENDROOT
BRANCH   2   4
HETATM    4  C   UNL     1     -10.773  14.968  65.364  1.00  0.00    -0.389 C  
HETATM    5  C   UNL     1     -10.791  13.918  64.529  1.00  0.00    -0.381 C  
BRANCH   5   6
HETATM    6  C   UNL     1     -10.658  12.558  65.046  1.00  0.00    -0.329 A  
HETATM    7  C   UNL     1     -10.920  12.294  66.395  1.00  0.00    -0.326 A  
HETATM    8  C   UNL     1     -10.735  11.009  66.906  1.00  0.00    -0.325 A  
HETATM    9  C   UNL     1     -10.286   9.985  66.074  1.00  0.00    -0.277 A  
HETATM   10  C   UNL     1     -10.029  10.242  64.727  1.00  0.00    -0.392 A  
HETATM   11  C   UNL     1     -10.214  11.527  64.214  1.00  0.00    -0.361 A  
ENDBRANCH   5   6
ENDBRANCH   2   4
TORSDOF 2
ENDMDL
MODEL       14
REMARK 921   NORMALIZED FREE ENERGY PREDICTED BY IDOCK:   -4.15 KCAL/MOL
REMARK 922        TOTAL FREE ENERGY PREDICTED BY IDOCK:   -4.77 KCAL/MOL
REMARK 923 INTER-LIGAND FREE ENERGY PREDICTED BY IDOCK:   -4.64 KCAL/MOL
REMARK 924 INTRA-LIGAND FREE ENERGY PREDICTED BY IDOCK:   -0.13 KCAL/MOL
REMARK 927      BINDING AFFINITY PREDICTED BY RF-SCORE:    0.00 PKD
ROOT
HETATM    1  O   UNL     1     -10.917  15.348  66.238  1.00  0.00    -0.324 OA 
HETATM    2  C   UNL     1     -11.444  14.220  66.916  1.00  0.00    -0.363 C  
HETATM    3  H   UNL     1     -10.751  15.089  65.340  1.00  0.00     0.000 HD 
ENDROOT
BRANCH   2   4
HETATM    4  C   UNL     1     -11.703  14.626  68.324  1.00  0.00    -0.359 C  
HETATM    5  C   UNL     1     -11.926  13.773  69.335  1.00  0.00    -0.397 C  
BRANCH   5   6
HETATM    6  C   UNL     1     -12.189  14.276  70.682  1.00  0.00    -0.427 A  
HETATM    7  C   UNL     1     -13.063  13.584  71.528  1.00  0.00    -0.427 A  
HETATM    8  C   UNL     1     -13.364  14.094  72.792  1.00  0.00    -0.618 A  
HETATM    9  C   UNL     1     -12.795  15.295  73.214  1.00  0.00    -0.634 A  
HETATM   10  C   UNL     1     -11.918  15.984  72.376  1.00  0.00    -0.644 A  
HETATM   11  C   UNL     1     -11.616  15.476  71.111  1.00  0.00    -0.446 A  
ENDBRANCH   5   6
ENDBRANCH   2   4
TORSDOF 2
ENDMDL
MODEL       15
REMARK 921   NORMALIZED FREE ENERGY PREDICTED BY IDOCK:   -4.15 KCAL/MOL
REMARK 922        TOTAL FREE ENERGY PREDICTED BY IDOCK:   -4.77 KCAL/MOL
REMARK 923 INTER-LIGAND FREE ENERGY PREDICTED BY IDOCK:   -4.65 KCAL/MOL
REMARK 924 INTRA-LIGAND FREE ENERGY PREDICTED BY IDOCK:   -0.12 KCAL/MOL
REMARK 927      BINDING AFFINITY PREDICTED BY RF-SCORE:    0.00 PKD
ROOT
HETATM    1  O   UNL     1     -12.074  12.461  65.906  1.00  0.00    -0.580 OA 
HETATM    2  C   UNL     1     -11.270  13.352  66.660  1.00  0.00    -0.309 C  
HETATM    3  H   UNL     1     -11.620  12.290  65.089  1.00  0.00     0.000 HD 
ENDROOT
BRANCH   2   4
HETATM    4  C   UNL     1     -11.980  13.620  67.940  1.00  0.00    -0.382 C  
HETATM    5  C   UNL     1     -11.374  13.894  69.106  1.00  0.00    -0.331 C  
BRANCH   5   6
HETATM    6  C   UNL     1     -12.164  14.124  70.313  1.00  0.00    -0.416 A  
HETATM    7  C   UNL     1     -12.566  13.042  71.104  1.00  0.00    -0.388 A  
HETATM    8  C   UNL     1     -13.371  13.253  72.223  1.00  0.00    -0.630 A  
HETATM    9  C   UNL     1     -13.779  14.544  72.556  1.00  0.00    -0.580 A  
HETATM   10  C   UNL     1     -13.376  15.627  71.775  1.00  0.00    -0.541 A  
HETATM   11  C   UNL     1     -12.570  15.418  70.654  1.00  0.00    -0.491 A  
ENDBRANCH   5   6
ENDBRANCH   2   4
TORSDOF 2
ENDMDL
MODEL       16
REMARK 921   NORMALIZED FREE ENERGY PREDICTED BY IDOCK:   -4.13 KCAL/MOL
REMARK 922        TOTAL FREE ENERGY PREDICTED BY IDOCK:   -4.75 KCAL/MOL
REMARK 923 INTER-LIGAND FREE ENERGY PREDICTED BY IDOCK:   -4.62 KCAL/MOL
REMARK 924 INTRA-LIGAND FREE ENERGY PREDICTED BY IDOCK:   -0.13 KCAL/MOL
REMARK 927      BINDING AFFINITY PREDICTED BY RF-SCORE:    0.00 PKD
ROOT
HETATM    1  O   UNL     1     -12.274   6.961  70.285  1.00  0.00    -0.624 OA 
HETATM    2  C   UNL     1     -12.476   7.653  71.505  1.00  0.00    -0.336 C  
HETATM    3  H   UNL     1     -12.374   6.034  70.464  1.00  0.00     0.000 HD 
ENDROOT
BRANCH   2   4
HETATM    4  C   UNL     1     -12.319   9.106  71.226  1.00  0.00    -0.382 C  
HETATM    5  C   UNL     1     -13.086  10.072  71.753  1.00  0.00    -0.562 C  
BRANCH   5   6
HETATM    6  C   UNL     1     -12.861  11.472  71.399  1.00  0.00    -0.489 A  
HETATM    7  C   UNL     1     -13.521  12.486  72.101  1.00  0.00    -0.523 A  
HETATM    8  C   UNL     1     -13.356  13.820  71.726  1.00  0.00    -0.463 A  
HETATM    9  C   UNL     1     -12.533  14.145  70.649  1.00  0.00    -0.432 A  
HETATM   10  C   UNL     1     -11.868  13.138  69.949  1.00  0.00    -0.378 A  
HETATM   11  C   UNL     1     -12.032  11.802  70.323  1.00  0.00    -0.429 A  
ENDBRANCH   5   6
ENDBRANCH   2   4
TORSDOF 2
ENDMDL
MODEL       17
REMARK 921   NORMALIZED FREE ENERGY PREDICTED BY IDOCK:   -4.11 KCAL/MOL
REMARK 922        TOTAL FREE ENERGY PREDICTED BY IDOCK:   -4.72 KCAL/MOL
REMARK 923 INTER-LIGAND FREE ENERGY PREDICTED BY IDOCK:   -4.59 KCAL/MOL
REMARK 924 INTRA-LIGAND FREE ENERGY PREDICTED BY IDOCK:   -0.13 KCAL/MOL
REMARK 927      BINDING AFFINITY PREDICTED BY RF-SCORE:    0.00 PKD
ROOT
HETATM    1  O   UNL     1     -12.529   8.388  72.766  1.00  0.00    -0.589 OA 
HETATM    2  C   UNL     1     -13.029   8.938  71.559  1.00  0.00    -0.332 C  
HETATM    3  H   UNL     1     -12.516   7.444  72.665  1.00  0.00     0.000 HD 
ENDROOT
BRANCH   2   4
HETATM    4  C   UNL     1     -13.050  10.418  71.718  1.00  0.00    -0.567 C  
HETATM    5  C   UNL     1     -12.601  11.290  70.803  1.00  0.00    -0.425 C  
BRANCH   5   6
HETATM    6  C   UNL     1     -12.650  12.727  71.064  1.00  0.00    -0.362 A  
HETATM    7  C   UNL     1     -11.836  13.599  70.333  1.00  0.00    -0.308 A  
HETATM    8  C   UNL     1     -11.835  14.964  70.621  1.00  0.00    -0.357 A  
HETATM    9  C   UNL     1     -12.645  15.462  71.641  1.00  0.00    -0.458 A  
HETATM   10  C   UNL     1     -13.463  14.598  72.369  1.00  0.00    -0.534 A  
HETATM   11  C   UNL     1     -13.465  13.231  72.082  1.00  0.00    -0.655 A  
ENDBRANCH   5   6
ENDBRANCH   2   4
TORSDOF 2
ENDMDL
MODEL       18
REMARK 921   NORMALIZED FREE ENERGY PREDICTED BY IDOCK:   -4.10 KCAL/MOL
REMARK 922        TOTAL FREE ENERGY PREDICTED BY IDOCK:   -4.72 KCAL/MOL
REMARK 923 INTER-LIGAND FREE ENERGY PREDICTED BY IDOCK:   -4.58 KCAL/MOL
REMARK 924 INTRA-LIGAND FREE ENERGY PREDICTED BY IDOCK:   -0.13 KCAL/MOL
REMARK 927      BINDING AFFINITY PREDICTED BY RF-SCORE:    0.00 PKD
ROOT
HETATM    1  O   UNL     1     -13.693  16.019  73.573  1.00  0.00    -0.814 OA 
HETATM    2  C   UNL     1     -12.293  15.909  73.382  1.00  0.00    -0.538 C  
HETATM    3  H   UNL     1     -13.834  16.520  74.368  1.00  0.00     0.000 HD 
ENDROOT
BRANCH   2   4
HETATM    4  C   UNL     1     -12.073  15.124  72.137  1.00  0.00    -0.472 C  
HETATM    5  C   UNL     1     -12.194  15.615  70.894  1.00  0.00    -0.466 C  
BRANCH   5   6
HETATM    6  C   UNL     1     -11.974  14.754  69.734  1.00  0.00    -0.368 A  
HETATM    7  C   UNL     1     -11.771  15.320  68.471  1.00  0.00    -0.352 A  
HETATM    8  C   UNL     1     -11.621  14.501  67.352  1.00  0.00    -0.406 A  
HETATM    9  C   UNL     1     -11.675  13.114  67.490  1.00  0.00    -0.414 A  
HETATM   10  C   UNL     1     -11.870  12.545  68.748  1.00  0.00    -0.347 A  
HETATM   11  C   UNL     1     -12.020  13.363  69.869  1.00  0.00    -0.408 A  
ENDBRANCH   5   6
ENDBRANCH   2   4
TORSDOF 2
ENDMDL
MODEL       19
REMARK 921   NORMALIZED FREE ENERGY PREDICTED BY IDOCK:   -4.09 KCAL/MOL
REMARK 922        TOTAL FREE ENERGY PREDICTED BY IDOCK:   -4.70 KCAL/MOL
REMARK 923 INTER-LIGAND FREE ENERGY PREDICTED BY IDOCK:   -4.59 KCAL/MOL
REMARK 924 INTRA-LIGAND FREE ENERGY PREDICTED BY IDOCK:   -0.12 KCAL/MOL
REMARK 927      BINDING AFFINITY PREDICTED BY RF-SCORE:    0.00 PKD
ROOT
HETATM    1  O   UNL     1     -12.502  13.842  63.267  1.00  0.00    -1.113 OA 
HETATM    2  C   UNL     1     -12.494  12.887  64.314  1.00  0.00    -0.349 C  
HETATM    3  H   UNL     1     -12.523  13.365  62.446  1.00  0.00     0.000 HD 
ENDROOT
BRANCH   2   4
HETATM    4  C   UNL     1     -12.460  13.634  65.601  1.00  0.00    -0.540 C  
HETATM    5  C   UNL     1     -11.634  13.359  66.621  1.00  0.00    -0.399 C  
BRANCH   5   6
HETATM    6  C   UNL     1     -11.693  14.143  67.852  1.00  0.00    -0.402 A  
HETATM    7  C   UNL     1     -11.230  15.464  67.863  1.00  0.00    -0.329 A  
HETATM    8  C   UNL     1     -11.228  16.196  69.051  1.00  0.00    -0.347 A  
HETATM    9  C   UNL     1     -11.685  15.612  70.231  1.00  0.00    -0.375 A  
HETATM   10  C   UNL     1     -12.153  14.298  70.225  1.00  0.00    -0.403 A  
HETATM   11  C   UNL     1     -12.156  13.564  69.037  1.00  0.00    -0.330 A  
ENDBRANCH   5   6
ENDBRANCH   2   4
TORSDOF 2
ENDMDL
MODEL       20
REMARK 921   NORMALIZED FREE ENERGY PREDICTED BY IDOCK:   -4.04 KCAL/MOL
REMARK 922        TOTAL FREE ENERGY PREDICTED BY IDOCK:   -4.64 KCAL/MOL
REMARK 923 INTER-LIGAND FREE ENERGY PREDICTED BY IDOCK:   -4.52 KCAL/MOL
REMARK 924 INTRA-LIGAND FREE ENERGY PREDICTED BY IDOCK:   -0.12 KCAL/MOL
REMARK 927      BINDING AFFINITY PREDICTED BY RF-SCORE:    0.00 PKD
ROOT
HETATM    1  O   UNL     1     -13.197  15.124  70.275  1.00  0.00    -0.648 OA 
HETATM    2  C   UNL     1     -12.189  14.289  69.730  1.00  0.00    -0.339 C  
HETATM    3  H   UNL     1     -13.201  15.931  69.774  1.00  0.00     0.000 HD 
ENDROOT
BRANCH   2   4
HETATM    4  C   UNL     1     -12.184  13.025  70.515  1.00  0.00    -0.392 C  
HETATM    5  C   UNL     1     -11.949  11.808  70.000  1.00  0.00    -0.421 C  
BRANCH   5   6
HETATM    6  C   UNL     1     -11.985  10.624  70.855  1.00  0.00    -0.469 A  
HETATM    7  C   UNL     1     -10.888   9.756  70.893  1.00  0.00    -0.399 A  
HETATM    8  C   UNL     1     -10.943   8.592  71.661  1.00  0.00    -0.362 A  
HETATM    9  C   UNL     1     -12.092   8.291  72.391  1.00  0.00    -0.430 A  
HETATM   10  C   UNL     1     -13.185   9.157  72.361  1.00  0.00    -0.512 A  
HETATM   11  C   UNL     1     -13.132  10.322  71.593  1.00  0.00    -0.553 A  
ENDBRANCH   5   6
ENDBRANCH   2   4
TORSDOF 2
ENDMDL
MODEL       21
REMARK 921   NORMALIZED FREE ENERGY PREDICTED BY IDOCK:   -4.02 KCAL/MOL
REMARK 922        TOTAL FREE ENERGY PREDICTED BY IDOCK:   -4.63 KCAL/MOL
REMARK 923 INTER-LIGAND FREE ENERGY PREDICTED BY IDOCK:   -4.50 KCAL/MOL
REMARK 924 INTRA-LIGAND FREE ENERGY PREDICTED BY IDOCK:   -0.13 KCAL/MOL
REMARK 927      BINDING AFFINITY PREDICTED BY RF-SCORE:    0.00 PKD
ROOT
HETATM    1  O   UNL     1     -13.333  15.157  70.511  1.00  0.00    -0.658 OA 
HETATM    2  C   UNL     1     -12.220  14.393  70.078  1.00  0.00    -0.351 C  
HETATM    3  H   UNL     1     -13.280  16.004  70.085  1.00  0.00     0.000 HD 
ENDROOT
BRANCH   2   4
HETATM    4  C   UNL     1     -12.302  13.066  70.746  1.00  0.00    -0.394 C  
HETATM    5  C   UNL     1     -11.893  11.911  70.200  1.00  0.00    -0.390 C  
BRANCH   5   6
HETATM    6  C   UNL     1     -12.034  10.655  70.934  1.00  0.00    -0.469 A  
HETATM    7  C   UNL     1     -13.236  10.357  71.585  1.00  0.00    -0.502 A  
HETATM    8  C   UNL     1     -13.353   9.188  72.338  1.00  0.00    -0.527 A  
HETATM    9  C   UNL     1     -12.272   8.314  72.444  1.00  0.00    -0.412 A  
HETATM   10  C   UNL     1     -11.074   8.604  71.791  1.00  0.00    -0.396 A  
HETATM   11  C   UNL     1     -10.954   9.774  71.038  1.00  0.00    -0.402 A  
ENDBRANCH   5   6
ENDBRANCH   2   4
TORSDOF 2
ENDMDL
MODEL       22
REMARK 921   NORMALIZED FREE ENERGY PREDICTED BY IDOCK:   -4.01 KCAL/MOL
REMARK 922        TOTAL FREE ENERGY PREDICTED BY IDOCK:   -4.62 KCAL/MOL
REMARK 923 INTER-LIGAND FREE ENERGY PREDICTED BY IDOCK:   -4.49 KCAL/MOL
REMARK 924 INTRA-LIGAND FREE ENERGY PREDICTED BY IDOCK:   -0.12 KCAL/MOL
REMARK 927      BINDING AFFINITY PREDICTED BY RF-SCORE:    0.00 PKD
ROOT
HETATM    1  O   UNL     1     -12.581  15.549  69.446  1.00  0.00    -0.599 OA 
HETATM    2  C   UNL     1     -12.116  14.210  69.412  1.00  0.00    -0.328 C  
HETATM    3  H   UNL     1     -12.732  15.775  70.355  1.00  0.00     0.000 HD 
ENDROOT
BRANCH   2   4
HETATM    4  C   UNL     1     -11.879  13.855  67.986  1.00  0.00    -0.411 C  
HETATM    5  C   UNL     1     -11.737  12.603  67.525  1.00  0.00    -0.429 C  
BRANCH   5   6
HETATM    6  C   UNL     1     -11.489  12.361  66.106  1.00  0.00    -0.430 A  
HETATM    7  C   UNL     1     -12.308  12.957  65.141  1.00  0.00    -0.547 A  
HETATM    8  C   UNL     1     -12.111  12.680  63.788  1.00  0.00    -0.604 A  
HETATM    9  C   UNL     1     -11.099  11.806  63.394  1.00  0.00    -0.448 A  
HETATM   10  C   UNL     1     -10.276  11.214  64.352  1.00  0.00    -0.390 A  
HETATM   11  C   UNL     1     -10.471  11.490  65.707  1.00  0.00    -0.308 A  
ENDBRANCH   5   6
ENDBRANCH   2   4
TORSDOF 2
ENDMDL
MODEL       23
REMARK 921   NORMALIZED FREE ENERGY PREDICTED BY IDOCK:   -4.00 KCAL/MOL
REMARK 922        TOTAL FREE ENERGY PREDICTED BY IDOCK:   -4.61 KCAL/MOL
REMARK 923 INTER-LIGAND FREE ENERGY PREDICTED BY IDOCK:   -4.47 KCAL/MOL
REMARK 924 INTRA-LIGAND FREE ENERGY PREDICTED BY IDOCK:   -0.14 KCAL/MOL
REMARK 927      BINDING AFFINITY PREDICTED BY RF-SCORE:    0.00 PKD
ROOT
HETATM    1  O   UNL     1     -12.380  13.403  62.844  1.00  0.00    -0.869 OA 
HETATM    2  C   UNL     1     -12.414  12.185  63.570  1.00  0.00    -0.555 C  
HETATM    3  H   UNL     1     -12.598  13.202  61.942  1.00  0.00     0.000 HD 
ENDROOT
BRANCH   2   4
HETATM    4  C   UNL     1     -12.073  12.499  64.984  1.00  0.00    -0.504 C  
HETATM    5  C   UNL     1     -12.420  13.628  65.620  1.00  0.00    -0.540 C  
BRANCH   5   6
HETATM    6  C   UNL     1     -12.019  13.849  67.008  1.00  0.00    -0.459 A  
HETATM    7  C   UNL     1     -11.940  12.769  67.893  1.00  0.00    -0.320 A  
HETATM    8  C   UNL     1     -11.617  12.984  69.234  1.00  0.00    -0.367 A  
HETATM    9  C   UNL     1     -11.374  14.277  69.694  1.00  0.00    -0.292 A  
HETATM   10  C   UNL     1     -11.445  15.357  68.814  1.00  0.00    -0.352 A  
HETATM   11  C   UNL     1     -11.768  15.144  67.472  1.00  0.00    -0.214 A  
ENDBRANCH   5   6
ENDBRANCH   2   4
TORSDOF 2
ENDMDL
MODEL       24
REMARK 921   NORMALIZED FREE ENERGY PREDICTED BY IDOCK:   -4.00 KCAL/MOL
REMARK 922        TOTAL FREE ENERGY PREDICTED BY IDOCK:   -4.60 KCAL/MOL
REMARK 923 INTER-LIGAND FREE ENERGY PREDICTED BY IDOCK:   -4.49 KCAL/MOL
REMARK 924 INTRA-LIGAND FREE ENERGY PREDICTED BY IDOCK:   -0.12 KCAL/MOL
REMARK 927      BINDING AFFINITY PREDICTED BY RF-SCORE:    0.00 PKD
ROOT
HETATM    1  O   UNL     1      -9.935  14.300  67.221  1.00  0.00    -0.246 OA 
HETATM    2  C   UNL     1     -11.291  13.892  67.307  1.00  0.00    -0.323 C  
HETATM    3  H   UNL     1      -9.660  14.185  66.320  1.00  0.00     0.000 HD 
ENDROOT
BRANCH   2   4
HETATM    4  C   UNL     1     -11.722  14.071  68.720  1.00  0.00    -0.388 C  
HETATM    5  C   UNL     1     -12.019  15.252  69.283  1.00  0.00    -0.327 C  
BRANCH   5   6
HETATM    6  C   UNL     1     -12.416  15.323  70.687  1.00  0.00    -0.458 A  
HETATM    7  C   UNL     1     -13.772  15.310  71.032  1.00  0.00    -0.452 A  
HETATM    8  C   UNL     1     -14.157  15.439  72.367  1.00  0.00    -0.645 A  
HETATM    9  C   UNL     1     -13.190  15.583  73.361  1.00  0.00    -0.600 A  
HETATM   10  C   UNL     1     -11.837  15.590  73.023  1.00  0.00    -0.555 A  
HETATM   11  C   UNL     1     -11.450  15.462  71.688  1.00  0.00    -0.492 A  
ENDBRANCH   5   6
ENDBRANCH   2   4
TORSDOF 2
ENDMDL
MODEL       25
REMARK 921   NORMALIZED FREE ENERGY PREDICTED BY IDOCK:   -3.98 KCAL/MOL
REMARK 922        TOTAL FREE ENERGY PREDICTED BY IDOCK:   -4.58 KCAL/MOL
REMARK 923 INTER-LIGAND FREE ENERGY PREDICTED BY IDOCK:   -4.45 KCAL/MOL
REMARK 924 INTRA-LIGAND FREE ENERGY PREDICTED BY IDOCK:   -0.14 KCAL/MOL
REMARK 927      BINDING AFFINITY PREDICTED BY RF-SCORE:    0.00 PKD
ROOT
HETATM    1  O   UNL     1     -11.617  13.026  70.310  1.00  0.00    -0.520 OA 
HETATM    2  C   UNL     1     -11.960  11.704  69.930  1.00  0.00    -0.340 C  
HETATM    3  H   UNL     1     -11.796  13.110  71.239  1.00  0.00     0.000 HD 
ENDROOT
BRANCH   2   4
HETATM    4  C   UNL     1     -11.680  11.571  68.474  1.00  0.00    -0.379 C  
HETATM    5  C   UNL     1     -11.872  12.543  67.568  1.00  0.00    -0.389 C  
BRANCH   5   6
HETATM    6  C   UNL     1     -11.582  12.305  66.156  1.00  0.00    -0.450 A  
HETATM    7  C   UNL     1     -12.419  12.841  65.171  1.00  0.00    -0.565 A  
HETATM    8  C   UNL     1     -12.180  12.565  63.824  1.00  0.00    -0.615 A  
HETATM    9  C   UNL     1     -11.109  11.753  63.457  1.00  0.00    -0.503 A  
HETATM   10  C   UNL     1     -10.268  11.221  64.435  1.00  0.00    -0.377 A  
HETATM   11  C   UNL     1     -10.505  11.496  65.784  1.00  0.00    -0.308 A  
ENDBRANCH   5   6
ENDBRANCH   2   4
TORSDOF 2
ENDMDL
MODEL       26
REMARK 921   NORMALIZED FREE ENERGY PREDICTED BY IDOCK:   -3.98 KCAL/MOL
REMARK 922        TOTAL FREE ENERGY PREDICTED BY IDOCK:   -4.58 KCAL/MOL
REMARK 923 INTER-LIGAND FREE ENERGY PREDICTED BY IDOCK:   -4.44 KCAL/MOL
REMARK 924 INTRA-LIGAND FREE ENERGY PREDICTED BY IDOCK:   -0.13 KCAL/MOL
REMARK 927      BINDING AFFINITY PREDICTED BY RF-SCORE:    0.00 PKD
ROOT
HETATM    1  O   UNL     1     -11.554  13.370  70.194  1.00  0.00    -0.485 OA 
HETATM    2  C   UNL     1     -11.989  14.396  69.319  1.00  0.00    -0.324 C  
HETATM    3  H   UNL     1     -11.675  13.683  71.083  1.00  0.00     0.000 HD 
ENDROOT
BRANCH   2   4
HETATM    4  C   UNL     1     -11.799  13.907  67.927  1.00  0.00    -0.413 C  
HETATM    5  C   UNL     1     -11.786  12.614  67.568  1.00  0.00    -0.396 C  
BRANCH   5   6
HETATM    6  C   UNL     1     -11.574  12.236  66.173  1.00  0.00    -0.450 A  
HETATM    7  C   UNL     1     -10.561  11.329  65.840  1.00  0.00    -0.309 A  
HETATM    8  C   UNL     1     -10.316  11.013  64.503  1.00  0.00    -0.420 A  
HETATM    9  C   UNL     1     -11.078  11.602  63.495  1.00  0.00    -0.476 A  
HETATM   10  C   UNL     1     -12.093  12.501  63.822  1.00  0.00    -0.615 A  
HETATM   11  C   UNL     1     -12.340  12.819  65.159  1.00  0.00    -0.555 A  
ENDBRANCH   5   6
ENDBRANCH   2   4
TORSDOF 2
ENDMDL
MODEL       27
REMARK 921   NORMALIZED FREE ENERGY PREDICTED BY IDOCK:   -3.95 KCAL/MOL
REMARK 922        TOTAL FREE ENERGY PREDICTED BY IDOCK:   -4.54 KCAL/MOL
REMARK 923 INTER-LIGAND FREE ENERGY PREDICTED BY IDOCK:   -4.41 KCAL/MOL
REMARK 924 INTRA-LIGAND FREE ENERGY PREDICTED BY IDOCK:   -0.13 KCAL/MOL
REMARK 927      BINDING AFFINITY PREDICTED BY RF-SCORE:    0.00 PKD
ROOT
HETATM    1  O   UNL     1     -11.468  11.302  62.966  1.00  0.00    -0.852 OA 
HETATM    2  C   UNL     1     -12.644  11.905  63.479  1.00  0.00    -0.459 C  
HETATM    3  H   UNL     1     -11.722  10.770  62.222  1.00  0.00     0.000 HD 
ENDROOT
BRANCH   2   4
HETATM    4  C   UNL     1     -12.246  12.740  64.645  1.00  0.00    -0.510 C  
HETATM    5  C   UNL     1     -11.713  13.968  64.558  1.00  0.00    -0.428 C  
BRANCH   5   6
HETATM    6  C   UNL     1     -11.338  14.699  65.767  1.00  0.00    -0.340 A  
HETATM    7  C   UNL     1     -11.826  14.288  67.012  1.00  0.00    -0.455 A  
HETATM    8  C   UNL     1     -11.520  15.020  68.160  1.00  0.00    -0.355 A  
HETATM    9  C   UNL     1     -10.729  16.164  68.068  1.00  0.00    -0.321 A  
HETATM   10  C   UNL     1     -10.235  16.574  66.830  1.00  0.00    -0.295 A  
HETATM   11  C   UNL     1     -10.540  15.843  65.680  1.00  0.00    -0.393 A  
ENDBRANCH   5   6
ENDBRANCH   2   4
TORSDOF 2
ENDMDL
MODEL       28
REMARK 921   NORMALIZED FREE ENERGY PREDICTED BY IDOCK:   -3.94 KCAL/MOL
REMARK 922        TOTAL FREE ENERGY PREDICTED BY IDOCK:   -4.54 KCAL/MOL
REMARK 923 INTER-LIGAND FREE ENERGY PREDICTED BY IDOCK:   -4.41 KCAL/MOL
REMARK 924 INTRA-LIGAND FREE ENERGY PREDICTED BY IDOCK:   -0.13 KCAL/MOL
REMARK 927      BINDING AFFINITY PREDICTED BY RF-SCORE:    0.00 PKD
ROOT
HETATM    1  O   UNL     1     -12.876  14.584  69.839  1.00  0.00    -0.551 OA 
HETATM    2  C   UNL     1     -11.867  14.592  68.843  1.00  0.00    -0.309 C  
HETATM    3  H   UNL     1     -13.131  13.680  69.978  1.00  0.00     0.000 HD 
ENDROOT
BRANCH   2   4
HETATM    4  C   UNL     1     -11.466  16.009  68.625  1.00  0.00    -0.377 C  
HETATM    5  C   UNL     1     -10.701  16.438  67.609  1.00  0.00    -0.312 C  
BRANCH   5   6
HETATM    6  C   UNL     1     -10.349  17.851  67.494  1.00  0.00    -0.383 A  
HETATM    7  C   UNL     1      -9.997  18.579  68.636  1.00  0.00    -0.419 A  
HETATM    8  C   UNL     1      -9.719  19.943  68.539  1.00  0.00    -0.421 A  
HETATM    9  C   UNL     1      -9.794  20.584  67.303  1.00  0.00    -0.581 A  
HETATM   10  C   UNL     1     -10.138  19.861  66.161  1.00  0.00    -0.611 A  
HETATM   11  C   UNL     1     -10.417  18.496  66.256  1.00  0.00    -0.441 A  
ENDBRANCH   5   6
ENDBRANCH   2   4
TORSDOF 2
ENDMDL
MODEL       29
REMARK 921   NORMALIZED FREE ENERGY PREDICTED BY IDOCK:   -3.94 KCAL/MOL
REMARK 922        TOTAL FREE ENERGY PREDICTED BY IDOCK:   -4.53 KCAL/MOL
REMARK 923 INTER-LIGAND FREE ENERGY PREDICTED BY IDOCK:   -4.41 KCAL/MOL
REMARK 924 INTRA-LIGAND FREE ENERGY PREDICTED BY IDOCK:   -0.12 KCAL/MOL
REMARK 927      BINDING AFFINITY PREDICTED BY RF-SCORE:    0.00 PKD
ROOT
HETATM    1  O   UNL     1     -14.100   8.960  73.280  1.00  0.00    -1.211 OA 
HETATM    2  C   UNL     1     -13.584   9.454  72.055  1.00  0.00    -0.433 C  
HETATM    3  H   UNL     1     -14.771   9.566  73.570  1.00  0.00     0.000 HD 
ENDROOT
BRANCH   2   4
HETATM    4  C   UNL     1     -12.532   8.504  71.600  1.00  0.00    -0.370 C  
HETATM    5  C   UNL     1     -12.759   7.236  71.227  1.00  0.00    -0.400 C  
BRANCH   5   6
HETATM    6  C   UNL     1     -11.652   6.377  70.812  1.00  0.00    -0.402 A  
HETATM    7  C   UNL     1     -10.924   5.663  71.769  1.00  0.00    -0.290 A  
HETATM    8  C   UNL     1      -9.828   4.891  71.383  1.00  0.00    -0.252 A  
HETATM    9  C   UNL     1      -9.454   4.831  70.041  1.00  0.00    -0.240 A  
HETATM   10  C   UNL     1     -10.182   5.536  69.082  1.00  0.00    -0.309 A  
HETATM   11  C   UNL     1     -11.278   6.309  69.466  1.00  0.00    -0.500 A  
ENDBRANCH   5   6
ENDBRANCH   2   4
TORSDOF 2
ENDMDL
MODEL       30
REMARK 921   NORMALIZED FREE ENERGY PREDICTED BY IDOCK:   -3.93 KCAL/MOL
REMARK 922        TOTAL FREE ENERGY PREDICTED BY IDOCK:   -4.52 KCAL/MOL
REMARK 923 INTER-LIGAND FREE ENERGY PREDICTED BY IDOCK:   -4.39 KCAL/MOL
REMARK 924 INTRA-LIGAND FREE ENERGY PREDICTED BY IDOCK:   -0.13 KCAL/MOL
REMARK 927      BINDING AFFINITY PREDICTED BY RF-SCORE:    0.00 PKD
ROOT
HETATM    1  O   UNL     1     -13.818  16.159  73.508  1.00  0.00    -0.868 OA 
HETATM    2  C   UNL     1     -13.285  14.932  73.040  1.00  0.00    -0.494 C  
HETATM    3  H   UNL     1     -14.084  16.028  74.410  1.00  0.00     0.000 HD 
ENDROOT
BRANCH   2   4
HETATM    4  C   UNL     1     -12.868  15.138  71.626  1.00  0.00    -0.439 C  
HETATM    5  C   UNL     1     -12.297  14.199  70.855  1.00  0.00    -0.438 C  
BRANCH   5   6
HETATM    6  C   UNL     1     -11.907  14.508  69.481  1.00  0.00    -0.374 A  
HETATM    7  C   UNL     1     -11.981  13.520  68.494  1.00  0.00    -0.379 A  
HETATM    8  C   UNL     1     -11.551  13.794  67.195  1.00  0.00    -0.392 A  
HETATM    9  C   UNL     1     -11.045  15.053  66.878  1.00  0.00    -0.331 A  
HETATM   10  C   UNL     1     -10.975  16.044  67.857  1.00  0.00    -0.327 A  
HETATM   11  C   UNL     1     -11.404  15.772  69.158  1.00  0.00    -0.349 A  
ENDBRANCH   5   6
ENDBRANCH   2   4
TORSDOF 2
ENDMDL
MODEL       31
REMARK 921   NORMALIZED FREE ENERGY PREDICTED BY IDOCK:   -3.87 KCAL/MOL
REMARK 922        TOTAL FREE ENERGY PREDICTED BY IDOCK:   -4.46 KCAL/MOL
REMARK 923 INTER-LIGAND FREE ENERGY PREDICTED BY IDOCK:   -4.32 KCAL/MOL
REMARK 924 INTRA-LIGAND FREE ENERGY PREDICTED BY IDOCK:   -0.13 KCAL/MOL
REMARK 927      BINDING AFFINITY PREDICTED BY RF-SCORE:    0.00 PKD
ROOT
HETATM    1  O   UNL     1     -11.785  16.354  63.695  1.00  0.00    -1.520 OA 
HETATM    2  C   UNL     1     -11.231  15.582  64.747  1.00  0.00    -0.390 C  
HETATM    3  H   UNL     1     -12.229  15.756  63.106  1.00  0.00     0.000 HD 
ENDROOT
BRANCH   2   4
HETATM    4  C   UNL     1     -10.534  16.520  65.669  1.00  0.00    -0.341 C  
HETATM    5  C   UNL     1      -9.268  16.375  66.091  1.00  0.00    -0.365 C  
BRANCH   5   6
HETATM    6  C   UNL     1      -8.681  17.344  67.013  1.00  0.00    -0.249 A  
HETATM    7  C   UNL     1      -9.277  18.598  67.184  1.00  0.00    -0.294 A  
HETATM    8  C   UNL     1      -8.685  19.548  68.017  1.00  0.00    -0.369 A  
HETATM    9  C   UNL     1      -7.496  19.249  68.681  1.00  0.00    -0.380 A  
HETATM   10  C   UNL     1      -6.901  17.998  68.519  1.00  0.00    -0.237 A  
HETATM   11  C   UNL     1      -7.492  17.046  67.686  1.00  0.00    -0.179 A  
ENDBRANCH   5   6
ENDBRANCH   2   4
TORSDOF 2
ENDMDL
MODEL       32
REMARK 921   NORMALIZED FREE ENERGY PREDICTED BY IDOCK:   -3.86 KCAL/MOL
REMARK 922        TOTAL FREE ENERGY PREDICTED BY IDOCK:   -4.44 KCAL/MOL
REMARK 923 INTER-LIGAND FREE ENERGY PREDICTED BY IDOCK:   -4.31 KCAL/MOL
REMARK 924 INTRA-LIGAND FREE ENERGY PREDICTED BY IDOCK:   -0.13 KCAL/MOL
REMARK 927      BINDING AFFINITY PREDICTED BY RF-SCORE:    0.00 PKD
ROOT
HETATM    1  O   UNL     1      -9.304  16.123  67.467  1.00  0.00    -0.215 OA 
HETATM    2  C   UNL     1     -10.537  16.814  67.580  1.00  0.00    -0.325 C  
HETATM    3  H   UNL     1      -8.794  16.558  66.795  1.00  0.00     0.000 HD 
ENDROOT
BRANCH   2   4
HETATM    4  C   UNL     1     -11.337  16.131  68.633  1.00  0.00    -0.365 C  
HETATM    5  C   UNL     1     -11.063  16.172  69.946  1.00  0.00    -0.357 C  
BRANCH   5   6
HETATM    6  C   UNL     1     -11.903  15.450  70.899  1.00  0.00    -0.400 A  
HETATM    7  C   UNL     1     -12.137  15.985  72.171  1.00  0.00    -0.611 A  
HETATM    8  C   UNL     1     -12.887  15.270  73.104  1.00  0.00    -0.606 A  
HETATM    9  C   UNL     1     -13.405  14.019  72.773  1.00  0.00    -0.603 A  
HETATM   10  C   UNL     1     -13.180  13.484  71.504  1.00  0.00    -0.402 A  
HETATM   11  C   UNL     1     -12.428  14.198  70.568  1.00  0.00    -0.431 A  
ENDBRANCH   5   6
ENDBRANCH   2   4
TORSDOF 2
ENDMDL
MODEL       33
REMARK 921   NORMALIZED FREE ENERGY PREDICTED BY IDOCK:   -3.84 KCAL/MOL
REMARK 922        TOTAL FREE ENERGY PREDICTED BY IDOCK:   -4.42 KCAL/MOL
REMARK 923 INTER-LIGAND FREE ENERGY PREDICTED BY IDOCK:   -4.28 KCAL/MOL
REMARK 924 INTRA-LIGAND FREE ENERGY PREDICTED BY IDOCK:   -0.14 KCAL/MOL
REMARK 927      BINDING AFFINITY PREDICTED BY RF-SCORE:    0.00 PKD
ROOT
HETATM    1  O   UNL     1     -13.675  15.581  70.688  1.00  0.00    -0.851 OA 
HETATM    2  C   UNL     1     -12.444  14.880  70.735  1.00  0.00    -0.339 C  
HETATM    3  H   UNL     1     -13.837  15.931  71.556  1.00  0.00     0.000 HD 
ENDROOT
BRANCH   2   4
HETATM    4  C   UNL     1     -12.190  14.332  69.374  1.00  0.00    -0.319 C  
HETATM    5  C   UNL     1     -11.771  15.057  68.326  1.00  0.00    -0.338 C  
BRANCH   5   6
HETATM    6  C   UNL     1     -11.568  14.425  67.024  1.00  0.00    -0.402 A  
HETATM    7  C   UNL     1     -11.962  13.098  66.822  1.00  0.00    -0.434 A  
HETATM    8  C   UNL     1     -11.715  12.473  65.599  1.00  0.00    -0.473 A  
HETATM    9  C   UNL     1     -11.073  13.169  64.576  1.00  0.00    -0.380 A  
HETATM   10  C   UNL     1     -10.684  14.495  64.771  1.00  0.00    -0.414 A  
HETATM   11  C   UNL     1     -10.930  15.122  65.994  1.00  0.00    -0.332 A  
ENDBRANCH   5   6
ENDBRANCH   2   4
TORSDOF 2
ENDMDL
MODEL       34
REMARK 921   NORMALIZED FREE ENERGY PREDICTED BY IDOCK:   -3.84 KCAL/MOL
REMARK 922        TOTAL FREE ENERGY PREDICTED BY IDOCK:   -4.42 KCAL/MOL
REMARK 923 INTER-LIGAND FREE ENERGY PREDICTED BY IDOCK:   -4.30 KCAL/MOL
REMARK 924 INTRA-LIGAND FREE ENERGY PREDICTED BY IDOCK:   -0.12 KCAL/MOL
REMARK 927      BINDING AFFINITY PREDICTED BY RF-SCORE:    0.00 PKD
ROOT
HETATM    1  O   UNL     1     -12.338  12.150  66.043  1.00  0.00    -0.550 OA 
HETATM    2  C   UNL     1     -11.271  12.288  66.967  1.00  0.00    -0.310 C  
HETATM    3  H   UNL     1     -12.188  12.771  65.341  1.00  0.00     0.000 HD 
ENDROOT
BRANCH   2   4
HETATM    4  C   UNL     1     -11.505  11.314  68.068  1.00  0.00    -0.369 C  
HETATM    5  C   UNL     1     -11.572  11.635  69.369  1.00  0.00    -0.392 C  
BRANCH   5   6
HETATM    6  C   UNL     1     -11.788  10.600  70.376  1.00  0.00    -0.441 A  
HETATM    7  C   UNL     1     -13.032  10.486  71.007  1.00  0.00    -0.475 A  
HETATM    8  C   UNL     1     -13.223   9.538  72.013  1.00  0.00    -0.539 A  
HETATM    9  C   UNL     1     -12.174   8.702  72.393  1.00  0.00    -0.419 A  
HETATM   10  C   UNL     1     -10.934   8.807  71.762  1.00  0.00    -0.415 A  
HETATM   11  C   UNL     1     -10.740   9.756  70.756  1.00  0.00    -0.393 A  
ENDBRANCH   5   6
ENDBRANCH   2   4
TORSDOF 2
ENDMDL
MODEL       35
REMARK 921   NORMALIZED FREE ENERGY PREDICTED BY IDOCK:   -3.83 KCAL/MOL
REMARK 922        TOTAL FREE ENERGY PREDICTED BY IDOCK:   -4.41 KCAL/MOL
REMARK 923 INTER-LIGAND FREE ENERGY PREDICTED BY IDOCK:   -4.28 KCAL/MOL
REMARK 924 INTRA-LIGAND FREE ENERGY PREDICTED BY IDOCK:   -0.13 KCAL/MOL
REMARK 927      BINDING AFFINITY PREDICTED BY RF-SCORE:    0.00 PKD
ROOT
HETATM    1  O   UNL     1     -11.401  14.151  70.587  1.00  0.00    -0.513 OA 
HETATM    2  C   UNL     1     -11.902  14.417  69.287  1.00  0.00    -0.325 C  
HETATM    3  H   UNL     1     -11.603  13.245  70.789  1.00  0.00     0.000 HD 
ENDROOT
BRANCH   2   4
HETATM    4  C   UNL     1     -11.587  15.837  68.970  1.00  0.00    -0.406 C  
HETATM    5  C   UNL     1     -10.843  16.238  67.928  1.00  0.00    -0.330 C  
BRANCH   5   6
HETATM    6  C   UNL     1     -10.577  17.659  67.714  1.00  0.00    -0.380 A  
HETATM    7  C   UNL     1     -10.609  18.189  66.420  1.00  0.00    -0.288 A  
HETATM    8  C   UNL     1     -10.295  19.532  66.205  1.00  0.00    -0.614 A  
HETATM    9  C   UNL     1      -9.946  20.348  67.280  1.00  0.00    -0.564 A  
HETATM   10  C   UNL     1      -9.919  19.825  68.573  1.00  0.00    -0.538 A  
HETATM   11  C   UNL     1     -10.232  18.482  68.790  1.00  0.00    -0.326 A  
ENDBRANCH   5   6
ENDBRANCH   2   4
TORSDOF 2
ENDMDL
MODEL       36
REMARK 921   NORMALIZED FREE ENERGY PREDICTED BY IDOCK:   -3.82 KCAL/MOL
REMARK 922        TOTAL FREE ENERGY PREDICTED BY IDOCK:   -4.41 KCAL/MOL
REMARK 923 INTER-LIGAND FREE ENERGY PREDICTED BY IDOCK:   -4.27 KCAL/MOL
REMARK 924 INTRA-LIGAND FREE ENERGY PREDICTED BY IDOCK:   -0.13 KCAL/MOL
REMARK 927      BINDING AFFINITY PREDICTED BY RF-SCORE:    0.00 PKD
ROOT
HETATM    1  O   UNL     1     -11.267  11.112  63.044  1.00  0.00    -0.820 OA 
HETATM    2  C   UNL     1     -12.336  12.013  63.280  1.00  0.00    -0.438 C  
HETATM    3  H   UNL     1     -11.576  10.459  62.427  1.00  0.00     0.000 HD 
ENDROOT
BRANCH   2   4
HETATM    4  C   UNL     1     -11.853  13.036  64.247  1.00  0.00    -0.456 C  
HETATM    5  C   UNL     1     -12.395  13.261  65.454  1.00  0.00    -0.528 C  
BRANCH   5   6
HETATM    6  C   UNL     1     -11.856  14.304  66.323  1.00  0.00    -0.420 A  
HETATM    7  C   UNL     1     -11.059  15.320  65.786  1.00  0.00    -0.301 A  
HETATM    8  C   UNL     1     -10.493  16.283  66.623  1.00  0.00    -0.290 A  
HETATM    9  C   UNL     1     -10.718  16.232  67.998  1.00  0.00    -0.331 A  
HETATM   10  C   UNL     1     -11.518  15.224  68.537  1.00  0.00    -0.355 A  
HETATM   11  C   UNL     1     -12.085  14.260  67.702  1.00  0.00    -0.332 A  
ENDBRANCH   5   6
ENDBRANCH   2   4
TORSDOF 2
ENDMDL
MODEL       37
REMARK 921   NORMALIZED FREE ENERGY PREDICTED BY IDOCK:   -3.81 KCAL/MOL
REMARK 922        TOTAL FREE ENERGY PREDICTED BY IDOCK:   -4.39 KCAL/MOL
REMARK 923 INTER-LIGAND FREE ENERGY PREDICTED BY IDOCK:   -4.26 KCAL/MOL
REMARK 924 INTRA-LIGAND FREE ENERGY PREDICTED BY IDOCK:   -0.13 KCAL/MOL
REMARK 927      BINDING AFFINITY PREDICTED BY RF-SCORE:    0.00 PKD
ROOT
HETATM    1  O   UNL     1     -12.895   7.594  72.259  1.00  0.00    -0.494 OA 
HETATM    2  C   UNL     1     -11.613   8.151  72.497  1.00  0.00    -0.404 C  
HETATM    3  H   UNL     1     -12.993   6.848  72.838  1.00  0.00     0.000 HD 
ENDROOT
BRANCH   2   4
HETATM    4  C   UNL     1     -11.459   9.321  71.591  1.00  0.00    -0.468 C  
HETATM    5  C   UNL     1     -12.359  10.308  71.459  1.00  0.00    -0.488 C  
BRANCH   5   6
HETATM    6  C   UNL     1     -12.121  11.406  70.525  1.00  0.00    -0.487 A  
HETATM    7  C   UNL     1     -12.413  12.721  70.902  1.00  0.00    -0.373 A  
HETATM    8  C   UNL     1     -12.244  13.765  69.992  1.00  0.00    -0.407 A  
HETATM    9  C   UNL     1     -11.786  13.500  68.703  1.00  0.00    -0.389 A  
HETATM   10  C   UNL     1     -11.487  12.191  68.324  1.00  0.00    -0.360 A  
HETATM   11  C   UNL     1     -11.655  11.145  69.233  1.00  0.00    -0.388 A  
ENDBRANCH   5   6
ENDBRANCH   2   4
TORSDOF 2
ENDMDL
MODEL       38
REMARK 921   NORMALIZED FREE ENERGY PREDICTED BY IDOCK:   -3.78 KCAL/MOL
REMARK 922        TOTAL FREE ENERGY PREDICTED BY IDOCK:   -4.36 KCAL/MOL
REMARK 923 INTER-LIGAND FREE ENERGY PREDICTED BY IDOCK:   -4.22 KCAL/MOL
REMARK 924 INTRA-LIGAND FREE ENERGY PREDICTED BY IDOCK:   -0.14 KCAL/MOL
REMARK 927      BINDING AFFINITY PREDICTED BY RF-SCORE:    0.00 PKD
ROOT
HETATM    1  O   UNL     1     -10.247  17.595  69.035  1.00  0.00    -0.364 OA 
HETATM    2  C   UNL     1     -10.743  16.672  68.079  1.00  0.00    -0.350 C  
HETATM    3  H   UNL     1      -9.950  18.363  68.563  1.00  0.00     0.000 HD 
ENDROOT
BRANCH   2   4
HETATM    4  C   UNL     1     -11.209  15.468  68.819  1.00  0.00    -0.316 C  
HETATM    5  C   UNL     1     -12.120  15.483  69.804  1.00  0.00    -0.372 C  
BRANCH   5   6
HETATM    6  C   UNL     1     -12.496  14.245  70.482  1.00  0.00    -0.428 A  
HETATM    7  C   UNL     1     -13.339  14.287  71.598  1.00  0.00    -0.442 A  
HETATM    8  C   UNL     1     -13.652  13.112  72.284  1.00  0.00    -0.677 A  
HETATM    9  C   UNL     1     -13.122  11.894  71.860  1.00  0.00    -0.474 A  
HETATM   10  C   UNL     1     -12.287  11.847  70.744  1.00  0.00    -0.416 A  
HETATM   11  C   UNL     1     -11.973  13.021  70.056  1.00  0.00    -0.383 A  
ENDBRANCH   5   6
ENDBRANCH   2   4
TORSDOF 2
ENDMDL
MODEL       39
REMARK 921   NORMALIZED FREE ENERGY PREDICTED BY IDOCK:   -3.77 KCAL/MOL
REMARK 922        TOTAL FREE ENERGY PREDICTED BY IDOCK:   -4.35 KCAL/MOL
REMARK 923 INTER-LIGAND FREE ENERGY PREDICTED BY IDOCK:   -4.21 KCAL/MOL
REMARK 924 INTRA-LIGAND FREE ENERGY PREDICTED BY IDOCK:   -0.13 KCAL/MOL
REMARK 927      BINDING AFFINITY PREDICTED BY RF-SCORE:    0.00 PKD
ROOT
HETATM    1  O   UNL     1     -12.123  12.162  66.125  1.00  0.00    -0.621 OA 
HETATM    2  C   UNL     1     -11.628  12.819  67.280  1.00  0.00    -0.360 C  
HETATM    3  H   UNL     1     -11.951  12.726  65.381  1.00  0.00     0.000 HD 
ENDROOT
BRANCH   2   4
HETATM    4  C   UNL     1     -11.898  11.935  68.447  1.00  0.00    -0.352 C  
HETATM    5  C   UNL     1     -10.951  11.378  69.217  1.00  0.00    -0.282 C  
BRANCH   5   6
HETATM    6  C   UNL     1     -11.321  10.508  70.331  1.00  0.00    -0.411 A  
HETATM    7  C   UNL     1     -10.455   9.488  70.739  1.00  0.00    -0.384 A  
HETATM    8  C   UNL     1     -10.832   8.617  71.762  1.00  0.00    -0.395 A  
HETATM    9  C   UNL     1     -12.074   8.760  72.379  1.00  0.00    -0.379 A  
HETATM   10  C   UNL     1     -12.938   9.780  71.980  1.00  0.00    -0.515 A  
HETATM   11  C   UNL     1     -12.563  10.653  70.956  1.00  0.00    -0.516 A  
ENDBRANCH   5   6
ENDBRANCH   2   4
TORSDOF 2
ENDMDL
MODEL       40
REMARK 921   NORMALIZED FREE ENERGY PREDICTED BY IDOCK:   -3.77 KCAL/MOL
REMARK 922        TOTAL FREE ENERGY PREDICTED BY IDOCK:   -4.35 KCAL/MOL
REMARK 923 INTER-LIGAND FREE ENERGY PREDICTED BY IDOCK:   -4.22 KCAL/MOL
REMARK 924 INTRA-LIGAND FREE ENERGY PREDICTED BY IDOCK:   -0.13 KCAL/MOL
REMARK 927      BINDING AFFINITY PREDICTED BY RF-SCORE:    0.00 PKD
ROOT
HETATM    1  O   UNL     1     -13.293  10.829  72.218  1.00  0.00    -0.623 OA 
HETATM    2  C   UNL     1     -12.389  10.036  71.467  1.00  0.00    -0.419 C  
HETATM    3  H   UNL     1     -13.359  10.443  73.083  1.00  0.00     0.000 HD 
ENDROOT
BRANCH   2   4
HETATM    4  C   UNL     1     -12.284  10.640  70.111  1.00  0.00    -0.398 C  
HETATM    5  C   UNL     1     -11.828  11.876  69.860  1.00  0.00    -0.418 C  
BRANCH   5   6
HETATM    6  C   UNL     1     -11.783  12.384  68.490  1.00  0.00    -0.373 A  
HETATM    7  C   UNL     1     -11.448  11.525  67.437  1.00  0.00    -0.349 A  
HETATM    8  C   UNL     1     -11.344  12.020  66.137  1.00  0.00    -0.407 A  
HETATM    9  C   UNL     1     -11.572  13.372  65.884  1.00  0.00    -0.370 A  
HETATM   10  C   UNL     1     -11.913  14.230  66.929  1.00  0.00    -0.467 A  
HETATM   11  C   UNL     1     -12.017  13.737  68.232  1.00  0.00    -0.392 A  
ENDBRANCH   5   6
ENDBRANCH   2   4
TORSDOF 2
ENDMDL
MODEL       41
REMARK 921   NORMALIZED FREE ENERGY PREDICTED BY IDOCK:   -3.76 KCAL/MOL
REMARK 922        TOTAL FREE ENERGY PREDICTED BY IDOCK:   -4.33 KCAL/MOL
REMARK 923 INTER-LIGAND FREE ENERGY PREDICTED BY IDOCK:   -4.20 KCAL/MOL
REMARK 924 INTRA-LIGAND FREE ENERGY PREDICTED BY IDOCK:   -0.12 KCAL/MOL
REMARK 927      BINDING AFFINITY PREDICTED BY RF-SCORE:    0.00 PKD
ROOT
HETATM    1  O   UNL     1     -10.579  17.401  67.267  1.00  0.00    -0.339 OA 
HETATM    2  C   UNL     1     -10.368  16.013  67.463  1.00  0.00    -0.287 C  
HETATM    3  H   UNL     1     -10.111  17.652  66.480  1.00  0.00     0.000 HD 
ENDROOT
BRANCH   2   4
HETATM    4  C   UNL     1     -11.101  15.619  68.697  1.00  0.00    -0.317 C  
HETATM    5  C   UNL     1     -11.766  14.465  68.853  1.00  0.00    -0.357 C  
BRANCH   5   6
HETATM    6  C   UNL     1     -12.470  14.181  70.101  1.00  0.00    -0.391 A  
HETATM    7  C   UNL     1     -12.410  12.901  70.663  1.00  0.00    -0.385 A  
HETATM    8  C   UNL     1     -13.132  12.609  71.822  1.00  0.00    -0.461 A  
HETATM    9  C   UNL     1     -13.916  13.594  72.421  1.00  0.00    -0.651 A  
HETATM   10  C   UNL     1     -13.974  14.873  71.869  1.00  0.00    -0.585 A  
HETATM   11  C   UNL     1     -13.253  15.167  70.709  1.00  0.00    -0.433 A  
ENDBRANCH   5   6
ENDBRANCH   2   4
TORSDOF 2
ENDMDL
MODEL       42
REMARK 921   NORMALIZED FREE ENERGY PREDICTED BY IDOCK:   -3.74 KCAL/MOL
REMARK 922        TOTAL FREE ENERGY PREDICTED BY IDOCK:   -4.31 KCAL/MOL
REMARK 923 INTER-LIGAND FREE ENERGY PREDICTED BY IDOCK:   -4.17 KCAL/MOL
REMARK 924 INTRA-LIGAND FREE ENERGY PREDICTED BY IDOCK:   -0.14 KCAL/MOL
REMARK 927      BINDING AFFINITY PREDICTED BY RF-SCORE:    0.00 PKD
ROOT
HETATM    1  O   UNL     1     -11.674   9.491  69.588  1.00  0.00    -0.445 OA 
HETATM    2  C   UNL     1     -11.618  10.875  69.887  1.00  0.00    -0.331 C  
HETATM    3  H   UNL     1     -11.538   9.019  70.401  1.00  0.00     0.000 HD 
ENDROOT
BRANCH   2   4
HETATM    4  C   UNL     1     -11.831  11.616  68.614  1.00  0.00    -0.370 C  
HETATM    5  C   UNL     1     -11.224  11.327  67.453  1.00  0.00    -0.370 C  
BRANCH   5   6
HETATM    6  C   UNL     1     -11.489  12.129  66.260  1.00  0.00    -0.433 A  
HETATM    7  C   UNL     1     -12.251  13.298  66.358  1.00  0.00    -0.419 A  
HETATM    8  C   UNL     1     -12.557  14.033  65.212  1.00  0.00    -0.495 A  
HETATM    9  C   UNL     1     -12.105  13.603  63.966  1.00  0.00    -0.474 A  
HETATM   10  C   UNL     1     -11.339  12.441  63.864  1.00  0.00    -0.502 A  
HETATM   11  C   UNL     1     -11.032  11.704  65.009  1.00  0.00    -0.334 A  
ENDBRANCH   5   6
ENDBRANCH   2   4
TORSDOF 2
ENDMDL
MODEL       43
REMARK 921   NORMALIZED FREE ENERGY PREDICTED BY IDOCK:   -3.71 KCAL/MOL
REMARK 922        TOTAL FREE ENERGY PREDICTED BY IDOCK:   -4.28 KCAL/MOL
REMARK 923 INTER-LIGAND FREE ENERGY PREDICTED BY IDOCK:   -4.14 KCAL/MOL
REMARK 924 INTRA-LIGAND FREE ENERGY PREDICTED BY IDOCK:   -0.13 KCAL/MOL
REMARK 927      BINDING AFFINITY PREDICTED BY RF-SCORE:    0.00 PKD
ROOT
HETATM    1  O   UNL     1     -11.542   5.553  73.420  1.00  0.00    -0.484 OA 
HETATM    2  C   UNL     1     -10.577   6.508  73.828  1.00  0.00    -0.266 C  
HETATM    3  H   UNL     1     -11.450   4.796  73.985  1.00  0.00     0.000 HD 
ENDROOT
BRANCH   2   4
HETATM    4  C   UNL     1     -10.721   7.695  72.943  1.00  0.00    -0.428 C  
HETATM    5  C   UNL     1     -11.871   8.086  72.372  1.00  0.00    -0.429 C  
BRANCH   5   6
HETATM    6  C   UNL     1     -11.903   9.259  71.501  1.00  0.00    -0.444 A  
HETATM    7  C   UNL     1     -11.000   9.366  70.438  1.00  0.00    -0.317 A  
HETATM    8  C   UNL     1     -10.987  10.512  69.642  1.00  0.00    -0.333 A  
HETATM    9  C   UNL     1     -11.873  11.556  69.907  1.00  0.00    -0.430 A  
HETATM   10  C   UNL     1     -12.779  11.452  70.962  1.00  0.00    -0.447 A  
HETATM   11  C   UNL     1     -12.794  10.305  71.760  1.00  0.00    -0.565 A  
ENDBRANCH   5   6
ENDBRANCH   2   4
TORSDOF 2
ENDMDL
MODEL       44
REMARK 921   NORMALIZED FREE ENERGY PREDICTED BY IDOCK:   -3.69 KCAL/MOL
REMARK 922        TOTAL FREE ENERGY PREDICTED BY IDOCK:   -4.26 KCAL/MOL
REMARK 923 INTER-LIGAND FREE ENERGY PREDICTED BY IDOCK:   -4.13 KCAL/MOL
REMARK 924 INTRA-LIGAND FREE ENERGY PREDICTED BY IDOCK:   -0.13 KCAL/MOL
REMARK 927      BINDING AFFINITY PREDICTED BY RF-SCORE:    0.00 PKD
ROOT
HETATM    1  O   UNL     1     -11.867  16.438  72.635  1.00  0.00    -0.533 OA 
HETATM    2  C   UNL     1     -13.056  15.824  72.169  1.00  0.00    -0.441 C  
HETATM    3  H   UNL     1     -12.024  16.722  73.527  1.00  0.00     0.000 HD 
ENDROOT
BRANCH   2   4
HETATM    4  C   UNL     1     -12.810  15.378  70.770  1.00  0.00    -0.524 C  
HETATM    5  C   UNL     1     -12.198  14.233  70.431  1.00  0.00    -0.411 C  
BRANCH   5   6
HETATM    6  C   UNL     1     -11.988  13.896  69.025  1.00  0.00    -0.402 A  
HETATM    7  C   UNL     1     -11.894  12.556  68.634  1.00  0.00    -0.340 A  
HETATM    8  C   UNL     1     -11.633  12.231  67.302  1.00  0.00    -0.427 A  
HETATM    9  C   UNL     1     -11.462  13.243  66.358  1.00  0.00    -0.364 A  
HETATM   10  C   UNL     1     -11.562  14.580  66.742  1.00  0.00    -0.388 A  
HETATM   11  C   UNL     1     -11.823  14.907  68.074  1.00  0.00    -0.296 A  
ENDBRANCH   5   6
ENDBRANCH   2   4
TORSDOF 2
ENDMDL
MODEL       45
REMARK 921   NORMALIZED FREE ENERGY PREDICTED BY IDOCK:   -3.65 KCAL/MOL
REMARK 922        TOTAL FREE ENERGY PREDICTED BY IDOCK:   -4.22 KCAL/MOL
REMARK 923 INTER-LIGAND FREE ENERGY PREDICTED BY IDOCK:   -4.09 KCAL/MOL
REMARK 924 INTRA-LIGAND FREE ENERGY PREDICTED BY IDOCK:   -0.13 KCAL/MOL
REMARK 927      BINDING AFFINITY PREDICTED BY RF-SCORE:    0.00 PKD
ROOT
HETATM    1  O   UNL     1     -10.261  19.622  69.259  1.00  0.00    -0.629 OA 
HETATM    2  C   UNL     1     -10.272  19.770  67.849  1.00  0.00    -0.444 C  
HETATM    3  H   UNL     1     -10.014  20.460  69.631  1.00  0.00     0.000 HD 
ENDROOT
BRANCH   2   4
HETATM    4  C   UNL     1     -10.660  18.457  67.266  1.00  0.00    -0.435 C  
HETATM    5  C   UNL     1     -10.161  17.273  67.652  1.00  0.00    -0.313 C  
BRANCH   5   6
HETATM    6  C   UNL     1     -10.595  16.040  67.001  1.00  0.00    -0.302 A  
HETATM    7  C   UNL     1     -10.263  15.801  65.663  1.00  0.00    -0.407 A  
HETATM    8  C   UNL     1     -10.727  14.652  65.020  1.00  0.00    -0.448 A  
HETATM    9  C   UNL     1     -11.525  13.741  65.710  1.00  0.00    -0.324 A  
HETATM   10  C   UNL     1     -11.854  13.972  67.046  1.00  0.00    -0.458 A  
HETATM   11  C   UNL     1     -11.390  15.120  67.691  1.00  0.00    -0.327 A  
ENDBRANCH   5   6
ENDBRANCH   2   4
TORSDOF 2
ENDMDL
MODEL       46
REMARK 921   NORMALIZED FREE ENERGY PREDICTED BY IDOCK:   -3.65 KCAL/MOL
REMARK 922        TOTAL FREE ENERGY PREDICTED BY IDOCK:   -4.21 KCAL/MOL
REMARK 923 INTER-LIGAND FREE ENERGY PREDICTED BY IDOCK:   -4.08 KCAL/MOL
REMARK 924 INTRA-LIGAND FREE ENERGY PREDICTED BY IDOCK:   -0.14 KCAL/MOL
REMARK 927      BINDING AFFINITY PREDICTED BY RF-SCORE:    0.00 PKD
ROOT
HETATM    1  O   UNL     1      -9.290   8.885  62.530  1.00  0.00    -0.516 OA 
HETATM    2  C   UNL     1      -8.604   9.237  63.720  1.00  0.00    -0.192 C  
HETATM    3  H   UNL     1      -8.809   8.174  62.124  1.00  0.00     0.000 HD 
ENDROOT
BRANCH   2   4
HETATM    4  C   UNL     1      -9.358  10.352  64.356  1.00  0.00    -0.321 C  
HETATM    5  C   UNL     1     -10.470  10.907  63.851  1.00  0.00    -0.359 C  
BRANCH   5   6
HETATM    6  C   UNL     1     -11.126  12.012  64.547  1.00  0.00    -0.384 A  
HETATM    7  C   UNL     1     -11.222  12.002  65.942  1.00  0.00    -0.385 A  
HETATM    8  C   UNL     1     -11.901  13.025  66.605  1.00  0.00    -0.455 A  
HETATM    9  C   UNL     1     -12.488  14.059  65.878  1.00  0.00    -0.513 A  
HETATM   10  C   UNL     1     -12.390  14.077  64.486  1.00  0.00    -0.409 A  
HETATM   11  C   UNL     1     -11.710  13.054  63.821  1.00  0.00    -0.547 A  
ENDBRANCH   5   6
ENDBRANCH   2   4
TORSDOF 2
ENDMDL
MODEL       47
REMARK 921   NORMALIZED FREE ENERGY PREDICTED BY IDOCK:   -3.64 KCAL/MOL
REMARK 922        TOTAL FREE ENERGY PREDICTED BY IDOCK:   -4.20 KCAL/MOL
REMARK 923 INTER-LIGAND FREE ENERGY PREDICTED BY IDOCK:   -4.06 KCAL/MOL
REMARK 924 INTRA-LIGAND FREE ENERGY PREDICTED BY IDOCK:   -0.14 KCAL/MOL
REMARK 927      BINDING AFFINITY PREDICTED BY RF-SCORE:    0.00 PKD
ROOT
HETATM    1  O   UNL     1      -8.641   7.983  64.056  1.00  0.00    -0.388 OA 
HETATM    2  C   UNL     1      -8.574   8.477  65.384  1.00  0.00    -0.176 C  
HETATM    3  H   UNL     1      -8.039   7.251  63.994  1.00  0.00     0.000 HD 
ENDROOT
BRANCH   2   4
HETATM    4  C   UNL     1      -9.518   9.623  65.482  1.00  0.00    -0.330 C  
HETATM    5  C   UNL     1      -9.894  10.392  64.449  1.00  0.00    -0.395 C  
BRANCH   5   6
HETATM    6  C   UNL     1     -10.815  11.508  64.654  1.00  0.00    -0.372 A  
HETATM    7  C   UNL     1     -11.309  12.219  63.555  1.00  0.00    -0.549 A  
HETATM    8  C   UNL     1     -12.139  13.323  63.751  1.00  0.00    -0.546 A  
HETATM    9  C   UNL     1     -12.477  13.722  65.043  1.00  0.00    -0.449 A  
HETATM   10  C   UNL     1     -11.992  13.013  66.142  1.00  0.00    -0.488 A  
HETATM   11  C   UNL     1     -11.161  11.907  65.949  1.00  0.00    -0.365 A  
ENDBRANCH   5   6
ENDBRANCH   2   4
TORSDOF 2
ENDMDL
MODEL       48
REMARK 921   NORMALIZED FREE ENERGY PREDICTED BY IDOCK:   -3.64 KCAL/MOL
REMARK 922        TOTAL FREE ENERGY PREDICTED BY IDOCK:   -4.20 KCAL/MOL
REMARK 923 INTER-LIGAND FREE ENERGY PREDICTED BY IDOCK:   -4.06 KCAL/MOL
REMARK 924 INTRA-LIGAND FREE ENERGY PREDICTED BY IDOCK:   -0.13 KCAL/MOL
REMARK 927      BINDING AFFINITY PREDICTED BY RF-SCORE:    0.00 PKD
ROOT
HETATM    1  O   UNL     1     -12.285   9.744  70.283  1.00  0.00    -0.468 OA 
HETATM    2  C   UNL     1     -12.160  11.133  70.028  1.00  0.00    -0.359 C  
HETATM    3  H   UNL     1     -12.423   9.638  71.216  1.00  0.00     0.000 HD 
ENDROOT
BRANCH   2   4
HETATM    4  C   UNL     1     -11.943  11.301  68.565  1.00  0.00    -0.288 C  
HETATM    5  C   UNL     1     -12.031  12.468  67.909  1.00  0.00    -0.283 C  
BRANCH   5   6
HETATM    6  C   UNL     1     -11.817  12.523  66.465  1.00  0.00    -0.434 A  
HETATM    7  C   UNL     1     -10.973  11.593  65.847  1.00  0.00    -0.334 A  
HETATM    8  C   UNL     1     -10.719  11.680  64.478  1.00  0.00    -0.378 A  
HETATM    9  C   UNL     1     -11.303  12.696  63.722  1.00  0.00    -0.529 A  
HETATM   10  C   UNL     1     -12.150  13.621  64.333  1.00  0.00    -0.470 A  
HETATM   11  C   UNL     1     -12.406  13.536  65.703  1.00  0.00    -0.522 A  
ENDBRANCH   5   6
ENDBRANCH   2   4
TORSDOF 2
ENDMDL
MODEL       49
REMARK 921   NORMALIZED FREE ENERGY PREDICTED BY IDOCK:   -3.63 KCAL/MOL
REMARK 922        TOTAL FREE ENERGY PREDICTED BY IDOCK:   -4.19 KCAL/MOL
REMARK 923 INTER-LIGAND FREE ENERGY PREDICTED BY IDOCK:   -4.06 KCAL/MOL
REMARK 924 INTRA-LIGAND FREE ENERGY PREDICTED BY IDOCK:   -0.14 KCAL/MOL
REMARK 927      BINDING AFFINITY PREDICTED BY RF-SCORE:    0.00 PKD
ROOT
HETATM    1  O   UNL     1     -11.728   5.099  73.220  1.00  0.00    -0.518 OA 
HETATM    2  C   UNL     1     -10.557   5.882  73.381  1.00  0.00    -0.258 C  
HETATM    3  H   UNL     1     -11.645   4.343  73.789  1.00  0.00     0.000 HD 
ENDROOT
BRANCH   2   4
HETATM    4  C   UNL     1     -10.686   7.067  72.489  1.00  0.00    -0.273 C  
HETATM    5  C   UNL     1     -11.531   8.088  72.695  1.00  0.00    -0.465 C  
BRANCH   5   6
HETATM    6  C   UNL     1     -11.594   9.198  71.747  1.00  0.00    -0.457 A  
HETATM    7  C   UNL     1     -12.667  10.095  71.791  1.00  0.00    -0.534 A  
HETATM    8  C   UNL     1     -12.763  11.120  70.848  1.00  0.00    -0.438 A  
HETATM    9  C   UNL     1     -11.789  11.251  69.860  1.00  0.00    -0.436 A  
HETATM   10  C   UNL     1     -10.713  10.364  69.816  1.00  0.00    -0.325 A  
HETATM   11  C   UNL     1     -10.617   9.337  70.758  1.00  0.00    -0.351 A  
ENDBRANCH   5   6
ENDBRANCH   2   4
TORSDOF 2
ENDMDL
MODEL       50
REMARK 921   NORMALIZED FREE ENERGY PREDICTED BY IDOCK:   -3.62 KCAL/MOL
REMARK 922        TOTAL FREE ENERGY PREDICTED BY IDOCK:   -4.17 KCAL/MOL
REMARK 923 INTER-LIGAND FREE ENERGY PREDICTED BY IDOCK:   -4.04 KCAL/MOL
REMARK 924 INTRA-LIGAND FREE ENERGY PREDICTED BY IDOCK:   -0.13 KCAL/MOL
REMARK 927      BINDING AFFINITY PREDICTED BY RF-SCORE:    0.00 PKD
ROOT
HETATM    1  O   UNL     1      -9.915  13.307  63.914  1.00  0.00    -0.753 OA 
HETATM    2  C   UNL     1     -11.193  13.787  64.298  1.00  0.00    -0.305 C  
HETATM    3  H   UNL     1      -9.713  13.685  63.066  1.00  0.00     0.000 HD 
ENDROOT
BRANCH   2   4
HETATM    4  C   UNL     1     -11.511  13.195  65.626  1.00  0.00    -0.351 C  
HETATM    5  C   UNL     1     -11.313  13.809  66.802  1.00  0.00    -0.345 C  
BRANCH   5   6
HETATM    6  C   UNL     1     -11.643  13.132  68.054  1.00  0.00    -0.371 A  
HETATM    7  C   UNL     1     -11.755  11.738  68.088  1.00  0.00    -0.377 A  
HETATM    8  C   UNL     1     -12.130  11.094  69.267  1.00  0.00    -0.377 A  
HETATM    9  C   UNL     1     -12.396  11.838  70.415  1.00  0.00    -0.362 A  
HETATM   10  C   UNL     1     -12.279  13.228  70.389  1.00  0.00    -0.404 A  
HETATM   11  C   UNL     1     -11.904  13.875  69.210  1.00  0.00    -0.394 A  
ENDBRANCH   5   6
ENDBRANCH   2   4
TORSDOF 2
ENDMDL
MODEL       51
REMARK 921   NORMALIZED FREE ENERGY PREDICTED BY IDOCK:   -3.62 KCAL/MOL
REMARK 922        TOTAL FREE ENERGY PREDICTED BY IDOCK:   -4.17 KCAL/MOL
REMARK 923 INTER-LIGAND FREE ENERGY PREDICTED BY IDOCK:   -4.05 KCAL/MOL
REMARK 924 INTRA-LIGAND FREE ENERGY PREDICTED BY IDOCK:   -0.12 KCAL/MOL
REMARK 927      BINDING AFFINITY PREDICTED BY RF-SCORE:    0.00 PKD
ROOT
HETATM    1  O   UNL     1     -13.067  13.556  65.312  1.00  0.00    -0.713 OA 
HETATM    2  C   UNL     1     -11.807  13.769  65.926  1.00  0.00    -0.383 C  
HETATM    3  H   UNL     1     -13.198  14.254  64.682  1.00  0.00     0.000 HD 
ENDROOT
BRANCH   2   4
HETATM    4  C   UNL     1     -11.601  12.675  66.914  1.00  0.00    -0.438 C  
HETATM    5  C   UNL     1     -11.721  12.813  68.243  1.00  0.00    -0.388 C  
BRANCH   5   6
HETATM    6  C   UNL     1     -11.479  11.678  69.129  1.00  0.00    -0.364 A  
HETATM    7  C   UNL     1     -12.396  11.372  70.141  1.00  0.00    -0.344 A  
HETATM    8  C   UNL     1     -12.138  10.326  71.028  1.00  0.00    -0.487 A  
HETATM    9  C   UNL     1     -10.963   9.585  70.910  1.00  0.00    -0.407 A  
HETATM   10  C   UNL     1     -10.049   9.882  69.899  1.00  0.00    -0.297 A  
HETATM   11  C   UNL     1     -10.305  10.928  69.010  1.00  0.00    -0.230 A  
ENDBRANCH   5   6
ENDBRANCH   2   4
TORSDOF 2
ENDMDL
MODEL       52
REMARK 921   NORMALIZED FREE ENERGY PREDICTED BY IDOCK:   -3.61 KCAL/MOL
REMARK 922        TOTAL FREE ENERGY PREDICTED BY IDOCK:   -4.17 KCAL/MOL
REMARK 923 INTER-LIGAND FREE ENERGY PREDICTED BY IDOCK:   -4.04 KCAL/MOL
REMARK 924 INTRA-LIGAND FREE ENERGY PREDICTED BY IDOCK:   -0.13 KCAL/MOL
REMARK 927      BINDING AFFINITY PREDICTED BY RF-SCORE:    0.00 PKD
ROOT
HETATM    1  O   UNL     1     -11.127  17.356  64.609  1.00  0.00    -1.029 OA 
HETATM    2  C   UNL     1     -10.604  16.506  65.616  1.00  0.00    -0.304 C  
HETATM    3  H   UNL     1     -11.813  16.876  64.160  1.00  0.00     0.000 HD 
ENDROOT
BRANCH   2   4
HETATM    4  C   UNL     1      -9.529  17.257  66.320  1.00  0.00    -0.256 C  
HETATM    5  C   UNL     1      -9.482  18.593  66.436  1.00  0.00    -0.319 C  
BRANCH   5   6
HETATM    6  C   UNL     1      -8.371  19.236  67.133  1.00  0.00    -0.305 A  
HETATM    7  C   UNL     1      -8.114  18.928  68.474  1.00  0.00    -0.383 A  
HETATM    8  C   UNL     1      -7.092  19.586  69.160  1.00  0.00    -0.392 A  
HETATM    9  C   UNL     1      -6.325  20.553  68.512  1.00  0.00    -0.341 A  
HETATM   10  C   UNL     1      -6.573  20.859  67.173  1.00  0.00    -0.399 A  
HETATM   11  C   UNL     1      -7.595  20.202  66.485  1.00  0.00    -0.316 A  
ENDBRANCH   5   6
ENDBRANCH   2   4
TORSDOF 2
ENDMDL
MODEL       53
REMARK 921   NORMALIZED FREE ENERGY PREDICTED BY IDOCK:   -3.56 KCAL/MOL
REMARK 922        TOTAL FREE ENERGY PREDICTED BY IDOCK:   -4.12 KCAL/MOL
REMARK 923 INTER-LIGAND FREE ENERGY PREDICTED BY IDOCK:   -3.99 KCAL/MOL
REMARK 924 INTRA-LIGAND FREE ENERGY PREDICTED BY IDOCK:   -0.13 KCAL/MOL
REMARK 927      BINDING AFFINITY PREDICTED BY RF-SCORE:    0.00 PKD
ROOT
HETATM    1  O   UNL     1      -9.589  20.973  67.148  1.00  0.00    -0.686 OA 
HETATM    2  C   UNL     1      -9.942  20.073  66.111  1.00  0.00    -0.468 C  
HETATM    3  H   UNL     1      -9.238  21.755  66.738  1.00  0.00     0.000 HD 
ENDROOT
BRANCH   2   4
HETATM    4  C   UNL     1     -10.491  18.847  66.752  1.00  0.00    -0.497 C  
HETATM    5  C   UNL     1      -9.995  17.611  66.586  1.00  0.00    -0.328 C  
BRANCH   5   6
HETATM    6  C   UNL     1     -10.620  16.468  67.248  1.00  0.00    -0.285 A  
HETATM    7  C   UNL     1     -11.008  15.352  66.498  1.00  0.00    -0.271 A  
HETATM    8  C   UNL     1     -11.660  14.285  67.117  1.00  0.00    -0.402 A  
HETATM    9  C   UNL     1     -11.930  14.330  68.484  1.00  0.00    -0.352 A  
HETATM   10  C   UNL     1     -11.539  15.437  69.237  1.00  0.00    -0.354 A  
HETATM   11  C   UNL     1     -10.886  16.506  68.620  1.00  0.00    -0.345 A  
ENDBRANCH   5   6
ENDBRANCH   2   4
TORSDOF 2
ENDMDL
MODEL       54
REMARK 921   NORMALIZED FREE ENERGY PREDICTED BY IDOCK:   -3.56 KCAL/MOL
REMARK 922        TOTAL FREE ENERGY PREDICTED BY IDOCK:   -4.11 KCAL/MOL
REMARK 923 INTER-LIGAND FREE ENERGY PREDICTED BY IDOCK:   -3.97 KCAL/MOL
REMARK 924 INTRA-LIGAND FREE ENERGY PREDICTED BY IDOCK:   -0.14 KCAL/MOL
REMARK 927      BINDING AFFINITY PREDICTED BY RF-SCORE:    0.00 PKD
ROOT
HETATM    1  O   UNL     1     -10.119  13.208  63.743  1.00  0.00    -0.731 OA 
HETATM    2  C   UNL     1     -11.487  13.235  64.114  1.00  0.00    -0.396 C  
HETATM    3  H   UNL     1     -10.065  13.482  62.835  1.00  0.00     0.000 HD 
ENDROOT
BRANCH   2   4
HETATM    4  C   UNL     1     -11.572  12.805  65.537  1.00  0.00    -0.400 C  
HETATM    5  C   UNL     1     -10.967  11.721  66.044  1.00  0.00    -0.355 C  
BRANCH   5   6
HETATM    6  C   UNL     1     -11.129  11.375  67.454  1.00  0.00    -0.349 A  
HETATM    7  C   UNL     1     -11.676  12.306  68.344  1.00  0.00    -0.390 A  
HETATM    8  C   UNL     1     -11.775  12.001  69.702  1.00  0.00    -0.405 A  
HETATM    9  C   UNL     1     -11.329  10.769  70.176  1.00  0.00    -0.390 A  
HETATM   10  C   UNL     1     -10.789   9.834  69.291  1.00  0.00    -0.240 A  
HETATM   11  C   UNL     1     -10.688  10.137  67.932  1.00  0.00    -0.317 A  
ENDBRANCH   5   6
ENDBRANCH   2   4
TORSDOF 2
ENDMDL
MODEL       55
REMARK 921   NORMALIZED FREE ENERGY PREDICTED BY IDOCK:   -3.54 KCAL/MOL
REMARK 922        TOTAL FREE ENERGY PREDICTED BY IDOCK:   -4.09 KCAL/MOL
REMARK 923 INTER-LIGAND FREE ENERGY PREDICTED BY IDOCK:   -3.95 KCAL/MOL
REMARK 924 INTRA-LIGAND FREE ENERGY PREDICTED BY IDOCK:   -0.14 KCAL/MOL
REMARK 927      BINDING AFFINITY PREDICTED BY RF-SCORE:    0.00 PKD
ROOT
HETATM    1  O   UNL     1      -9.439   9.324  62.432  1.00  0.00    -0.583 OA 
HETATM    2  C   UNL     1      -8.665   9.473  63.611  1.00  0.00    -0.221 C  
HETATM    3  H   UNL     1      -9.003   8.681  61.886  1.00  0.00     0.000 HD 
ENDROOT
BRANCH   2   4
HETATM    4  C   UNL     1      -9.347  10.481  64.468  1.00  0.00    -0.299 C  
HETATM    5  C   UNL     1     -10.547  11.021  64.203  1.00  0.00    -0.412 C  
BRANCH   5   6
HETATM    6  C   UNL     1     -11.123  12.019  65.102  1.00  0.00    -0.369 A  
HETATM    7  C   UNL     1     -11.556  13.249  64.595  1.00  0.00    -0.385 A  
HETATM    8  C   UNL     1     -12.050  14.228  65.459  1.00  0.00    -0.397 A  
HETATM    9  C   UNL     1     -12.110  13.982  66.829  1.00  0.00    -0.480 A  
HETATM   10  C   UNL     1     -11.686  12.755  67.339  1.00  0.00    -0.425 A  
HETATM   11  C   UNL     1     -11.191  11.775  66.476  1.00  0.00    -0.380 A  
ENDBRANCH   5   6
ENDBRANCH   2   4
TORSDOF 2
ENDMDL
MODEL       56
REMARK 921   NORMALIZED FREE ENERGY PREDICTED BY IDOCK:   -3.54 KCAL/MOL
REMARK 922        TOTAL FREE ENERGY PREDICTED BY IDOCK:   -4.09 KCAL/MOL
REMARK 923 INTER-LIGAND FREE ENERGY PREDICTED BY IDOCK:   -3.96 KCAL/MOL
REMARK 924 INTRA-LIGAND FREE ENERGY PREDICTED BY IDOCK:   -0.13 KCAL/MOL
REMARK 927      BINDING AFFINITY PREDICTED BY RF-SCORE:    0.00 PKD
ROOT
HETATM    1  O   UNL     1     -11.410   5.253  65.808  1.00  0.00    -0.792 OA 
HETATM    2  C   UNL     1     -10.445   5.243  66.847  1.00  0.00    -0.254 C  
HETATM    3  H   UNL     1     -11.139   4.612  65.162  1.00  0.00     0.000 HD 
ENDROOT
BRANCH   2   4
HETATM    4  C   UNL     1     -10.869   6.248  67.860  1.00  0.00    -0.417 C  
HETATM    5  C   UNL     1     -10.708   6.111  69.185  1.00  0.00    -0.381 C  
BRANCH   5   6
HETATM    6  C   UNL     1     -11.177   7.151  70.098  1.00  0.00    -0.295 A  
HETATM    7  C   UNL     1     -12.163   6.856  71.046  1.00  0.00    -0.427 A  
HETATM    8  C   UNL     1     -12.656   7.862  71.879  1.00  0.00    -0.348 A  
HETATM    9  C   UNL     1     -12.169   9.163  71.766  1.00  0.00    -0.442 A  
HETATM   10  C   UNL     1     -11.182   9.460  70.826  1.00  0.00    -0.367 A  
HETATM   11  C   UNL     1     -10.687   8.456  69.992  1.00  0.00    -0.236 A  
ENDBRANCH   5   6
ENDBRANCH   2   4
TORSDOF 2
ENDMDL
MODEL       57
REMARK 921   NORMALIZED FREE ENERGY PREDICTED BY IDOCK:   -3.52 KCAL/MOL
REMARK 922        TOTAL FREE ENERGY PREDICTED BY IDOCK:   -4.06 KCAL/MOL
REMARK 923 INTER-LIGAND FREE ENERGY PREDICTED BY IDOCK:   -3.93 KCAL/MOL
REMARK 924 INTRA-LIGAND FREE ENERGY PREDICTED BY IDOCK:   -0.13 KCAL/MOL
REMARK 927      BINDING AFFINITY PREDICTED BY RF-SCORE:    0.00 PKD
ROOT
HETATM    1  O   UNL     1      -9.620  18.311  65.942  1.00  0.00    -0.510 OA 
HETATM    2  C   UNL     1      -9.432  17.096  66.648  1.00  0.00    -0.264 C  
HETATM    3  H   UNL     1      -9.172  18.994  66.426  1.00  0.00     0.000 HD 
ENDROOT
BRANCH   2   4
HETATM    4  C   UNL     1     -10.134  16.025  65.889  1.00  0.00    -0.378 C  
HETATM    5  C   UNL     1      -9.712  14.755  65.795  1.00  0.00    -0.347 C  
BRANCH   5   6
HETATM    6  C   UNL     1     -10.466  13.782  65.008  1.00  0.00    -0.418 A  
HETATM    7  C   UNL     1     -10.068  12.441  64.986  1.00  0.00    -0.269 A  
HETATM    8  C   UNL     1     -10.749  11.521  64.187  1.00  0.00    -0.428 A  
HETATM    9  C   UNL     1     -11.827  11.937  63.408  1.00  0.00    -0.512 A  
HETATM   10  C   UNL     1     -12.232  13.272  63.431  1.00  0.00    -0.476 A  
HETATM   11  C   UNL     1     -11.552  14.194  64.229  1.00  0.00    -0.327 A  
ENDBRANCH   5   6
ENDBRANCH   2   4
TORSDOF 2
ENDMDL
MODEL       58
REMARK 921   NORMALIZED FREE ENERGY PREDICTED BY IDOCK:   -3.49 KCAL/MOL
REMARK 922        TOTAL FREE ENERGY PREDICTED BY IDOCK:   -4.04 KCAL/MOL
REMARK 923 INTER-LIGAND FREE ENERGY PREDICTED BY IDOCK:   -3.91 KCAL/MOL
REMARK 924 INTRA-LIGAND FREE ENERGY PREDICTED BY IDOCK:   -0.13 KCAL/MOL
REMARK 927      BINDING AFFINITY PREDICTED BY RF-SCORE:    0.00 PKD
ROOT
HETATM    1  O   UNL     1      -9.004   8.949  69.661  1.00  0.00    -0.140 OA 
HETATM    2  C   UNL     1     -10.379   8.642  69.826  1.00  0.00    -0.212 C  
HETATM    3  H   UNL     1      -8.593   8.202  69.245  1.00  0.00     0.000 HD 
ENDROOT
BRANCH   2   4
HETATM    4  C   UNL     1     -11.023   9.813  70.479  1.00  0.00    -0.384 C  
HETATM    5  C   UNL     1     -11.579  10.843  69.822  1.00  0.00    -0.399 C  
BRANCH   5   6
HETATM    6  C   UNL     1     -12.172  11.956  70.559  1.00  0.00    -0.426 A  
HETATM    7  C   UNL     1     -13.020  11.705  71.644  1.00  0.00    -0.483 A  
HETATM    8  C   UNL     1     -13.636  12.765  72.311  1.00  0.00    -0.563 A  
HETATM    9  C   UNL     1     -13.410  14.076  71.897  1.00  0.00    -0.489 A  
HETATM   10  C   UNL     1     -12.560  14.332  70.821  1.00  0.00    -0.427 A  
HETATM   11  C   UNL     1     -11.942  13.274  70.152  1.00  0.00    -0.388 A  
ENDBRANCH   5   6
ENDBRANCH   2   4
TORSDOF 2
ENDMDL
MODEL       59
REMARK 921   NORMALIZED FREE ENERGY PREDICTED BY IDOCK:   -3.49 KCAL/MOL
REMARK 922        TOTAL FREE ENERGY PREDICTED BY IDOCK:   -4.03 KCAL/MOL
REMARK 923 INTER-LIGAND FREE ENERGY PREDICTED BY IDOCK:   -3.91 KCAL/MOL
REMARK 924 INTRA-LIGAND FREE ENERGY PREDICTED BY IDOCK:   -0.12 KCAL/MOL
REMARK 927      BINDING AFFINITY PREDICTED BY RF-SCORE:    0.00 PKD
ROOT
HETATM    1  O   UNL     1      -8.745  18.558  66.067  1.00  0.00    -0.497 OA 
HETATM    2  C   UNL     1      -8.365  17.221  66.345  1.00  0.00    -0.280 C  
HETATM    3  H   UNL     1      -8.052  19.123  66.385  1.00  0.00     0.000 HD 
ENDROOT
BRANCH   2   4
HETATM    4  C   UNL     1      -9.452  16.334  65.847  1.00  0.00    -0.318 C  
HETATM    5  C   UNL     1      -9.460  14.998  65.963  1.00  0.00    -0.337 C  
BRANCH   5   6
HETATM    6  C   UNL     1     -10.569  14.215  65.423  1.00  0.00    -0.358 A  
HETATM    7  C   UNL     1     -11.842  14.319  65.994  1.00  0.00    -0.399 A  
HETATM    8  C   UNL     1     -12.889  13.528  65.520  1.00  0.00    -0.406 A  
HETATM    9  C   UNL     1     -12.668  12.629  64.477  1.00  0.00    -0.439 A  
HETATM   10  C   UNL     1     -11.402  12.526  63.900  1.00  0.00    -0.504 A  
HETATM   11  C   UNL     1     -10.353  13.317  64.373  1.00  0.00    -0.372 A  
ENDBRANCH   5   6
ENDBRANCH   2   4
TORSDOF 2
ENDMDL
MODEL       60
REMARK 921   NORMALIZED FREE ENERGY PREDICTED BY IDOCK:   -3.48 KCAL/MOL
REMARK 922        TOTAL FREE ENERGY PREDICTED BY IDOCK:   -4.02 KCAL/MOL
REMARK 923 INTER-LIGAND FREE ENERGY PREDICTED BY IDOCK:   -3.89 KCAL/MOL
REMARK 924 INTRA-LIGAND FREE ENERGY PREDICTED BY IDOCK:   -0.13 KCAL/MOL
REMARK 927      BINDING AFFINITY PREDICTED BY RF-SCORE:    0.00 PKD
ROOT
HETATM    1  O   UNL     1     -12.523   8.646  72.587  1.00  0.00    -0.473 OA 
HETATM    2  C   UNL     1     -13.194   9.798  72.105  1.00  0.00    -0.436 C  
HETATM    3  H   UNL     1     -12.869   8.456  73.451  1.00  0.00     0.000 HD 
ENDROOT
BRANCH   2   4
HETATM    4  C   UNL     1     -12.653  10.098  70.752  1.00  0.00    -0.406 C  
HETATM    5  C   UNL     1     -12.232  11.306  70.349  1.00  0.00    -0.453 C  
BRANCH   5   6
HETATM    6  C   UNL     1     -11.733  11.499  68.989  1.00  0.00    -0.400 A  
HETATM    7  C   UNL     1     -11.908  12.731  68.348  1.00  0.00    -0.353 A  
HETATM    8  C   UNL     1     -11.487  12.899  67.028  1.00  0.00    -0.390 A  
HETATM    9  C   UNL     1     -10.893  11.840  66.344  1.00  0.00    -0.325 A  
HETATM   10  C   UNL     1     -10.710  10.613  66.981  1.00  0.00    -0.317 A  
HETATM   11  C   UNL     1     -11.130  10.441  68.302  1.00  0.00    -0.338 A  
ENDBRANCH   5   6
ENDBRANCH   2   4
TORSDOF 2
ENDMDL
MODEL       61
REMARK 921   NORMALIZED FREE ENERGY PREDICTED BY IDOCK:   -3.47 KCAL/MOL
REMARK 922        TOTAL FREE ENERGY PREDICTED BY IDOCK:   -4.01 KCAL/MOL
REMARK 923 INTER-LIGAND FREE ENERGY PREDICTED BY IDOCK:   -3.88 KCAL/MOL
REMARK 924 INTRA-LIGAND FREE ENERGY PREDICTED BY IDOCK:   -0.12 KCAL/MOL
REMARK 927      BINDING AFFINITY PREDICTED BY RF-SCORE:    0.00 PKD
ROOT
HETATM    1  O   UNL     1     -11.455   6.666  67.539  1.00  0.00    -0.721 OA 
HETATM    2  C   UNL     1     -10.230   7.374  67.457  1.00  0.00    -0.224 C  
HETATM    3  H   UNL     1     -11.269   5.819  67.926  1.00  0.00     0.000 HD 
ENDROOT
BRANCH   2   4
HETATM    4  C   UNL     1     -10.520   8.701  66.850  1.00  0.00    -0.329 C  
HETATM    5  C   UNL     1      -9.768   9.291  65.909  1.00  0.00    -0.355 C  
BRANCH   5   6
HETATM    6  C   UNL     1     -10.131  10.608  65.390  1.00  0.00    -0.356 A  
HETATM    7  C   UNL     1     -10.068  10.860  64.015  1.00  0.00    -0.419 A  
HETATM    8  C   UNL     1     -10.355  12.133  63.522  1.00  0.00    -0.473 A  
HETATM    9  C   UNL     1     -10.703  13.159  64.400  1.00  0.00    -0.426 A  
HETATM   10  C   UNL     1     -10.774  12.911  65.771  1.00  0.00    -0.293 A  
HETATM   11  C   UNL     1     -10.487  11.637  66.266  1.00  0.00    -0.286 A  
ENDBRANCH   5   6
ENDBRANCH   2   4
TORSDOF 2
ENDMDL
MODEL       62
REMARK 921   NORMALIZED FREE ENERGY PREDICTED BY IDOCK:   -3.45 KCAL/MOL
REMARK 922        TOTAL FREE ENERGY PREDICTED BY IDOCK:   -3.99 KCAL/MOL
REMARK 923 INTER-LIGAND FREE ENERGY PREDICTED BY IDOCK:   -3.85 KCAL/MOL
REMARK 924 INTRA-LIGAND FREE ENERGY PREDICTED BY IDOCK:   -0.13 KCAL/MOL
REMARK 927      BINDING AFFINITY PREDICTED BY RF-SCORE:    0.00 PKD
ROOT
HETATM    1  O   UNL     1     -12.197   8.686  72.497  1.00  0.00    -0.381 OA 
HETATM    2  C   UNL     1     -13.230   9.597  72.164  1.00  0.00    -0.444 C  
HETATM    3  H   UNL     1     -12.577   8.015  73.052  1.00  0.00     0.000 HD 
ENDROOT
BRANCH   2   4
HETATM    4  C   UNL     1     -12.636  10.648  71.294  1.00  0.00    -0.533 C  
HETATM    5  C   UNL     1     -12.896  11.961  71.397  1.00  0.00    -0.411 C  
BRANCH   5   6
HETATM    6  C   UNL     1     -12.273  12.912  70.481  1.00  0.00    -0.395 A  
HETATM    7  C   UNL     1     -11.648  12.455  69.315  1.00  0.00    -0.379 A  
HETATM    8  C   UNL     1     -10.999  13.355  68.469  1.00  0.00    -0.292 A  
HETATM    9  C   UNL     1     -10.969  14.712  68.785  1.00  0.00    -0.268 A  
HETATM   10  C   UNL     1     -11.595  15.174  69.943  1.00  0.00    -0.329 A  
HETATM   11  C   UNL     1     -12.245  14.275  70.791  1.00  0.00    -0.423 A  
ENDBRANCH   5   6
ENDBRANCH   2   4
TORSDOF 2
ENDMDL
MODEL       63
REMARK 921   NORMALIZED FREE ENERGY PREDICTED BY IDOCK:   -3.45 KCAL/MOL
REMARK 922        TOTAL FREE ENERGY PREDICTED BY IDOCK:   -3.99 KCAL/MOL
REMARK 923 INTER-LIGAND FREE ENERGY PREDICTED BY IDOCK:   -3.85 KCAL/MOL
REMARK 924 INTRA-LIGAND FREE ENERGY PREDICTED BY IDOCK:   -0.13 KCAL/MOL
REMARK 927      BINDING AFFINITY PREDICTED BY RF-SCORE:    0.00 PKD
ROOT
HETATM    1  O   UNL     1     -10.399  19.820  69.665  1.00  0.00    -0.620 OA 
HETATM    2  C   UNL     1      -9.921  19.517  68.365  1.00  0.00    -0.443 C  
HETATM    3  H   UNL     1     -10.169  20.722  69.850  1.00  0.00     0.000 HD 
ENDROOT
BRANCH   2   4
HETATM    4  C   UNL     1     -10.282  18.102  68.074  1.00  0.00    -0.392 C  
HETATM    5  C   UNL     1     -10.170  17.518  66.872  1.00  0.00    -0.329 C  
BRANCH   5   6
HETATM    6  C   UNL     1     -10.570  16.125  66.687  1.00  0.00    -0.274 A  
HETATM    7  C   UNL     1     -11.269  15.457  67.698  1.00  0.00    -0.311 A  
HETATM    8  C   UNL     1     -11.599  14.110  67.550  1.00  0.00    -0.396 A  
HETATM    9  C   UNL     1     -11.231  13.424  66.393  1.00  0.00    -0.323 A  
HETATM   10  C   UNL     1     -10.539  14.087  65.379  1.00  0.00    -0.351 A  
HETATM   11  C   UNL     1     -10.208  15.436  65.526  1.00  0.00    -0.411 A  
ENDBRANCH   5   6
ENDBRANCH   2   4
TORSDOF 2
ENDMDL
MODEL       64
REMARK 921   NORMALIZED FREE ENERGY PREDICTED BY IDOCK:   -3.44 KCAL/MOL
REMARK 922        TOTAL FREE ENERGY PREDICTED BY IDOCK:   -3.97 KCAL/MOL
REMARK 923 INTER-LIGAND FREE ENERGY PREDICTED BY IDOCK:   -3.85 KCAL/MOL
REMARK 924 INTRA-LIGAND FREE ENERGY PREDICTED BY IDOCK:   -0.12 KCAL/MOL
REMARK 927      BINDING AFFINITY PREDICTED BY RF-SCORE:    0.00 PKD
ROOT
HETATM    1  O   UNL     1     -11.540   4.597  65.238  1.00  0.00    -1.093 OA 
HETATM    2  C   UNL     1     -10.503   4.852  66.170  1.00  0.00    -0.302 C  
HETATM    3  H   UNL     1     -11.345   3.770  64.814  1.00  0.00     0.000 HD 
ENDROOT
BRANCH   2   4
HETATM    4  C   UNL     1     -10.808   6.148  66.835  1.00  0.00    -0.411 C  
HETATM    5  C   UNL     1      -9.912   7.121  67.060  1.00  0.00    -0.283 C  
BRANCH   5   6
HETATM    6  C   UNL     1     -10.311   8.351  67.739  1.00  0.00    -0.297 A  
HETATM    7  C   UNL     1     -10.445   8.370  69.132  1.00  0.00    -0.218 A  
HETATM    8  C   UNL     1     -10.884   9.526  69.778  1.00  0.00    -0.264 A  
HETATM    9  C   UNL     1     -11.193  10.665  69.036  1.00  0.00    -0.324 A  
HETATM   10  C   UNL     1     -11.054  10.654  67.648  1.00  0.00    -0.385 A  
HETATM   11  C   UNL     1     -10.615   9.498  67.000  1.00  0.00    -0.271 A  
ENDBRANCH   5   6
ENDBRANCH   2   4
TORSDOF 2
ENDMDL
MODEL       65
REMARK 921   NORMALIZED FREE ENERGY PREDICTED BY IDOCK:   -3.41 KCAL/MOL
REMARK 922        TOTAL FREE ENERGY PREDICTED BY IDOCK:   -3.95 KCAL/MOL
REMARK 923 INTER-LIGAND FREE ENERGY PREDICTED BY IDOCK:   -3.82 KCAL/MOL
REMARK 924 INTRA-LIGAND FREE ENERGY PREDICTED BY IDOCK:   -0.12 KCAL/MOL
REMARK 927      BINDING AFFINITY PREDICTED BY RF-SCORE:    0.00 PKD
ROOT
HETATM    1  O   UNL     1     -10.088   4.523  70.795  1.00  0.00    -0.214 OA 
HETATM    2  C   UNL     1     -10.390   5.274  69.631  1.00  0.00    -0.278 C  
HETATM    3  H   UNL     1      -9.573   3.772  70.524  1.00  0.00     0.000 HD 
ENDROOT
BRANCH   2   4
HETATM    4  C   UNL     1     -11.196   6.451  70.056  1.00  0.00    -0.475 C  
HETATM    5  C   UNL     1     -10.682   7.623  70.459  1.00  0.00    -0.241 C  
BRANCH   5   6
HETATM    6  C   UNL     1     -11.562   8.713  70.874  1.00  0.00    -0.307 A  
HETATM    7  C   UNL     1     -11.369  10.001  70.363  1.00  0.00    -0.392 A  
HETATM    8  C   UNL     1     -12.168  11.056  70.804  1.00  0.00    -0.480 A  
HETATM    9  C   UNL     1     -13.161  10.830  71.756  1.00  0.00    -0.523 A  
HETATM   10  C   UNL     1     -13.362   9.546  72.263  1.00  0.00    -0.526 A  
HETATM   11  C   UNL     1     -12.563   8.488  71.824  1.00  0.00    -0.387 A  
ENDBRANCH   5   6
ENDBRANCH   2   4
TORSDOF 2
ENDMDL
MODEL       66
REMARK 921   NORMALIZED FREE ENERGY PREDICTED BY IDOCK:   -3.39 KCAL/MOL
REMARK 922        TOTAL FREE ENERGY PREDICTED BY IDOCK:   -3.92 KCAL/MOL
REMARK 923 INTER-LIGAND FREE ENERGY PREDICTED BY IDOCK:   -3.78 KCAL/MOL
REMARK 924 INTRA-LIGAND FREE ENERGY PREDICTED BY IDOCK:   -0.14 KCAL/MOL
REMARK 927      BINDING AFFINITY PREDICTED BY RF-SCORE:    0.00 PKD
ROOT
HETATM    1  O   UNL     1     -11.968  16.356  71.334  1.00  0.00    -0.638 OA 
HETATM    2  C   UNL     1     -13.104  15.516  71.212  1.00  0.00    -0.511 C  
HETATM    3  H   UNL     1     -12.278  17.221  71.572  1.00  0.00     0.000 HD 
ENDROOT
BRANCH   2   4
HETATM    4  C   UNL     1     -12.619  14.160  70.837  1.00  0.00    -0.433 C  
HETATM    5  C   UNL     1     -12.340  13.768  69.585  1.00  0.00    -0.284 C  
BRANCH   5   6
HETATM    6  C   UNL     1     -11.886  12.405  69.320  1.00  0.00    -0.361 A  
HETATM    7  C   UNL     1     -11.719  11.967  68.002  1.00  0.00    -0.398 A  
HETATM    8  C   UNL     1     -11.344  10.648  67.744  1.00  0.00    -0.320 A  
HETATM    9  C   UNL     1     -11.137   9.762  68.801  1.00  0.00    -0.140 A  
HETATM   10  C   UNL     1     -11.295  10.196  70.117  1.00  0.00    -0.372 A  
HETATM   11  C   UNL     1     -11.671  11.516  70.377  1.00  0.00    -0.328 A  
ENDBRANCH   5   6
ENDBRANCH   2   4
TORSDOF 2
ENDMDL
MODEL       67
REMARK 921   NORMALIZED FREE ENERGY PREDICTED BY IDOCK:   -3.38 KCAL/MOL
REMARK 922        TOTAL FREE ENERGY PREDICTED BY IDOCK:   -3.92 KCAL/MOL
REMARK 923 INTER-LIGAND FREE ENERGY PREDICTED BY IDOCK:   -3.77 KCAL/MOL
REMARK 924 INTRA-LIGAND FREE ENERGY PREDICTED BY IDOCK:   -0.14 KCAL/MOL
REMARK 927      BINDING AFFINITY PREDICTED BY RF-SCORE:    0.00 PKD
ROOT
HETATM    1  O   UNL     1     -12.672  10.715  69.340  1.00  0.00    -0.671 OA 
HETATM    2  C   UNL     1     -11.569  11.125  70.131  1.00  0.00    -0.323 C  
HETATM    3  H   UNL     1     -12.887  11.434  68.758  1.00  0.00     0.000 HD 
ENDROOT
BRANCH   2   4
HETATM    4  C   UNL     1     -11.231   9.998  71.043  1.00  0.00    -0.387 C  
HETATM    5  C   UNL     1     -11.838   8.801  71.035  1.00  0.00    -0.315 C  
BRANCH   5   6
HETATM    6  C   UNL     1     -11.443   7.765  71.986  1.00  0.00    -0.337 A  
HETATM    7  C   UNL     1     -10.413   8.011  72.900  1.00  0.00    -0.402 A  
HETATM    8  C   UNL     1      -9.992   7.003  73.769  1.00  0.00    -0.367 A  
HETATM    9  C   UNL     1     -10.596   5.747  73.726  1.00  0.00    -0.285 A  
HETATM   10  C   UNL     1     -11.628   5.499  72.821  1.00  0.00    -0.298 A  
HETATM   11  C   UNL     1     -12.051   6.507  71.951  1.00  0.00    -0.388 A  
ENDBRANCH   5   6
ENDBRANCH   2   4
TORSDOF 2
ENDMDL
MODEL       68
REMARK 921   NORMALIZED FREE ENERGY PREDICTED BY IDOCK:   -3.37 KCAL/MOL
REMARK 922        TOTAL FREE ENERGY PREDICTED BY IDOCK:   -3.90 KCAL/MOL
REMARK 923 INTER-LIGAND FREE ENERGY PREDICTED BY IDOCK:   -3.76 KCAL/MOL
REMARK 924 INTRA-LIGAND FREE ENERGY PREDICTED BY IDOCK:   -0.14 KCAL/MOL
REMARK 927      BINDING AFFINITY PREDICTED BY RF-SCORE:    0.00 PKD
ROOT
HETATM    1  O   UNL     1     -11.095  11.155  70.330  1.00  0.00    -0.458 OA 
HETATM    2  C   UNL     1     -12.253  11.954  70.158  1.00  0.00    -0.241 C  
HETATM    3  H   UNL     1     -11.262  10.564  71.054  1.00  0.00     0.000 HD 
ENDROOT
BRANCH   2   4
HETATM    4  C   UNL     1     -11.992  12.882  69.024  1.00  0.00    -0.297 C  
HETATM    5  C   UNL     1     -12.002  12.526  67.730  1.00  0.00    -0.286 C  
BRANCH   5   6
HETATM    6  C   UNL     1     -11.714  13.511  66.690  1.00  0.00    -0.425 A  
HETATM    7  C   UNL     1     -10.882  14.601  66.970  1.00  0.00    -0.304 A  
HETATM    8  C   UNL     1     -10.654  15.576  65.998  1.00  0.00    -0.333 A  
HETATM    9  C   UNL     1     -11.256  15.467  64.746  1.00  0.00    -0.399 A  
HETATM   10  C   UNL     1     -12.081  14.379  64.459  1.00  0.00    -0.498 A  
HETATM   11  C   UNL     1     -12.311  13.403  65.431  1.00  0.00    -0.522 A  
ENDBRANCH   5   6
ENDBRANCH   2   4
TORSDOF 2
ENDMDL
MODEL       69
REMARK 921   NORMALIZED FREE ENERGY PREDICTED BY IDOCK:   -3.36 KCAL/MOL
REMARK 922        TOTAL FREE ENERGY PREDICTED BY IDOCK:   -3.89 KCAL/MOL
REMARK 923 INTER-LIGAND FREE ENERGY PREDICTED BY IDOCK:   -3.76 KCAL/MOL
REMARK 924 INTRA-LIGAND FREE ENERGY PREDICTED BY IDOCK:   -0.13 KCAL/MOL
REMARK 927      BINDING AFFINITY PREDICTED BY RF-SCORE:    0.00 PKD
ROOT
HETATM    1  O   UNL     1     -10.040   8.165  66.324  1.00  0.00    -0.466 OA 
HETATM    2  C   UNL     1      -9.816   9.565  66.327  1.00  0.00    -0.266 C  
HETATM    3  H   UNL     1      -9.540   7.798  65.605  1.00  0.00     0.000 HD 
ENDROOT
BRANCH   2   4
HETATM    4  C   UNL     1     -10.600  10.141  67.453  1.00  0.00    -0.329 C  
HETATM    5  C   UNL     1     -10.447   9.801  68.742  1.00  0.00    -0.240 C  
BRANCH   5   6
HETATM    6  C   UNL     1     -11.282  10.413  69.773  1.00  0.00    -0.353 A  
HETATM    7  C   UNL     1     -11.836   9.623  70.785  1.00  0.00    -0.378 A  
HETATM    8  C   UNL     1     -12.684  10.194  71.735  1.00  0.00    -0.534 A  
HETATM    9  C   UNL     1     -12.982  11.554  71.676  1.00  0.00    -0.499 A  
HETATM   10  C   UNL     1     -12.427  12.348  70.673  1.00  0.00    -0.320 A  
HETATM   11  C   UNL     1     -11.578  11.779  69.721  1.00  0.00    -0.372 A  
ENDBRANCH   5   6
ENDBRANCH   2   4
TORSDOF 2
ENDMDL
MODEL       70
REMARK 921   NORMALIZED FREE ENERGY PREDICTED BY IDOCK:   -3.36 KCAL/MOL
REMARK 922        TOTAL FREE ENERGY PREDICTED BY IDOCK:   -3.89 KCAL/MOL
REMARK 923 INTER-LIGAND FREE ENERGY PREDICTED BY IDOCK:   -3.76 KCAL/MOL
REMARK 924 INTRA-LIGAND FREE ENERGY PREDICTED BY IDOCK:   -0.13 KCAL/MOL
REMARK 927      BINDING AFFINITY PREDICTED BY RF-SCORE:    0.00 PKD
ROOT
HETATM    1  O   UNL     1      -7.457  10.381  70.352  1.00  0.00    -0.430 OA 
HETATM    2  C   UNL     1      -7.830   9.219  71.075  1.00  0.00    -0.067 C  
HETATM    3  H   UNL     1      -6.510  10.437  70.373  1.00  0.00     0.000 HD 
ENDROOT
BRANCH   2   4
HETATM    4  C   UNL     1      -9.315   9.130  71.042  1.00  0.00    -0.333 C  
HETATM    5  C   UNL     1     -10.067   8.573  72.003  1.00  0.00    -0.386 C  
BRANCH   5   6
HETATM    6  C   UNL     1     -11.521   8.520  71.867  1.00  0.00    -0.405 A  
HETATM    7  C   UNL     1     -12.177   7.284  71.848  1.00  0.00    -0.348 A  
HETATM    8  C   UNL     1     -13.559   7.228  71.656  1.00  0.00    -0.435 A  
HETATM    9  C   UNL     1     -14.288   8.403  71.482  1.00  0.00    -0.499 A  
HETATM   10  C   UNL     1     -13.639   9.638  71.507  1.00  0.00    -0.376 A  
HETATM   11  C   UNL     1     -12.257   9.697  71.698  1.00  0.00    -0.484 A  
ENDBRANCH   5   6
ENDBRANCH   2   4
TORSDOF 2
ENDMDL
MODEL       71
REMARK 921   NORMALIZED FREE ENERGY PREDICTED BY IDOCK:   -3.34 KCAL/MOL
REMARK 922        TOTAL FREE ENERGY PREDICTED BY IDOCK:   -3.87 KCAL/MOL
REMARK 923 INTER-LIGAND FREE ENERGY PREDICTED BY IDOCK:   -3.74 KCAL/MOL
REMARK 924 INTRA-LIGAND FREE ENERGY PREDICTED BY IDOCK:   -0.13 KCAL/MOL
REMARK 927      BINDING AFFINITY PREDICTED BY RF-SCORE:    0.00 PKD
ROOT
HETATM    1  O   UNL     1     -13.371  15.496  71.781  1.00  0.00    -0.437 OA 
HETATM    2  C   UNL     1     -12.120  14.829  71.773  1.00  0.00    -0.348 C  
HETATM    3  H   UNL     1     -13.396  16.046  72.555  1.00  0.00     0.000 HD 
ENDROOT
BRANCH   2   4
HETATM    4  C   UNL     1     -12.081  13.967  70.560  1.00  0.00    -0.424 C  
HETATM    5  C   UNL     1     -11.703  14.381  69.341  1.00  0.00    -0.362 C  
BRANCH   5   6
HETATM    6  C   UNL     1     -11.717  13.458  68.209  1.00  0.00    -0.391 A  
HETATM    7  C   UNL     1     -11.212  12.162  68.357  1.00  0.00    -0.314 A  
HETATM    8  C   UNL     1     -11.168  11.298  67.262  1.00  0.00    -0.364 A  
HETATM    9  C   UNL     1     -11.626  11.726  66.016  1.00  0.00    -0.206 A  
HETATM   10  C   UNL     1     -12.137  13.016  65.866  1.00  0.00    -0.503 A  
HETATM   11  C   UNL     1     -12.182  13.882  66.960  1.00  0.00    -0.392 A  
ENDBRANCH   5   6
ENDBRANCH   2   4
TORSDOF 2
ENDMDL
MODEL       72
REMARK 921   NORMALIZED FREE ENERGY PREDICTED BY IDOCK:   -3.31 KCAL/MOL
REMARK 922        TOTAL FREE ENERGY PREDICTED BY IDOCK:   -3.83 KCAL/MOL
REMARK 923 INTER-LIGAND FREE ENERGY PREDICTED BY IDOCK:   -3.70 KCAL/MOL
REMARK 924 INTRA-LIGAND FREE ENERGY PREDICTED BY IDOCK:   -0.13 KCAL/MOL
REMARK 927      BINDING AFFINITY PREDICTED BY RF-SCORE:    0.00 PKD
ROOT
HETATM    1  O   UNL     1     -11.527   6.651  66.836  1.00  0.00    -0.777 OA 
HETATM    2  C   UNL     1     -10.285   7.332  66.906  1.00  0.00    -0.269 C  
HETATM    3  H   UNL     1     -11.345   5.721  66.907  1.00  0.00     0.000 HD 
ENDROOT
BRANCH   2   4
HETATM    4  C   UNL     1     -10.569   8.789  66.794  1.00  0.00    -0.220 C  
HETATM    5  C   UNL     1     -10.848   9.594  67.830  1.00  0.00    -0.272 C  
BRANCH   5   6
HETATM    6  C   UNL     1     -11.130  11.011  67.611  1.00  0.00    -0.363 A  
HETATM    7  C   UNL     1     -10.802  11.609  66.390  1.00  0.00    -0.333 A  
HETATM    8  C   UNL     1     -11.014  12.975  66.200  1.00  0.00    -0.300 A  
HETATM    9  C   UNL     1     -11.552  13.748  67.228  1.00  0.00    -0.391 A  
HETATM   10  C   UNL     1     -11.887  13.154  68.445  1.00  0.00    -0.386 A  
HETATM   11  C   UNL     1     -11.675  11.788  68.638  1.00  0.00    -0.389 A  
ENDBRANCH   5   6
ENDBRANCH   2   4
TORSDOF 2
ENDMDL
MODEL       73
REMARK 921   NORMALIZED FREE ENERGY PREDICTED BY IDOCK:   -3.30 KCAL/MOL
REMARK 922        TOTAL FREE ENERGY PREDICTED BY IDOCK:   -3.82 KCAL/MOL
REMARK 923 INTER-LIGAND FREE ENERGY PREDICTED BY IDOCK:   -3.69 KCAL/MOL
REMARK 924 INTRA-LIGAND FREE ENERGY PREDICTED BY IDOCK:   -0.13 KCAL/MOL
REMARK 927      BINDING AFFINITY PREDICTED BY RF-SCORE:    0.00 PKD
ROOT
HETATM    1  O   UNL     1     -12.710  15.732  69.425  1.00  0.00    -0.496 OA 
HETATM    2  C   UNL     1     -11.752  15.086  68.604  1.00  0.00    -0.337 C  
HETATM    3  H   UNL     1     -13.259  15.057  69.807  1.00  0.00     0.000 HD 
ENDROOT
BRANCH   2   4
HETATM    4  C   UNL     1     -10.892  16.142  68.005  1.00  0.00    -0.333 C  
HETATM    5  C   UNL     1     -10.444  17.224  68.660  1.00  0.00    -0.356 C  
BRANCH   5   6
HETATM    6  C   UNL     1      -9.619  18.215  67.974  1.00  0.00    -0.304 A  
HETATM    7  C   UNL     1     -10.162  18.980  66.935  1.00  0.00    -0.459 A  
HETATM    8  C   UNL     1      -9.359  19.884  66.237  1.00  0.00    -0.474 A  
HETATM    9  C   UNL     1      -8.014  20.025  66.572  1.00  0.00    -0.343 A  
HETATM   10  C   UNL     1      -7.469  19.269  67.611  1.00  0.00    -0.271 A  
HETATM   11  C   UNL     1      -8.270  18.364  68.310  1.00  0.00    -0.317 A  
ENDBRANCH   5   6
ENDBRANCH   2   4
TORSDOF 2
ENDMDL
MODEL       74
REMARK 921   NORMALIZED FREE ENERGY PREDICTED BY IDOCK:   -3.30 KCAL/MOL
REMARK 922        TOTAL FREE ENERGY PREDICTED BY IDOCK:   -3.82 KCAL/MOL
REMARK 923 INTER-LIGAND FREE ENERGY PREDICTED BY IDOCK:   -3.70 KCAL/MOL
REMARK 924 INTRA-LIGAND FREE ENERGY PREDICTED BY IDOCK:   -0.11 KCAL/MOL
REMARK 927      BINDING AFFINITY PREDICTED BY RF-SCORE:    0.00 PKD
ROOT
HETATM    1  O   UNL     1      -7.491  10.161  70.666  1.00  0.00    -0.410 OA 
HETATM    2  C   UNL     1      -7.882   8.932  71.256  1.00  0.00    -0.125 C  
HETATM    3  H   UNL     1      -6.547  10.225  70.741  1.00  0.00     0.000 HD 
ENDROOT
BRANCH   2   4
HETATM    4  C   UNL     1      -9.362   8.832  71.139  1.00  0.00    -0.297 C  
HETATM    5  C   UNL     1     -10.180   8.439  72.127  1.00  0.00    -0.390 C  
BRANCH   5   6
HETATM    6  C   UNL     1     -11.622   8.357  71.904  1.00  0.00    -0.395 A  
HETATM    7  C   UNL     1     -12.449   9.425  72.268  1.00  0.00    -0.338 A  
HETATM    8  C   UNL     1     -13.832   9.325  72.113  1.00  0.00    -0.478 A  
HETATM    9  C   UNL     1     -14.394   8.158  71.597  1.00  0.00    -0.570 A  
HETATM   10  C   UNL     1     -13.573   7.093  71.226  1.00  0.00    -0.301 A  
HETATM   11  C   UNL     1     -12.189   7.191  71.380  1.00  0.00    -0.399 A  
ENDBRANCH   5   6
ENDBRANCH   2   4
TORSDOF 2
ENDMDL
MODEL       75
REMARK 921   NORMALIZED FREE ENERGY PREDICTED BY IDOCK:   -3.26 KCAL/MOL
REMARK 922        TOTAL FREE ENERGY PREDICTED BY IDOCK:   -3.78 KCAL/MOL
REMARK 923 INTER-LIGAND FREE ENERGY PREDICTED BY IDOCK:   -3.66 KCAL/MOL
REMARK 924 INTRA-LIGAND FREE ENERGY PREDICTED BY IDOCK:   -0.12 KCAL/MOL
REMARK 927      BINDING AFFINITY PREDICTED BY RF-SCORE:    0.00 PKD
ROOT
HETATM    1  O   UNL     1      -7.959   6.063  73.557  1.00  0.00    -0.103 OA 
HETATM    2  C   UNL     1      -9.019   6.597  74.332  1.00  0.00    -0.181 C  
HETATM    3  H   UNL     1      -7.525   5.403  74.085  1.00  0.00     0.000 HD 
ENDROOT
BRANCH   2   4
HETATM    4  C   UNL     1      -9.699   7.631  73.505  1.00  0.00    -0.358 C  
HETATM    5  C   UNL     1     -10.906   7.483  72.939  1.00  0.00    -0.425 C  
BRANCH   5   6
HETATM    6  C   UNL     1     -11.479   8.555  72.129  1.00  0.00    -0.446 A  
HETATM    7  C   UNL     1     -12.824   8.908  72.286  1.00  0.00    -0.475 A  
HETATM    8  C   UNL     1     -13.390   9.889  71.471  1.00  0.00    -0.462 A  
HETATM    9  C   UNL     1     -12.617  10.519  70.497  1.00  0.00    -0.423 A  
HETATM   10  C   UNL     1     -11.274  10.176  70.341  1.00  0.00    -0.402 A  
HETATM   11  C   UNL     1     -10.706   9.194  71.155  1.00  0.00    -0.380 A  
ENDBRANCH   5   6
ENDBRANCH   2   4
TORSDOF 2
ENDMDL
MODEL       76
REMARK 921   NORMALIZED FREE ENERGY PREDICTED BY IDOCK:   -3.22 KCAL/MOL
REMARK 922        TOTAL FREE ENERGY PREDICTED BY IDOCK:   -3.74 KCAL/MOL
REMARK 923 INTER-LIGAND FREE ENERGY PREDICTED BY IDOCK:   -3.62 KCAL/MOL
REMARK 924 INTRA-LIGAND FREE ENERGY PREDICTED BY IDOCK:   -0.12 KCAL/MOL
REMARK 927      BINDING AFFINITY PREDICTED BY RF-SCORE:    0.00 PKD
ROOT
HETATM    1  O   UNL     1      -8.403   9.175  71.614  1.00  0.00    -0.339 OA 
HETATM    2  C   UNL     1      -9.683   8.883  71.078  1.00  0.00    -0.252 C  
HETATM    3  H   UNL     1      -8.221   8.526  72.283  1.00  0.00     0.000 HD 
ENDROOT
BRANCH   2   4
HETATM    4  C   UNL     1      -9.970   9.900  70.030  1.00  0.00    -0.302 C  
HETATM    5  C   UNL     1     -11.121  10.582  69.923  1.00  0.00    -0.371 C  
BRANCH   5   6
HETATM    6  C   UNL     1     -11.310  11.548  68.843  1.00  0.00    -0.331 A  
HETATM    7  C   UNL     1     -11.617  12.880  69.142  1.00  0.00    -0.375 A  
HETATM    8  C   UNL     1     -11.859  13.791  68.113  1.00  0.00    -0.411 A  
HETATM    9  C   UNL     1     -11.796  13.375  66.784  1.00  0.00    -0.452 A  
HETATM   10  C   UNL     1     -11.484  12.050  66.481  1.00  0.00    -0.413 A  
HETATM   11  C   UNL     1     -11.242  11.137  67.509  1.00  0.00    -0.369 A  
ENDBRANCH   5   6
ENDBRANCH   2   4
TORSDOF 2
ENDMDL
MODEL       77
REMARK 921   NORMALIZED FREE ENERGY PREDICTED BY IDOCK:   -3.22 KCAL/MOL
REMARK 922        TOTAL FREE ENERGY PREDICTED BY IDOCK:   -3.73 KCAL/MOL
REMARK 923 INTER-LIGAND FREE ENERGY PREDICTED BY IDOCK:   -3.60 KCAL/MOL
REMARK 924 INTRA-LIGAND FREE ENERGY PREDICTED BY IDOCK:   -0.13 KCAL/MOL
REMARK 927      BINDING AFFINITY PREDICTED BY RF-SCORE:    0.00 PKD
ROOT
HETATM    1  O   UNL     1     -11.225   5.205  65.659  1.00  0.00    -0.802 OA 
HETATM    2  C   UNL     1     -10.082   5.170  66.496  1.00  0.00    -0.239 C  
HETATM    3  H   UNL     1     -10.957   4.904  64.799  1.00  0.00     0.000 HD 
ENDROOT
BRANCH   2   4
HETATM    4  C   UNL     1     -10.501   5.643  67.844  1.00  0.00    -0.274 C  
HETATM    5  C   UNL     1     -10.372   6.903  68.285  1.00  0.00    -0.220 C  
BRANCH   5   6
HETATM    6  C   UNL     1     -10.799   7.262  69.636  1.00  0.00    -0.238 A  
HETATM    7  C   UNL     1     -10.373   8.465  70.208  1.00  0.00    -0.212 A  
HETATM    8  C   UNL     1     -10.728   8.782  71.520  1.00  0.00    -0.371 A  
HETATM    9  C   UNL     1     -11.508   7.898  72.264  1.00  0.00    -0.403 A  
HETATM   10  C   UNL     1     -11.941   6.700  71.696  1.00  0.00    -0.395 A  
HETATM   11  C   UNL     1     -11.586   6.381  70.383  1.00  0.00    -0.440 A  
ENDBRANCH   5   6
ENDBRANCH   2   4
TORSDOF 2
ENDMDL
MODEL       78
REMARK 921   NORMALIZED FREE ENERGY PREDICTED BY IDOCK:   -3.21 KCAL/MOL
REMARK 922        TOTAL FREE ENERGY PREDICTED BY IDOCK:   -3.72 KCAL/MOL
REMARK 923 INTER-LIGAND FREE ENERGY PREDICTED BY IDOCK:   -3.59 KCAL/MOL
REMARK 924 INTRA-LIGAND FREE ENERGY PREDICTED BY IDOCK:   -0.13 KCAL/MOL
REMARK 927      BINDING AFFINITY PREDICTED BY RF-SCORE:    0.00 PKD
ROOT
HETATM    1  O   UNL     1      -7.382  14.369  70.001  1.00  0.00    -0.389 OA 
HETATM    2  C   UNL     1      -6.744  15.586  69.650  1.00  0.00    -0.180 C  
HETATM    3  H   UNL     1      -6.768  13.867  70.523  1.00  0.00     0.000 HD 
ENDROOT
BRANCH   2   4
HETATM    4  C   UNL     1      -7.706  16.374  68.832  1.00  0.00    -0.230 C  
HETATM    5  C   UNL     1      -7.569  17.675  68.536  1.00  0.00    -0.272 C  
BRANCH   5   6
HETATM    6  C   UNL     1      -8.582  18.363  67.739  1.00  0.00    -0.278 A  
HETATM    7  C   UNL     1      -8.784  19.738  67.900  1.00  0.00    -0.370 A  
HETATM    8  C   UNL     1      -9.792  20.386  67.185  1.00  0.00    -0.601 A  
HETATM    9  C   UNL     1     -10.601  19.664  66.308  1.00  0.00    -0.585 A  
HETATM   10  C   UNL     1     -10.398  18.294  66.139  1.00  0.00    -0.414 A  
HETATM   11  C   UNL     1      -9.391  17.644  66.854  1.00  0.00    -0.268 A  
ENDBRANCH   5   6
ENDBRANCH   2   4
TORSDOF 2
ENDMDL
MODEL       79
REMARK 921   NORMALIZED FREE ENERGY PREDICTED BY IDOCK:   -3.20 KCAL/MOL
REMARK 922        TOTAL FREE ENERGY PREDICTED BY IDOCK:   -3.71 KCAL/MOL
REMARK 923 INTER-LIGAND FREE ENERGY PREDICTED BY IDOCK:   -3.58 KCAL/MOL
REMARK 924 INTRA-LIGAND FREE ENERGY PREDICTED BY IDOCK:   -0.13 KCAL/MOL
REMARK 927      BINDING AFFINITY PREDICTED BY RF-SCORE:    0.00 PKD
ROOT
HETATM    1  O   UNL     1      -7.888  11.263  69.497  1.00  0.00    -0.371 OA 
HETATM    2  C   UNL     1      -8.915  10.333  69.194  1.00  0.00    -0.180 C  
HETATM    3  H   UNL     1      -7.350  10.881  70.179  1.00  0.00     0.000 HD 
ENDROOT
BRANCH   2   4
HETATM    4  C   UNL     1      -9.759  10.932  68.125  1.00  0.00    -0.174 C  
HETATM    5  C   UNL     1      -9.809  10.495  66.858  1.00  0.00    -0.235 C  
BRANCH   5   6
HETATM    6  C   UNL     1     -10.659  11.166  65.877  1.00  0.00    -0.294 A  
HETATM    7  C   UNL     1     -10.516  10.879  64.515  1.00  0.00    -0.393 A  
HETATM    8  C   UNL     1     -11.284  11.563  63.571  1.00  0.00    -0.412 A  
HETATM    9  C   UNL     1     -12.195  12.534  63.983  1.00  0.00    -0.566 A  
HETATM   10  C   UNL     1     -12.346  12.819  65.341  1.00  0.00    -0.528 A  
HETATM   11  C   UNL     1     -11.579  12.136  66.287  1.00  0.00    -0.424 A  
ENDBRANCH   5   6
ENDBRANCH   2   4
TORSDOF 2
ENDMDL
MODEL       80
REMARK 921   NORMALIZED FREE ENERGY PREDICTED BY IDOCK:   -3.20 KCAL/MOL
REMARK 922        TOTAL FREE ENERGY PREDICTED BY IDOCK:   -3.71 KCAL/MOL
REMARK 923 INTER-LIGAND FREE ENERGY PREDICTED BY IDOCK:   -3.58 KCAL/MOL
REMARK 924 INTRA-LIGAND FREE ENERGY PREDICTED BY IDOCK:   -0.12 KCAL/MOL
REMARK 927      BINDING AFFINITY PREDICTED BY RF-SCORE:    0.00 PKD
ROOT
HETATM    1  O   UNL     1     -11.179   3.509  73.648  1.00  0.00    -0.233 OA 
HETATM    2  C   UNL     1     -10.427   4.682  73.907  1.00  0.00    -0.253 C  
HETATM    3  H   UNL     1     -10.763   2.795  74.114  1.00  0.00     0.000 HD 
ENDROOT
BRANCH   2   4
HETATM    4  C   UNL     1     -11.080   5.802  73.176  1.00  0.00    -0.288 C  
HETATM    5  C   UNL     1     -10.649   7.073  73.185  1.00  0.00    -0.350 C  
BRANCH   5   6
HETATM    6  C   UNL     1     -11.374   8.104  72.446  1.00  0.00    -0.456 A  
HETATM    7  C   UNL     1     -10.678   8.992  71.619  1.00  0.00    -0.441 A  
HETATM    8  C   UNL     1     -11.359  10.017  70.961  1.00  0.00    -0.434 A  
HETATM    9  C   UNL     1     -12.736  10.159  71.127  1.00  0.00    -0.494 A  
HETATM   10  C   UNL     1     -13.435   9.272  71.945  1.00  0.00    -0.497 A  
HETATM   11  C   UNL     1     -12.756   8.246  72.606  1.00  0.00    -0.137 A  
ENDBRANCH   5   6
ENDBRANCH   2   4
TORSDOF 2
ENDMDL
MODEL       81
REMARK 921   NORMALIZED FREE ENERGY PREDICTED BY IDOCK:   -3.19 KCAL/MOL
REMARK 922        TOTAL FREE ENERGY PREDICTED BY IDOCK:   -3.70 KCAL/MOL
REMARK 923 INTER-LIGAND FREE ENERGY PREDICTED BY IDOCK:   -3.57 KCAL/MOL
REMARK 924 INTRA-LIGAND FREE ENERGY PREDICTED BY IDOCK:   -0.13 KCAL/MOL
REMARK 927      BINDING AFFINITY PREDICTED BY RF-SCORE:    0.00 PKD
ROOT
HETATM    1  O   UNL     1     -10.807   7.860  73.051  1.00  0.00    -0.383 OA 
HETATM    2  C   UNL     1     -12.131   8.004  72.564  1.00  0.00    -0.284 C  
HETATM    3  H   UNL     1     -10.848   7.320  73.831  1.00  0.00     0.000 HD 
ENDROOT
BRANCH   2   4
HETATM    4  C   UNL     1     -12.068   8.851  71.342  1.00  0.00    -0.381 C  
HETATM    5  C   UNL     1     -11.681  10.135  71.323  1.00  0.00    -0.426 C  
BRANCH   5   6
HETATM    6  C   UNL     1     -11.672  10.886  70.070  1.00  0.00    -0.427 A  
HETATM    7  C   UNL     1     -11.237  10.273  68.890  1.00  0.00    -0.259 A  
HETATM    8  C   UNL     1     -11.169  11.005  67.704  1.00  0.00    -0.373 A  
HETATM    9  C   UNL     1     -11.533  12.351  67.692  1.00  0.00    -0.399 A  
HETATM   10  C   UNL     1     -11.974  12.965  68.865  1.00  0.00    -0.291 A  
HETATM   11  C   UNL     1     -12.043  12.234  70.053  1.00  0.00    -0.346 A  
ENDBRANCH   5   6
ENDBRANCH   2   4
TORSDOF 2
ENDMDL
MODEL       82
REMARK 921   NORMALIZED FREE ENERGY PREDICTED BY IDOCK:   -3.19 KCAL/MOL
REMARK 922        TOTAL FREE ENERGY PREDICTED BY IDOCK:   -3.70 KCAL/MOL
REMARK 923 INTER-LIGAND FREE ENERGY PREDICTED BY IDOCK:   -3.56 KCAL/MOL
REMARK 924 INTRA-LIGAND FREE ENERGY PREDICTED BY IDOCK:   -0.14 KCAL/MOL
REMARK 927      BINDING AFFINITY PREDICTED BY RF-SCORE:    0.00 PKD
ROOT
HETATM    1  O   UNL     1      -7.811  14.687  69.906  1.00  0.00    -0.409 OA 
HETATM    2  C   UNL     1      -7.913  15.914  69.204  1.00  0.00    -0.233 C  
HETATM    3  H   UNL     1      -7.236  14.830  70.648  1.00  0.00     0.000 HD 
ENDROOT
BRANCH   2   4
HETATM    4  C   UNL     1      -8.813  15.690  68.041  1.00  0.00    -0.169 C  
HETATM    5  C   UNL     1     -10.030  15.130  68.114  1.00  0.00    -0.221 C  
BRANCH   5   6
HETATM    6  C   UNL     1     -10.830  14.937  66.907  1.00  0.00    -0.319 A  
HETATM    7  C   UNL     1     -11.796  13.926  66.862  1.00  0.00    -0.453 A  
HETATM    8  C   UNL     1     -12.519  13.700  65.689  1.00  0.00    -0.540 A  
HETATM    9  C   UNL     1     -12.278  14.481  64.560  1.00  0.00    -0.483 A  
HETATM   10  C   UNL     1     -11.320  15.494  64.602  1.00  0.00    -0.363 A  
HETATM   11  C   UNL     1     -10.596  15.722  65.774  1.00  0.00    -0.369 A  
ENDBRANCH   5   6
ENDBRANCH   2   4
TORSDOF 2
ENDMDL
MODEL       83
REMARK 921   NORMALIZED FREE ENERGY PREDICTED BY IDOCK:   -3.18 KCAL/MOL
REMARK 922        TOTAL FREE ENERGY PREDICTED BY IDOCK:   -3.68 KCAL/MOL
REMARK 923 INTER-LIGAND FREE ENERGY PREDICTED BY IDOCK:   -3.55 KCAL/MOL
REMARK 924 INTRA-LIGAND FREE ENERGY PREDICTED BY IDOCK:   -0.13 KCAL/MOL
REMARK 927      BINDING AFFINITY PREDICTED BY RF-SCORE:    0.00 PKD
ROOT
HETATM    1  O   UNL     1      -7.707  11.843  69.186  1.00  0.00    -0.327 OA 
HETATM    2  C   UNL     1      -8.148  10.578  68.721  1.00  0.00    -0.131 C  
HETATM    3  H   UNL     1      -7.064  12.165  68.566  1.00  0.00     0.000 HD 
ENDROOT
BRANCH   2   4
HETATM    4  C   UNL     1      -9.157  10.073  69.692  1.00  0.00    -0.230 C  
HETATM    5  C   UNL     1     -10.439  10.464  69.733  1.00  0.00    -0.284 C  
BRANCH   5   6
HETATM    6  C   UNL     1     -11.347   9.919  70.740  1.00  0.00    -0.430 A  
HETATM    7  C   UNL     1     -11.012   8.743  71.420  1.00  0.00    -0.360 A  
HETATM    8  C   UNL     1     -11.904   8.186  72.338  1.00  0.00    -0.448 A  
HETATM    9  C   UNL     1     -13.132   8.800  72.578  1.00  0.00    -0.392 A  
HETATM   10  C   UNL     1     -13.468   9.977  71.907  1.00  0.00    -0.449 A  
HETATM   11  C   UNL     1     -12.577  10.535  70.988  1.00  0.00    -0.499 A  
ENDBRANCH   5   6
ENDBRANCH   2   4
TORSDOF 2
ENDMDL
MODEL       84
REMARK 921   NORMALIZED FREE ENERGY PREDICTED BY IDOCK:   -3.17 KCAL/MOL
REMARK 922        TOTAL FREE ENERGY PREDICTED BY IDOCK:   -3.68 KCAL/MOL
REMARK 923 INTER-LIGAND FREE ENERGY PREDICTED BY IDOCK:   -3.55 KCAL/MOL
REMARK 924 INTRA-LIGAND FREE ENERGY PREDICTED BY IDOCK:   -0.13 KCAL/MOL
REMARK 927      BINDING AFFINITY PREDICTED BY RF-SCORE:    0.00 PKD
ROOT
HETATM    1  O   UNL     1     -10.120   8.194  66.737  1.00  0.00    -0.254 OA 
HETATM    2  C   UNL     1     -10.309   9.307  67.596  1.00  0.00    -0.253 C  
HETATM    3  H   UNL     1      -9.918   7.444  67.284  1.00  0.00     0.000 HD 
ENDROOT
BRANCH   2   4
HETATM    4  C   UNL     1     -10.625  10.483  66.741  1.00  0.00    -0.284 C  
HETATM    5  C   UNL     1     -11.327  11.553  67.144  1.00  0.00    -0.354 C  
BRANCH   5   6
HETATM    6  C   UNL     1     -11.599  12.650  66.218  1.00  0.00    -0.440 A  
HETATM    7  C   UNL     1     -12.080  12.378  64.933  1.00  0.00    -0.470 A  
HETATM    8  C   UNL     1     -12.282  13.419  64.026  1.00  0.00    -0.466 A  
HETATM    9  C   UNL     1     -12.004  14.733  64.398  1.00  0.00    -0.433 A  
HETATM   10  C   UNL     1     -11.530  15.010  65.681  1.00  0.00    -0.248 A  
HETATM   11  C   UNL     1     -11.326  13.970  66.590  1.00  0.00    -0.345 A  
ENDBRANCH   5   6
ENDBRANCH   2   4
TORSDOF 2
ENDMDL
MODEL       85
REMARK 921   NORMALIZED FREE ENERGY PREDICTED BY IDOCK:   -3.15 KCAL/MOL
REMARK 922        TOTAL FREE ENERGY PREDICTED BY IDOCK:   -3.66 KCAL/MOL
REMARK 923 INTER-LIGAND FREE ENERGY PREDICTED BY IDOCK:   -3.52 KCAL/MOL
REMARK 924 INTRA-LIGAND FREE ENERGY PREDICTED BY IDOCK:   -0.13 KCAL/MOL
REMARK 927      BINDING AFFINITY PREDICTED BY RF-SCORE:    0.00 PKD
ROOT
HETATM    1  O   UNL     1      -9.085  14.654  69.465  1.00  0.00    -0.401 OA 
HETATM    2  C   UNL     1      -8.281  14.606  68.299  1.00  0.00    -0.146 C  
HETATM    3  H   UNL     1      -8.505  14.781  70.206  1.00  0.00     0.000 HD 
ENDROOT
BRANCH   2   4
HETATM    4  C   UNL     1      -9.190  14.407  67.137  1.00  0.00    -0.230 C  
HETATM    5  C   UNL     1      -9.838  13.264  66.863  1.00  0.00    -0.247 C  
BRANCH   5   6
HETATM    6  C   UNL     1     -10.696  13.165  65.685  1.00  0.00    -0.294 A  
HETATM    7  C   UNL     1     -10.726  11.981  64.940  1.00  0.00    -0.346 A  
HETATM    8  C   UNL     1     -11.497  11.904  63.779  1.00  0.00    -0.542 A  
HETATM    9  C   UNL     1     -12.237  13.008  63.358  1.00  0.00    -0.552 A  
HETATM   10  C   UNL     1     -12.215  14.188  64.101  1.00  0.00    -0.423 A  
HETATM   11  C   UNL     1     -11.444  14.268  65.262  1.00  0.00    -0.344 A  
ENDBRANCH   5   6
ENDBRANCH   2   4
TORSDOF 2
ENDMDL
MODEL       86
REMARK 921   NORMALIZED FREE ENERGY PREDICTED BY IDOCK:   -3.13 KCAL/MOL
REMARK 922        TOTAL FREE ENERGY PREDICTED BY IDOCK:   -3.63 KCAL/MOL
REMARK 923 INTER-LIGAND FREE ENERGY PREDICTED BY IDOCK:   -3.51 KCAL/MOL
REMARK 924 INTRA-LIGAND FREE ENERGY PREDICTED BY IDOCK:   -0.12 KCAL/MOL
REMARK 927      BINDING AFFINITY PREDICTED BY RF-SCORE:    0.00 PKD
ROOT
HETATM    1  O   UNL     1     -13.115   9.954  72.096  1.00  0.00    -0.427 OA 
HETATM    2  C   UNL     1     -12.796  11.157  71.418  1.00  0.00    -0.439 C  
HETATM    3  H   UNL     1     -13.405  10.188  72.970  1.00  0.00     0.000 HD 
ENDROOT
BRANCH   2   4
HETATM    4  C   UNL     1     -12.342  10.791  70.049  1.00  0.00    -0.371 C  
HETATM    5  C   UNL     1     -11.437  11.479  69.335  1.00  0.00    -0.376 C  
BRANCH   5   6
HETATM    6  C   UNL     1     -11.072  11.045  67.989  1.00  0.00    -0.343 A  
HETATM    7  C   UNL     1     -10.753   9.704  67.749  1.00  0.00    -0.316 A  
HETATM    8  C   UNL     1     -10.345   9.298  66.478  1.00  0.00    -0.270 A  
HETATM    9  C   UNL     1     -10.252  10.229  65.444  1.00  0.00    -0.312 A  
HETATM   10  C   UNL     1     -10.575  11.566  65.677  1.00  0.00    -0.326 A  
HETATM   11  C   UNL     1     -10.983  11.974  66.948  1.00  0.00    -0.328 A  
ENDBRANCH   5   6
ENDBRANCH   2   4
TORSDOF 2
ENDMDL
MODEL       87
REMARK 921   NORMALIZED FREE ENERGY PREDICTED BY IDOCK:   -3.13 KCAL/MOL
REMARK 922        TOTAL FREE ENERGY PREDICTED BY IDOCK:   -3.63 KCAL/MOL
REMARK 923 INTER-LIGAND FREE ENERGY PREDICTED BY IDOCK:   -3.50 KCAL/MOL
REMARK 924 INTRA-LIGAND FREE ENERGY PREDICTED BY IDOCK:   -0.13 KCAL/MOL
REMARK 927      BINDING AFFINITY PREDICTED BY RF-SCORE:    0.00 PKD
ROOT
HETATM    1  O   UNL     1     -12.281  10.883  68.237  1.00  0.00    -0.804 OA 
HETATM    2  C   UNL     1     -10.943  10.434  68.366  1.00  0.00    -0.264 C  
HETATM    3  H   UNL     1     -12.347  11.351  67.414  1.00  0.00     0.000 HD 
ENDROOT
BRANCH   2   4
HETATM    4  C   UNL     1     -10.840   9.700  69.657  1.00  0.00    -0.266 C  
HETATM    5  C   UNL     1     -10.693   8.372  69.769  1.00  0.00    -0.211 C  
BRANCH   5   6
HETATM    6  C   UNL     1     -10.620   7.744  71.087  1.00  0.00    -0.235 A  
HETATM    7  C   UNL     1     -11.252   6.517  71.313  1.00  0.00    -0.338 A  
HETATM    8  C   UNL     1     -11.236   5.945  72.586  1.00  0.00    -0.335 A  
HETATM    9  C   UNL     1     -10.591   6.598  73.636  1.00  0.00    -0.323 A  
HETATM   10  C   UNL     1      -9.954   7.819  73.414  1.00  0.00    -0.348 A  
HETATM   11  C   UNL     1      -9.969   8.392  72.141  1.00  0.00    -0.376 A  
ENDBRANCH   5   6
ENDBRANCH   2   4
TORSDOF 2
ENDMDL
MODEL       88
REMARK 921   NORMALIZED FREE ENERGY PREDICTED BY IDOCK:   -3.11 KCAL/MOL
REMARK 922        TOTAL FREE ENERGY PREDICTED BY IDOCK:   -3.60 KCAL/MOL
REMARK 923 INTER-LIGAND FREE ENERGY PREDICTED BY IDOCK:   -3.47 KCAL/MOL
REMARK 924 INTRA-LIGAND FREE ENERGY PREDICTED BY IDOCK:   -0.13 KCAL/MOL
REMARK 927      BINDING AFFINITY PREDICTED BY RF-SCORE:    0.00 PKD
ROOT
HETATM    1  O   UNL     1     -12.889   8.769  72.171  1.00  0.00    -0.350 OA 
HETATM    2  C   UNL     1     -13.706   9.898  72.437  1.00  0.00    -0.098 C  
HETATM    3  H   UNL     1     -13.160   8.077  72.761  1.00  0.00     0.000 HD 
ENDROOT
BRANCH   2   4
HETATM    4  C   UNL     1     -13.281  10.984  71.512  1.00  0.00    -0.400 C  
HETATM    5  C   UNL     1     -12.918  12.216  71.899  1.00  0.00    -0.419 C  
BRANCH   5   6
HETATM    6  C   UNL     1     -12.535  13.219  70.908  1.00  0.00    -0.424 A  
HETATM    7  C   UNL     1     -12.825  14.570  71.130  1.00  0.00    -0.408 A  
HETATM    8  C   UNL     1     -12.516  15.522  70.159  1.00  0.00    -0.351 A  
HETATM    9  C   UNL     1     -11.918  15.130  68.962  1.00  0.00    -0.295 A  
HETATM   10  C   UNL     1     -11.620  13.785  68.738  1.00  0.00    -0.363 A  
HETATM   11  C   UNL     1     -11.929  12.830  69.709  1.00  0.00    -0.362 A  
ENDBRANCH   5   6
ENDBRANCH   2   4
TORSDOF 2
ENDMDL
MODEL       89
REMARK 921   NORMALIZED FREE ENERGY PREDICTED BY IDOCK:   -3.10 KCAL/MOL
REMARK 922        TOTAL FREE ENERGY PREDICTED BY IDOCK:   -3.60 KCAL/MOL
REMARK 923 INTER-LIGAND FREE ENERGY PREDICTED BY IDOCK:   -3.47 KCAL/MOL
REMARK 924 INTRA-LIGAND FREE ENERGY PREDICTED BY IDOCK:   -0.14 KCAL/MOL
REMARK 927      BINDING AFFINITY PREDICTED BY RF-SCORE:    0.00 PKD
ROOT
HETATM    1  O   UNL     1      -9.321   7.435  74.487  1.00  0.00    -0.427 OA 
HETATM    2  C   UNL     1     -10.443   6.895  73.809  1.00  0.00    -0.357 C  
HETATM    3  H   UNL     1      -9.271   7.014  75.336  1.00  0.00     0.000 HD 
ENDROOT
BRANCH   2   4
HETATM    4  C   UNL     1     -10.521   7.555  72.478  1.00  0.00    -0.300 C  
HETATM    5  C   UNL     1     -11.151   8.715  72.237  1.00  0.00    -0.395 C  
BRANCH   5   6
HETATM    6  C   UNL     1     -11.186   9.272  70.887  1.00  0.00    -0.372 A  
HETATM    7  C   UNL     1     -10.664   8.540  69.815  1.00  0.00    -0.213 A  
HETATM    8  C   UNL     1     -10.640   9.094  68.534  1.00  0.00    -0.209 A  
HETATM    9  C   UNL     1     -11.135  10.379  68.320  1.00  0.00    -0.338 A  
HETATM   10  C   UNL     1     -11.662  11.111  69.385  1.00  0.00    -0.402 A  
HETATM   11  C   UNL     1     -11.687  10.559  70.667  1.00  0.00    -0.453 A  
ENDBRANCH   5   6
ENDBRANCH   2   4
TORSDOF 2
ENDMDL
MODEL       90
REMARK 921   NORMALIZED FREE ENERGY PREDICTED BY IDOCK:   -3.09 KCAL/MOL
REMARK 922        TOTAL FREE ENERGY PREDICTED BY IDOCK:   -3.59 KCAL/MOL
REMARK 923 INTER-LIGAND FREE ENERGY PREDICTED BY IDOCK:   -3.45 KCAL/MOL
REMARK 924 INTRA-LIGAND FREE ENERGY PREDICTED BY IDOCK:   -0.14 KCAL/MOL
REMARK 927      BINDING AFFINITY PREDICTED BY RF-SCORE:    0.00 PKD
ROOT
HETATM    1  O   UNL     1      -9.966   9.114  65.623  1.00  0.00    -0.447 OA 
HETATM    2  C   UNL     1      -9.016   9.736  66.471  1.00  0.00    -0.150 C  
HETATM    3  H   UNL     1      -9.486   8.587  64.995  1.00  0.00     0.000 HD 
ENDROOT
BRANCH   2   4
HETATM    4  C   UNL     1      -9.768  10.562  67.454  1.00  0.00    -0.190 C  
HETATM    5  C   UNL     1     -10.718  10.093  68.277  1.00  0.00    -0.277 C  
BRANCH   5   6
HETATM    6  C   UNL     1     -11.412  10.993  69.195  1.00  0.00    -0.370 A  
HETATM    7  C   UNL     1     -11.415  12.371  68.955  1.00  0.00    -0.352 A  
HETATM    8  C   UNL     1     -12.025  13.239  69.863  1.00  0.00    -0.400 A  
HETATM    9  C   UNL     1     -12.630  12.734  71.012  1.00  0.00    -0.362 A  
HETATM   10  C   UNL     1     -12.636  11.359  71.252  1.00  0.00    -0.480 A  
HETATM   11  C   UNL     1     -12.026  10.490  70.346  1.00  0.00    -0.425 A  
ENDBRANCH   5   6
ENDBRANCH   2   4
TORSDOF 2
ENDMDL
MODEL       91
REMARK 921   NORMALIZED FREE ENERGY PREDICTED BY IDOCK:   -3.07 KCAL/MOL
REMARK 922        TOTAL FREE ENERGY PREDICTED BY IDOCK:   -3.57 KCAL/MOL
REMARK 923 INTER-LIGAND FREE ENERGY PREDICTED BY IDOCK:   -3.43 KCAL/MOL
REMARK 924 INTRA-LIGAND FREE ENERGY PREDICTED BY IDOCK:   -0.13 KCAL/MOL
REMARK 927      BINDING AFFINITY PREDICTED BY RF-SCORE:    0.00 PKD
ROOT
HETATM    1  O   UNL     1     -12.736  16.133  72.528  1.00  0.00    -0.442 OA 
HETATM    2  C   UNL     1     -12.665  15.226  71.440  1.00  0.00    -0.392 C  
HETATM    3  H   UNL     1     -13.390  15.802  73.132  1.00  0.00     0.000 HD 
ENDROOT
BRANCH   2   4
HETATM    4  C   UNL     1     -11.641  15.744  70.493  1.00  0.00    -0.396 C  
HETATM    5  C   UNL     1     -11.820  15.871  69.170  1.00  0.00    -0.340 C  
BRANCH   5   6
HETATM    6  C   UNL     1     -10.741  16.374  68.323  1.00  0.00    -0.337 A  
HETATM    7  C   UNL     1     -10.494  15.782  67.079  1.00  0.00    -0.309 A  
HETATM    8  C   UNL     1      -9.426  16.220  66.294  1.00  0.00    -0.347 A  
HETATM    9  C   UNL     1      -8.601  17.247  66.749  1.00  0.00    -0.275 A  
HETATM   10  C   UNL     1      -8.847  17.844  67.986  1.00  0.00    -0.268 A  
HETATM   11  C   UNL     1      -9.915  17.408  68.773  1.00  0.00    -0.329 A  
ENDBRANCH   5   6
ENDBRANCH   2   4
TORSDOF 2
ENDMDL
MODEL       92
REMARK 921   NORMALIZED FREE ENERGY PREDICTED BY IDOCK:   -3.03 KCAL/MOL
REMARK 922        TOTAL FREE ENERGY PREDICTED BY IDOCK:   -3.52 KCAL/MOL
REMARK 923 INTER-LIGAND FREE ENERGY PREDICTED BY IDOCK:   -3.40 KCAL/MOL
REMARK 924 INTRA-LIGAND FREE ENERGY PREDICTED BY IDOCK:   -0.13 KCAL/MOL
REMARK 927      BINDING AFFINITY PREDICTED BY RF-SCORE:    0.00 PKD
ROOT
HETATM    1  O   UNL     1      -9.654  15.219  70.054  1.00  0.00    -0.458 OA 
HETATM    2  C   UNL     1      -9.694  15.639  68.701  1.00  0.00    -0.204 C  
HETATM    3  H   UNL     1     -10.254  14.489  70.144  1.00  0.00     0.000 HD 
ENDROOT
BRANCH   2   4
HETATM    4  C   UNL     1      -8.753  16.784  68.560  1.00  0.00    -0.245 C  
HETATM    5  C   UNL     1      -9.123  18.072  68.500  1.00  0.00    -0.293 C  
BRANCH   5   6
HETATM    6  C   UNL     1      -8.120  19.123  68.343  1.00  0.00    -0.378 A  
HETATM    7  C   UNL     1      -8.132  19.936  67.205  1.00  0.00    -0.341 A  
HETATM    8  C   UNL     1      -7.139  20.900  67.022  1.00  0.00    -0.379 A  
HETATM    9  C   UNL     1      -6.132  21.053  67.973  1.00  0.00    -0.398 A  
HETATM   10  C   UNL     1      -6.120  20.249  69.113  1.00  0.00    -0.370 A  
HETATM   11  C   UNL     1      -7.112  19.284  69.298  1.00  0.00    -0.333 A  
ENDBRANCH   5   6
ENDBRANCH   2   4
TORSDOF 2
ENDMDL
MODEL       93
REMARK 921   NORMALIZED FREE ENERGY PREDICTED BY IDOCK:   -3.00 KCAL/MOL
REMARK 922        TOTAL FREE ENERGY PREDICTED BY IDOCK:   -3.49 KCAL/MOL
REMARK 923 INTER-LIGAND FREE ENERGY PREDICTED BY IDOCK:   -3.35 KCAL/MOL
REMARK 924 INTRA-LIGAND FREE ENERGY PREDICTED BY IDOCK:   -0.14 KCAL/MOL
REMARK 927      BINDING AFFINITY PREDICTED BY RF-SCORE:    0.00 PKD
ROOT
HETATM    1  O   UNL     1     -10.566  10.893  66.100  1.00  0.00    -0.254 OA 
HETATM    2  C   UNL     1     -10.501  12.204  65.563  1.00  0.00    -0.265 C  
HETATM    3  H   UNL     1     -10.381  10.287  65.392  1.00  0.00     0.000 HD 
ENDROOT
BRANCH   2   4
HETATM    4  C   UNL     1     -10.790  13.155  66.671  1.00  0.00    -0.292 C  
HETATM    5  C   UNL     1     -11.498  12.853  67.770  1.00  0.00    -0.369 C  
BRANCH   5   6
HETATM    6  C   UNL     1     -11.741  13.867  68.794  1.00  0.00    -0.392 A  
HETATM    7  C   UNL     1     -11.640  15.225  68.472  1.00  0.00    -0.368 A  
HETATM    8  C   UNL     1     -11.812  16.194  69.461  1.00  0.00    -0.140 A  
HETATM    9  C   UNL     1     -12.083  15.810  70.774  1.00  0.00    -0.448 A  
HETATM   10  C   UNL     1     -12.191  14.458  71.098  1.00  0.00    -0.420 A  
HETATM   11  C   UNL     1     -12.019  13.487  70.110  1.00  0.00    -0.399 A  
ENDBRANCH   5   6
ENDBRANCH   2   4
TORSDOF 2
ENDMDL
MODEL       94
REMARK 921   NORMALIZED FREE ENERGY PREDICTED BY IDOCK:   -2.99 KCAL/MOL
REMARK 922        TOTAL FREE ENERGY PREDICTED BY IDOCK:   -3.47 KCAL/MOL
REMARK 923 INTER-LIGAND FREE ENERGY PREDICTED BY IDOCK:   -3.33 KCAL/MOL
REMARK 924 INTRA-LIGAND FREE ENERGY PREDICTED BY IDOCK:   -0.14 KCAL/MOL
REMARK 927      BINDING AFFINITY PREDICTED BY RF-SCORE:    0.00 PKD
ROOT
HETATM    1  O   UNL     1      -7.055  17.402  68.869  1.00  0.00    -0.235 OA 
HETATM    2  C   UNL     1      -8.237  18.031  68.402  1.00  0.00    -0.298 C  
HETATM    3  H   UNL     1      -6.615  18.015  69.445  1.00  0.00     0.000 HD 
ENDROOT
BRANCH   2   4
HETATM    4  C   UNL     1      -8.927  17.070  67.500  1.00  0.00    -0.220 C  
HETATM    5  C   UNL     1      -9.880  16.208  67.888  1.00  0.00    -0.235 C  
BRANCH   5   6
HETATM    6  C   UNL     1     -10.484  15.291  66.925  1.00  0.00    -0.289 A  
HETATM    7  C   UNL     1      -9.914  15.132  65.657  1.00  0.00    -0.387 A  
HETATM    8  C   UNL     1     -10.523  14.304  64.713  1.00  0.00    -0.421 A  
HETATM    9  C   UNL     1     -11.703  13.633  65.032  1.00  0.00    -0.354 A  
HETATM   10  C   UNL     1     -12.272  13.783  66.297  1.00  0.00    -0.489 A  
HETATM   11  C   UNL     1     -11.664  14.612  67.242  1.00  0.00    -0.406 A  
ENDBRANCH   5   6
ENDBRANCH   2   4
TORSDOF 2
ENDMDL
MODEL       95
REMARK 921   NORMALIZED FREE ENERGY PREDICTED BY IDOCK:   -2.97 KCAL/MOL
REMARK 922        TOTAL FREE ENERGY PREDICTED BY IDOCK:   -3.45 KCAL/MOL
REMARK 923 INTER-LIGAND FREE ENERGY PREDICTED BY IDOCK:   -3.33 KCAL/MOL
REMARK 924 INTRA-LIGAND FREE ENERGY PREDICTED BY IDOCK:   -0.12 KCAL/MOL
REMARK 927      BINDING AFFINITY PREDICTED BY RF-SCORE:    0.00 PKD
ROOT
HETATM    1  O   UNL     1     -11.059  14.741  70.432  1.00  0.00    -0.411 OA 
HETATM    2  C   UNL     1     -10.644  14.356  69.132  1.00  0.00    -0.218 C  
HETATM    3  H   UNL     1     -11.242  13.946  70.919  1.00  0.00     0.000 HD 
ENDROOT
BRANCH   2   4
HETATM    4  C   UNL     1     -10.358  15.601  68.368  1.00  0.00    -0.231 C  
HETATM    5  C   UNL     1      -9.733  16.677  68.870  1.00  0.00    -0.255 C  
BRANCH   5   6
HETATM    6  C   UNL     1      -9.516  17.860  68.040  1.00  0.00    -0.279 A  
HETATM    7  C   UNL     1      -8.495  17.865  67.084  1.00  0.00    -0.242 A  
HETATM    8  C   UNL     1      -8.245  19.014  66.332  1.00  0.00    -0.314 A  
HETATM    9  C   UNL     1      -9.011  20.161  66.534  1.00  0.00    -0.392 A  
HETATM   10  C   UNL     1     -10.034  20.159  67.483  1.00  0.00    -0.571 A  
HETATM   11  C   UNL     1     -10.286  19.010  68.236  1.00  0.00    -0.415 A  
ENDBRANCH   5   6
ENDBRANCH   2   4
TORSDOF 2
ENDMDL
MODEL       96
REMARK 921   NORMALIZED FREE ENERGY PREDICTED BY IDOCK:   -2.90 KCAL/MOL
REMARK 922        TOTAL FREE ENERGY PREDICTED BY IDOCK:   -3.37 KCAL/MOL
REMARK 923 INTER-LIGAND FREE ENERGY PREDICTED BY IDOCK:   -3.24 KCAL/MOL
REMARK 924 INTRA-LIGAND FREE ENERGY PREDICTED BY IDOCK:   -0.13 KCAL/MOL
REMARK 927      BINDING AFFINITY PREDICTED BY RF-SCORE:    0.00 PKD
ROOT
HETATM    1  O   UNL     1      -9.745   8.387  65.538  1.00  0.00    -0.396 OA 
HETATM    2  C   UNL     1      -8.779   9.115  66.278  1.00  0.00    -0.140 C  
HETATM    3  H   UNL     1      -9.335   7.581  65.250  1.00  0.00     0.000 HD 
ENDROOT
BRANCH   2   4
HETATM    4  C   UNL     1      -9.422  10.379  66.730  1.00  0.00    -0.198 C  
HETATM    5  C   UNL     1     -10.708  10.493  67.096  1.00  0.00    -0.323 C  
BRANCH   5   6
HETATM    6  C   UNL     1     -11.248  11.787  67.507  1.00  0.00    -0.354 A  
HETATM    7  C   UNL     1     -11.538  12.761  66.546  1.00  0.00    -0.435 A  
HETATM    8  C   UNL     1     -11.996  14.019  66.940  1.00  0.00    -0.479 A  
HETATM    9  C   UNL     1     -12.163  14.309  68.293  1.00  0.00    -0.181 A  
HETATM   10  C   UNL     1     -11.882  13.338  69.255  1.00  0.00    -0.383 A  
HETATM   11  C   UNL     1     -11.423  12.079  68.863  1.00  0.00    -0.356 A  
ENDBRANCH   5   6
ENDBRANCH   2   4
TORSDOF 2
ENDMDL
MODEL       97
REMARK 921   NORMALIZED FREE ENERGY PREDICTED BY IDOCK:   -2.89 KCAL/MOL
REMARK 922        TOTAL FREE ENERGY PREDICTED BY IDOCK:   -3.37 KCAL/MOL
REMARK 923 INTER-LIGAND FREE ENERGY PREDICTED BY IDOCK:   -3.24 KCAL/MOL
REMARK 924 INTRA-LIGAND FREE ENERGY PREDICTED BY IDOCK:   -0.12 KCAL/MOL
REMARK 927      BINDING AFFINITY PREDICTED BY RF-SCORE:    0.00 PKD
ROOT
HETATM    1  O   UNL     1      -9.097   3.299  70.361  1.00  0.00    -0.094 OA 
HETATM    2  C   UNL     1      -9.507   4.252  69.394  1.00  0.00    -0.186 C  
HETATM    3  H   UNL     1      -8.795   2.530  69.892  1.00  0.00     0.000 HD 
ENDROOT
BRANCH   2   4
HETATM    4  C   UNL     1      -9.980   5.457  70.128  1.00  0.00    -0.301 C  
HETATM    5  C   UNL     1     -11.177   6.037  69.952  1.00  0.00    -0.438 C  
BRANCH   5   6
HETATM    6  C   UNL     1     -11.539   7.232  70.711  1.00  0.00    -0.334 A  
HETATM    7  C   UNL     1     -12.766   7.290  71.381  1.00  0.00    -0.427 A  
HETATM    8  C   UNL     1     -13.141   8.452  72.056  1.00  0.00    -0.379 A  
HETATM    9  C   UNL     1     -12.295   9.559  72.062  1.00  0.00    -0.404 A  
HETATM   10  C   UNL     1     -11.067   9.504  71.402  1.00  0.00    -0.438 A  
HETATM   11  C   UNL     1     -10.690   8.342  70.726  1.00  0.00    -0.244 A  
ENDBRANCH   5   6
ENDBRANCH   2   4
TORSDOF 2
ENDMDL
MODEL       98
REMARK 921   NORMALIZED FREE ENERGY PREDICTED BY IDOCK:   -2.88 KCAL/MOL
REMARK 922        TOTAL FREE ENERGY PREDICTED BY IDOCK:   -3.35 KCAL/MOL
REMARK 923 INTER-LIGAND FREE ENERGY PREDICTED BY IDOCK:   -3.22 KCAL/MOL
REMARK 924 INTRA-LIGAND FREE ENERGY PREDICTED BY IDOCK:   -0.13 KCAL/MOL
REMARK 927      BINDING AFFINITY PREDICTED BY RF-SCORE:    0.00 PKD
ROOT
HETATM    1  O   UNL     1     -10.377  19.952  68.661  1.00  0.00    -0.496 OA 
HETATM    2  C   UNL     1     -10.069  18.697  68.079  1.00  0.00    -0.375 C  
HETATM    3  H   UNL     1      -9.890  20.614  68.184  1.00  0.00     0.000 HD 
ENDROOT
BRANCH   2   4
HETATM    4  C   UNL     1     -10.832  17.660  68.826  1.00  0.00     0.083 C  
HETATM    5  C   UNL     1     -10.469  16.372  68.929  1.00  0.00    -0.285 C  
BRANCH   5   6
HETATM    6  C   UNL     1     -11.299  15.427  69.672  1.00  0.00    -0.315 A  
HETATM    7  C   UNL     1     -11.311  14.074  69.315  1.00  0.00    -0.318 A  
HETATM    8  C   UNL     1     -12.149  13.181  69.983  1.00  0.00    -0.375 A  
HETATM    9  C   UNL     1     -12.977  13.634  71.008  1.00  0.00    -0.303 A  
HETATM   10  C   UNL     1     -12.964  14.981  71.373  1.00  0.00    -0.445 A  
HETATM   11  C   UNL     1     -12.127  15.877  70.705  1.00  0.00    -0.393 A  
ENDBRANCH   5   6
ENDBRANCH   2   4
TORSDOF 2
ENDMDL
MODEL       99
REMARK 921   NORMALIZED FREE ENERGY PREDICTED BY IDOCK:   -2.88 KCAL/MOL
REMARK 922        TOTAL FREE ENERGY PREDICTED BY IDOCK:   -3.35 KCAL/MOL
REMARK 923 INTER-LIGAND FREE ENERGY PREDICTED BY IDOCK:   -3.21 KCAL/MOL
REMARK 924 INTRA-LIGAND FREE ENERGY PREDICTED BY IDOCK:   -0.13 KCAL/MOL
REMARK 927      BINDING AFFINITY PREDICTED BY RF-SCORE:    0.00 PKD
ROOT
HETATM    1  O   UNL     1      -9.712   9.755  63.834  1.00  0.00    -0.454 OA 
HETATM    2  C   UNL     1      -9.966  10.058  65.196  1.00  0.00    -0.280 C  
HETATM    3  H   UNL     1      -9.693   8.809  63.752  1.00  0.00     0.000 HD 
ENDROOT
BRANCH   2   4
HETATM    4  C   UNL     1      -9.996  11.540  65.325  1.00  0.00    -0.302 C  
HETATM    5  C   UNL     1     -10.369  12.202  66.431  1.00  0.00    -0.246 C  
BRANCH   5   6
HETATM    6  C   UNL     1     -10.381  13.663  66.450  1.00  0.00    -0.286 A  
HETATM    7  C   UNL     1     -10.584  14.346  67.654  1.00  0.00    -0.260 A  
HETATM    8  C   UNL     1     -10.657  15.739  67.666  1.00  0.00    -0.301 A  
HETATM    9  C   UNL     1     -10.529  16.455  66.476  1.00  0.00    -0.282 A  
HETATM   10  C   UNL     1     -10.319  15.779  65.274  1.00  0.00    -0.387 A  
HETATM   11  C   UNL     1     -10.247  14.385  65.260  1.00  0.00    -0.416 A  
ENDBRANCH   5   6
ENDBRANCH   2   4
TORSDOF 2
ENDMDL
MODEL      100
REMARK 921   NORMALIZED FREE ENERGY PREDICTED BY IDOCK:   -2.82 KCAL/MOL
REMARK 922        TOTAL FREE ENERGY PREDICTED BY IDOCK:   -3.29 KCAL/MOL
REMARK 923 INTER-LIGAND FREE ENERGY PREDICTED BY IDOCK:   -3.15 KCAL/MOL
REMARK 924 INTRA-LIGAND FREE ENERGY PREDICTED BY IDOCK:   -0.14 KCAL/MOL
REMARK 927      BINDING AFFINITY PREDICTED BY RF-SCORE:    0.00 PKD
ROOT
HETATM    1  O   UNL     1      -6.354  11.429  65.748  1.00  0.00    -0.359 OA 
HETATM    2  C   UNL     1      -7.043  11.383  66.986  1.00  0.00    -0.138 C  
HETATM    3  H   UNL     1      -5.530  10.971  65.863  1.00  0.00     0.000 HD 
ENDROOT
BRANCH   2   4
HETATM    4  C   UNL     1      -8.333  12.103  66.805  1.00  0.00    -0.111 C  
HETATM    5  C   UNL     1      -9.233  11.828  65.848  1.00  0.00    -0.178 C  
BRANCH   5   6
HETATM    6  C   UNL     1     -10.464  12.607  65.745  1.00  0.00    -0.299 A  
HETATM    7  C   UNL     1     -10.985  12.929  64.487  1.00  0.00    -0.377 A  
HETATM    8  C   UNL     1     -12.127  13.725  64.385  1.00  0.00    -0.474 A  
HETATM    9  C   UNL     1     -12.750  14.203  65.536  1.00  0.00    -0.468 A  
HETATM   10  C   UNL     1     -12.239  13.879  66.793  1.00  0.00    -0.438 A  
HETATM   11  C   UNL     1     -11.096  13.083  66.898  1.00  0.00    -0.306 A  
ENDBRANCH   5   6
ENDBRANCH   2   4
TORSDOF 2
ENDMDL
MODEL      101
REMARK 921   NORMALIZED FREE ENERGY PREDICTED BY IDOCK:   -2.82 KCAL/MOL
REMARK 922        TOTAL FREE ENERGY PREDICTED BY IDOCK:   -3.28 KCAL/MOL
REMARK 923 INTER-LIGAND FREE ENERGY PREDICTED BY IDOCK:   -3.17 KCAL/MOL
REMARK 924 INTRA-LIGAND FREE ENERGY PREDICTED BY IDOCK:   -0.12 KCAL/MOL
REMARK 927      BINDING AFFINITY PREDICTED BY RF-SCORE:    0.00 PKD
ROOT
HETATM    1  O   UNL     1      -8.918  10.152  69.429  1.00  0.00    -0.177 OA 
HETATM    2  C   UNL     1     -10.290  10.497  69.352  1.00  0.00    -0.234 C  
HETATM    3  H   UNL     1      -8.803   9.609  70.199  1.00  0.00     0.000 HD 
ENDROOT
BRANCH   2   4
HETATM    4  C   UNL     1     -10.470  11.348  68.144  1.00  0.00    -0.212 C  
HETATM    5  C   UNL     1     -10.966  12.595  68.156  1.00  0.00    -0.265 C  
BRANCH   5   6
HETATM    6  C   UNL     1     -11.120  13.341  66.910  1.00  0.00    -0.310 A  
HETATM    7  C   UNL     1     -10.220  14.364  66.591  1.00  0.00    -0.277 A  
HETATM    8  C   UNL     1     -10.400  15.119  65.432  1.00  0.00    -0.415 A  
HETATM    9  C   UNL     1     -11.479  14.858  64.589  1.00  0.00    -0.380 A  
HETATM   10  C   UNL     1     -12.375  13.835  64.898  1.00  0.00    -0.435 A  
HETATM   11  C   UNL     1     -12.197  13.078  66.058  1.00  0.00    -0.463 A  
ENDBRANCH   5   6
ENDBRANCH   2   4
TORSDOF 2
ENDMDL
MODEL      102
REMARK 921   NORMALIZED FREE ENERGY PREDICTED BY IDOCK:   -2.79 KCAL/MOL
REMARK 922        TOTAL FREE ENERGY PREDICTED BY IDOCK:   -3.25 KCAL/MOL
REMARK 923 INTER-LIGAND FREE ENERGY PREDICTED BY IDOCK:   -3.11 KCAL/MOL
REMARK 924 INTRA-LIGAND FREE ENERGY PREDICTED BY IDOCK:   -0.14 KCAL/MOL
REMARK 927      BINDING AFFINITY PREDICTED BY RF-SCORE:    0.00 PKD
ROOT
HETATM    1  O   UNL     1     -10.163  19.650  69.039  1.00  0.00    -0.586 OA 
HETATM    2  C   UNL     1      -9.151  19.098  68.213  1.00  0.00    -0.338 C  
HETATM    3  H   UNL     1     -10.069  20.595  69.011  1.00  0.00     0.000 HD 
ENDROOT
BRANCH   2   4
HETATM    4  C   UNL     1      -9.298  17.618  68.256  1.00  0.00    -0.290 C  
HETATM    5  C   UNL     1     -10.469  16.970  68.343  1.00  0.00    -0.370 C  
BRANCH   5   6
HETATM    6  C   UNL     1     -10.504  15.510  68.397  1.00  0.00    -0.240 A  
HETATM    7  C   UNL     1      -9.312  14.785  68.492  1.00  0.00    -0.199 A  
HETATM    8  C   UNL     1      -9.338  13.390  68.483  1.00  0.00    -0.097 A  
HETATM    9  C   UNL     1     -10.553  12.715  68.376  1.00  0.00    -0.258 A  
HETATM   10  C   UNL     1     -11.745  13.433  68.287  1.00  0.00    -0.391 A  
HETATM   11  C   UNL     1     -11.722  14.830  68.297  1.00  0.00    -0.340 A  
ENDBRANCH   5   6
ENDBRANCH   2   4
TORSDOF 2
ENDMDL
MODEL      103
REMARK 921   NORMALIZED FREE ENERGY PREDICTED BY IDOCK:   -2.77 KCAL/MOL
REMARK 922        TOTAL FREE ENERGY PREDICTED BY IDOCK:   -3.23 KCAL/MOL
REMARK 923 INTER-LIGAND FREE ENERGY PREDICTED BY IDOCK:   -3.10 KCAL/MOL
REMARK 924 INTRA-LIGAND FREE ENERGY PREDICTED BY IDOCK:   -0.12 KCAL/MOL
REMARK 927      BINDING AFFINITY PREDICTED BY RF-SCORE:    0.00 PKD
ROOT
HETATM    1  O   UNL     1     -12.194  12.157  66.250  1.00  0.00    -0.604 OA 
HETATM    2  C   UNL     1     -11.464  11.950  67.447  1.00  0.00    -0.323 C  
HETATM    3  H   UNL     1     -12.200  13.090  66.077  1.00  0.00     0.000 HD 
ENDROOT
BRANCH   2   4
HETATM    4  C   UNL     1     -11.454  10.487  67.718  1.00  0.00    -0.143 C  
HETATM    5  C   UNL     1     -10.386   9.797  68.145  1.00  0.00    -0.241 C  
BRANCH   5   6
HETATM    6  C   UNL     1     -10.476   8.355  68.364  1.00  0.00    -0.208 A  
HETATM    7  C   UNL     1     -10.629   7.490  67.276  1.00  0.00    -0.394 A  
HETATM    8  C   UNL     1     -10.776   6.119  67.486  1.00  0.00    -0.393 A  
HETATM    9  C   UNL     1     -10.774   5.607  68.783  1.00  0.00    -0.267 A  
HETATM   10  C   UNL     1     -10.616   6.465  69.872  1.00  0.00    -0.298 A  
HETATM   11  C   UNL     1     -10.468   7.838  69.663  1.00  0.00    -0.229 A  
ENDBRANCH   5   6
ENDBRANCH   2   4
TORSDOF 2
ENDMDL
MODEL      104
REMARK 921   NORMALIZED FREE ENERGY PREDICTED BY IDOCK:   -2.76 KCAL/MOL
REMARK 922        TOTAL FREE ENERGY PREDICTED BY IDOCK:   -3.22 KCAL/MOL
REMARK 923 INTER-LIGAND FREE ENERGY PREDICTED BY IDOCK:   -3.10 KCAL/MOL
REMARK 924 INTRA-LIGAND FREE ENERGY PREDICTED BY IDOCK:   -0.13 KCAL/MOL
REMARK 927      BINDING AFFINITY PREDICTED BY RF-SCORE:    0.00 PKD
ROOT
HETATM    1  O   UNL     1      -9.635   9.080  65.418  1.00  0.00    -0.447 OA 
HETATM    2  C   UNL     1     -10.088  10.134  66.252  1.00  0.00    -0.238 C  
HETATM    3  H   UNL     1      -9.303   9.472  64.619  1.00  0.00     0.000 HD 
ENDROOT
BRANCH   2   4
HETATM    4  C   UNL     1     -10.609   9.520  67.503  1.00  0.00    -0.338 C  
HETATM    5  C   UNL     1      -9.887   8.753  68.335  1.00  0.00    -0.189 C  
BRANCH   5   6
HETATM    6  C   UNL     1     -10.499   8.182  69.532  1.00  0.00    -0.227 A  
HETATM    7  C   UNL     1     -10.780   6.812  69.588  1.00  0.00    -0.290 A  
HETATM    8  C   UNL     1     -11.420   6.274  70.705  1.00  0.00    -0.383 A  
HETATM    9  C   UNL     1     -11.783   7.100  71.768  1.00  0.00    -0.324 A  
HETATM   10  C   UNL     1     -11.499   8.465  71.719  1.00  0.00    -0.365 A  
HETATM   11  C   UNL     1     -10.859   9.006  70.603  1.00  0.00    -0.295 A  
ENDBRANCH   5   6
ENDBRANCH   2   4
TORSDOF 2
ENDMDL
MODEL      105
REMARK 921   NORMALIZED FREE ENERGY PREDICTED BY IDOCK:   -2.75 KCAL/MOL
REMARK 922        TOTAL FREE ENERGY PREDICTED BY IDOCK:   -3.21 KCAL/MOL
REMARK 923 INTER-LIGAND FREE ENERGY PREDICTED BY IDOCK:   -3.08 KCAL/MOL
REMARK 924 INTRA-LIGAND FREE ENERGY PREDICTED BY IDOCK:   -0.13 KCAL/MOL
REMARK 927      BINDING AFFINITY PREDICTED BY RF-SCORE:    0.00 PKD
ROOT
HETATM    1  O   UNL     1     -10.838  17.896  65.153  1.00  0.00    -0.672 OA 
HETATM    2  C   UNL     1     -10.444  16.886  66.066  1.00  0.00    -0.290 C  
HETATM    3  H   UNL     1     -11.412  17.492  64.513  1.00  0.00     0.000 HD 
ENDROOT
BRANCH   2   4
HETATM    4  C   UNL     1      -9.544  17.518  67.070  1.00  0.00    -0.268 C  
HETATM    5  C   UNL     1      -8.266  17.166  67.278  1.00  0.00    -0.206 C  
BRANCH   5   6
HETATM    6  C   UNL     1      -7.471  17.839  68.303  1.00  0.00    -0.247 A  
HETATM    7  C   UNL     1      -7.648  19.206  68.540  1.00  0.00    -0.369 A  
HETATM    8  C   UNL     1      -6.848  19.864  69.475  1.00  0.00    -0.313 A  
HETATM    9  C   UNL     1      -5.869  19.160  70.174  1.00  0.00    -0.263 A  
HETATM   10  C   UNL     1      -5.693  17.795  69.946  1.00  0.00    -0.249 A  
HETATM   11  C   UNL     1      -6.493  17.135  69.011  1.00  0.00    -0.208 A  
ENDBRANCH   5   6
ENDBRANCH   2   4
TORSDOF 2
ENDMDL
MODEL      106
REMARK 921   NORMALIZED FREE ENERGY PREDICTED BY IDOCK:   -2.75 KCAL/MOL
REMARK 922        TOTAL FREE ENERGY PREDICTED BY IDOCK:   -3.21 KCAL/MOL
REMARK 923 INTER-LIGAND FREE ENERGY PREDICTED BY IDOCK:   -3.09 KCAL/MOL
REMARK 924 INTRA-LIGAND FREE ENERGY PREDICTED BY IDOCK:   -0.12 KCAL/MOL
REMARK 927      BINDING AFFINITY PREDICTED BY RF-SCORE:    0.00 PKD
ROOT
HETATM    1  O   UNL     1      -7.325  15.537  67.799  1.00  0.00    -0.129 OA 
HETATM    2  C   UNL     1      -8.474  15.078  67.108  1.00  0.00    -0.218 C  
HETATM    3  H   UNL     1      -6.819  16.064  67.192  1.00  0.00     0.000 HD 
ENDROOT
BRANCH   2   4
HETATM    4  C   UNL     1      -9.267  14.252  68.059  1.00  0.00    -0.192 C  
HETATM    5  C   UNL     1     -10.606  14.180  68.075  1.00  0.00    -0.241 C  
BRANCH   5   6
HETATM    6  C   UNL     1     -11.291  13.352  69.064  1.00  0.00    -0.335 A  
HETATM    7  C   UNL     1     -11.964  13.952  70.134  1.00  0.00    -0.402 A  
HETATM    8  C   UNL     1     -12.567  13.162  71.114  1.00  0.00    -0.403 A  
HETATM    9  C   UNL     1     -12.499  11.772  71.029  1.00  0.00    -0.411 A  
HETATM   10  C   UNL     1     -11.835  11.169  69.961  1.00  0.00    -0.441 A  
HETATM   11  C   UNL     1     -11.231  11.958  68.979  1.00  0.00    -0.316 A  
ENDBRANCH   5   6
ENDBRANCH   2   4
TORSDOF 2
ENDMDL
MODEL      107
REMARK 921   NORMALIZED FREE ENERGY PREDICTED BY IDOCK:   -2.75 KCAL/MOL
REMARK 922        TOTAL FREE ENERGY PREDICTED BY IDOCK:   -3.21 KCAL/MOL
REMARK 923 INTER-LIGAND FREE ENERGY PREDICTED BY IDOCK:   -3.08 KCAL/MOL
REMARK 924 INTRA-LIGAND FREE ENERGY PREDICTED BY IDOCK:   -0.13 KCAL/MOL
REMARK 927      BINDING AFFINITY PREDICTED BY RF-SCORE:    0.00 PKD
ROOT
HETATM    1  O   UNL     1      -7.333  14.376  70.036  1.00  0.00    -0.389 OA 
HETATM    2  C   UNL     1      -7.090  14.250  68.645  1.00  0.00    -0.111 C  
HETATM    3  H   UNL     1      -6.490  14.450  70.467  1.00  0.00     0.000 HD 
ENDROOT
BRANCH   2   4
HETATM    4  C   UNL     1      -8.411  14.135  67.970  1.00  0.00    -0.160 C  
HETATM    5  C   UNL     1      -8.697  13.253  67.000  1.00  0.00    -0.192 C  
BRANCH   5   6
HETATM    6  C   UNL     1     -10.023  13.233  66.387  1.00  0.00    -0.288 A  
HETATM    7  C   UNL     1     -11.111  13.807  67.054  1.00  0.00    -0.313 A  
HETATM    8  C   UNL     1     -12.389  13.735  66.499  1.00  0.00    -0.432 A  
HETATM    9  C   UNL     1     -12.586  13.089  65.279  1.00  0.00    -0.516 A  
HETATM   10  C   UNL     1     -11.504  12.521  64.607  1.00  0.00    -0.377 A  
HETATM   11  C   UNL     1     -10.223  12.591  65.161  1.00  0.00    -0.299 A  
ENDBRANCH   5   6
ENDBRANCH   2   4
TORSDOF 2
ENDMDL
MODEL      108
REMARK 921   NORMALIZED FREE ENERGY PREDICTED BY IDOCK:   -2.75 KCAL/MOL
REMARK 922        TOTAL FREE ENERGY PREDICTED BY IDOCK:   -3.21 KCAL/MOL
REMARK 923 INTER-LIGAND FREE ENERGY PREDICTED BY IDOCK:   -3.07 KCAL/MOL
REMARK 924 INTRA-LIGAND FREE ENERGY PREDICTED BY IDOCK:   -0.13 KCAL/MOL
REMARK 927      BINDING AFFINITY PREDICTED BY RF-SCORE:    0.00 PKD
ROOT
HETATM    1  O   UNL     1      -6.816  14.864  69.311  1.00  0.00    -0.124 OA 
HETATM    2  C   UNL     1      -7.895  15.594  68.752  1.00  0.00    -0.169 C  
HETATM    3  H   UNL     1      -6.021  15.158  68.882  1.00  0.00     0.000 HD 
ENDROOT
BRANCH   2   4
HETATM    4  C   UNL     1      -9.141  15.134  69.425  1.00  0.00    -0.180 C  
HETATM    5  C   UNL     1     -10.084  15.948  69.923  1.00  0.00    -0.191 C  
BRANCH   5   6
HETATM    6  C   UNL     1     -11.264  15.395  70.582  1.00  0.00    -0.370 A  
HETATM    7  C   UNL     1     -12.046  16.205  71.413  1.00  0.00    -0.384 A  
HETATM    8  C   UNL     1     -13.138  15.665  72.093  1.00  0.00    -0.540 A  
HETATM    9  C   UNL     1     -13.452  14.315  71.947  1.00  0.00    -0.485 A  
HETATM   10  C   UNL     1     -12.681  13.504  71.115  1.00  0.00    -0.425 A  
HETATM   11  C   UNL     1     -11.587  14.042  70.434  1.00  0.00    -0.206 A  
ENDBRANCH   5   6
ENDBRANCH   2   4
TORSDOF 2
ENDMDL
MODEL      109
REMARK 921   NORMALIZED FREE ENERGY PREDICTED BY IDOCK:   -2.75 KCAL/MOL
REMARK 922        TOTAL FREE ENERGY PREDICTED BY IDOCK:   -3.21 KCAL/MOL
REMARK 923 INTER-LIGAND FREE ENERGY PREDICTED BY IDOCK:   -3.07 KCAL/MOL
REMARK 924 INTRA-LIGAND FREE ENERGY PREDICTED BY IDOCK:   -0.13 KCAL/MOL
REMARK 927      BINDING AFFINITY PREDICTED BY RF-SCORE:    0.00 PKD
ROOT
HETATM    1  O   UNL     1      -8.501   8.247  66.257  1.00  0.00    -0.116 OA 
HETATM    2  C   UNL     1      -9.621   7.986  67.086  1.00  0.00    -0.175 C  
HETATM    3  H   UNL     1      -8.196   7.413  65.921  1.00  0.00     0.000 HD 
ENDROOT
BRANCH   2   4
HETATM    4  C   UNL     1     -10.100   9.293  67.613  1.00  0.00    -0.266 C  
HETATM    5  C   UNL     1     -10.699  10.240  66.875  1.00  0.00    -0.252 C  
BRANCH   5   6
HETATM    6  C   UNL     1     -11.116  11.500  67.486  1.00  0.00    -0.329 A  
HETATM    7  C   UNL     1     -11.269  11.588  68.874  1.00  0.00    -0.308 A  
HETATM    8  C   UNL     1     -11.727  12.771  69.455  1.00  0.00    -0.380 A  
HETATM    9  C   UNL     1     -12.035  13.869  68.652  1.00  0.00    -0.401 A  
HETATM   10  C   UNL     1     -11.878  13.788  67.269  1.00  0.00    -0.436 A  
HETATM   11  C   UNL     1     -11.421  12.605  66.685  1.00  0.00    -0.409 A  
ENDBRANCH   5   6
ENDBRANCH   2   4
TORSDOF 2
ENDMDL
MODEL      110
REMARK 921   NORMALIZED FREE ENERGY PREDICTED BY IDOCK:   -2.74 KCAL/MOL
REMARK 922        TOTAL FREE ENERGY PREDICTED BY IDOCK:   -3.20 KCAL/MOL
REMARK 923 INTER-LIGAND FREE ENERGY PREDICTED BY IDOCK:   -3.07 KCAL/MOL
REMARK 924 INTRA-LIGAND FREE ENERGY PREDICTED BY IDOCK:   -0.13 KCAL/MOL
REMARK 927      BINDING AFFINITY PREDICTED BY RF-SCORE:    0.00 PKD
ROOT
HETATM    1  O   UNL     1      -9.678   3.407  66.778  1.00  0.00    -0.391 OA 
HETATM    2  C   UNL     1      -9.234   3.217  68.111  1.00  0.00    -0.195 C  
HETATM    3  H   UNL     1      -9.336   2.690  66.259  1.00  0.00     0.000 HD 
ENDROOT
BRANCH   2   4
HETATM    4  C   UNL     1      -9.770   4.341  68.926  1.00  0.00    -0.195 C  
HETATM    5  C   UNL     1      -9.823   4.355  70.266  1.00  0.00    -0.284 C  
BRANCH   5   6
HETATM    6  C   UNL     1     -10.386   5.503  70.972  1.00  0.00    -0.307 A  
HETATM    7  C   UNL     1      -9.964   5.801  72.273  1.00  0.00    -0.197 A  
HETATM    8  C   UNL     1     -10.544   6.860  72.972  1.00  0.00    -0.307 A  
HETATM    9  C   UNL     1     -11.547   7.623  72.377  1.00  0.00    -0.386 A  
HETATM   10  C   UNL     1     -11.966   7.335  71.078  1.00  0.00    -0.362 A  
HETATM   11  C   UNL     1     -11.388   6.276  70.377  1.00  0.00    -0.440 A  
ENDBRANCH   5   6
ENDBRANCH   2   4
TORSDOF 2
ENDMDL
MODEL      111
REMARK 921   NORMALIZED FREE ENERGY PREDICTED BY IDOCK:   -2.73 KCAL/MOL
REMARK 922        TOTAL FREE ENERGY PREDICTED BY IDOCK:   -3.19 KCAL/MOL
REMARK 923 INTER-LIGAND FREE ENERGY PREDICTED BY IDOCK:   -3.07 KCAL/MOL
REMARK 924 INTRA-LIGAND FREE ENERGY PREDICTED BY IDOCK:   -0.12 KCAL/MOL
REMARK 927      BINDING AFFINITY PREDICTED BY RF-SCORE:    0.00 PKD
ROOT
HETATM    1  O   UNL     1      -9.925   5.753  66.054  1.00  0.00    -0.354 OA 
HETATM    2  C   UNL     1     -11.103   6.016  66.797  1.00  0.00    -0.118 C  
HETATM    3  H   UNL     1     -10.190   5.542  65.167  1.00  0.00     0.000 HD 
ENDROOT
BRANCH   2   4
HETATM    4  C   UNL     1     -10.689   6.347  68.188  1.00  0.00    -0.359 C  
HETATM    5  C   UNL     1     -11.529   6.460  69.228  1.00  0.00    -0.318 C  
BRANCH   5   6
HETATM    6  C   UNL     1     -11.022   6.807  70.554  1.00  0.00    -0.327 A  
HETATM    7  C   UNL     1     -10.874   5.815  71.528  1.00  0.00    -0.316 A  
HETATM    8  C   UNL     1     -10.448   6.153  72.814  1.00  0.00    -0.240 A  
HETATM    9  C   UNL     1     -10.172   7.482  73.130  1.00  0.00    -0.382 A  
HETATM   10  C   UNL     1     -10.313   8.475  72.160  1.00  0.00    -0.409 A  
HETATM   11  C   UNL     1     -10.738   8.138  70.873  1.00  0.00    -0.246 A  
ENDBRANCH   5   6
ENDBRANCH   2   4
TORSDOF 2
ENDMDL
MODEL      112
REMARK 921   NORMALIZED FREE ENERGY PREDICTED BY IDOCK:   -2.71 KCAL/MOL
REMARK 922        TOTAL FREE ENERGY PREDICTED BY IDOCK:   -3.16 KCAL/MOL
REMARK 923 INTER-LIGAND FREE ENERGY PREDICTED BY IDOCK:   -3.05 KCAL/MOL
REMARK 924 INTRA-LIGAND FREE ENERGY PREDICTED BY IDOCK:   -0.12 KCAL/MOL
REMARK 927      BINDING AFFINITY PREDICTED BY RF-SCORE:    0.00 PKD
ROOT
HETATM    1  O   UNL     1     -12.142  12.087  66.912  1.00  0.00    -0.608 OA 
HETATM    2  C   UNL     1     -11.058  11.223  66.613  1.00  0.00    -0.235 C  
HETATM    3  H   UNL     1     -12.163  12.759  66.241  1.00  0.00     0.000 HD 
ENDROOT
BRANCH   2   4
HETATM    4  C   UNL     1     -11.025  10.169  67.664  1.00  0.00    -0.331 C  
HETATM    5  C   UNL     1     -10.331   9.025  67.575  1.00  0.00    -0.328 C  
BRANCH   5   6
HETATM    6  C   UNL     1     -10.379   8.044  68.657  1.00  0.00    -0.224 A  
HETATM    7  C   UNL     1      -9.924   8.390  69.934  1.00  0.00    -0.190 A  
HETATM    8  C   UNL     1      -9.912   7.438  70.954  1.00  0.00    -0.184 A  
HETATM    9  C   UNL     1     -10.351   6.139  70.702  1.00  0.00    -0.268 A  
HETATM   10  C   UNL     1     -10.811   5.791  69.432  1.00  0.00    -0.393 A  
HETATM   11  C   UNL     1     -10.824   6.742  68.409  1.00  0.00    -0.284 A  
ENDBRANCH   5   6
ENDBRANCH   2   4
TORSDOF 2
ENDMDL
MODEL      113
REMARK 921   NORMALIZED FREE ENERGY PREDICTED BY IDOCK:   -2.66 KCAL/MOL
REMARK 922        TOTAL FREE ENERGY PREDICTED BY IDOCK:   -3.11 KCAL/MOL
REMARK 923 INTER-LIGAND FREE ENERGY PREDICTED BY IDOCK:   -2.99 KCAL/MOL
REMARK 924 INTRA-LIGAND FREE ENERGY PREDICTED BY IDOCK:   -0.12 KCAL/MOL
REMARK 927      BINDING AFFINITY PREDICTED BY RF-SCORE:    0.00 PKD
ROOT
HETATM    1  O   UNL     1     -12.940  10.260  70.077  1.00  0.00    -0.568 OA 
HETATM    2  C   UNL     1     -11.941  10.939  70.819  1.00  0.00    -0.346 C  
HETATM    3  H   UNL     1     -13.014   9.384  70.434  1.00  0.00     0.000 HD 
ENDROOT
BRANCH   2   4
HETATM    4  C   UNL     1     -11.824  12.313  70.259  1.00  0.00    -0.324 C  
HETATM    5  C   UNL     1     -10.836  12.727  69.451  1.00  0.00     0.053 C  
BRANCH   5   6
HETATM    6  C   UNL     1     -10.803  14.105  68.969  1.00  0.00    -0.273 A  
HETATM    7  C   UNL     1     -10.781  14.365  67.595  1.00  0.00    -0.263 A  
HETATM    8  C   UNL     1     -10.688  15.678  67.131  1.00  0.00    -0.314 A  
HETATM    9  C   UNL     1     -10.615  16.735  68.038  1.00  0.00    -0.347 A  
HETATM   10  C   UNL     1     -10.643  16.481  69.409  1.00  0.00    -0.329 A  
HETATM   11  C   UNL     1     -10.736  15.168  69.875  1.00  0.00    -0.274 A  
ENDBRANCH   5   6
ENDBRANCH   2   4
TORSDOF 2
ENDMDL
MODEL      114
REMARK 921   NORMALIZED FREE ENERGY PREDICTED BY IDOCK:   -2.65 KCAL/MOL
REMARK 922        TOTAL FREE ENERGY PREDICTED BY IDOCK:   -3.09 KCAL/MOL
REMARK 923 INTER-LIGAND FREE ENERGY PREDICTED BY IDOCK:   -2.97 KCAL/MOL
REMARK 924 INTRA-LIGAND FREE ENERGY PREDICTED BY IDOCK:   -0.12 KCAL/MOL
REMARK 927      BINDING AFFINITY PREDICTED BY RF-SCORE:    0.00 PKD
ROOT
HETATM    1  O   UNL     1     -10.616  19.280  69.268  1.00  0.00    -0.356 OA 
HETATM    2  C   UNL     1      -9.952  18.093  68.866  1.00  0.00    -0.338 C  
HETATM    3  H   UNL     1     -11.393  19.022  69.749  1.00  0.00     0.000 HD 
ENDROOT
BRANCH   2   4
HETATM    4  C   UNL     1      -8.734  18.497  68.112  1.00  0.00    -0.330 C  
HETATM    5  C   UNL     1      -8.697  19.463  67.182  1.00  0.00    -0.332 C  
BRANCH   5   6
HETATM    6  C   UNL     1      -7.451  19.771  66.484  1.00  0.00    -0.284 A  
HETATM    7  C   UNL     1      -6.834  21.013  66.670  1.00  0.00    -0.287 A  
HETATM    8  C   UNL     1      -5.677  21.334  65.958  1.00  0.00    -0.277 A  
HETATM    9  C   UNL     1      -5.135  20.418  65.058  1.00  0.00    -0.192 A  
HETATM   10  C   UNL     1      -5.743  19.176  64.874  1.00  0.00    -0.285 A  
HETATM   11  C   UNL     1      -6.901  18.853  65.585  1.00  0.00    -0.292 A  
ENDBRANCH   5   6
ENDBRANCH   2   4
TORSDOF 2
ENDMDL
MODEL      115
REMARK 921   NORMALIZED FREE ENERGY PREDICTED BY IDOCK:   -2.65 KCAL/MOL
REMARK 922        TOTAL FREE ENERGY PREDICTED BY IDOCK:   -3.09 KCAL/MOL
REMARK 923 INTER-LIGAND FREE ENERGY PREDICTED BY IDOCK:   -2.96 KCAL/MOL
REMARK 924 INTRA-LIGAND FREE ENERGY PREDICTED BY IDOCK:   -0.13 KCAL/MOL
REMARK 927      BINDING AFFINITY PREDICTED BY RF-SCORE:    0.00 PKD
ROOT
HETATM    1  O   UNL     1     -12.591   8.290  72.639  1.00  0.00    -0.582 OA 
HETATM    2  C   UNL     1     -12.121   8.271  71.301  1.00  0.00    -0.280 C  
HETATM    3  H   UNL     1     -13.026   9.123  72.776  1.00  0.00     0.000 HD 
ENDROOT
BRANCH   2   4
HETATM    4  C   UNL     1     -11.439   6.965  71.087  1.00  0.00    -0.347 C  
HETATM    5  C   UNL     1     -10.961   6.539  69.908  1.00  0.00    -0.393 C  
BRANCH   5   6
HETATM    6  C   UNL     1     -10.322   5.230  69.799  1.00  0.00    -0.369 A  
HETATM    7  C   UNL     1      -9.979   4.721  68.542  1.00  0.00    -0.160 A  
HETATM    8  C   UNL     1      -9.424   3.445  68.430  1.00  0.00    -0.209 A  
HETATM    9  C   UNL     1      -9.213   2.674  69.571  1.00  0.00    -0.197 A  
HETATM   10  C   UNL     1      -9.547   3.179  70.828  1.00  0.00    -0.219 A  
HETATM   11  C   UNL     1     -10.102   4.455  70.942  1.00  0.00    -0.199 A  
ENDBRANCH   5   6
ENDBRANCH   2   4
TORSDOF 2
ENDMDL
MODEL      116
REMARK 921   NORMALIZED FREE ENERGY PREDICTED BY IDOCK:   -2.64 KCAL/MOL
REMARK 922        TOTAL FREE ENERGY PREDICTED BY IDOCK:   -3.08 KCAL/MOL
REMARK 923 INTER-LIGAND FREE ENERGY PREDICTED BY IDOCK:   -2.95 KCAL/MOL
REMARK 924 INTRA-LIGAND FREE ENERGY PREDICTED BY IDOCK:   -0.13 KCAL/MOL
REMARK 927      BINDING AFFINITY PREDICTED BY RF-SCORE:    0.00 PKD
ROOT
HETATM    1  O   UNL     1     -10.642  19.860  65.728  1.00  0.00    -0.507 OA 
HETATM    2  C   UNL     1     -10.833  19.578  67.104  1.00  0.00    -0.437 C  
HETATM    3  H   UNL     1     -11.448  20.242  65.401  1.00  0.00     0.000 HD 
ENDROOT
BRANCH   2   4
HETATM    4  C   UNL     1      -9.571  18.978  67.616  1.00  0.00    -0.362 C  
HETATM    5  C   UNL     1      -9.479  17.772  68.197  1.00  0.00    -0.282 C  
BRANCH   5   6
HETATM    6  C   UNL     1      -8.192  17.281  68.683  1.00  0.00    -0.262 A  
HETATM    7  C   UNL     1      -8.026  15.922  68.972  1.00  0.00    -0.222 A  
HETATM    8  C   UNL     1      -6.817  15.460  69.495  1.00  0.00    -0.181 A  
HETATM    9  C   UNL     1      -5.773  16.353  69.732  1.00  0.00    -0.179 A  
HETATM   10  C   UNL     1      -5.932  17.708  69.440  1.00  0.00    -0.235 A  
HETATM   11  C   UNL     1      -7.140  18.172  68.917  1.00  0.00    -0.282 A  
ENDBRANCH   5   6
ENDBRANCH   2   4
TORSDOF 2
ENDMDL
MODEL      117
REMARK 921   NORMALIZED FREE ENERGY PREDICTED BY IDOCK:   -2.61 KCAL/MOL
REMARK 922        TOTAL FREE ENERGY PREDICTED BY IDOCK:   -3.05 KCAL/MOL
REMARK 923 INTER-LIGAND FREE ENERGY PREDICTED BY IDOCK:   -2.92 KCAL/MOL
REMARK 924 INTRA-LIGAND FREE ENERGY PREDICTED BY IDOCK:   -0.12 KCAL/MOL
REMARK 927      BINDING AFFINITY PREDICTED BY RF-SCORE:    0.00 PKD
ROOT
HETATM    1  O   UNL     1     -12.568  14.397  69.568  1.00  0.00    -0.545 OA 
HETATM    2  C   UNL     1     -12.472  13.230  70.368  1.00  0.00    -0.225 C  
HETATM    3  H   UNL     1     -13.070  15.037  70.058  1.00  0.00     0.000 HD 
ENDROOT
BRANCH   2   4
HETATM    4  C   UNL     1     -11.686  12.226  69.602  1.00  0.00    -0.386 C  
HETATM    5  C   UNL     1     -11.514  10.948  69.971  1.00  0.00    -0.411 C  
BRANCH   5   6
HETATM    6  C   UNL     1     -10.706  10.044  69.155  1.00  0.00    -0.244 A  
HETATM    7  C   UNL     1     -10.961   9.923  67.785  1.00  0.00    -0.278 A  
HETATM    8  C   UNL     1     -10.232   9.016  67.014  1.00  0.00    -0.336 A  
HETATM    9  C   UNL     1      -9.249   8.227  67.609  1.00  0.00    -0.150 A  
HETATM   10  C   UNL     1      -8.986   8.349  68.974  1.00  0.00    -0.147 A  
HETATM   11  C   UNL     1      -9.715   9.256  69.747  1.00  0.00    -0.202 A  
ENDBRANCH   5   6
ENDBRANCH   2   4
TORSDOF 2
ENDMDL
MODEL      118
REMARK 921   NORMALIZED FREE ENERGY PREDICTED BY IDOCK:   -2.58 KCAL/MOL
REMARK 922        TOTAL FREE ENERGY PREDICTED BY IDOCK:   -3.01 KCAL/MOL
REMARK 923 INTER-LIGAND FREE ENERGY PREDICTED BY IDOCK:   -2.88 KCAL/MOL
REMARK 924 INTRA-LIGAND FREE ENERGY PREDICTED BY IDOCK:   -0.13 KCAL/MOL
REMARK 927      BINDING AFFINITY PREDICTED BY RF-SCORE:    0.00 PKD
ROOT
HETATM    1  O   UNL     1     -13.410  13.309  64.793  1.00  0.00    -0.461 OA 
HETATM    2  C   UNL     1     -12.296  12.454  64.993  1.00  0.00    -0.369 C  
HETATM    3  H   UNL     1     -14.020  12.853  64.227  1.00  0.00     0.000 HD 
ENDROOT
BRANCH   2   4
HETATM    4  C   UNL     1     -11.339  13.168  65.881  1.00  0.00    -0.338 C  
HETATM    5  C   UNL     1     -11.615  13.577  67.129  1.00  0.00    -0.393 C  
BRANCH   5   6
HETATM    6  C   UNL     1     -10.608  14.288  67.914  1.00  0.00    -0.240 A  
HETATM    7  C   UNL     1     -10.874  15.576  68.390  1.00  0.00    -0.273 A  
HETATM    8  C   UNL     1      -9.893  16.282  69.087  1.00  0.00    -0.258 A  
HETATM    9  C   UNL     1      -8.643  15.704  69.310  1.00  0.00    -0.262 A  
HETATM   10  C   UNL     1      -8.376  14.417  68.843  1.00  0.00    -0.080 A  
HETATM   11  C   UNL     1      -9.356  13.710  68.145  1.00  0.00    -0.212 A  
ENDBRANCH   5   6
ENDBRANCH   2   4
TORSDOF 2
ENDMDL
MODEL      119
REMARK 921   NORMALIZED FREE ENERGY PREDICTED BY IDOCK:   -2.56 KCAL/MOL
REMARK 922        TOTAL FREE ENERGY PREDICTED BY IDOCK:   -2.99 KCAL/MOL
REMARK 923 INTER-LIGAND FREE ENERGY PREDICTED BY IDOCK:   -2.87 KCAL/MOL
REMARK 924 INTRA-LIGAND FREE ENERGY PREDICTED BY IDOCK:   -0.12 KCAL/MOL
REMARK 927      BINDING AFFINITY PREDICTED BY RF-SCORE:    0.00 PKD
ROOT
HETATM    1  O   UNL     1     -13.238  10.136  72.393  1.00  0.00    -0.559 OA 
HETATM    2  C   UNL     1     -12.959  11.286  71.613  1.00  0.00    -0.432 C  
HETATM    3  H   UNL     1     -13.907  10.374  73.023  1.00  0.00     0.000 HD 
ENDROOT
BRANCH   2   4
HETATM    4  C   UNL     1     -11.909  10.913  70.627  1.00  0.00    -0.453 C  
HETATM    5  C   UNL     1     -11.290   9.723  70.585  1.00  0.00    -0.401 C  
BRANCH   5   6
HETATM    6  C   UNL     1     -10.257   9.462  69.585  1.00  0.00    -0.225 A  
HETATM    7  C   UNL     1     -10.502   8.558  68.545  1.00  0.00    -0.205 A  
HETATM    8  C   UNL     1      -9.497   8.261  67.624  1.00  0.00    -0.176 A  
HETATM    9  C   UNL     1      -8.244   8.862  67.739  1.00  0.00    -0.110 A  
HETATM   10  C   UNL     1      -7.997   9.769  68.770  1.00  0.00    -0.087 A  
HETATM   11  C   UNL     1      -9.002  10.068  69.693  1.00  0.00    -0.221 A  
ENDBRANCH   5   6
ENDBRANCH   2   4
TORSDOF 2
ENDMDL
MODEL      120
REMARK 921   NORMALIZED FREE ENERGY PREDICTED BY IDOCK:   -2.53 KCAL/MOL
REMARK 922        TOTAL FREE ENERGY PREDICTED BY IDOCK:   -2.96 KCAL/MOL
REMARK 923 INTER-LIGAND FREE ENERGY PREDICTED BY IDOCK:   -2.82 KCAL/MOL
REMARK 924 INTRA-LIGAND FREE ENERGY PREDICTED BY IDOCK:   -0.14 KCAL/MOL
REMARK 927      BINDING AFFINITY PREDICTED BY RF-SCORE:    0.00 PKD
ROOT
HETATM    1  O   UNL     1      -7.828  12.394  66.804  1.00  0.00    -0.376 OA 
HETATM    2  C   UNL     1      -8.556  12.473  68.017  1.00  0.00    -0.185 C  
HETATM    3  H   UNL     1      -7.501  13.265  66.611  1.00  0.00     0.000 HD 
ENDROOT
BRANCH   2   4
HETATM    4  C   UNL     1      -9.069  11.109  68.320  1.00  0.00    -0.162 C  
HETATM    5  C   UNL     1      -9.587  10.269  67.411  1.00  0.00    -0.183 C  
BRANCH   5   6
HETATM    6  C   UNL     1     -10.080   8.955  67.815  1.00  0.00    -0.263 A  
HETATM    7  C   UNL     1     -10.115   8.606  69.169  1.00  0.00    -0.203 A  
HETATM    8  C   UNL     1     -10.528   7.330  69.554  1.00  0.00    -0.238 A  
HETATM    9  C   UNL     1     -10.905   6.398  68.589  1.00  0.00    -0.379 A  
HETATM   10  C   UNL     1     -10.879   6.743  67.237  1.00  0.00    -0.443 A  
HETATM   11  C   UNL     1     -10.466   8.019  66.850  1.00  0.00    -0.387 A  
ENDBRANCH   5   6
ENDBRANCH   2   4
TORSDOF 2
ENDMDL
MODEL      121
REMARK 921   NORMALIZED FREE ENERGY PREDICTED BY IDOCK:   -2.52 KCAL/MOL
REMARK 922        TOTAL FREE ENERGY PREDICTED BY IDOCK:   -2.95 KCAL/MOL
REMARK 923 INTER-LIGAND FREE ENERGY PREDICTED BY IDOCK:   -2.83 KCAL/MOL
REMARK 924 INTRA-LIGAND FREE ENERGY PREDICTED BY IDOCK:   -0.11 KCAL/MOL
REMARK 927      BINDING AFFINITY PREDICTED BY RF-SCORE:    0.00 PKD
ROOT
HETATM    1  O   UNL     1     -11.715  10.224  71.606  1.00  0.00    -0.255 OA 
HETATM    2  C   UNL     1     -11.377   9.497  70.437  1.00  0.00    -0.264 C  
HETATM    3  H   UNL     1     -12.044  11.071  71.328  1.00  0.00     0.000 HD 
ENDROOT
BRANCH   2   4
HETATM    4  C   UNL     1     -10.861   8.170  70.871  1.00  0.00    -0.254 C  
HETATM    5  C   UNL     1     -11.571   7.031  70.849  1.00  0.00    -0.370 C  
BRANCH   5   6
HETATM    6  C   UNL     1     -10.977   5.780  71.315  1.00  0.00    -0.299 A  
HETATM    7  C   UNL     1     -10.249   4.979  70.429  1.00  0.00    -0.324 A  
HETATM    8  C   UNL     1      -9.732   3.754  70.855  1.00  0.00    -0.248 A  
HETATM    9  C   UNL     1      -9.942   3.326  72.165  1.00  0.00    -0.231 A  
HETATM   10  C   UNL     1     -10.661   4.125  73.054  1.00  0.00    -0.256 A  
HETATM   11  C   UNL     1     -11.179   5.350  72.630  1.00  0.00    -0.333 A  
ENDBRANCH   5   6
ENDBRANCH   2   4
TORSDOF 2
ENDMDL
MODEL      122
REMARK 921   NORMALIZED FREE ENERGY PREDICTED BY IDOCK:   -2.50 KCAL/MOL
REMARK 922        TOTAL FREE ENERGY PREDICTED BY IDOCK:   -2.92 KCAL/MOL
REMARK 923 INTER-LIGAND FREE ENERGY PREDICTED BY IDOCK:   -2.80 KCAL/MOL
REMARK 924 INTRA-LIGAND FREE ENERGY PREDICTED BY IDOCK:   -0.13 KCAL/MOL
REMARK 927      BINDING AFFINITY PREDICTED BY RF-SCORE:    0.00 PKD
ROOT
HETATM    1  O   UNL     1     -11.807   8.727  72.343  1.00  0.00    -0.357 OA 
HETATM    2  C   UNL     1     -10.447   8.649  71.950  1.00  0.00    -0.340 C  
HETATM    3  H   UNL     1     -11.832   8.682  73.291  1.00  0.00     0.000 HD 
ENDROOT
BRANCH   2   4
HETATM    4  C   UNL     1     -10.407   8.718  70.463  1.00  0.00    -0.241 C  
HETATM    5  C   UNL     1     -10.116   9.823  69.759  1.00  0.00    -0.268 C  
BRANCH   5   6
HETATM    6  C   UNL     1     -10.121   9.791  68.298  1.00  0.00    -0.189 A  
HETATM    7  C   UNL     1      -9.638   8.665  67.621  1.00  0.00    -0.190 A  
HETATM    8  C   UNL     1      -9.585   8.656  66.227  1.00  0.00    -0.322 A  
HETATM    9  C   UNL     1     -10.012   9.769  65.505  1.00  0.00    -0.329 A  
HETATM   10  C   UNL     1     -10.501  10.891  66.175  1.00  0.00    -0.290 A  
HETATM   11  C   UNL     1     -10.554  10.903  67.570  1.00  0.00    -0.271 A  
ENDBRANCH   5   6
ENDBRANCH   2   4
TORSDOF 2
ENDMDL
MODEL      123
REMARK 921   NORMALIZED FREE ENERGY PREDICTED BY IDOCK:   -2.50 KCAL/MOL
REMARK 922        TOTAL FREE ENERGY PREDICTED BY IDOCK:   -2.92 KCAL/MOL
REMARK 923 INTER-LIGAND FREE ENERGY PREDICTED BY IDOCK:   -2.79 KCAL/MOL
REMARK 924 INTRA-LIGAND FREE ENERGY PREDICTED BY IDOCK:   -0.14 KCAL/MOL
REMARK 927      BINDING AFFINITY PREDICTED BY RF-SCORE:    0.00 PKD
ROOT
HETATM    1  O   UNL     1      -7.814  11.724  66.247  1.00  0.00    -0.376 OA 
HETATM    2  C   UNL     1      -8.153  11.021  67.431  1.00  0.00    -0.122 C  
HETATM    3  H   UNL     1      -7.193  11.189  65.767  1.00  0.00     0.000 HD 
ENDROOT
BRANCH   2   4
HETATM    4  C   UNL     1      -9.125  11.859  68.184  1.00  0.00    -0.190 C  
HETATM    5  C   UNL     1      -9.587  13.050  67.772  1.00  0.00    -0.208 C  
BRANCH   5   6
HETATM    6  C   UNL     1     -10.528  13.804  68.597  1.00  0.00    -0.245 A  
HETATM    7  C   UNL     1     -11.541  13.135  69.291  1.00  0.00    -0.370 A  
HETATM    8  C   UNL     1     -12.479  13.858  70.030  1.00  0.00    -0.325 A  
HETATM    9  C   UNL     1     -12.408  15.249  70.077  1.00  0.00    -0.366 A  
HETATM   10  C   UNL     1     -11.396  15.921  69.391  1.00  0.00    -0.349 A  
HETATM   11  C   UNL     1     -10.457  15.199  68.651  1.00  0.00    -0.234 A  
ENDBRANCH   5   6
ENDBRANCH   2   4
TORSDOF 2
ENDMDL
MODEL      124
REMARK 921   NORMALIZED FREE ENERGY PREDICTED BY IDOCK:   -2.45 KCAL/MOL
REMARK 922        TOTAL FREE ENERGY PREDICTED BY IDOCK:   -2.87 KCAL/MOL
REMARK 923 INTER-LIGAND FREE ENERGY PREDICTED BY IDOCK:   -2.74 KCAL/MOL
REMARK 924 INTRA-LIGAND FREE ENERGY PREDICTED BY IDOCK:   -0.13 KCAL/MOL
REMARK 927      BINDING AFFINITY PREDICTED BY RF-SCORE:    0.00 PKD
ROOT
HETATM    1  O   UNL     1      -8.396  10.806  69.417  1.00  0.00    -0.331 OA 
HETATM    2  C   UNL     1      -9.767  10.714  69.068  1.00  0.00    -0.202 C  
HETATM    3  H   UNL     1      -8.178  10.030  69.920  1.00  0.00     0.000 HD 
ENDROOT
BRANCH   2   4
HETATM    4  C   UNL     1     -10.109  11.929  68.280  1.00  0.00    -0.203 C  
HETATM    5  C   UNL     1      -9.241  12.901  67.961  1.00  0.00    -0.212 C  
BRANCH   5   6
HETATM    6  C   UNL     1      -9.683  14.065  67.197  1.00  0.00    -0.242 A  
HETATM    7  C   UNL     1     -10.480  13.895  66.060  1.00  0.00    -0.299 A  
HETATM    8  C   UNL     1     -10.853  15.000  65.293  1.00  0.00    -0.399 A  
HETATM    9  C   UNL     1     -10.430  16.277  65.658  1.00  0.00    -0.386 A  
HETATM   10  C   UNL     1      -9.641  16.453  66.795  1.00  0.00    -0.263 A  
HETATM   11  C   UNL     1      -9.267  15.349  67.563  1.00  0.00    -0.201 A  
ENDBRANCH   5   6
ENDBRANCH   2   4
TORSDOF 2
ENDMDL
MODEL      125
REMARK 921   NORMALIZED FREE ENERGY PREDICTED BY IDOCK:   -2.43 KCAL/MOL
REMARK 922        TOTAL FREE ENERGY PREDICTED BY IDOCK:   -2.85 KCAL/MOL
REMARK 923 INTER-LIGAND FREE ENERGY PREDICTED BY IDOCK:   -2.72 KCAL/MOL
REMARK 924 INTRA-LIGAND FREE ENERGY PREDICTED BY IDOCK:   -0.13 KCAL/MOL
REMARK 927      BINDING AFFINITY PREDICTED BY RF-SCORE:    0.00 PKD
ROOT
HETATM    1  O   UNL     1     -11.514   2.848  73.496  1.00  0.00    -0.214 OA 
HETATM    2  C   UNL     1     -10.843   3.890  74.184  1.00  0.00    -0.165 C  
HETATM    3  H   UNL     1     -11.428   2.060  74.018  1.00  0.00     0.000 HD 
ENDROOT
BRANCH   2   4
HETATM    4  C   UNL     1     -10.977   5.126  73.365  1.00  0.00    -0.381 C  
HETATM    5  C   UNL     1     -10.197   5.436  72.318  1.00  0.00    -0.244 C  
BRANCH   5   6
HETATM    6  C   UNL     1     -10.400   6.685  71.589  1.00  0.00    -0.227 A  
HETATM    7  C   UNL     1     -10.577   7.883  72.290  1.00  0.00    -0.331 A  
HETATM    8  C   UNL     1     -10.831   9.068  71.599  1.00  0.00    -0.437 A  
HETATM    9  C   UNL     1     -10.913   9.061  70.207  1.00  0.00    -0.274 A  
HETATM   10  C   UNL     1     -10.731   7.870  69.503  1.00  0.00    -0.195 A  
HETATM   11  C   UNL     1     -10.476   6.683  70.193  1.00  0.00    -0.248 A  
ENDBRANCH   5   6
ENDBRANCH   2   4
TORSDOF 2
ENDMDL
MODEL      126
REMARK 921   NORMALIZED FREE ENERGY PREDICTED BY IDOCK:   -2.42 KCAL/MOL
REMARK 922        TOTAL FREE ENERGY PREDICTED BY IDOCK:   -2.84 KCAL/MOL
REMARK 923 INTER-LIGAND FREE ENERGY PREDICTED BY IDOCK:   -2.71 KCAL/MOL
REMARK 924 INTRA-LIGAND FREE ENERGY PREDICTED BY IDOCK:   -0.13 KCAL/MOL
REMARK 927      BINDING AFFINITY PREDICTED BY RF-SCORE:    0.00 PKD
ROOT
HETATM    1  O   UNL     1      -7.960   4.036  70.960  1.00  0.00    -0.061 OA 
HETATM    2  C   UNL     1      -9.114   3.670  71.696  1.00  0.00    -0.113 C  
HETATM    3  H   UNL     1      -7.401   3.271  70.906  1.00  0.00     0.000 HD 
ENDROOT
BRANCH   2   4
HETATM    4  C   UNL     1      -9.990   4.870  71.780  1.00  0.00    -0.252 C  
HETATM    5  C   UNL     1     -10.288   5.671  70.747  1.00  0.00    -0.310 C  
BRANCH   5   6
HETATM    6  C   UNL     1     -11.145   6.838  70.939  1.00  0.00    -0.322 A  
HETATM    7  C   UNL     1     -10.598   8.125  70.886  1.00  0.00    -0.236 A  
HETATM    8  C   UNL     1     -11.403   9.239  71.130  1.00  0.00    -0.412 A  
HETATM    9  C   UNL     1     -12.754   9.072  71.428  1.00  0.00    -0.361 A  
HETATM   10  C   UNL     1     -13.306   7.792  71.475  1.00  0.00    -0.365 A  
HETATM   11  C   UNL     1     -12.502   6.676  71.232  1.00  0.00    -0.284 A  
ENDBRANCH   5   6
ENDBRANCH   2   4
TORSDOF 2
ENDMDL
MODEL      127
REMARK 921   NORMALIZED FREE ENERGY PREDICTED BY IDOCK:   -2.41 KCAL/MOL
REMARK 922        TOTAL FREE ENERGY PREDICTED BY IDOCK:   -2.83 KCAL/MOL
REMARK 923 INTER-LIGAND FREE ENERGY PREDICTED BY IDOCK:   -2.70 KCAL/MOL
REMARK 924 INTRA-LIGAND FREE ENERGY PREDICTED BY IDOCK:   -0.13 KCAL/MOL
REMARK 927      BINDING AFFINITY PREDICTED BY RF-SCORE:    0.00 PKD
ROOT
HETATM    1  O   UNL     1      -8.043   6.952  66.171  1.00  0.00    -0.105 OA 
HETATM    2  C   UNL     1      -9.160   7.784  66.434  1.00  0.00    -0.175 C  
HETATM    3  H   UNL     1      -7.763   7.124  65.280  1.00  0.00     0.000 HD 
ENDROOT
BRANCH   2   4
HETATM    4  C   UNL     1      -9.599   7.514  67.831  1.00  0.00    -0.161 C  
HETATM    5  C   UNL     1     -10.466   8.272  68.518  1.00  0.00    -0.199 C  
BRANCH   5   6
HETATM    6  C   UNL     1     -10.818   7.931  69.894  1.00  0.00    -0.221 A  
HETATM    7  C   UNL     1     -10.522   8.819  70.933  1.00  0.00    -0.278 A  
HETATM    8  C   UNL     1     -10.801   8.470  72.255  1.00  0.00    -0.418 A  
HETATM    9  C   UNL     1     -11.375   7.232  72.543  1.00  0.00    -0.338 A  
HETATM   10  C   UNL     1     -11.679   6.346  71.510  1.00  0.00    -0.369 A  
HETATM   11  C   UNL     1     -11.400   6.693  70.187  1.00  0.00    -0.440 A  
ENDBRANCH   5   6
ENDBRANCH   2   4
TORSDOF 2
ENDMDL
MODEL      128
REMARK 921   NORMALIZED FREE ENERGY PREDICTED BY IDOCK:   -2.39 KCAL/MOL
REMARK 922        TOTAL FREE ENERGY PREDICTED BY IDOCK:   -2.81 KCAL/MOL
REMARK 923 INTER-LIGAND FREE ENERGY PREDICTED BY IDOCK:   -2.67 KCAL/MOL
REMARK 924 INTRA-LIGAND FREE ENERGY PREDICTED BY IDOCK:   -0.13 KCAL/MOL
REMARK 927      BINDING AFFINITY PREDICTED BY RF-SCORE:    0.00 PKD
ROOT
HETATM    1  O   UNL     1      -6.369  10.004  70.045  1.00  0.00    -0.057 OA 
HETATM    2  C   UNL     1      -7.507  10.527  69.382  1.00  0.00    -0.141 C  
HETATM    3  H   UNL     1      -5.618  10.515  69.768  1.00  0.00     0.000 HD 
ENDROOT
BRANCH   2   4
HETATM    4  C   UNL     1      -8.684   9.727  69.816  1.00  0.00    -0.228 C  
HETATM    5  C   UNL     1      -8.747   9.018  70.954  1.00  0.00    -0.280 C  
BRANCH   5   6
HETATM    6  C   UNL     1      -9.945   8.249  71.280  1.00  0.00    -0.243 A  
HETATM    7  C   UNL     1     -10.389   8.173  72.605  1.00  0.00    -0.398 A  
HETATM    8  C   UNL     1     -11.497   7.390  72.929  1.00  0.00    -0.269 A  
HETATM    9  C   UNL     1     -12.165   6.679  71.933  1.00  0.00    -0.381 A  
HETATM   10  C   UNL     1     -11.731   6.756  70.610  1.00  0.00    -0.440 A  
HETATM   11  C   UNL     1     -10.621   7.539  70.283  1.00  0.00    -0.235 A  
ENDBRANCH   5   6
ENDBRANCH   2   4
TORSDOF 2
ENDMDL
MODEL      129
REMARK 921   NORMALIZED FREE ENERGY PREDICTED BY IDOCK:   -2.34 KCAL/MOL
REMARK 922        TOTAL FREE ENERGY PREDICTED BY IDOCK:   -2.75 KCAL/MOL
REMARK 923 INTER-LIGAND FREE ENERGY PREDICTED BY IDOCK:   -2.62 KCAL/MOL
REMARK 924 INTRA-LIGAND FREE ENERGY PREDICTED BY IDOCK:   -0.14 KCAL/MOL
REMARK 927      BINDING AFFINITY PREDICTED BY RF-SCORE:    0.00 PKD
ROOT
HETATM    1  O   UNL     1      -6.439   7.576  63.766  1.00  0.00    -0.052 OA 
HETATM    2  C   UNL     1      -7.543   7.295  64.610  1.00  0.00    -0.106 C  
HETATM    3  H   UNL     1      -5.986   6.757  63.608  1.00  0.00     0.000 HD 
ENDROOT
BRANCH   2   4
HETATM    4  C   UNL     1      -8.254   8.579  64.858  1.00  0.00    -0.166 C  
HETATM    5  C   UNL     1      -8.867   9.307  63.912  1.00  0.00    -0.160 C  
BRANCH   5   6
HETATM    6  C   UNL     1      -9.523  10.566  64.257  1.00  0.00    -0.337 A  
HETATM    7  C   UNL     1      -9.488  11.035  65.575  1.00  0.00    -0.250 A  
HETATM    8  C   UNL     1     -10.165  12.205  65.920  1.00  0.00    -0.272 A  
HETATM    9  C   UNL     1     -10.879  12.910  64.952  1.00  0.00    -0.331 A  
HETATM   10  C   UNL     1     -10.912  12.450  63.635  1.00  0.00    -0.525 A  
HETATM   11  C   UNL     1     -10.235  11.278  63.288  1.00  0.00    -0.417 A  
ENDBRANCH   5   6
ENDBRANCH   2   4
TORSDOF 2
ENDMDL
MODEL      130
REMARK 921   NORMALIZED FREE ENERGY PREDICTED BY IDOCK:   -2.34 KCAL/MOL
REMARK 922        TOTAL FREE ENERGY PREDICTED BY IDOCK:   -2.75 KCAL/MOL
REMARK 923 INTER-LIGAND FREE ENERGY PREDICTED BY IDOCK:   -2.63 KCAL/MOL
REMARK 924 INTRA-LIGAND FREE ENERGY PREDICTED BY IDOCK:   -0.13 KCAL/MOL
REMARK 927      BINDING AFFINITY PREDICTED BY RF-SCORE:    0.00 PKD
ROOT
HETATM    1  O   UNL     1      -7.991   7.454  70.553  1.00  0.00    -0.096 OA 
HETATM    2  C   UNL     1      -9.083   7.134  69.706  1.00  0.00    -0.141 C  
HETATM    3  H   UNL     1      -7.827   6.698  71.103  1.00  0.00     0.000 HD 
ENDROOT
BRANCH   2   4
HETATM    4  C   UNL     1      -9.342   8.319  68.844  1.00  0.00    -0.147 C  
HETATM    5  C   UNL     1     -10.551   8.685  68.394  1.00  0.00    -0.169 C  
BRANCH   5   6
HETATM    6  C   UNL     1     -10.697   9.859  67.535  1.00  0.00    -0.333 A  
HETATM    7  C   UNL     1     -10.090   9.883  66.275  1.00  0.00    -0.311 A  
HETATM    8  C   UNL     1     -10.176  11.025  65.478  1.00  0.00    -0.327 A  
HETATM    9  C   UNL     1     -10.865  12.147  65.937  1.00  0.00    -0.316 A  
HETATM   10  C   UNL     1     -11.477  12.125  67.191  1.00  0.00    -0.413 A  
HETATM   11  C   UNL     1     -11.392  10.983  67.990  1.00  0.00    -0.374 A  
ENDBRANCH   5   6
ENDBRANCH   2   4
TORSDOF 2
ENDMDL
MODEL      131
REMARK 921   NORMALIZED FREE ENERGY PREDICTED BY IDOCK:   -2.30 KCAL/MOL
REMARK 922        TOTAL FREE ENERGY PREDICTED BY IDOCK:   -2.70 KCAL/MOL
REMARK 923 INTER-LIGAND FREE ENERGY PREDICTED BY IDOCK:   -2.57 KCAL/MOL
REMARK 924 INTRA-LIGAND FREE ENERGY PREDICTED BY IDOCK:   -0.14 KCAL/MOL
REMARK 927      BINDING AFFINITY PREDICTED BY RF-SCORE:    0.00 PKD
ROOT
HETATM    1  O   UNL     1     -10.629  19.984  68.710  1.00  0.00    -0.515 OA 
HETATM    2  C   UNL     1     -10.414  19.592  67.364  1.00  0.00    -0.467 C  
HETATM    3  H   UNL     1     -10.959  20.875  68.698  1.00  0.00     0.000 HD 
ENDROOT
BRANCH   2   4
HETATM    4  C   UNL     1      -9.896  18.197  67.383  1.00  0.00    -0.316 C  
HETATM    5  C   UNL     1      -8.864  17.776  68.129  1.00  0.00    -0.267 C  
BRANCH   5   6
HETATM    6  C   UNL     1      -8.420  16.386  68.061  1.00  0.00    -0.183 A  
HETATM    7  C   UNL     1      -7.078  16.067  68.295  1.00  0.00    -0.122 A  
HETATM    8  C   UNL     1      -6.640  14.748  68.171  1.00  0.00    -0.138 A  
HETATM    9  C   UNL     1      -7.538  13.745  67.812  1.00  0.00    -0.173 A  
HETATM   10  C   UNL     1      -8.879  14.057  67.584  1.00  0.00    -0.190 A  
HETATM   11  C   UNL     1      -9.320  15.376  67.707  1.00  0.00    -0.195 A  
ENDBRANCH   5   6
ENDBRANCH   2   4
TORSDOF 2
ENDMDL
MODEL      132
REMARK 921   NORMALIZED FREE ENERGY PREDICTED BY IDOCK:   -2.30 KCAL/MOL
REMARK 922        TOTAL FREE ENERGY PREDICTED BY IDOCK:   -2.70 KCAL/MOL
REMARK 923 INTER-LIGAND FREE ENERGY PREDICTED BY IDOCK:   -2.58 KCAL/MOL
REMARK 924 INTRA-LIGAND FREE ENERGY PREDICTED BY IDOCK:   -0.12 KCAL/MOL
REMARK 927      BINDING AFFINITY PREDICTED BY RF-SCORE:    0.00 PKD
ROOT
HETATM    1  O   UNL     1      -8.087   2.043  71.840  1.00  0.00    -0.047 OA 
HETATM    2  C   UNL     1      -9.490   1.839  71.880  1.00  0.00    -0.104 C  
HETATM    3  H   UNL     1      -7.679   1.193  71.729  1.00  0.00     0.000 HD 
ENDROOT
BRANCH   2   4
HETATM    4  C   UNL     1     -10.130   3.171  72.054  1.00  0.00    -0.178 C  
HETATM    5  C   UNL     1      -9.666   4.315  71.529  1.00  0.00    -0.244 C  
BRANCH   5   6
HETATM    6  C   UNL     1     -10.361   5.577  71.775  1.00  0.00    -0.272 A  
HETATM    7  C   UNL     1     -11.279   6.064  70.838  1.00  0.00    -0.335 A  
HETATM    8  C   UNL     1     -11.898   7.298  71.041  1.00  0.00    -0.352 A  
HETATM    9  C   UNL     1     -11.601   8.050  72.177  1.00  0.00    -0.399 A  
HETATM   10  C   UNL     1     -10.692   7.565  73.117  1.00  0.00    -0.452 A  
HETATM   11  C   UNL     1     -10.071   6.330  72.916  1.00  0.00    -0.196 A  
ENDBRANCH   5   6
ENDBRANCH   2   4
TORSDOF 2
ENDMDL
MODEL      133
REMARK 921   NORMALIZED FREE ENERGY PREDICTED BY IDOCK:   -2.29 KCAL/MOL
REMARK 922        TOTAL FREE ENERGY PREDICTED BY IDOCK:   -2.70 KCAL/MOL
REMARK 923 INTER-LIGAND FREE ENERGY PREDICTED BY IDOCK:   -2.57 KCAL/MOL
REMARK 924 INTRA-LIGAND FREE ENERGY PREDICTED BY IDOCK:   -0.13 KCAL/MOL
REMARK 927      BINDING AFFINITY PREDICTED BY RF-SCORE:    0.00 PKD
ROOT
HETATM    1  O   UNL     1     -10.945  12.091  69.581  1.00  0.00    -0.453 OA 
HETATM    2  C   UNL     1     -11.917  11.106  69.272  1.00  0.00    -0.351 C  
HETATM    3  H   UNL     1     -11.345  12.940  69.437  1.00  0.00     0.000 HD 
ENDROOT
BRANCH   2   4
HETATM    4  C   UNL     1     -11.291   9.775  69.498  1.00  0.00    -0.127 C  
HETATM    5  C   UNL     1     -11.571   8.965  70.530  1.00  0.00    -0.189 C  
BRANCH   5   6
HETATM    6  C   UNL     1     -10.886   7.683  70.671  1.00  0.00    -0.245 A  
HETATM    7  C   UNL     1     -10.633   6.897  69.541  1.00  0.00    -0.261 A  
HETATM    8  C   UNL     1     -10.033   5.644  69.679  1.00  0.00    -0.267 A  
HETATM    9  C   UNL     1      -9.687   5.172  70.944  1.00  0.00    -0.252 A  
HETATM   10  C   UNL     1      -9.931   5.954  72.073  1.00  0.00    -0.204 A  
HETATM   11  C   UNL     1     -10.531   7.208  71.937  1.00  0.00    -0.220 A  
ENDBRANCH   5   6
ENDBRANCH   2   4
TORSDOF 2
ENDMDL
MODEL      134
REMARK 921   NORMALIZED FREE ENERGY PREDICTED BY IDOCK:   -2.26 KCAL/MOL
REMARK 922        TOTAL FREE ENERGY PREDICTED BY IDOCK:   -2.66 KCAL/MOL
REMARK 923 INTER-LIGAND FREE ENERGY PREDICTED BY IDOCK:   -2.54 KCAL/MOL
REMARK 924 INTRA-LIGAND FREE ENERGY PREDICTED BY IDOCK:   -0.13 KCAL/MOL
REMARK 927      BINDING AFFINITY PREDICTED BY RF-SCORE:    0.00 PKD
ROOT
HETATM    1  O   UNL     1      -7.917   8.524  72.621  1.00  0.00    -0.298 OA 
HETATM    2  C   UNL     1      -7.176   8.746  71.433  1.00  0.00    -0.090 C  
HETATM    3  H   UNL     1      -7.345   8.077  73.233  1.00  0.00     0.000 HD 
ENDROOT
BRANCH   2   4
HETATM    4  C   UNL     1      -8.073   9.446  70.472  1.00  0.00    -0.212 C  
HETATM    5  C   UNL     1      -9.343   9.096  70.220  1.00  0.00    -0.253 C  
BRANCH   5   6
HETATM    6  C   UNL     1     -10.135   9.839  69.243  1.00  0.00    -0.207 A  
HETATM    7  C   UNL     1      -9.867   9.703  67.877  1.00  0.00    -0.182 A  
HETATM    8  C   UNL     1     -10.581  10.458  66.945  1.00  0.00    -0.293 A  
HETATM    9  C   UNL     1     -11.561  11.352  67.374  1.00  0.00    -0.266 A  
HETATM   10  C   UNL     1     -11.836  11.486  68.735  1.00  0.00    -0.394 A  
HETATM   11  C   UNL     1     -11.123  10.732  69.669  1.00  0.00    -0.339 A  
ENDBRANCH   5   6
ENDBRANCH   2   4
TORSDOF 2
ENDMDL
MODEL      135
REMARK 921   NORMALIZED FREE ENERGY PREDICTED BY IDOCK:   -2.22 KCAL/MOL
REMARK 922        TOTAL FREE ENERGY PREDICTED BY IDOCK:   -2.61 KCAL/MOL
REMARK 923 INTER-LIGAND FREE ENERGY PREDICTED BY IDOCK:   -2.47 KCAL/MOL
REMARK 924 INTRA-LIGAND FREE ENERGY PREDICTED BY IDOCK:   -0.14 KCAL/MOL
REMARK 927      BINDING AFFINITY PREDICTED BY RF-SCORE:    0.00 PKD
ROOT
HETATM    1  O   UNL     1     -10.897   5.588  66.181  1.00  0.00    -0.623 OA 
HETATM    2  C   UNL     1     -11.008   6.717  67.031  1.00  0.00    -0.368 C  
HETATM    3  H   UNL     1     -11.341   5.798  65.369  1.00  0.00     0.000 HD 
ENDROOT
BRANCH   2   4
HETATM    4  C   UNL     1     -10.313   6.388  68.305  1.00  0.00    -0.228 C  
HETATM    5  C   UNL     1     -10.471   5.244  68.988  1.00  0.00    -0.206 C  
BRANCH   5   6
HETATM    6  C   UNL     1      -9.754   5.025  70.241  1.00  0.00    -0.285 A  
HETATM    7  C   UNL     1      -9.074   6.085  70.853  1.00  0.00    -0.161 A  
HETATM    8  C   UNL     1      -8.337   5.865  72.017  1.00  0.00    -0.115 A  
HETATM    9  C   UNL     1      -8.275   4.588  72.573  1.00  0.00    -0.109 A  
HETATM   10  C   UNL     1      -8.956   3.530  71.971  1.00  0.00    -0.142 A  
HETATM   11  C   UNL     1      -9.694   3.748  70.806  1.00  0.00    -0.235 A  
ENDBRANCH   5   6
ENDBRANCH   2   4
TORSDOF 2
ENDMDL
MODEL      136
REMARK 921   NORMALIZED FREE ENERGY PREDICTED BY IDOCK:   -2.20 KCAL/MOL
REMARK 922        TOTAL FREE ENERGY PREDICTED BY IDOCK:   -2.60 KCAL/MOL
REMARK 923 INTER-LIGAND FREE ENERGY PREDICTED BY IDOCK:   -2.46 KCAL/MOL
REMARK 924 INTRA-LIGAND FREE ENERGY PREDICTED BY IDOCK:   -0.14 KCAL/MOL
REMARK 927      BINDING AFFINITY PREDICTED BY RF-SCORE:    0.00 PKD
ROOT
HETATM    1  O   UNL     1      -5.937   5.553  73.139  1.00  0.00    -0.033 OA 
HETATM    2  C   UNL     1      -6.933   5.853  74.103  1.00  0.00    -0.081 C  
HETATM    3  H   UNL     1      -5.234   5.099  73.588  1.00  0.00     0.000 HD 
ENDROOT
BRANCH   2   4
HETATM    4  C   UNL     1      -8.035   6.565  73.400  1.00  0.00    -0.098 C  
HETATM    5  C   UNL     1      -7.869   7.638  72.612  1.00  0.00    -0.123 C  
BRANCH   5   6
HETATM    6  C   UNL     1      -9.021   8.276  71.980  1.00  0.00    -0.260 A  
HETATM    7  C   UNL     1      -8.843   9.084  70.852  1.00  0.00    -0.294 A  
HETATM    8  C   UNL     1      -9.933   9.745  70.284  1.00  0.00    -0.309 A  
HETATM    9  C   UNL     1     -11.203   9.602  70.840  1.00  0.00    -0.422 A  
HETATM   10  C   UNL     1     -11.387   8.792  71.961  1.00  0.00    -0.441 A  
HETATM   11  C   UNL     1     -10.298   8.131  72.531  1.00  0.00    -0.401 A  
ENDBRANCH   5   6
ENDBRANCH   2   4
TORSDOF 2
ENDMDL
MODEL      137
REMARK 921   NORMALIZED FREE ENERGY PREDICTED BY IDOCK:   -2.20 KCAL/MOL
REMARK 922        TOTAL FREE ENERGY PREDICTED BY IDOCK:   -2.59 KCAL/MOL
REMARK 923 INTER-LIGAND FREE ENERGY PREDICTED BY IDOCK:   -2.46 KCAL/MOL
REMARK 924 INTRA-LIGAND FREE ENERGY PREDICTED BY IDOCK:   -0.13 KCAL/MOL
REMARK 927      BINDING AFFINITY PREDICTED BY RF-SCORE:    0.00 PKD
ROOT
HETATM    1  O   UNL     1      -9.662   6.446  66.060  1.00  0.00    -0.384 OA 
HETATM    2  C   UNL     1     -10.638   5.716  66.784  1.00  0.00    -0.304 C  
HETATM    3  H   UNL     1      -9.974   6.532  65.167  1.00  0.00     0.000 HD 
ENDROOT
BRANCH   2   4
HETATM    4  C   UNL     1     -10.148   5.582  68.183  1.00  0.00    -0.221 C  
HETATM    5  C   UNL     1     -10.932   5.611  69.271  1.00  0.00    -0.224 C  
BRANCH   5   6
HETATM    6  C   UNL     1     -10.349   5.488  70.606  1.00  0.00    -0.332 A  
HETATM    7  C   UNL     1      -9.026   5.060  70.754  1.00  0.00    -0.165 A  
HETATM    8  C   UNL     1      -8.486   4.883  72.029  1.00  0.00    -0.124 A  
HETATM    9  C   UNL     1      -9.265   5.132  73.158  1.00  0.00    -0.129 A  
HETATM   10  C   UNL     1     -10.583   5.566  73.015  1.00  0.00    -0.274 A  
HETATM   11  C   UNL     1     -11.126   5.743  71.740  1.00  0.00    -0.301 A  
ENDBRANCH   5   6
ENDBRANCH   2   4
TORSDOF 2
ENDMDL
MODEL      138
REMARK 921   NORMALIZED FREE ENERGY PREDICTED BY IDOCK:   -2.20 KCAL/MOL
REMARK 922        TOTAL FREE ENERGY PREDICTED BY IDOCK:   -2.59 KCAL/MOL
REMARK 923 INTER-LIGAND FREE ENERGY PREDICTED BY IDOCK:   -2.46 KCAL/MOL
REMARK 924 INTRA-LIGAND FREE ENERGY PREDICTED BY IDOCK:   -0.13 KCAL/MOL
REMARK 927      BINDING AFFINITY PREDICTED BY RF-SCORE:    0.00 PKD
ROOT
HETATM    1  O   UNL     1     -12.659   8.419  70.870  1.00  0.00    -0.499 OA 
HETATM    2  C   UNL     1     -12.186   9.755  70.834  1.00  0.00    -0.302 C  
HETATM    3  H   UNL     1     -13.097   8.295  71.704  1.00  0.00     0.000 HD 
ENDROOT
BRANCH   2   4
HETATM    4  C   UNL     1     -11.498   9.950  69.528  1.00  0.00    -0.120 C  
HETATM    5  C   UNL     1     -10.174   9.842  69.339  1.00  0.00    -0.231 C  
BRANCH   5   6
HETATM    6  C   UNL     1      -9.595  10.071  68.018  1.00  0.00    -0.154 A  
HETATM    7  C   UNL     1      -8.476  10.899  67.878  1.00  0.00    -0.129 A  
HETATM    8  C   UNL     1      -7.958  11.169  66.611  1.00  0.00    -0.159 A  
HETATM    9  C   UNL     1      -8.555  10.615  65.480  1.00  0.00    -0.191 A  
HETATM   10  C   UNL     1      -9.667   9.783  65.614  1.00  0.00    -0.357 A  
HETATM   11  C   UNL     1     -10.188   9.512  66.881  1.00  0.00    -0.317 A  
ENDBRANCH   5   6
ENDBRANCH   2   4
TORSDOF 2
ENDMDL
MODEL      139
REMARK 921   NORMALIZED FREE ENERGY PREDICTED BY IDOCK:   -2.08 KCAL/MOL
REMARK 922        TOTAL FREE ENERGY PREDICTED BY IDOCK:   -2.46 KCAL/MOL
REMARK 923 INTER-LIGAND FREE ENERGY PREDICTED BY IDOCK:   -2.33 KCAL/MOL
REMARK 924 INTRA-LIGAND FREE ENERGY PREDICTED BY IDOCK:   -0.13 KCAL/MOL
REMARK 927      BINDING AFFINITY PREDICTED BY RF-SCORE:    0.00 PKD
ROOT
HETATM    1  O   UNL     1      -6.673   9.580  64.314  1.00  0.00    -0.092 OA 
HETATM    2  C   UNL     1      -7.506  10.252  65.245  1.00  0.00    -0.141 C  
HETATM    3  H   UNL     1      -6.183  10.242  63.841  1.00  0.00     0.000 HD 
ENDROOT
BRANCH   2   4
HETATM    4  C   UNL     1      -8.274   9.215  65.986  1.00  0.00    -0.115 C  
HETATM    5  C   UNL     1      -8.934   9.429  67.134  1.00  0.00    -0.144 C  
BRANCH   5   6
HETATM    6  C   UNL     1      -9.645   8.336  67.794  1.00  0.00    -0.178 A  
HETATM    7  C   UNL     1     -10.202   7.303  67.032  1.00  0.00    -0.348 A  
HETATM    8  C   UNL     1     -10.934   6.291  67.653  1.00  0.00    -0.438 A  
HETATM    9  C   UNL     1     -11.114   6.307  69.035  1.00  0.00    -0.446 A  
HETATM   10  C   UNL     1     -10.556   7.332  69.800  1.00  0.00    -0.247 A  
HETATM   11  C   UNL     1      -9.823   8.346  69.180  1.00  0.00    -0.183 A  
ENDBRANCH   5   6
ENDBRANCH   2   4
TORSDOF 2
ENDMDL
MODEL      140
REMARK 921   NORMALIZED FREE ENERGY PREDICTED BY IDOCK:   -2.08 KCAL/MOL
REMARK 922        TOTAL FREE ENERGY PREDICTED BY IDOCK:   -2.46 KCAL/MOL
REMARK 923 INTER-LIGAND FREE ENERGY PREDICTED BY IDOCK:   -2.33 KCAL/MOL
REMARK 924 INTRA-LIGAND FREE ENERGY PREDICTED BY IDOCK:   -0.13 KCAL/MOL
REMARK 927      BINDING AFFINITY PREDICTED BY RF-SCORE:    0.00 PKD
ROOT
HETATM    1  O   UNL     1     -10.466  15.612  69.123  1.00  0.00    -0.211 OA 
HETATM    2  C   UNL     1      -9.614  15.342  68.023  1.00  0.00    -0.206 C  
HETATM    3  H   UNL     1     -10.476  16.553  69.251  1.00  0.00     0.000 HD 
ENDROOT
BRANCH   2   4
HETATM    4  C   UNL     1      -9.596  13.868  67.822  1.00  0.00    -0.222 C  
HETATM    5  C   UNL     1     -10.446  13.196  67.030  1.00  0.00    -0.248 C  
BRANCH   5   6
HETATM    6  C   UNL     1     -10.357  11.742  66.916  1.00  0.00    -0.247 A  
HETATM    7  C   UNL     1     -10.178  10.959  68.062  1.00  0.00    -0.202 A  
HETATM    8  C   UNL     1     -10.030   9.576  67.949  1.00  0.00    -0.209 A  
HETATM    9  C   UNL     1     -10.060   8.971  66.694  1.00  0.00    -0.355 A  
HETATM   10  C   UNL     1     -10.245   9.746  65.549  1.00  0.00    -0.114 A  
HETATM   11  C   UNL     1     -10.392  11.130  65.659  1.00  0.00    -0.311 A  
ENDBRANCH   5   6
ENDBRANCH   2   4
TORSDOF 2
ENDMDL
MODEL      141
REMARK 921   NORMALIZED FREE ENERGY PREDICTED BY IDOCK:   -2.06 KCAL/MOL
REMARK 922        TOTAL FREE ENERGY PREDICTED BY IDOCK:   -2.44 KCAL/MOL
REMARK 923 INTER-LIGAND FREE ENERGY PREDICTED BY IDOCK:   -2.31 KCAL/MOL
REMARK 924 INTRA-LIGAND FREE ENERGY PREDICTED BY IDOCK:   -0.13 KCAL/MOL
REMARK 927      BINDING AFFINITY PREDICTED BY RF-SCORE:    0.00 PKD
ROOT
HETATM    1  O   UNL     1      -7.581   7.382  73.797  1.00  0.00    -0.102 OA 
HETATM    2  C   UNL     1      -7.506   6.703  72.555  1.00  0.00    -0.089 C  
HETATM    3  H   UNL     1      -7.145   6.841  74.444  1.00  0.00     0.000 HD 
ENDROOT
BRANCH   2   4
HETATM    4  C   UNL     1      -8.190   7.550  71.541  1.00  0.00    -0.105 C  
HETATM    5  C   UNL     1      -9.405   8.098  71.698  1.00  0.00    -0.228 C  
BRANCH   5   6
HETATM    6  C   UNL     1      -9.997   8.902  70.631  1.00  0.00    -0.265 A  
HETATM    7  C   UNL     1     -10.936   9.892  70.940  1.00  0.00    -0.392 A  
HETATM    8  C   UNL     1     -11.549  10.619  69.919  1.00  0.00    -0.396 A  
HETATM    9  C   UNL     1     -11.229  10.359  68.587  1.00  0.00    -0.305 A  
HETATM   10  C   UNL     1     -10.289   9.376  68.274  1.00  0.00    -0.251 A  
HETATM   11  C   UNL     1      -9.674   8.648  69.295  1.00  0.00    -0.173 A  
ENDBRANCH   5   6
ENDBRANCH   2   4
TORSDOF 2
ENDMDL
MODEL      142
REMARK 921   NORMALIZED FREE ENERGY PREDICTED BY IDOCK:   -2.05 KCAL/MOL
REMARK 922        TOTAL FREE ENERGY PREDICTED BY IDOCK:   -2.43 KCAL/MOL
REMARK 923 INTER-LIGAND FREE ENERGY PREDICTED BY IDOCK:   -2.31 KCAL/MOL
REMARK 924 INTRA-LIGAND FREE ENERGY PREDICTED BY IDOCK:   -0.12 KCAL/MOL
REMARK 927      BINDING AFFINITY PREDICTED BY RF-SCORE:    0.00 PKD
ROOT
HETATM    1  O   UNL     1     -11.520   8.755  72.261  1.00  0.00    -0.362 OA 
HETATM    2  C   UNL     1     -10.119   8.550  72.185  1.00  0.00    -0.323 C  
HETATM    3  H   UNL     1     -11.712   9.089  73.128  1.00  0.00     0.000 HD 
ENDROOT
BRANCH   2   4
HETATM    4  C   UNL     1      -9.817   8.026  70.825  1.00  0.00    -0.197 C  
HETATM    5  C   UNL     1     -10.419   6.965  70.266  1.00  0.00    -0.227 C  
BRANCH   5   6
HETATM    6  C   UNL     1     -10.036   6.518  68.928  1.00  0.00    -0.183 A  
HETATM    7  C   UNL     1     -10.916   6.691  67.855  1.00  0.00    -0.342 A  
HETATM    8  C   UNL     1     -10.579   6.210  66.589  1.00  0.00    -0.296 A  
HETATM    9  C   UNL     1      -9.365   5.554  66.391  1.00  0.00    -0.161 A  
HETATM   10  C   UNL     1      -8.481   5.386  67.458  1.00  0.00    -0.106 A  
HETATM   11  C   UNL     1      -8.816   5.866  68.725  1.00  0.00    -0.111 A  
ENDBRANCH   5   6
ENDBRANCH   2   4
TORSDOF 2
ENDMDL
MODEL      143
REMARK 921   NORMALIZED FREE ENERGY PREDICTED BY IDOCK:   -2.04 KCAL/MOL
REMARK 922        TOTAL FREE ENERGY PREDICTED BY IDOCK:   -2.41 KCAL/MOL
REMARK 923 INTER-LIGAND FREE ENERGY PREDICTED BY IDOCK:   -2.28 KCAL/MOL
REMARK 924 INTRA-LIGAND FREE ENERGY PREDICTED BY IDOCK:   -0.12 KCAL/MOL
REMARK 927      BINDING AFFINITY PREDICTED BY RF-SCORE:    0.00 PKD
ROOT
HETATM    1  O   UNL     1     -12.610  11.022  70.465  1.00  0.00    -0.323 OA 
HETATM    2  C   UNL     1     -11.986  11.748  69.419  1.00  0.00    -0.298 C  
HETATM    3  H   UNL     1     -13.207  11.614  70.906  1.00  0.00     0.000 HD 
ENDROOT
BRANCH   2   4
HETATM    4  C   UNL     1     -11.050  10.820  68.728  1.00  0.00    -0.312 C  
HETATM    5  C   UNL     1     -10.829   9.548  69.092  1.00  0.00    -0.194 C  
BRANCH   5   6
HETATM    6  C   UNL     1      -9.873   8.723  68.356  1.00  0.00    -0.189 A  
HETATM    7  C   UNL     1     -10.180   8.279  67.066  1.00  0.00    -0.380 A  
HETATM    8  C   UNL     1      -9.296   7.441  66.384  1.00  0.00    -0.206 A  
HETATM    9  C   UNL     1      -8.105   7.044  66.990  1.00  0.00    -0.117 A  
HETATM   10  C   UNL     1      -7.791   7.489  68.274  1.00  0.00    -0.122 A  
HETATM   11  C   UNL     1      -8.675   8.327  68.957  1.00  0.00    -0.143 A  
ENDBRANCH   5   6
ENDBRANCH   2   4
TORSDOF 2
ENDMDL
MODEL      144
REMARK 921   NORMALIZED FREE ENERGY PREDICTED BY IDOCK:   -2.03 KCAL/MOL
REMARK 922        TOTAL FREE ENERGY PREDICTED BY IDOCK:   -2.41 KCAL/MOL
REMARK 923 INTER-LIGAND FREE ENERGY PREDICTED BY IDOCK:   -2.27 KCAL/MOL
REMARK 924 INTRA-LIGAND FREE ENERGY PREDICTED BY IDOCK:   -0.14 KCAL/MOL
REMARK 927      BINDING AFFINITY PREDICTED BY RF-SCORE:    0.00 PKD
ROOT
HETATM    1  O   UNL     1     -12.082   6.860  69.776  1.00  0.00    -0.623 OA 
HETATM    2  C   UNL     1     -10.914   6.344  70.393  1.00  0.00    -0.308 C  
HETATM    3  H   UNL     1     -12.436   7.528  70.351  1.00  0.00     0.000 HD 
ENDROOT
BRANCH   2   4
HETATM    4  C   UNL     1     -10.359   5.298  69.492  1.00  0.00    -0.333 C  
HETATM    5  C   UNL     1      -9.617   5.545  68.402  1.00  0.00    -0.155 C  
BRANCH   5   6
HETATM    6  C   UNL     1      -9.133   4.444  67.572  1.00  0.00    -0.146 A  
HETATM    7  C   UNL     1      -8.447   4.714  66.382  1.00  0.00    -0.109 A  
HETATM    8  C   UNL     1      -8.038   3.666  65.556  1.00  0.00    -0.093 A  
HETATM    9  C   UNL     1      -8.313   2.347  65.914  1.00  0.00    -0.094 A  
HETATM   10  C   UNL     1      -8.991   2.073  67.102  1.00  0.00    -0.156 A  
HETATM   11  C   UNL     1      -9.402   3.120  67.930  1.00  0.00    -0.252 A  
ENDBRANCH   5   6
ENDBRANCH   2   4
TORSDOF 2
ENDMDL
MODEL      145
REMARK 921   NORMALIZED FREE ENERGY PREDICTED BY IDOCK:   -2.02 KCAL/MOL
REMARK 922        TOTAL FREE ENERGY PREDICTED BY IDOCK:   -2.39 KCAL/MOL
REMARK 923 INTER-LIGAND FREE ENERGY PREDICTED BY IDOCK:   -2.27 KCAL/MOL
REMARK 924 INTRA-LIGAND FREE ENERGY PREDICTED BY IDOCK:   -0.13 KCAL/MOL
REMARK 927      BINDING AFFINITY PREDICTED BY RF-SCORE:    0.00 PKD
ROOT
HETATM    1  O   UNL     1     -10.749  11.031  66.475  1.00  0.00    -0.261 OA 
HETATM    2  C   UNL     1      -9.598  11.414  65.740  1.00  0.00    -0.233 C  
HETATM    3  H   UNL     1     -10.886  10.104  66.325  1.00  0.00     0.000 HD 
ENDROOT
BRANCH   2   4
HETATM    4  C   UNL     1      -9.382  12.868  65.975  1.00  0.00    -0.036 C  
HETATM    5  C   UNL     1      -9.449  13.465  67.174  1.00  0.00    -0.244 C  
BRANCH   5   6
HETATM    6  C   UNL     1      -9.238  14.906  67.296  1.00  0.00    -0.212 A  
HETATM    7  C   UNL     1     -10.329  15.758  67.503  1.00  0.00    -0.280 A  
HETATM    8  C   UNL     1     -10.138  17.139  67.558  1.00  0.00    -0.301 A  
HETATM    9  C   UNL     1      -8.860  17.674  67.405  1.00  0.00    -0.235 A  
HETATM   10  C   UNL     1      -7.768  16.828  67.205  1.00  0.00    -0.213 A  
HETATM   11  C   UNL     1      -7.957  15.446  67.149  1.00  0.00    -0.251 A  
ENDBRANCH   5   6
ENDBRANCH   2   4
TORSDOF 2
ENDMDL
MODEL      146
REMARK 921   NORMALIZED FREE ENERGY PREDICTED BY IDOCK:   -2.02 KCAL/MOL
REMARK 922        TOTAL FREE ENERGY PREDICTED BY IDOCK:   -2.39 KCAL/MOL
REMARK 923 INTER-LIGAND FREE ENERGY PREDICTED BY IDOCK:   -2.26 KCAL/MOL
REMARK 924 INTRA-LIGAND FREE ENERGY PREDICTED BY IDOCK:   -0.13 KCAL/MOL
REMARK 927      BINDING AFFINITY PREDICTED BY RF-SCORE:    0.00 PKD
ROOT
HETATM    1  O   UNL     1     -12.030   6.928  69.626  1.00  0.00    -0.612 OA 
HETATM    2  C   UNL     1     -11.089   6.382  70.535  1.00  0.00    -0.328 C  
HETATM    3  H   UNL     1     -12.520   7.595  70.091  1.00  0.00     0.000 HD 
ENDROOT
BRANCH   2   4
HETATM    4  C   UNL     1     -10.320   5.336  69.807  1.00  0.00    -0.369 C  
HETATM    5  C   UNL     1      -9.794   4.241  70.376  1.00  0.00    -0.268 C  
BRANCH   5   6
HETATM    6  C   UNL     1      -9.039   3.281  69.574  1.00  0.00    -0.200 A  
HETATM    7  C   UNL     1      -7.808   2.800  70.034  1.00  0.00    -0.049 A  
HETATM    8  C   UNL     1      -7.055   1.931  69.243  1.00  0.00    -0.036 A  
HETATM    9  C   UNL     1      -7.528   1.542  67.991  1.00  0.00    -0.046 A  
HETATM   10  C   UNL     1      -8.757   2.013  67.530  1.00  0.00    -0.134 A  
HETATM   11  C   UNL     1      -9.511   2.883  68.320  1.00  0.00    -0.217 A  
ENDBRANCH   5   6
ENDBRANCH   2   4
TORSDOF 2
ENDMDL
MODEL      147
REMARK 921   NORMALIZED FREE ENERGY PREDICTED BY IDOCK:   -1.95 KCAL/MOL
REMARK 922        TOTAL FREE ENERGY PREDICTED BY IDOCK:   -2.31 KCAL/MOL
REMARK 923 INTER-LIGAND FREE ENERGY PREDICTED BY IDOCK:   -2.18 KCAL/MOL
REMARK 924 INTRA-LIGAND FREE ENERGY PREDICTED BY IDOCK:   -0.13 KCAL/MOL
REMARK 927      BINDING AFFINITY PREDICTED BY RF-SCORE:    0.00 PKD
ROOT
HETATM    1  O   UNL     1      -9.875   4.159  63.930  1.00  0.00    -0.210 OA 
HETATM    2  C   UNL     1     -10.970   4.381  64.803  1.00  0.00     0.016 C  
HETATM    3  H   UNL     1     -10.228   3.850  63.105  1.00  0.00     0.000 HD 
ENDROOT
BRANCH   2   4
HETATM    4  C   UNL     1     -10.419   4.865  66.098  1.00  0.00    -0.346 C  
HETATM    5  C   UNL     1     -11.007   5.781  66.883  1.00  0.00    -0.242 C  
BRANCH   5   6
HETATM    6  C   UNL     1     -10.373   6.203  68.129  1.00  0.00    -0.242 A  
HETATM    7  C   UNL     1      -9.045   6.645  68.124  1.00  0.00    -0.119 A  
HETATM    8  C   UNL     1      -8.417   6.991  69.321  1.00  0.00    -0.133 A  
HETATM    9  C   UNL     1      -9.111   6.895  70.526  1.00  0.00    -0.156 A  
HETATM   10  C   UNL     1     -10.437   6.462  70.536  1.00  0.00    -0.270 A  
HETATM   11  C   UNL     1     -11.067   6.115  69.339  1.00  0.00    -0.479 A  
ENDBRANCH   5   6
ENDBRANCH   2   4
TORSDOF 2
ENDMDL
MODEL      148
REMARK 921   NORMALIZED FREE ENERGY PREDICTED BY IDOCK:   -1.94 KCAL/MOL
REMARK 922        TOTAL FREE ENERGY PREDICTED BY IDOCK:   -2.30 KCAL/MOL
REMARK 923 INTER-LIGAND FREE ENERGY PREDICTED BY IDOCK:   -2.17 KCAL/MOL
REMARK 924 INTRA-LIGAND FREE ENERGY PREDICTED BY IDOCK:   -0.13 KCAL/MOL
REMARK 927      BINDING AFFINITY PREDICTED BY RF-SCORE:    0.00 PKD
ROOT
HETATM    1  O   UNL     1     -10.846   4.335  72.191  1.00  0.00     0.015 OA 
HETATM    2  C   UNL     1      -9.774   4.985  71.529  1.00  0.00    -0.169 C  
HETATM    3  H   UNL     1     -10.525   3.495  72.495  1.00  0.00     0.000 HD 
ENDROOT
BRANCH   2   4
HETATM    4  C   UNL     1     -10.277   6.302  71.052  1.00  0.00    -0.234 C  
HETATM    5  C   UNL     1     -10.106   6.779  69.809  1.00  0.00    -0.198 C  
BRANCH   5   6
HETATM    6  C   UNL     1     -10.625   8.096  69.445  1.00  0.00    -0.206 A  
HETATM    7  C   UNL     1     -10.311   8.651  68.200  1.00  0.00    -0.267 A  
HETATM    8  C   UNL     1     -10.754   9.934  67.873  1.00  0.00    -0.316 A  
HETATM    9  C   UNL     1     -11.509  10.665  68.788  1.00  0.00    -0.330 A  
HETATM   10  C   UNL     1     -11.830  10.113  70.029  1.00  0.00    -0.253 A  
HETATM   11  C   UNL     1     -11.387   8.830  70.358  1.00  0.00    -0.213 A  
ENDBRANCH   5   6
ENDBRANCH   2   4
TORSDOF 2
ENDMDL
MODEL      149
REMARK 921   NORMALIZED FREE ENERGY PREDICTED BY IDOCK:   -1.92 KCAL/MOL
REMARK 922        TOTAL FREE ENERGY PREDICTED BY IDOCK:   -2.28 KCAL/MOL
REMARK 923 INTER-LIGAND FREE ENERGY PREDICTED BY IDOCK:   -2.15 KCAL/MOL
REMARK 924 INTRA-LIGAND FREE ENERGY PREDICTED BY IDOCK:   -0.13 KCAL/MOL
REMARK 927      BINDING AFFINITY PREDICTED BY RF-SCORE:    0.00 PKD
ROOT
HETATM    1  O   UNL     1     -10.785  18.089  64.885  1.00  0.00    -0.520 OA 
HETATM    2  C   UNL     1     -10.765  16.807  65.489  1.00  0.00    -0.196 C  
HETATM    3  H   UNL     1     -11.503  18.101  64.265  1.00  0.00     0.000 HD 
ENDROOT
BRANCH   2   4
HETATM    4  C   UNL     1      -9.639  16.789  66.462  1.00  0.00    -0.285 C  
HETATM    5  C   UNL     1      -8.503  16.092  66.303  1.00  0.00    -0.337 C  
BRANCH   5   6
HETATM    6  C   UNL     1      -7.464  16.127  67.328  1.00  0.00    -0.219 A  
HETATM    7  C   UNL     1      -7.472  17.135  68.298  1.00  0.00    -0.217 A  
HETATM    8  C   UNL     1      -6.446  17.208  69.242  1.00  0.00    -0.235 A  
HETATM    9  C   UNL     1      -5.410  16.276  69.219  1.00  0.00    -0.114 A  
HETATM   10  C   UNL     1      -5.401  15.264  68.258  1.00  0.00    -0.115 A  
HETATM   11  C   UNL     1      -6.426  15.190  67.313  1.00  0.00     0.092 A  
ENDBRANCH   5   6
ENDBRANCH   2   4
TORSDOF 2
ENDMDL
MODEL      150
REMARK 921   NORMALIZED FREE ENERGY PREDICTED BY IDOCK:   -1.82 KCAL/MOL
REMARK 922        TOTAL FREE ENERGY PREDICTED BY IDOCK:   -2.17 KCAL/MOL
REMARK 923 INTER-LIGAND FREE ENERGY PREDICTED BY IDOCK:   -2.04 KCAL/MOL
REMARK 924 INTRA-LIGAND FREE ENERGY PREDICTED BY IDOCK:   -0.12 KCAL/MOL
REMARK 927      BINDING AFFINITY PREDICTED BY RF-SCORE:    0.00 PKD
ROOT
HETATM    1  O   UNL     1      -9.782   2.186  67.716  1.00  0.00    -0.396 OA 
HETATM    2  C   UNL     1      -9.640   2.994  68.873  1.00  0.00    -0.000 C  
HETATM    3  H   UNL     1     -10.020   1.314  68.006  1.00  0.00     0.000 HD 
ENDROOT
BRANCH   2   4
HETATM    4  C   UNL     1      -9.266   4.361  68.419  1.00  0.00    -0.186 C  
HETATM    5  C   UNL     1     -10.057   5.440  68.513  1.00  0.00    -0.242 C  
BRANCH   5   6
HETATM    6  C   UNL     1      -9.601   6.738  68.020  1.00  0.00    -0.117 A  
HETATM    7  C   UNL     1      -8.325   7.204  68.355  1.00  0.00    -0.125 A  
HETATM    8  C   UNL     1      -7.909   8.469  67.937  1.00  0.00    -0.103 A  
HETATM    9  C   UNL     1      -8.766   9.272  67.185  1.00  0.00    -0.134 A  
HETATM   10  C   UNL     1     -10.036   8.809  66.843  1.00  0.00    -0.348 A  
HETATM   11  C   UNL     1     -10.455   7.544  67.261  1.00  0.00    -0.391 A  
ENDBRANCH   5   6
ENDBRANCH   2   4
TORSDOF 2
ENDMDL
MODEL      151
REMARK 921   NORMALIZED FREE ENERGY PREDICTED BY IDOCK:   -1.78 KCAL/MOL
REMARK 922        TOTAL FREE ENERGY PREDICTED BY IDOCK:   -2.12 KCAL/MOL
REMARK 923 INTER-LIGAND FREE ENERGY PREDICTED BY IDOCK:   -1.99 KCAL/MOL
REMARK 924 INTRA-LIGAND FREE ENERGY PREDICTED BY IDOCK:   -0.13 KCAL/MOL
REMARK 927      BINDING AFFINITY PREDICTED BY RF-SCORE:    0.00 PKD
ROOT
HETATM    1  O   UNL     1      -6.360  10.123  65.785  1.00  0.00    -0.086 OA 
HETATM    2  C   UNL     1      -7.165  10.976  66.581  1.00  0.00    -0.143 C  
HETATM    3  H   UNL     1      -5.761  10.673  65.294  1.00  0.00     0.000 HD 
ENDROOT
BRANCH   2   4
HETATM    4  C   UNL     1      -8.104  10.114  67.350  1.00  0.00    -0.114 C  
HETATM    5  C   UNL     1      -8.816  10.520  68.412  1.00  0.00    -0.140 C  
BRANCH   5   6
HETATM    6  C   UNL     1      -9.698   9.589  69.111  1.00  0.00    -0.178 A  
HETATM    7  C   UNL     1     -10.586  10.061  70.083  1.00  0.00    -0.350 A  
HETATM    8  C   UNL     1     -11.386   9.167  70.796  1.00  0.00    -0.337 A  
HETATM    9  C   UNL     1     -11.300   7.799  70.541  1.00  0.00    -0.253 A  
HETATM   10  C   UNL     1     -10.421   7.323  69.568  1.00  0.00    -0.238 A  
HETATM   11  C   UNL     1      -9.620   8.217  68.854  1.00  0.00    -0.153 A  
ENDBRANCH   5   6
ENDBRANCH   2   4
TORSDOF 2
ENDMDL
MODEL      152
REMARK 921   NORMALIZED FREE ENERGY PREDICTED BY IDOCK:   -1.75 KCAL/MOL
REMARK 922        TOTAL FREE ENERGY PREDICTED BY IDOCK:   -2.09 KCAL/MOL
REMARK 923 INTER-LIGAND FREE ENERGY PREDICTED BY IDOCK:   -1.95 KCAL/MOL
REMARK 924 INTRA-LIGAND FREE ENERGY PREDICTED BY IDOCK:   -0.14 KCAL/MOL
REMARK 927      BINDING AFFINITY PREDICTED BY RF-SCORE:    0.00 PKD
ROOT
HETATM    1  O   UNL     1     -10.145  10.966  69.751  1.00  0.00    -0.434 OA 
HETATM    2  C   UNL     1     -10.309  10.125  68.622  1.00  0.00    -0.188 C  
HETATM    3  H   UNL     1     -10.539  11.804  69.542  1.00  0.00     0.000 HD 
ENDROOT
BRANCH   2   4
HETATM    4  C   UNL     1      -9.690   8.812  68.950  1.00  0.00    -0.174 C  
HETATM    5  C   UNL     1     -10.360   7.652  69.032  1.00  0.00    -0.220 C  
BRANCH   5   6
HETATM    6  C   UNL     1      -9.661   6.417  69.379  1.00  0.00    -0.160 A  
HETATM    7  C   UNL     1      -8.316   6.459  69.762  1.00  0.00    -0.127 A  
HETATM    8  C   UNL     1      -7.629   5.275  70.035  1.00  0.00    -0.068 A  
HETATM    9  C   UNL     1      -8.281   4.048  69.926  1.00  0.00    -0.069 A  
HETATM   10  C   UNL     1      -9.624   4.002  69.551  1.00  0.00    -0.265 A  
HETATM   11  C   UNL     1     -10.313   5.185  69.277  1.00  0.00    -0.248 A  
ENDBRANCH   5   6
ENDBRANCH   2   4
TORSDOF 2
ENDMDL
MODEL      153
REMARK 921   NORMALIZED FREE ENERGY PREDICTED BY IDOCK:   -1.72 KCAL/MOL
REMARK 922        TOTAL FREE ENERGY PREDICTED BY IDOCK:   -2.06 KCAL/MOL
REMARK 923 INTER-LIGAND FREE ENERGY PREDICTED BY IDOCK:   -1.93 KCAL/MOL
REMARK 924 INTRA-LIGAND FREE ENERGY PREDICTED BY IDOCK:   -0.13 KCAL/MOL
REMARK 927      BINDING AFFINITY PREDICTED BY RF-SCORE:    0.00 PKD
ROOT
HETATM    1  O   UNL     1      -7.109   7.249  70.553  1.00  0.00    -0.060 OA 
HETATM    2  C   UNL     1      -8.202   6.657  69.872  1.00  0.00    -0.127 C  
HETATM    3  H   UNL     1      -6.729   6.585  71.115  1.00  0.00     0.000 HD 
ENDROOT
BRANCH   2   4
HETATM    4  C   UNL     1      -8.797   7.699  68.992  1.00  0.00    -0.135 C  
HETATM    5  C   UNL     1      -8.162   8.284  67.965  1.00  0.00    -0.128 C  
BRANCH   5   6
HETATM    6  C   UNL     1      -8.831   9.312  67.171  1.00  0.00    -0.137 A  
HETATM    7  C   UNL     1      -9.167  10.538  67.754  1.00  0.00    -0.151 A  
HETATM    8  C   UNL     1      -9.860  11.499  67.017  1.00  0.00    -0.212 A  
HETATM    9  C   UNL     1     -10.222  11.237  65.696  1.00  0.00    -0.304 A  
HETATM   10  C   UNL     1      -9.884  10.018  65.108  1.00  0.00    -0.388 A  
HETATM   11  C   UNL     1      -9.190   9.056  65.844  1.00  0.00    -0.290 A  
ENDBRANCH   5   6
ENDBRANCH   2   4
TORSDOF 2
ENDMDL
MODEL      154
REMARK 921   NORMALIZED FREE ENERGY PREDICTED BY IDOCK:   -1.67 KCAL/MOL
REMARK 922        TOTAL FREE ENERGY PREDICTED BY IDOCK:   -2.00 KCAL/MOL
REMARK 923 INTER-LIGAND FREE ENERGY PREDICTED BY IDOCK:   -1.88 KCAL/MOL
REMARK 924 INTRA-LIGAND FREE ENERGY PREDICTED BY IDOCK:   -0.12 KCAL/MOL
REMARK 927      BINDING AFFINITY PREDICTED BY RF-SCORE:    0.00 PKD
ROOT
HETATM    1  O   UNL     1      -9.492  10.954  65.509  1.00  0.00    -0.191 OA 
HETATM    2  C   UNL     1      -9.834  10.183  66.648  1.00  0.00    -0.200 C  
HETATM    3  H   UNL     1      -9.470  11.864  65.777  1.00  0.00     0.000 HD 
ENDROOT
BRANCH   2   4
HETATM    4  C   UNL     1      -9.869   8.756  66.228  1.00  0.00    -0.342 C  
HETATM    5  C   UNL     1      -8.986   7.824  66.619  1.00  0.00    -0.175 C  
BRANCH   5   6
HETATM    6  C   UNL     1      -9.098   6.450  66.134  1.00  0.00    -0.150 A  
HETATM    7  C   UNL     1      -8.243   5.993  65.126  1.00  0.00    -0.142 A  
HETATM    8  C   UNL     1      -8.387   4.701  64.617  1.00  0.00    -0.125 A  
HETATM    9  C   UNL     1      -9.386   3.864  65.112  1.00  0.00    -0.158 A  
HETATM   10  C   UNL     1     -10.237   4.313  66.121  1.00  0.00    -0.160 A  
HETATM   11  C   UNL     1     -10.095   5.605  66.631  1.00  0.00    -0.237 A  
ENDBRANCH   5   6
ENDBRANCH   2   4
TORSDOF 2
ENDMDL
MODEL      155
REMARK 921   NORMALIZED FREE ENERGY PREDICTED BY IDOCK:   -1.67 KCAL/MOL
REMARK 922        TOTAL FREE ENERGY PREDICTED BY IDOCK:   -2.00 KCAL/MOL
REMARK 923 INTER-LIGAND FREE ENERGY PREDICTED BY IDOCK:   -1.88 KCAL/MOL
REMARK 924 INTRA-LIGAND FREE ENERGY PREDICTED BY IDOCK:   -0.12 KCAL/MOL
REMARK 927      BINDING AFFINITY PREDICTED BY RF-SCORE:    0.00 PKD
ROOT
HETATM    1  O   UNL     1     -10.769   7.976  70.509  1.00  0.00    -0.221 OA 
HETATM    2  C   UNL     1     -10.992   6.724  71.137  1.00  0.00    -0.257 C  
HETATM    3  H   UNL     1     -11.022   8.652  71.126  1.00  0.00     0.000 HD 
ENDROOT
BRANCH   2   4
HETATM    4  C   UNL     1     -10.597   5.664  70.170  1.00  0.00    -0.380 C  
HETATM    5  C   UNL     1      -9.557   5.750  69.326  1.00  0.00    -0.176 C  
BRANCH   5   6
HETATM    6  C   UNL     1      -9.264   4.657  68.402  1.00  0.00    -0.170 A  
HETATM    7  C   UNL     1      -8.404   3.624  68.790  1.00  0.00    -0.089 A  
HETATM    8  C   UNL     1      -8.073   2.612  67.888  1.00  0.00    -0.069 A  
HETATM    9  C   UNL     1      -8.597   2.629  66.597  1.00  0.00    -0.114 A  
HETATM   10  C   UNL     1      -9.460   3.653  66.207  1.00  0.00    -0.177 A  
HETATM   11  C   UNL     1      -9.792   4.667  67.107  1.00  0.00    -0.227 A  
ENDBRANCH   5   6
ENDBRANCH   2   4
TORSDOF 2
ENDMDL
MODEL      156
REMARK 921   NORMALIZED FREE ENERGY PREDICTED BY IDOCK:   -1.66 KCAL/MOL
REMARK 922        TOTAL FREE ENERGY PREDICTED BY IDOCK:   -1.99 KCAL/MOL
REMARK 923 INTER-LIGAND FREE ENERGY PREDICTED BY IDOCK:   -1.85 KCAL/MOL
REMARK 924 INTRA-LIGAND FREE ENERGY PREDICTED BY IDOCK:   -0.13 KCAL/MOL
REMARK 927      BINDING AFFINITY PREDICTED BY RF-SCORE:    0.00 PKD
ROOT
HETATM    1  O   UNL     1      -9.935  14.008  69.125  1.00  0.00    -0.422 OA 
HETATM    2  C   UNL     1      -8.809  13.828  68.283  1.00  0.00    -0.185 C  
HETATM    3  H   UNL     1      -9.882  14.884  69.488  1.00  0.00     0.000 HD 
ENDROOT
BRANCH   2   4
HETATM    4  C   UNL     1      -8.892  12.456  67.713  1.00  0.00    -0.176 C  
HETATM    5  C   UNL     1      -8.000  11.928  66.861  1.00  0.00    -0.132 C  
BRANCH   5   6
HETATM    6  C   UNL     1      -8.182  10.574  66.344  1.00  0.00    -0.140 A  
HETATM    7  C   UNL     1      -7.417  10.130  65.260  1.00  0.00    -0.145 A  
HETATM    8  C   UNL     1      -7.632   8.859  64.725  1.00  0.00    -0.106 A  
HETATM    9  C   UNL     1      -8.612   8.030  65.268  1.00  0.00    -0.112 A  
HETATM   10  C   UNL     1      -9.373   8.466  66.352  1.00  0.00    -0.274 A  
HETATM   11  C   UNL     1      -9.160   9.737  66.890  1.00  0.00    -0.162 A  
ENDBRANCH   5   6
ENDBRANCH   2   4
TORSDOF 2
ENDMDL
MODEL      157
REMARK 921   NORMALIZED FREE ENERGY PREDICTED BY IDOCK:   -1.63 KCAL/MOL
REMARK 922        TOTAL FREE ENERGY PREDICTED BY IDOCK:   -1.96 KCAL/MOL
REMARK 923 INTER-LIGAND FREE ENERGY PREDICTED BY IDOCK:   -1.83 KCAL/MOL
REMARK 924 INTRA-LIGAND FREE ENERGY PREDICTED BY IDOCK:   -0.13 KCAL/MOL
REMARK 927      BINDING AFFINITY PREDICTED BY RF-SCORE:    0.00 PKD
ROOT
HETATM    1  O   UNL     1      -7.857   7.334  70.698  1.00  0.00    -0.092 OA 
HETATM    2  C   UNL     1      -8.746   7.582  69.621  1.00  0.00    -0.137 C  
HETATM    3  H   UNL     1      -7.805   6.393  70.814  1.00  0.00     0.000 HD 
ENDROOT
BRANCH   2   4
HETATM    4  C   UNL     1      -8.828   9.056  69.440  1.00  0.00    -0.144 C  
HETATM    5  C   UNL     1      -9.714   9.679  68.648  1.00  0.00    -0.162 C  
BRANCH   5   6
HETATM    6  C   UNL     1      -9.700  11.135  68.524  1.00  0.00    -0.196 A  
HETATM    7  C   UNL     1      -8.495  11.805  68.284  1.00  0.00    -0.161 A  
HETATM    8  C   UNL     1      -8.469  13.199  68.227  1.00  0.00    -0.161 A  
HETATM    9  C   UNL     1      -9.643  13.928  68.410  1.00  0.00    -0.215 A  
HETATM   10  C   UNL     1     -10.847  13.264  68.643  1.00  0.00    -0.285 A  
HETATM   11  C   UNL     1     -10.876  11.869  68.701  1.00  0.00    -0.273 A  
ENDBRANCH   5   6
ENDBRANCH   2   4
TORSDOF 2
ENDMDL
MODEL      158
REMARK 921   NORMALIZED FREE ENERGY PREDICTED BY IDOCK:   -1.61 KCAL/MOL
REMARK 922        TOTAL FREE ENERGY PREDICTED BY IDOCK:   -1.94 KCAL/MOL
REMARK 923 INTER-LIGAND FREE ENERGY PREDICTED BY IDOCK:   -1.80 KCAL/MOL
REMARK 924 INTRA-LIGAND FREE ENERGY PREDICTED BY IDOCK:   -0.14 KCAL/MOL
REMARK 927      BINDING AFFINITY PREDICTED BY RF-SCORE:    0.00 PKD
ROOT
HETATM    1  O   UNL     1      -7.345   6.239  65.222  1.00  0.00    -0.071 OA 
HETATM    2  C   UNL     1      -8.575   5.668  65.632  1.00  0.00    -0.150 C  
HETATM    3  H   UNL     1      -7.045   5.755  64.462  1.00  0.00     0.000 HD 
ENDROOT
BRANCH   2   4
HETATM    4  C   UNL     1      -9.045   6.426  66.823  1.00  0.00    -0.147 C  
HETATM    5  C   UNL     1      -8.269   7.218  67.579  1.00  0.00    -0.113 C  
BRANCH   5   6
HETATM    6  C   UNL     1      -8.825   7.906  68.741  1.00  0.00    -0.138 A  
HETATM    7  C   UNL     1      -7.973   8.393  69.739  1.00  0.00    -0.104 A  
HETATM    8  C   UNL     1      -8.504   8.996  70.880  1.00  0.00    -0.253 A  
HETATM    9  C   UNL     1      -9.885   9.115  71.028  1.00  0.00    -0.366 A  
HETATM   10  C   UNL     1     -10.738   8.637  70.033  1.00  0.00    -0.233 A  
HETATM   11  C   UNL     1     -10.209   8.032  68.891  1.00  0.00    -0.220 A  
ENDBRANCH   5   6
ENDBRANCH   2   4
TORSDOF 2
ENDMDL
MODEL      159
REMARK 921   NORMALIZED FREE ENERGY PREDICTED BY IDOCK:   -1.60 KCAL/MOL
REMARK 922        TOTAL FREE ENERGY PREDICTED BY IDOCK:   -1.92 KCAL/MOL
REMARK 923 INTER-LIGAND FREE ENERGY PREDICTED BY IDOCK:   -1.79 KCAL/MOL
REMARK 924 INTRA-LIGAND FREE ENERGY PREDICTED BY IDOCK:   -0.12 KCAL/MOL
REMARK 927      BINDING AFFINITY PREDICTED BY RF-SCORE:    0.00 PKD
ROOT
HETATM    1  O   UNL     1      -7.798  10.793  67.338  1.00  0.00    -0.108 OA 
HETATM    2  C   UNL     1      -8.374  11.090  68.599  1.00  0.00    -0.153 C  
HETATM    3  H   UNL     1      -7.577  11.618  66.925  1.00  0.00     0.000 HD 
ENDROOT
BRANCH   2   4
HETATM    4  C   UNL     1      -8.720   9.796  69.248  1.00  0.00    -0.165 C  
HETATM    5  C   UNL     1      -8.928   9.633  70.563  1.00  0.00    -0.186 C  
BRANCH   5   6
HETATM    6  C   UNL     1      -9.246   8.314  71.104  1.00  0.00    -0.200 A  
HETATM    7  C   UNL     1     -10.278   7.556  70.539  1.00  0.00    -0.201 A  
HETATM    8  C   UNL     1     -10.625   6.323  71.092  1.00  0.00    -0.289 A  
HETATM    9  C   UNL     1      -9.945   5.843  72.210  1.00  0.00    -0.193 A  
HETATM   10  C   UNL     1      -8.911   6.592  72.773  1.00  0.00    -0.127 A  
HETATM   11  C   UNL     1      -8.563   7.827  72.222  1.00  0.00    -0.173 A  
ENDBRANCH   5   6
ENDBRANCH   2   4
TORSDOF 2
ENDMDL
MODEL      160
REMARK 921   NORMALIZED FREE ENERGY PREDICTED BY IDOCK:   -1.51 KCAL/MOL
REMARK 922        TOTAL FREE ENERGY PREDICTED BY IDOCK:   -1.82 KCAL/MOL
REMARK 923 INTER-LIGAND FREE ENERGY PREDICTED BY IDOCK:   -1.70 KCAL/MOL
REMARK 924 INTRA-LIGAND FREE ENERGY PREDICTED BY IDOCK:   -0.12 KCAL/MOL
REMARK 927      BINDING AFFINITY PREDICTED BY RF-SCORE:    0.00 PKD
ROOT
HETATM    1  O   UNL     1      -7.761   8.117  63.818  1.00  0.00    -0.126 OA 
HETATM    2  C   UNL     1      -6.914   8.473  64.897  1.00  0.00    -0.072 C  
HETATM    3  H   UNL     1      -7.262   8.225  63.017  1.00  0.00     0.000 HD 
ENDROOT
BRANCH   2   4
HETATM    4  C   UNL     1      -7.695   8.304  66.153  1.00  0.00    -0.097 C  
HETATM    5  C   UNL     1      -8.336   9.294  66.792  1.00  0.00    -0.123 C  
BRANCH   5   6
HETATM    6  C   UNL     1      -9.062   9.026  68.031  1.00  0.00    -0.140 A  
HETATM    7  C   UNL     1      -9.916   7.922  68.117  1.00  0.00    -0.210 A  
HETATM    8  C   UNL     1     -10.657   7.698  69.278  1.00  0.00    -0.206 A  
HETATM    9  C   UNL     1     -10.550   8.576  70.355  1.00  0.00    -0.242 A  
HETATM   10  C   UNL     1      -9.694   9.675  70.277  1.00  0.00    -0.314 A  
HETATM   11  C   UNL     1      -8.952   9.901  69.116  1.00  0.00    -0.170 A  
ENDBRANCH   5   6
ENDBRANCH   2   4
TORSDOF 2
ENDMDL
MODEL      161
REMARK 921   NORMALIZED FREE ENERGY PREDICTED BY IDOCK:   -1.50 KCAL/MOL
REMARK 922        TOTAL FREE ENERGY PREDICTED BY IDOCK:   -1.81 KCAL/MOL
REMARK 923 INTER-LIGAND FREE ENERGY PREDICTED BY IDOCK:   -1.68 KCAL/MOL
REMARK 924 INTRA-LIGAND FREE ENERGY PREDICTED BY IDOCK:   -0.13 KCAL/MOL
REMARK 927      BINDING AFFINITY PREDICTED BY RF-SCORE:    0.00 PKD
ROOT
HETATM    1  O   UNL     1      -5.352   7.833  70.607  1.00  0.00    -0.023 OA 
HETATM    2  C   UNL     1      -6.559   7.409  71.217  1.00  0.00    -0.043 C  
HETATM    3  H   UNL     1      -4.801   8.198  71.290  1.00  0.00     0.000 HD 
ENDROOT
BRANCH   2   4
HETATM    4  C   UNL     1      -7.423   6.838  70.147  1.00  0.00    -0.094 C  
HETATM    5  C   UNL     1      -8.638   7.302  69.818  1.00  0.00    -0.141 C  
BRANCH   5   6
HETATM    6  C   UNL     1      -9.415   6.658  68.763  1.00  0.00    -0.129 A  
HETATM    7  C   UNL     1      -9.209   5.305  68.469  1.00  0.00    -0.138 A  
HETATM    8  C   UNL     1      -9.906   4.702  67.421  1.00  0.00    -0.207 A  
HETATM    9  C   UNL     1     -10.807   5.447  66.662  1.00  0.00    -0.220 A  
HETATM   10  C   UNL     1     -11.021   6.794  66.955  1.00  0.00    -0.439 A  
HETATM   11  C   UNL     1     -10.325   7.400  68.003  1.00  0.00    -0.247 A  
ENDBRANCH   5   6
ENDBRANCH   2   4
TORSDOF 2
ENDMDL
MODEL      162
REMARK 921   NORMALIZED FREE ENERGY PREDICTED BY IDOCK:   -1.50 KCAL/MOL
REMARK 922        TOTAL FREE ENERGY PREDICTED BY IDOCK:   -1.81 KCAL/MOL
REMARK 923 INTER-LIGAND FREE ENERGY PREDICTED BY IDOCK:   -1.67 KCAL/MOL
REMARK 924 INTRA-LIGAND FREE ENERGY PREDICTED BY IDOCK:   -0.14 KCAL/MOL
REMARK 927      BINDING AFFINITY PREDICTED BY RF-SCORE:    0.00 PKD
ROOT
HETATM    1  O   UNL     1      -8.579   8.778  63.106  1.00  0.00    -0.352 OA 
HETATM    2  C   UNL     1      -7.532   8.567  64.039  1.00  0.00    -0.116 C  
HETATM    3  H   UNL     1      -8.305   9.477  62.524  1.00  0.00     0.000 HD 
ENDROOT
BRANCH   2   4
HETATM    4  C   UNL     1      -7.961   7.471  64.950  1.00  0.00    -0.132 C  
HETATM    5  C   UNL     1      -8.231   6.216  64.561  1.00  0.00    -0.079 C  
BRANCH   5   6
HETATM    6  C   UNL     1      -8.664   5.217  65.534  1.00  0.00    -0.147 A  
HETATM    7  C   UNL     1      -9.369   5.612  66.676  1.00  0.00    -0.151 A  
HETATM    8  C   UNL     1      -9.730   4.667  67.638  1.00  0.00    -0.207 A  
HETATM    9  C   UNL     1      -9.387   3.327  67.464  1.00  0.00    -0.250 A  
HETATM   10  C   UNL     1      -8.689   2.928  66.325  1.00  0.00    -0.134 A  
HETATM   11  C   UNL     1      -8.326   3.871  65.361  1.00  0.00    -0.105 A  
ENDBRANCH   5   6
ENDBRANCH   2   4
TORSDOF 2
ENDMDL
MODEL      163
REMARK 921   NORMALIZED FREE ENERGY PREDICTED BY IDOCK:   -1.48 KCAL/MOL
REMARK 922        TOTAL FREE ENERGY PREDICTED BY IDOCK:   -1.79 KCAL/MOL
REMARK 923 INTER-LIGAND FREE ENERGY PREDICTED BY IDOCK:   -1.66 KCAL/MOL
REMARK 924 INTRA-LIGAND FREE ENERGY PREDICTED BY IDOCK:   -0.13 KCAL/MOL
REMARK 927      BINDING AFFINITY PREDICTED BY RF-SCORE:    0.00 PKD
ROOT
HETATM    1  O   UNL     1      -6.597   5.965  66.789  1.00  0.00    -0.052 OA 
HETATM    2  C   UNL     1      -7.793   6.607  67.195  1.00  0.00    -0.105 C  
HETATM    3  H   UNL     1      -6.377   6.293  65.925  1.00  0.00     0.000 HD 
ENDROOT
BRANCH   2   4
HETATM    4  C   UNL     1      -8.139   6.093  68.549  1.00  0.00    -0.108 C  
HETATM    5  C   UNL     1      -9.353   6.182  69.112  1.00  0.00    -0.132 C  
BRANCH   5   6
HETATM    6  C   UNL     1      -9.585   5.661  70.457  1.00  0.00    -0.221 A  
HETATM    7  C   UNL     1     -10.558   6.244  71.275  1.00  0.00    -0.285 A  
HETATM    8  C   UNL     1     -10.739   5.788  72.582  1.00  0.00    -0.280 A  
HETATM    9  C   UNL     1      -9.949   4.751  73.075  1.00  0.00    -0.187 A  
HETATM   10  C   UNL     1      -8.982   4.162  72.261  1.00  0.00    -0.139 A  
HETATM   11  C   UNL     1      -8.798   4.617  70.954  1.00  0.00    -0.149 A  
ENDBRANCH   5   6
ENDBRANCH   2   4
TORSDOF 2
ENDMDL
MODEL      164
REMARK 921   NORMALIZED FREE ENERGY PREDICTED BY IDOCK:   -1.48 KCAL/MOL
REMARK 922        TOTAL FREE ENERGY PREDICTED BY IDOCK:   -1.79 KCAL/MOL
REMARK 923 INTER-LIGAND FREE ENERGY PREDICTED BY IDOCK:   -1.65 KCAL/MOL
REMARK 924 INTRA-LIGAND FREE ENERGY PREDICTED BY IDOCK:   -0.14 KCAL/MOL
REMARK 927      BINDING AFFINITY PREDICTED BY RF-SCORE:    0.00 PKD
ROOT
HETATM    1  O   UNL     1      -8.152   8.862  71.955  1.00  0.00    -0.355 OA 
HETATM    2  C   UNL     1      -6.999   9.012  71.144  1.00  0.00    -0.092 C  
HETATM    3  H   UNL     1      -7.863   8.830  72.859  1.00  0.00     0.000 HD 
ENDROOT
BRANCH   2   4
HETATM    4  C   UNL     1      -7.452   9.061  69.728  1.00  0.00    -0.062 C  
HETATM    5  C   UNL     1      -8.678   9.434  69.331  1.00  0.00    -0.157 C  
BRANCH   5   6
HETATM    6  C   UNL     1      -9.030   9.430  67.913  1.00  0.00    -0.126 A  
HETATM    7  C   UNL     1      -8.063   9.113  66.953  1.00  0.00    -0.112 A  
HETATM    8  C   UNL     1      -8.380   9.168  65.595  1.00  0.00    -0.131 A  
HETATM    9  C   UNL     1      -9.661   9.542  65.192  1.00  0.00    -0.270 A  
HETATM   10  C   UNL     1     -10.630   9.852  66.146  1.00  0.00    -0.050 A  
HETATM   11  C   UNL     1     -10.316   9.798  67.505  1.00  0.00    -0.291 A  
ENDBRANCH   5   6
ENDBRANCH   2   4
TORSDOF 2
ENDMDL
MODEL      165
REMARK 921   NORMALIZED FREE ENERGY PREDICTED BY IDOCK:   -1.45 KCAL/MOL
REMARK 922        TOTAL FREE ENERGY PREDICTED BY IDOCK:   -1.75 KCAL/MOL
REMARK 923 INTER-LIGAND FREE ENERGY PREDICTED BY IDOCK:   -1.62 KCAL/MOL
REMARK 924 INTRA-LIGAND FREE ENERGY PREDICTED BY IDOCK:   -0.13 KCAL/MOL
REMARK 927      BINDING AFFINITY PREDICTED BY RF-SCORE:    0.00 PKD
ROOT
HETATM    1  O   UNL     1      -5.590   5.754  64.880  1.00  0.00    -0.018 OA 
HETATM    2  C   UNL     1      -6.847   5.276  65.327  1.00  0.00    -0.060 C  
HETATM    3  H   UNL     1      -5.185   5.060  64.374  1.00  0.00     0.000 HD 
ENDROOT
BRANCH   2   4
HETATM    4  C   UNL     1      -7.483   6.364  66.120  1.00  0.00    -0.082 C  
HETATM    5  C   UNL     1      -8.713   6.850  65.899  1.00  0.00    -0.146 C  
BRANCH   5   6
HETATM    6  C   UNL     1      -9.239   7.934  66.725  1.00  0.00    -0.206 A  
HETATM    7  C   UNL     1      -9.865   9.031  66.123  1.00  0.00    -0.349 A  
HETATM    8  C   UNL     1     -10.314  10.097  66.905  1.00  0.00    -0.298 A  
HETATM    9  C   UNL     1     -10.138  10.071  68.288  1.00  0.00    -0.182 A  
HETATM   10  C   UNL     1      -9.520   8.976  68.893  1.00  0.00    -0.151 A  
HETATM   11  C   UNL     1      -9.070   7.909  68.112  1.00  0.00    -0.133 A  
ENDBRANCH   5   6
ENDBRANCH   2   4
TORSDOF 2
ENDMDL
MODEL      166
REMARK 921   NORMALIZED FREE ENERGY PREDICTED BY IDOCK:   -1.45 KCAL/MOL
REMARK 922        TOTAL FREE ENERGY PREDICTED BY IDOCK:   -1.75 KCAL/MOL
REMARK 923 INTER-LIGAND FREE ENERGY PREDICTED BY IDOCK:   -1.61 KCAL/MOL
REMARK 924 INTRA-LIGAND FREE ENERGY PREDICTED BY IDOCK:   -0.14 KCAL/MOL
REMARK 927      BINDING AFFINITY PREDICTED BY RF-SCORE:    0.00 PKD
ROOT
HETATM    1  O   UNL     1      -6.306   6.905  63.839  1.00  0.00    -0.041 OA 
HETATM    2  C   UNL     1      -7.491   6.338  64.374  1.00  0.00    -0.088 C  
HETATM    3  H   UNL     1      -5.857   6.222  63.356  1.00  0.00     0.000 HD 
ENDROOT
BRANCH   2   4
HETATM    4  C   UNL     1      -8.195   7.408  65.131  1.00  0.00    -0.115 C  
HETATM    5  C   UNL     1      -7.799   8.689  65.190  1.00  0.00    -0.110 C  
BRANCH   5   6
HETATM    6  C   UNL     1      -8.553   9.661  65.978  1.00  0.00    -0.144 A  
HETATM    7  C   UNL     1      -7.877  10.642  66.712  1.00  0.00    -0.126 A  
HETATM    8  C   UNL     1      -8.591  11.533  67.514  1.00  0.00    -0.143 A  
HETATM    9  C   UNL     1      -9.981  11.446  67.588  1.00  0.00    -0.196 A  
HETATM   10  C   UNL     1     -10.660  10.474  66.853  1.00  0.00    -0.303 A  
HETATM   11  C   UNL     1      -9.947   9.581  66.050  1.00  0.00    -0.348 A  
ENDBRANCH   5   6
ENDBRANCH   2   4
TORSDOF 2
ENDMDL
MODEL      167
REMARK 921   NORMALIZED FREE ENERGY PREDICTED BY IDOCK:   -1.42 KCAL/MOL
REMARK 922        TOTAL FREE ENERGY PREDICTED BY IDOCK:   -1.72 KCAL/MOL
REMARK 923 INTER-LIGAND FREE ENERGY PREDICTED BY IDOCK:   -1.59 KCAL/MOL
REMARK 924 INTRA-LIGAND FREE ENERGY PREDICTED BY IDOCK:   -0.13 KCAL/MOL
REMARK 927      BINDING AFFINITY PREDICTED BY RF-SCORE:    0.00 PKD
ROOT
HETATM    1  O   UNL     1      -9.139   8.871  65.422  1.00  0.00    -0.267 OA 
HETATM    2  C   UNL     1      -8.072   9.388  66.200  1.00  0.00    -0.111 C  
HETATM    3  H   UNL     1      -8.872   8.016  65.106  1.00  0.00     0.000 HD 
ENDROOT
BRANCH   2   4
HETATM    4  C   UNL     1      -8.490  10.728  66.695  1.00  0.00    -0.142 C  
HETATM    5  C   UNL     1      -7.662  11.769  66.868  1.00  0.00    -0.129 C  
BRANCH   5   6
HETATM    6  C   UNL     1      -8.170  13.041  67.379  1.00  0.00    -0.183 A  
HETATM    7  C   UNL     1      -9.414  13.091  68.017  1.00  0.00    -0.217 A  
HETATM    8  C   UNL     1      -9.929  14.314  68.451  1.00  0.00    -0.240 A  
HETATM    9  C   UNL     1      -9.205  15.488  68.248  1.00  0.00    -0.188 A  
HETATM   10  C   UNL     1      -7.961  15.441  67.618  1.00  0.00    -0.172 A  
HETATM   11  C   UNL     1      -7.444  14.219  67.183  1.00  0.00     0.062 A  
ENDBRANCH   5   6
ENDBRANCH   2   4
TORSDOF 2
ENDMDL
MODEL      168
REMARK 921   NORMALIZED FREE ENERGY PREDICTED BY IDOCK:   -1.36 KCAL/MOL
REMARK 922        TOTAL FREE ENERGY PREDICTED BY IDOCK:   -1.66 KCAL/MOL
REMARK 923 INTER-LIGAND FREE ENERGY PREDICTED BY IDOCK:   -1.54 KCAL/MOL
REMARK 924 INTRA-LIGAND FREE ENERGY PREDICTED BY IDOCK:   -0.12 KCAL/MOL
REMARK 927      BINDING AFFINITY PREDICTED BY RF-SCORE:    0.00 PKD
ROOT
HETATM    1  O   UNL     1     -11.369  10.075  71.515  1.00  0.00    -0.301 OA 
HETATM    2  C   UNL     1     -11.408   9.823  70.120  1.00  0.00    -0.251 C  
HETATM    3  H   UNL     1     -11.969  10.789  71.692  1.00  0.00     0.000 HD 
ENDROOT
BRANCH   2   4
HETATM    4  C   UNL     1     -10.467   8.705  69.841  1.00  0.00    -0.221 C  
HETATM    5  C   UNL     1      -9.654   8.147  70.751  1.00  0.00    -0.185 C  
BRANCH   5   6
HETATM    6  C   UNL     1      -8.752   7.063  70.370  1.00  0.00    -0.147 A  
HETATM    7  C   UNL     1      -9.070   5.740  70.699  1.00  0.00    -0.164 A  
HETATM    8  C   UNL     1      -8.181   4.709  70.391  1.00  0.00    -0.075 A  
HETATM    9  C   UNL     1      -6.973   4.995  69.757  1.00  0.00    -0.053 A  
HETATM   10  C   UNL     1      -6.655   6.311  69.421  1.00  0.00    -0.044 A  
HETATM   11  C   UNL     1      -7.542   7.344  69.729  1.00  0.00    -0.095 A  
ENDBRANCH   5   6
ENDBRANCH   2   4
TORSDOF 2
ENDMDL
MODEL      169
REMARK 921   NORMALIZED FREE ENERGY PREDICTED BY IDOCK:   -1.31 KCAL/MOL
REMARK 922        TOTAL FREE ENERGY PREDICTED BY IDOCK:   -1.60 KCAL/MOL
REMARK 923 INTER-LIGAND FREE ENERGY PREDICTED BY IDOCK:   -1.46 KCAL/MOL
REMARK 924 INTRA-LIGAND FREE ENERGY PREDICTED BY IDOCK:   -0.14 KCAL/MOL
REMARK 927      BINDING AFFINITY PREDICTED BY RF-SCORE:    0.00 PKD
ROOT
HETATM    1  O   UNL     1      -9.126   8.827  64.478  1.00  0.00    -0.424 OA 
HETATM    2  C   UNL     1      -7.854   8.706  65.091  1.00  0.00    -0.110 C  
HETATM    3  H   UNL     1      -9.131   9.642  63.991  1.00  0.00     0.000 HD 
ENDROOT
BRANCH   2   4
HETATM    4  C   UNL     1      -7.846   7.429  65.855  1.00  0.00    -0.104 C  
HETATM    5  C   UNL     1      -8.701   7.126  66.844  1.00  0.00    -0.126 C  
BRANCH   5   6
HETATM    6  C   UNL     1      -8.597   5.849  67.546  1.00  0.00    -0.102 A  
HETATM    7  C   UNL     1      -7.348   5.243  67.714  1.00  0.00    -0.076 A  
HETATM    8  C   UNL     1      -7.252   3.994  68.330  1.00  0.00    -0.059 A  
HETATM    9  C   UNL     1      -8.403   3.347  68.777  1.00  0.00    -0.091 A  
HETATM   10  C   UNL     1      -9.650   3.950  68.618  1.00  0.00    -0.181 A  
HETATM   11  C   UNL     1      -9.748   5.200  68.002  1.00  0.00    -0.188 A  
ENDBRANCH   5   6
ENDBRANCH   2   4
TORSDOF 2
ENDMDL
MODEL      170
REMARK 921   NORMALIZED FREE ENERGY PREDICTED BY IDOCK:   -1.31 KCAL/MOL
REMARK 922        TOTAL FREE ENERGY PREDICTED BY IDOCK:   -1.60 KCAL/MOL
REMARK 923 INTER-LIGAND FREE ENERGY PREDICTED BY IDOCK:   -1.48 KCAL/MOL
REMARK 924 INTRA-LIGAND FREE ENERGY PREDICTED BY IDOCK:   -0.11 KCAL/MOL
REMARK 927      BINDING AFFINITY PREDICTED BY RF-SCORE:    0.00 PKD
ROOT
HETATM    1  O   UNL     1      -9.897   1.614  67.905  1.00  0.00    -0.400 OA 
HETATM    2  C   UNL     1      -9.360   2.887  68.222  1.00  0.00    -0.195 C  
HETATM    3  H   UNL     1      -9.981   1.130  68.717  1.00  0.00     0.000 HD 
ENDROOT
BRANCH   2   4
HETATM    4  C   UNL     1      -9.229   3.647  66.949  1.00  0.00    -0.204 C  
HETATM    5  C   UNL     1      -8.066   3.909  66.333  1.00  0.00    -0.097 C  
BRANCH   5   6
HETATM    6  C   UNL     1      -8.044   4.681  65.092  1.00  0.00    -0.104 A  
HETATM    7  C   UNL     1      -8.133   4.026  63.859  1.00  0.00    -0.090 A  
HETATM    8  C   UNL     1      -8.051   4.754  62.672  1.00  0.00    -0.078 A  
HETATM    9  C   UNL     1      -7.877   6.136  62.712  1.00  0.00    -0.098 A  
HETATM   10  C   UNL     1      -7.794   6.795  63.939  1.00  0.00    -0.106 A  
HETATM   11  C   UNL     1      -7.876   6.068  65.128  1.00  0.00    -0.109 A  
ENDBRANCH   5   6
ENDBRANCH   2   4
TORSDOF 2
ENDMDL
MODEL      171
REMARK 921   NORMALIZED FREE ENERGY PREDICTED BY IDOCK:   -1.31 KCAL/MOL
REMARK 922        TOTAL FREE ENERGY PREDICTED BY IDOCK:   -1.59 KCAL/MOL
REMARK 923 INTER-LIGAND FREE ENERGY PREDICTED BY IDOCK:   -1.47 KCAL/MOL
REMARK 924 INTRA-LIGAND FREE ENERGY PREDICTED BY IDOCK:   -0.13 KCAL/MOL
REMARK 927      BINDING AFFINITY PREDICTED BY RF-SCORE:    0.00 PKD
ROOT
HETATM    1  O   UNL     1      -6.706   6.416  70.439  1.00  0.00    -0.047 OA 
HETATM    2  C   UNL     1      -7.918   6.185  69.741  1.00  0.00    -0.110 C  
HETATM    3  H   UNL     1      -6.471   5.607  70.877  1.00  0.00     0.000 HD 
ENDROOT
BRANCH   2   4
HETATM    4  C   UNL     1      -8.285   7.453  69.054  1.00  0.00    -0.128 C  
HETATM    5  C   UNL     1      -8.533   8.615  69.678  1.00  0.00    -0.129 C  
BRANCH   5   6
HETATM    6  C   UNL     1      -8.906   9.801  68.911  1.00  0.00    -0.140 A  
HETATM    7  C   UNL     1     -10.137   9.848  68.248  1.00  0.00    -0.185 A  
HETATM    8  C   UNL     1     -10.469  10.954  67.465  1.00  0.00    -0.252 A  
HETATM    9  C   UNL     1      -9.574  12.015  67.340  1.00  0.00    -0.176 A  
HETATM   10  C   UNL     1      -8.348  11.976  68.004  1.00  0.00    -0.162 A  
HETATM   11  C   UNL     1      -8.013  10.870  68.788  1.00  0.00    -0.139 A  
ENDBRANCH   5   6
ENDBRANCH   2   4
TORSDOF 2
ENDMDL
MODEL      172
REMARK 921   NORMALIZED FREE ENERGY PREDICTED BY IDOCK:   -1.30 KCAL/MOL
REMARK 922        TOTAL FREE ENERGY PREDICTED BY IDOCK:   -1.58 KCAL/MOL
REMARK 923 INTER-LIGAND FREE ENERGY PREDICTED BY IDOCK:   -1.45 KCAL/MOL
REMARK 924 INTRA-LIGAND FREE ENERGY PREDICTED BY IDOCK:   -0.13 KCAL/MOL
REMARK 927      BINDING AFFINITY PREDICTED BY RF-SCORE:    0.00 PKD
ROOT
HETATM    1  O   UNL     1      -9.688   5.202  71.373  1.00  0.00    -0.155 OA 
HETATM    2  C   UNL     1      -9.547   5.427  69.980  1.00  0.00    -0.169 C  
HETATM    3  H   UNL     1     -10.101   4.354  71.484  1.00  0.00     0.000 HD 
ENDROOT
BRANCH   2   4
HETATM    4  C   UNL     1      -8.901   6.756  69.805  1.00  0.00    -0.141 C  
HETATM    5  C   UNL     1      -9.563   7.908  69.617  1.00  0.00    -0.164 C  
BRANCH   5   6
HETATM    6  C   UNL     1      -8.832   9.160  69.437  1.00  0.00    -0.146 A  
HETATM    7  C   UNL     1      -9.253  10.083  68.474  1.00  0.00    -0.141 A  
HETATM    8  C   UNL     1      -8.521  11.252  68.258  1.00  0.00    -0.152 A  
HETATM    9  C   UNL     1      -7.368  11.501  69.000  1.00  0.00    -0.094 A  
HETATM   10  C   UNL     1      -6.948  10.586  69.966  1.00  0.00    -0.150 A  
HETATM   11  C   UNL     1      -7.678   9.416  70.184  1.00  0.00    -0.140 A  
ENDBRANCH   5   6
ENDBRANCH   2   4
TORSDOF 2
ENDMDL
MODEL      173
REMARK 921   NORMALIZED FREE ENERGY PREDICTED BY IDOCK:   -1.25 KCAL/MOL
REMARK 922        TOTAL FREE ENERGY PREDICTED BY IDOCK:   -1.53 KCAL/MOL
REMARK 923 INTER-LIGAND FREE ENERGY PREDICTED BY IDOCK:   -1.40 KCAL/MOL
REMARK 924 INTRA-LIGAND FREE ENERGY PREDICTED BY IDOCK:   -0.13 KCAL/MOL
REMARK 927      BINDING AFFINITY PREDICTED BY RF-SCORE:    0.00 PKD
ROOT
HETATM    1  O   UNL     1      -7.009   8.708  69.732  1.00  0.00    -0.045 OA 
HETATM    2  C   UNL     1      -7.724   8.842  70.949  1.00  0.00    -0.122 C  
HETATM    3  H   UNL     1      -6.860   9.582  69.392  1.00  0.00     0.000 HD 
ENDROOT
BRANCH   2   4
HETATM    4  C   UNL     1      -7.958   7.473  71.483  1.00  0.00    -0.094 C  
HETATM    5  C   UNL     1      -9.167   6.933  71.694  1.00  0.00    -0.146 C  
BRANCH   5   6
HETATM    6  C   UNL     1      -9.289   5.583  72.240  1.00  0.00    -0.159 A  
HETATM    7  C   UNL     1     -10.555   5.020  72.438  1.00  0.00    -0.275 A  
HETATM    8  C   UNL     1     -10.677   3.756  73.016  1.00  0.00    -0.236 A  
HETATM    9  C   UNL     1      -9.537   3.051  73.400  1.00  0.00    -0.133 A  
HETATM   10  C   UNL     1      -8.273   3.605  73.199  1.00  0.00    -0.079 A  
HETATM   11  C   UNL     1      -8.148   4.870  72.621  1.00  0.00    -0.104 A  
ENDBRANCH   5   6
ENDBRANCH   2   4
TORSDOF 2
ENDMDL
MODEL      174
REMARK 921   NORMALIZED FREE ENERGY PREDICTED BY IDOCK:   -1.18 KCAL/MOL
REMARK 922        TOTAL FREE ENERGY PREDICTED BY IDOCK:   -1.45 KCAL/MOL
REMARK 923 INTER-LIGAND FREE ENERGY PREDICTED BY IDOCK:   -1.33 KCAL/MOL
REMARK 924 INTRA-LIGAND FREE ENERGY PREDICTED BY IDOCK:   -0.12 KCAL/MOL
REMARK 927      BINDING AFFINITY PREDICTED BY RF-SCORE:    0.00 PKD
ROOT
HETATM    1  O   UNL     1      -7.648   6.648  68.982  1.00  0.00    -0.096 OA 
HETATM    2  C   UNL     1      -8.457   5.590  69.467  1.00  0.00    -0.105 C  
HETATM    3  H   UNL     1      -7.381   7.168  69.730  1.00  0.00     0.000 HD 
ENDROOT
BRANCH   2   4
HETATM    4  C   UNL     1      -8.877   4.775  68.295  1.00  0.00    -0.117 C  
HETATM    5  C   UNL     1      -8.397   4.924  67.051  1.00  0.00    -0.106 C  
BRANCH   5   6
HETATM    6  C   UNL     1      -8.889   4.082  65.963  1.00  0.00    -0.120 A  
HETATM    7  C   UNL     1      -8.166   2.951  65.571  1.00  0.00    -0.088 A  
HETATM    8  C   UNL     1      -8.601   2.179  64.493  1.00  0.00    -0.095 A  
HETATM    9  C   UNL     1      -9.757   2.537  63.801  1.00  0.00    -0.133 A  
HETATM   10  C   UNL     1     -10.486   3.660  64.191  1.00  0.00    -0.253 A  
HETATM   11  C   UNL     1     -10.052   4.434  65.270  1.00  0.00    -0.218 A  
ENDBRANCH   5   6
ENDBRANCH   2   4
TORSDOF 2
ENDMDL
MODEL      175
REMARK 921   NORMALIZED FREE ENERGY PREDICTED BY IDOCK:   -1.08 KCAL/MOL
REMARK 922        TOTAL FREE ENERGY PREDICTED BY IDOCK:   -1.34 KCAL/MOL
REMARK 923 INTER-LIGAND FREE ENERGY PREDICTED BY IDOCK:   -1.21 KCAL/MOL
REMARK 924 INTRA-LIGAND FREE ENERGY PREDICTED BY IDOCK:   -0.13 KCAL/MOL
REMARK 927      BINDING AFFINITY PREDICTED BY RF-SCORE:    0.00 PKD
ROOT
HETATM    1  O   UNL     1      -8.190   9.300  65.231  1.00  0.00    -0.122 OA 
HETATM    2  C   UNL     1      -8.586   8.595  66.396  1.00  0.00    -0.119 C  
HETATM    3  H   UNL     1      -8.054  10.206  65.479  1.00  0.00     0.000 HD 
ENDROOT
BRANCH   2   4
HETATM    4  C   UNL     1      -8.800   7.174  66.007  1.00  0.00    -0.154 C  
HETATM    5  C   UNL     1      -8.062   6.143  66.447  1.00  0.00    -0.111 C  
BRANCH   5   6
HETATM    6  C   UNL     1      -8.344   4.785  65.989  1.00  0.00    -0.112 A  
HETATM    7  C   UNL     1      -9.365   4.557  65.060  1.00  0.00    -0.157 A  
HETATM    8  C   UNL     1      -9.677   3.254  64.668  1.00  0.00    -0.149 A  
HETATM    9  C   UNL     1      -8.972   2.177  65.202  1.00  0.00    -0.124 A  
HETATM   10  C   UNL     1      -7.949   2.399  66.123  1.00  0.00    -0.082 A  
HETATM   11  C   UNL     1      -7.635   3.702  66.518  1.00  0.00    -0.080 A  
ENDBRANCH   5   6
ENDBRANCH   2   4
TORSDOF 2
ENDMDL
MODEL      176
REMARK 921   NORMALIZED FREE ENERGY PREDICTED BY IDOCK:   -0.82 KCAL/MOL
REMARK 922        TOTAL FREE ENERGY PREDICTED BY IDOCK:   -1.05 KCAL/MOL
REMARK 923 INTER-LIGAND FREE ENERGY PREDICTED BY IDOCK:   -0.92 KCAL/MOL
REMARK 924 INTRA-LIGAND FREE ENERGY PREDICTED BY IDOCK:   -0.13 KCAL/MOL
REMARK 927      BINDING AFFINITY PREDICTED BY RF-SCORE:    0.00 PKD
ROOT
HETATM    1  O   UNL     1     -11.233   3.765  72.729  1.00  0.00     0.046 OA 
HETATM    2  C   UNL     1      -9.979   3.447  72.151  1.00  0.00    -0.160 C  
HETATM    3  H   UNL     1     -11.636   2.949  73.001  1.00  0.00     0.000 HD 
ENDROOT
BRANCH   2   4
HETATM    4  C   UNL     1      -9.347   4.725  71.724  1.00  0.00    -0.186 C  
HETATM    5  C   UNL     1      -8.183   5.196  72.196  1.00  0.00    -0.114 C  
BRANCH   5   6
HETATM    6  C   UNL     1      -7.656   6.474  71.724  1.00  0.00    -0.094 A  
HETATM    7  C   UNL     1      -8.388   7.649  71.923  1.00  0.00    -0.125 A  
HETATM    8  C   UNL     1      -7.917   8.862  71.419  1.00  0.00    -0.150 A  
HETATM    9  C   UNL     1      -6.715   8.905  70.715  1.00  0.00    -0.059 A  
HETATM   10  C   UNL     1      -5.977   7.737  70.520  1.00  0.00    -0.030 A  
HETATM   11  C   UNL     1      -6.447   6.523  71.023  1.00  0.00    -0.049 A  
ENDBRANCH   5   6
ENDBRANCH   2   4
TORSDOF 2
ENDMDL
