MODEL        1
REMARK 921   NORMALIZED FREE ENERGY PREDICTED BY IDOCK:   -4.49 KCAL/MOL
REMARK 922        TOTAL FREE ENERGY PREDICTED BY IDOCK:   -4.89 KCAL/MOL
REMARK 923 INTER-LIGAND FREE ENERGY PREDICTED BY IDOCK:   -4.76 KCAL/MOL
REMARK 924 INTRA-LIGAND FREE ENERGY PREDICTED BY IDOCK:   -0.13 KCAL/MOL
REMARK 927      BINDING AFFINITY PREDICTED BY RF-SCORE:    0.00 PKD
ROOT
HETATM    1  O   UNL     1     -12.742   8.227  72.065  1.00  0.00    -0.321 OA 
HETATM    2  C   UNL     1     -12.413   9.154  71.337  1.00  0.00    -0.328 C  
HETATM    3  C   UNL     1     -12.789  10.546  71.648  1.00  0.00    -0.581 C  
HETATM    4  C   UNL     1     -12.418  11.538  70.830  1.00  0.00    -0.444 C  
ENDROOT
BRANCH   4   5
HETATM    5  C   UNL     1     -12.764  12.927  71.132  1.00  0.00    -0.366 A  
HETATM    6  C   UNL     1     -13.552  13.224  72.249  1.00  0.00    -0.703 A  
HETATM    7  C   UNL     1     -13.895  14.546  72.535  1.00  0.00    -0.555 A  
HETATM    8  C   UNL     1     -13.453  15.576  71.706  1.00  0.00    -0.576 A  
HETATM    9  C   UNL     1     -12.669  15.285  70.590  1.00  0.00    -0.470 A  
HETATM   10  C   UNL     1     -12.326  13.963  70.301  1.00  0.00    -0.413 A  
ENDBRANCH   4   5
TORSDOF 1
ENDMDL
MODEL        2
REMARK 921   NORMALIZED FREE ENERGY PREDICTED BY IDOCK:   -4.48 KCAL/MOL
REMARK 922        TOTAL FREE ENERGY PREDICTED BY IDOCK:   -4.88 KCAL/MOL
REMARK 923 INTER-LIGAND FREE ENERGY PREDICTED BY IDOCK:   -4.75 KCAL/MOL
REMARK 924 INTRA-LIGAND FREE ENERGY PREDICTED BY IDOCK:   -0.13 KCAL/MOL
REMARK 927      BINDING AFFINITY PREDICTED BY RF-SCORE:    0.00 PKD
ROOT
HETATM    1  O   UNL     1     -12.695   8.090  72.068  1.00  0.00    -0.315 OA 
HETATM    2  C   UNL     1     -12.293   9.035  71.403  1.00  0.00    -0.318 C  
HETATM    3  C   UNL     1     -12.762  10.410  71.660  1.00  0.00    -0.560 C  
HETATM    4  C   UNL     1     -12.306  11.423  70.913  1.00  0.00    -0.483 C  
ENDROOT
BRANCH   4   5
HETATM    5  C   UNL     1     -12.744  12.795  71.166  1.00  0.00    -0.355 A  
HETATM    6  C   UNL     1     -12.263  13.840  70.370  1.00  0.00    -0.433 A  
HETATM    7  C   UNL     1     -12.669  15.153  70.615  1.00  0.00    -0.451 A  
HETATM    8  C   UNL     1     -13.555  15.427  71.655  1.00  0.00    -0.603 A  
HETATM    9  C   UNL     1     -14.035  14.389  72.454  1.00  0.00    -0.585 A  
HETATM   10  C   UNL     1     -13.630  13.075  72.212  1.00  0.00    -0.643 A  
ENDBRANCH   4   5
TORSDOF 1
ENDMDL
MODEL        3
REMARK 921   NORMALIZED FREE ENERGY PREDICTED BY IDOCK:   -4.47 KCAL/MOL
REMARK 922        TOTAL FREE ENERGY PREDICTED BY IDOCK:   -4.86 KCAL/MOL
REMARK 923 INTER-LIGAND FREE ENERGY PREDICTED BY IDOCK:   -4.73 KCAL/MOL
REMARK 924 INTRA-LIGAND FREE ENERGY PREDICTED BY IDOCK:   -0.13 KCAL/MOL
REMARK 927      BINDING AFFINITY PREDICTED BY RF-SCORE:    0.00 PKD
ROOT
HETATM    1  O   UNL     1     -11.556  10.717  67.754  1.00  0.00    -0.501 OA 
HETATM    2  C   UNL     1     -11.646  11.924  67.931  1.00  0.00    -0.323 C  
HETATM    3  C   UNL     1     -11.903  12.487  69.270  1.00  0.00    -0.360 C  
HETATM    4  C   UNL     1     -12.000  13.812  69.432  1.00  0.00    -0.397 C  
ENDROOT
BRANCH   4   5
HETATM    5  C   UNL     1     -12.236  14.390  70.755  1.00  0.00    -0.413 A  
HETATM    6  C   UNL     1     -13.086  13.743  71.658  1.00  0.00    -0.456 A  
HETATM    7  C   UNL     1     -13.323  14.297  72.917  1.00  0.00    -0.561 A  
HETATM    8  C   UNL     1     -12.713  15.497  73.279  1.00  0.00    -0.625 A  
HETATM    9  C   UNL     1     -11.867  16.147  72.380  1.00  0.00    -0.637 A  
HETATM   10  C   UNL     1     -11.629  15.596  71.119  1.00  0.00    -0.462 A  
ENDBRANCH   4   5
TORSDOF 1
ENDMDL
MODEL        4
REMARK 921   NORMALIZED FREE ENERGY PREDICTED BY IDOCK:   -4.45 KCAL/MOL
REMARK 922        TOTAL FREE ENERGY PREDICTED BY IDOCK:   -4.85 KCAL/MOL
REMARK 923 INTER-LIGAND FREE ENERGY PREDICTED BY IDOCK:   -4.72 KCAL/MOL
REMARK 924 INTRA-LIGAND FREE ENERGY PREDICTED BY IDOCK:   -0.13 KCAL/MOL
REMARK 927      BINDING AFFINITY PREDICTED BY RF-SCORE:    0.00 PKD
ROOT
HETATM    1  O   UNL     1     -11.801  12.649  66.655  1.00  0.00    -0.389 OA 
HETATM    2  C   UNL     1     -11.480  13.639  67.299  1.00  0.00    -0.343 C  
HETATM    3  C   UNL     1     -12.111  13.951  68.595  1.00  0.00    -0.337 C  
HETATM    4  C   UNL     1     -11.741  15.043  69.274  1.00  0.00    -0.349 C  
ENDROOT
BRANCH   4   5
HETATM    5  C   UNL     1     -12.341  15.359  70.570  1.00  0.00    -0.452 A  
HETATM    6  C   UNL     1     -11.592  16.028  71.543  1.00  0.00    -0.529 A  
HETATM    7  C   UNL     1     -12.156  16.321  72.785  1.00  0.00    -0.637 A  
HETATM    8  C   UNL     1     -13.470  15.945  73.061  1.00  0.00    -0.653 A  
HETATM    9  C   UNL     1     -14.221  15.275  72.095  1.00  0.00    -0.667 A  
HETATM   10  C   UNL     1     -13.658  14.980  70.851  1.00  0.00    -0.363 A  
ENDBRANCH   4   5
TORSDOF 1
ENDMDL
MODEL        5
REMARK 921   NORMALIZED FREE ENERGY PREDICTED BY IDOCK:   -4.43 KCAL/MOL
REMARK 922        TOTAL FREE ENERGY PREDICTED BY IDOCK:   -4.82 KCAL/MOL
REMARK 923 INTER-LIGAND FREE ENERGY PREDICTED BY IDOCK:   -4.70 KCAL/MOL
REMARK 924 INTRA-LIGAND FREE ENERGY PREDICTED BY IDOCK:   -0.12 KCAL/MOL
REMARK 927      BINDING AFFINITY PREDICTED BY RF-SCORE:    0.00 PKD
ROOT
HETATM    1  O   UNL     1     -10.925  15.091  66.299  1.00  0.00    -0.332 OA 
HETATM    2  C   UNL     1     -11.289  14.396  67.238  1.00  0.00    -0.342 C  
HETATM    3  C   UNL     1     -11.642  14.989  68.541  1.00  0.00    -0.348 C  
HETATM    4  C   UNL     1     -12.033  14.202  69.551  1.00  0.00    -0.389 C  
ENDROOT
BRANCH   4   5
HETATM    5  C   UNL     1     -12.406  14.773  70.844  1.00  0.00    -0.388 A  
HETATM    6  C   UNL     1     -13.755  14.859  71.208  1.00  0.00    -0.505 A  
HETATM    7  C   UNL     1     -14.117  15.414  72.436  1.00  0.00    -0.645 A  
HETATM    8  C   UNL     1     -13.134  15.887  73.305  1.00  0.00    -0.694 A  
HETATM    9  C   UNL     1     -11.789  15.806  72.946  1.00  0.00    -0.568 A  
HETATM   10  C   UNL     1     -11.424  15.252  71.717  1.00  0.00    -0.494 A  
ENDBRANCH   4   5
TORSDOF 1
ENDMDL
MODEL        6
REMARK 921   NORMALIZED FREE ENERGY PREDICTED BY IDOCK:   -4.42 KCAL/MOL
REMARK 922        TOTAL FREE ENERGY PREDICTED BY IDOCK:   -4.81 KCAL/MOL
REMARK 923 INTER-LIGAND FREE ENERGY PREDICTED BY IDOCK:   -4.68 KCAL/MOL
REMARK 924 INTRA-LIGAND FREE ENERGY PREDICTED BY IDOCK:   -0.12 KCAL/MOL
REMARK 927      BINDING AFFINITY PREDICTED BY RF-SCORE:    0.00 PKD
ROOT
HETATM    1  O   UNL     1     -12.659  13.948  63.405  1.00  0.00    -0.853 OA 
HETATM    2  C   UNL     1     -12.126  14.308  64.447  1.00  0.00    -0.468 C  
HETATM    3  C   UNL     1     -12.293  13.547  65.698  1.00  0.00    -0.522 C  
HETATM    4  C   UNL     1     -11.700  13.968  66.822  1.00  0.00    -0.430 C  
ENDROOT
BRANCH   4   5
HETATM    5  C   UNL     1     -11.838  13.215  68.069  1.00  0.00    -0.398 A  
HETATM    6  C   UNL     1     -12.014  13.894  69.279  1.00  0.00    -0.402 A  
HETATM    7  C   UNL     1     -12.134  13.181  70.473  1.00  0.00    -0.385 A  
HETATM    8  C   UNL     1     -12.077  11.788  70.462  1.00  0.00    -0.439 A  
HETATM    9  C   UNL     1     -11.898  11.107  69.258  1.00  0.00    -0.422 A  
HETATM   10  C   UNL     1     -11.777  11.818  68.063  1.00  0.00    -0.363 A  
ENDBRANCH   4   5
TORSDOF 1
ENDMDL
MODEL        7
REMARK 921   NORMALIZED FREE ENERGY PREDICTED BY IDOCK:   -4.35 KCAL/MOL
REMARK 922        TOTAL FREE ENERGY PREDICTED BY IDOCK:   -4.74 KCAL/MOL
REMARK 923 INTER-LIGAND FREE ENERGY PREDICTED BY IDOCK:   -4.61 KCAL/MOL
REMARK 924 INTRA-LIGAND FREE ENERGY PREDICTED BY IDOCK:   -0.13 KCAL/MOL
REMARK 927      BINDING AFFINITY PREDICTED BY RF-SCORE:    0.00 PKD
ROOT
HETATM    1  O   UNL     1     -12.612  13.675  63.163  1.00  0.00    -0.792 OA 
HETATM    2  C   UNL     1     -12.056  12.967  63.993  1.00  0.00    -0.455 C  
HETATM    3  C   UNL     1     -12.215  13.208  65.439  1.00  0.00    -0.510 C  
HETATM    4  C   UNL     1     -11.592  12.418  66.322  1.00  0.00    -0.449 C  
ENDROOT
BRANCH   4   5
HETATM    5  C   UNL     1     -11.753  12.629  67.760  1.00  0.00    -0.412 A  
HETATM    6  C   UNL     1     -11.775  11.533  68.629  1.00  0.00    -0.389 A  
HETATM    7  C   UNL     1     -11.940  11.729  70.001  1.00  0.00    -0.421 A  
HETATM    8  C   UNL     1     -12.086  13.019  70.510  1.00  0.00    -0.373 A  
HETATM    9  C   UNL     1     -12.068  14.114  69.647  1.00  0.00    -0.400 A  
HETATM   10  C   UNL     1     -11.903  13.921  68.274  1.00  0.00    -0.412 A  
ENDBRANCH   4   5
TORSDOF 1
ENDMDL
MODEL        8
REMARK 921   NORMALIZED FREE ENERGY PREDICTED BY IDOCK:   -4.30 KCAL/MOL
REMARK 922        TOTAL FREE ENERGY PREDICTED BY IDOCK:   -4.68 KCAL/MOL
REMARK 923 INTER-LIGAND FREE ENERGY PREDICTED BY IDOCK:   -4.55 KCAL/MOL
REMARK 924 INTRA-LIGAND FREE ENERGY PREDICTED BY IDOCK:   -0.13 KCAL/MOL
REMARK 927      BINDING AFFINITY PREDICTED BY RF-SCORE:    0.00 PKD
ROOT
HETATM    1  O   UNL     1     -12.650  16.541  74.503  1.00  0.00    -0.750 OA 
HETATM    2  C   UNL     1     -12.611  15.518  73.831  1.00  0.00    -0.629 C  
HETATM    3  C   UNL     1     -12.326  15.558  72.385  1.00  0.00    -0.496 C  
HETATM    4  C   UNL     1     -12.294  14.423  71.677  1.00  0.00    -0.415 C  
ENDROOT
BRANCH   4   5
HETATM    5  C   UNL     1     -11.993  14.441  70.246  1.00  0.00    -0.388 A  
HETATM    6  C   UNL     1     -11.680  15.649  69.613  1.00  0.00    -0.373 A  
HETATM    7  C   UNL     1     -11.404  15.673  68.245  1.00  0.00    -0.357 A  
HETATM    8  C   UNL     1     -11.441  14.492  67.504  1.00  0.00    -0.375 A  
HETATM    9  C   UNL     1     -11.756  13.286  68.130  1.00  0.00    -0.397 A  
HETATM   10  C   UNL     1     -12.033  13.260  69.499  1.00  0.00    -0.366 A  
ENDBRANCH   4   5
TORSDOF 1
ENDMDL
MODEL        9
REMARK 921   NORMALIZED FREE ENERGY PREDICTED BY IDOCK:   -4.27 KCAL/MOL
REMARK 922        TOTAL FREE ENERGY PREDICTED BY IDOCK:   -4.65 KCAL/MOL
REMARK 923 INTER-LIGAND FREE ENERGY PREDICTED BY IDOCK:   -4.53 KCAL/MOL
REMARK 924 INTRA-LIGAND FREE ENERGY PREDICTED BY IDOCK:   -0.12 KCAL/MOL
REMARK 927      BINDING AFFINITY PREDICTED BY RF-SCORE:    0.00 PKD
ROOT
HETATM    1  O   UNL     1     -12.005  13.410  65.901  1.00  0.00    -0.366 OA 
HETATM    2  C   UNL     1     -11.814  12.974  67.028  1.00  0.00    -0.377 C  
HETATM    3  C   UNL     1     -12.123  13.777  68.226  1.00  0.00    -0.314 C  
HETATM    4  C   UNL     1     -11.899  13.273  69.445  1.00  0.00    -0.386 C  
ENDROOT
BRANCH   4   5
HETATM    5  C   UNL     1     -12.218  14.046  70.645  1.00  0.00    -0.442 A  
HETATM    6  C   UNL     1     -11.622  15.296  70.849  1.00  0.00    -0.382 A  
HETATM    7  C   UNL     1     -11.914  16.033  71.998  1.00  0.00    -0.622 A  
HETATM    8  C   UNL     1     -12.799  15.525  72.947  1.00  0.00    -0.564 A  
HETATM    9  C   UNL     1     -13.393  14.278  72.750  1.00  0.00    -0.621 A  
HETATM   10  C   UNL     1     -13.103  13.538  71.601  1.00  0.00    -0.459 A  
ENDBRANCH   4   5
TORSDOF 1
ENDMDL
MODEL       10
REMARK 921   NORMALIZED FREE ENERGY PREDICTED BY IDOCK:   -4.23 KCAL/MOL
REMARK 922        TOTAL FREE ENERGY PREDICTED BY IDOCK:   -4.61 KCAL/MOL
REMARK 923 INTER-LIGAND FREE ENERGY PREDICTED BY IDOCK:   -4.48 KCAL/MOL
REMARK 924 INTRA-LIGAND FREE ENERGY PREDICTED BY IDOCK:   -0.13 KCAL/MOL
REMARK 927      BINDING AFFINITY PREDICTED BY RF-SCORE:    0.00 PKD
ROOT
HETATM    1  O   UNL     1     -14.039  14.155  72.659  1.00  0.00    -0.617 OA 
HETATM    2  C   UNL     1     -13.362  13.442  71.930  1.00  0.00    -0.451 C  
HETATM    3  C   UNL     1     -13.376  11.973  72.062  1.00  0.00    -0.447 C  
HETATM    4  C   UNL     1     -12.621  11.221  71.252  1.00  0.00    -0.487 C  
ENDROOT
BRANCH   4   5
HETATM    5  C   UNL     1     -12.637   9.762  71.355  1.00  0.00    -0.482 A  
HETATM    6  C   UNL     1     -11.454   9.036  71.176  1.00  0.00    -0.376 A  
HETATM    7  C   UNL     1     -11.466   7.643  71.262  1.00  0.00    -0.293 A  
HETATM    8  C   UNL     1     -12.658   6.970  71.526  1.00  0.00    -0.426 A  
HETATM    9  C   UNL     1     -13.840   7.689  71.702  1.00  0.00    -0.480 A  
HETATM   10  C   UNL     1     -13.831   9.083  71.615  1.00  0.00    -0.422 A  
ENDBRANCH   4   5
TORSDOF 1
ENDMDL
MODEL       11
REMARK 921   NORMALIZED FREE ENERGY PREDICTED BY IDOCK:   -4.21 KCAL/MOL
REMARK 922        TOTAL FREE ENERGY PREDICTED BY IDOCK:   -4.59 KCAL/MOL
REMARK 923 INTER-LIGAND FREE ENERGY PREDICTED BY IDOCK:   -4.46 KCAL/MOL
REMARK 924 INTRA-LIGAND FREE ENERGY PREDICTED BY IDOCK:   -0.13 KCAL/MOL
REMARK 927      BINDING AFFINITY PREDICTED BY RF-SCORE:    0.00 PKD
ROOT
HETATM    1  O   UNL     1     -13.790  16.233  73.490  1.00  0.00    -0.531 OA 
HETATM    2  C   UNL     1     -13.605  15.705  72.402  1.00  0.00    -0.524 C  
HETATM    3  C   UNL     1     -13.183  14.296  72.292  1.00  0.00    -0.508 C  
HETATM    4  C   UNL     1     -12.986  13.748  71.087  1.00  0.00    -0.370 C  
ENDROOT
BRANCH   4   5
HETATM    5  C   UNL     1     -12.587  12.347  70.958  1.00  0.00    -0.349 A  
HETATM    6  C   UNL     1     -13.070  11.396  71.863  1.00  0.00    -0.505 A  
HETATM    7  C   UNL     1     -12.682  10.060  71.751  1.00  0.00    -0.526 A  
HETATM    8  C   UNL     1     -11.810   9.669  70.737  1.00  0.00    -0.378 A  
HETATM    9  C   UNL     1     -11.323  10.614  69.834  1.00  0.00    -0.386 A  
HETATM   10  C   UNL     1     -11.709  11.952  69.944  1.00  0.00    -0.383 A  
ENDBRANCH   4   5
TORSDOF 1
ENDMDL
MODEL       12
REMARK 921   NORMALIZED FREE ENERGY PREDICTED BY IDOCK:   -4.15 KCAL/MOL
REMARK 922        TOTAL FREE ENERGY PREDICTED BY IDOCK:   -4.53 KCAL/MOL
REMARK 923 INTER-LIGAND FREE ENERGY PREDICTED BY IDOCK:   -4.40 KCAL/MOL
REMARK 924 INTRA-LIGAND FREE ENERGY PREDICTED BY IDOCK:   -0.13 KCAL/MOL
REMARK 927      BINDING AFFINITY PREDICTED BY RF-SCORE:    0.00 PKD
ROOT
HETATM    1  O   UNL     1     -12.603  16.522  74.211  1.00  0.00    -0.706 OA 
HETATM    2  C   UNL     1     -12.784  15.369  73.842  1.00  0.00    -0.554 C  
HETATM    3  C   UNL     1     -12.476  14.946  72.464  1.00  0.00    -0.432 C  
HETATM    4  C   UNL     1     -12.688  13.679  72.089  1.00  0.00    -0.266 C  
ENDROOT
BRANCH   4   5
HETATM    5  C   UNL     1     -12.370  13.236  70.732  1.00  0.00    -0.425 A  
HETATM    6  C   UNL     1     -12.171  11.877  70.469  1.00  0.00    -0.426 A  
HETATM    7  C   UNL     1     -11.856  11.450  69.178  1.00  0.00    -0.413 A  
HETATM    8  C   UNL     1     -11.738  12.380  68.145  1.00  0.00    -0.408 A  
HETATM    9  C   UNL     1     -11.933  13.737  68.403  1.00  0.00    -0.395 A  
HETATM   10  C   UNL     1     -12.247  14.166  69.694  1.00  0.00    -0.376 A  
ENDBRANCH   4   5
TORSDOF 1
ENDMDL
MODEL       13
REMARK 921   NORMALIZED FREE ENERGY PREDICTED BY IDOCK:   -4.10 KCAL/MOL
REMARK 922        TOTAL FREE ENERGY PREDICTED BY IDOCK:   -4.47 KCAL/MOL
REMARK 923 INTER-LIGAND FREE ENERGY PREDICTED BY IDOCK:   -4.35 KCAL/MOL
REMARK 924 INTRA-LIGAND FREE ENERGY PREDICTED BY IDOCK:   -0.12 KCAL/MOL
REMARK 927      BINDING AFFINITY PREDICTED BY RF-SCORE:    0.00 PKD
ROOT
HETATM    1  O   UNL     1     -12.059  12.249  66.256  1.00  0.00    -0.626 OA 
HETATM    2  C   UNL     1     -11.868  12.420  67.453  1.00  0.00    -0.289 C  
HETATM    3  C   UNL     1     -11.904  11.295  68.405  1.00  0.00    -0.331 C  
HETATM    4  C   UNL     1     -11.695  11.514  69.709  1.00  0.00    -0.426 C  
ENDROOT
BRANCH   4   5
HETATM    5  C   UNL     1     -11.708  10.408  70.666  1.00  0.00    -0.444 A  
HETATM    6  C   UNL     1     -12.878  10.109  71.372  1.00  0.00    -0.530 A  
HETATM    7  C   UNL     1     -12.892   9.062  72.295  1.00  0.00    -0.474 A  
HETATM    8  C   UNL     1     -11.738   8.312  72.517  1.00  0.00    -0.451 A  
HETATM    9  C   UNL     1     -10.568   8.608  71.818  1.00  0.00    -0.395 A  
HETATM   10  C   UNL     1     -10.551   9.656  70.894  1.00  0.00    -0.386 A  
ENDBRANCH   4   5
TORSDOF 1
ENDMDL
MODEL       14
REMARK 921   NORMALIZED FREE ENERGY PREDICTED BY IDOCK:   -4.09 KCAL/MOL
REMARK 922        TOTAL FREE ENERGY PREDICTED BY IDOCK:   -4.47 KCAL/MOL
REMARK 923 INTER-LIGAND FREE ENERGY PREDICTED BY IDOCK:   -4.34 KCAL/MOL
REMARK 924 INTRA-LIGAND FREE ENERGY PREDICTED BY IDOCK:   -0.13 KCAL/MOL
REMARK 927      BINDING AFFINITY PREDICTED BY RF-SCORE:    0.00 PKD
ROOT
HETATM    1  O   UNL     1     -13.137  12.631  64.626  1.00  0.00    -0.821 OA 
HETATM    2  C   UNL     1     -12.305  13.287  65.238  1.00  0.00    -0.476 C  
HETATM    3  C   UNL     1     -12.473  13.598  66.670  1.00  0.00    -0.291 C  
HETATM    4  C   UNL     1     -11.546  14.321  67.311  1.00  0.00    -0.401 C  
ENDROOT
BRANCH   4   5
HETATM    5  C   UNL     1     -11.686  14.622  68.735  1.00  0.00    -0.357 A  
HETATM    6  C   UNL     1     -12.160  13.642  69.614  1.00  0.00    -0.378 A  
HETATM    7  C   UNL     1     -12.306  13.929  70.972  1.00  0.00    -0.453 A  
HETATM    8  C   UNL     1     -11.980  15.194  71.458  1.00  0.00    -0.421 A  
HETATM    9  C   UNL     1     -11.510  16.176  70.585  1.00  0.00    -0.386 A  
HETATM   10  C   UNL     1     -11.364  15.892  69.226  1.00  0.00    -0.355 A  
ENDBRANCH   4   5
TORSDOF 1
ENDMDL
MODEL       15
REMARK 921   NORMALIZED FREE ENERGY PREDICTED BY IDOCK:   -4.07 KCAL/MOL
REMARK 922        TOTAL FREE ENERGY PREDICTED BY IDOCK:   -4.44 KCAL/MOL
REMARK 923 INTER-LIGAND FREE ENERGY PREDICTED BY IDOCK:   -4.31 KCAL/MOL
REMARK 924 INTRA-LIGAND FREE ENERGY PREDICTED BY IDOCK:   -0.13 KCAL/MOL
REMARK 927      BINDING AFFINITY PREDICTED BY RF-SCORE:    0.00 PKD
ROOT
HETATM    1  O   UNL     1     -10.139  16.721  66.620  1.00  0.00    -0.278 OA 
HETATM    2  C   UNL     1     -10.118  16.839  67.838  1.00  0.00    -0.284 C  
HETATM    3  C   UNL     1     -11.001  16.035  68.703  1.00  0.00    -0.323 C  
HETATM    4  C   UNL     1     -10.956  16.188  70.032  1.00  0.00    -0.364 C  
ENDROOT
BRANCH   4   5
HETATM    5  C   UNL     1     -11.810  15.386  70.907  1.00  0.00    -0.400 A  
HETATM    6  C   UNL     1     -12.053  14.042  70.606  1.00  0.00    -0.424 A  
HETATM    7  C   UNL     1     -12.877  13.275  71.432  1.00  0.00    -0.411 A  
HETATM    8  C   UNL     1     -13.461  13.848  72.560  1.00  0.00    -0.676 A  
HETATM    9  C   UNL     1     -13.224  15.188  72.864  1.00  0.00    -0.600 A  
HETATM   10  C   UNL     1     -12.401  15.958  72.038  1.00  0.00    -0.550 A  
ENDBRANCH   4   5
TORSDOF 1
ENDMDL
MODEL       16
REMARK 921   NORMALIZED FREE ENERGY PREDICTED BY IDOCK:   -4.06 KCAL/MOL
REMARK 922        TOTAL FREE ENERGY PREDICTED BY IDOCK:   -4.43 KCAL/MOL
REMARK 923 INTER-LIGAND FREE ENERGY PREDICTED BY IDOCK:   -4.30 KCAL/MOL
REMARK 924 INTRA-LIGAND FREE ENERGY PREDICTED BY IDOCK:   -0.13 KCAL/MOL
REMARK 927      BINDING AFFINITY PREDICTED BY RF-SCORE:    0.00 PKD
ROOT
HETATM    1  O   UNL     1     -14.249   8.965  72.723  1.00  0.00    -0.557 OA 
HETATM    2  C   UNL     1     -13.336   9.473  72.086  1.00  0.00    -0.461 C  
HETATM    3  C   UNL     1     -13.337  10.910  71.754  1.00  0.00    -0.413 C  
HETATM    4  C   UNL     1     -12.325  11.437  71.053  1.00  0.00    -0.448 C  
ENDROOT
BRANCH   4   5
HETATM    5  C   UNL     1     -12.300  12.863  70.732  1.00  0.00    -0.385 A  
HETATM    6  C   UNL     1     -12.837  13.792  71.629  1.00  0.00    -0.438 A  
HETATM    7  C   UNL     1     -12.826  15.153  71.322  1.00  0.00    -0.461 A  
HETATM    8  C   UNL     1     -12.278  15.592  70.117  1.00  0.00    -0.404 A  
HETATM    9  C   UNL     1     -11.744  14.670  69.218  1.00  0.00    -0.348 A  
HETATM   10  C   UNL     1     -11.755  13.307  69.522  1.00  0.00    -0.384 A  
ENDBRANCH   4   5
TORSDOF 1
ENDMDL
MODEL       17
REMARK 921   NORMALIZED FREE ENERGY PREDICTED BY IDOCK:   -4.04 KCAL/MOL
REMARK 922        TOTAL FREE ENERGY PREDICTED BY IDOCK:   -4.40 KCAL/MOL
REMARK 923 INTER-LIGAND FREE ENERGY PREDICTED BY IDOCK:   -4.28 KCAL/MOL
REMARK 924 INTRA-LIGAND FREE ENERGY PREDICTED BY IDOCK:   -0.12 KCAL/MOL
REMARK 927      BINDING AFFINITY PREDICTED BY RF-SCORE:    0.00 PKD
ROOT
HETATM    1  O   UNL     1     -12.209  15.100  69.957  1.00  0.00    -0.321 OA 
HETATM    2  C   UNL     1     -12.098  13.983  69.469  1.00  0.00    -0.347 C  
HETATM    3  C   UNL     1     -11.898  13.795  68.020  1.00  0.00    -0.408 C  
HETATM    4  C   UNL     1     -11.783  12.561  67.515  1.00  0.00    -0.439 C  
ENDROOT
BRANCH   4   5
HETATM    5  C   UNL     1     -11.565  12.355  66.083  1.00  0.00    -0.452 A  
HETATM    6  C   UNL     1     -10.417  11.689  65.640  1.00  0.00    -0.314 A  
HETATM    7  C   UNL     1     -10.198  11.500  64.275  1.00  0.00    -0.361 A  
HETATM    8  C   UNL     1     -11.123  11.976  63.347  1.00  0.00    -0.476 A  
HETATM    9  C   UNL     1     -12.268  12.643  63.784  1.00  0.00    -0.600 A  
HETATM   10  C   UNL     1     -12.489  12.834  65.150  1.00  0.00    -0.565 A  
ENDBRANCH   4   5
TORSDOF 1
ENDMDL
MODEL       18
REMARK 921   NORMALIZED FREE ENERGY PREDICTED BY IDOCK:   -4.03 KCAL/MOL
REMARK 922        TOTAL FREE ENERGY PREDICTED BY IDOCK:   -4.40 KCAL/MOL
REMARK 923 INTER-LIGAND FREE ENERGY PREDICTED BY IDOCK:   -4.28 KCAL/MOL
REMARK 924 INTRA-LIGAND FREE ENERGY PREDICTED BY IDOCK:   -0.12 KCAL/MOL
REMARK 927      BINDING AFFINITY PREDICTED BY RF-SCORE:    0.00 PKD
ROOT
HETATM    1  O   UNL     1     -12.030  15.715  69.452  1.00  0.00    -0.361 OA 
HETATM    2  C   UNL     1     -12.112  14.539  69.120  1.00  0.00    -0.264 C  
HETATM    3  C   UNL     1     -11.808  14.107  67.744  1.00  0.00    -0.414 C  
HETATM    4  C   UNL     1     -11.910  12.814  67.410  1.00  0.00    -0.404 C  
ENDROOT
BRANCH   4   5
HETATM    5  C   UNL     1     -11.593  12.363  66.055  1.00  0.00    -0.455 A  
HETATM    6  C   UNL     1     -12.338  12.836  64.970  1.00  0.00    -0.559 A  
HETATM    7  C   UNL     1     -12.048  12.400  63.676  1.00  0.00    -0.648 A  
HETATM    8  C   UNL     1     -11.014  11.489  63.462  1.00  0.00    -0.453 A  
HETATM    9  C   UNL     1     -10.270  11.013  64.542  1.00  0.00    -0.406 A  
HETATM   10  C   UNL     1     -10.560  11.447  65.837  1.00  0.00    -0.317 A  
ENDBRANCH   4   5
TORSDOF 1
ENDMDL
MODEL       19
REMARK 921   NORMALIZED FREE ENERGY PREDICTED BY IDOCK:   -4.03 KCAL/MOL
REMARK 922        TOTAL FREE ENERGY PREDICTED BY IDOCK:   -4.40 KCAL/MOL
REMARK 923 INTER-LIGAND FREE ENERGY PREDICTED BY IDOCK:   -4.28 KCAL/MOL
REMARK 924 INTRA-LIGAND FREE ENERGY PREDICTED BY IDOCK:   -0.12 KCAL/MOL
REMARK 927      BINDING AFFINITY PREDICTED BY RF-SCORE:    0.00 PKD
ROOT
HETATM    1  O   UNL     1     -12.233  12.342  66.084  1.00  0.00    -0.647 OA 
HETATM    2  C   UNL     1     -11.639  12.349  67.155  1.00  0.00    -0.365 C  
HETATM    3  C   UNL     1     -11.987  11.405  68.233  1.00  0.00    -0.234 C  
HETATM    4  C   UNL     1     -11.322  11.440  69.394  1.00  0.00    -0.365 C  
ENDROOT
BRANCH   4   5
HETATM    5  C   UNL     1     -11.639  10.499  70.468  1.00  0.00    -0.441 A  
HETATM    6  C   UNL     1     -10.688   9.559  70.877  1.00  0.00    -0.403 A  
HETATM    7  C   UNL     1     -10.990   8.651  71.893  1.00  0.00    -0.412 A  
HETATM    8  C   UNL     1     -12.243   8.678  72.503  1.00  0.00    -0.374 A  
HETATM    9  C   UNL     1     -13.197   9.611  72.096  1.00  0.00    -0.535 A  
HETATM   10  C   UNL     1     -12.897  10.520  71.079  1.00  0.00    -0.502 A  
ENDBRANCH   4   5
TORSDOF 1
ENDMDL
MODEL       20
REMARK 921   NORMALIZED FREE ENERGY PREDICTED BY IDOCK:   -4.02 KCAL/MOL
REMARK 922        TOTAL FREE ENERGY PREDICTED BY IDOCK:   -4.39 KCAL/MOL
REMARK 923 INTER-LIGAND FREE ENERGY PREDICTED BY IDOCK:   -4.27 KCAL/MOL
REMARK 924 INTRA-LIGAND FREE ENERGY PREDICTED BY IDOCK:   -0.12 KCAL/MOL
REMARK 927      BINDING AFFINITY PREDICTED BY RF-SCORE:    0.00 PKD
ROOT
HETATM    1  O   UNL     1     -12.395  15.617  74.528  1.00  0.00    -0.647 OA 
HETATM    2  C   UNL     1     -12.899  15.767  73.423  1.00  0.00    -0.564 C  
HETATM    3  C   UNL     1     -12.218  15.304  72.199  1.00  0.00    -0.457 C  
HETATM    4  C   UNL     1     -12.793  15.486  71.004  1.00  0.00    -0.543 C  
ENDROOT
BRANCH   4   5
HETATM    5  C   UNL     1     -12.142  15.016  69.781  1.00  0.00    -0.354 A  
HETATM    6  C   UNL     1     -12.059  13.645  69.516  1.00  0.00    -0.368 A  
HETATM    7  C   UNL     1     -11.429  13.192  68.356  1.00  0.00    -0.350 A  
HETATM    8  C   UNL     1     -10.879  14.105  67.458  1.00  0.00    -0.280 A  
HETATM    9  C   UNL     1     -10.957  15.473  67.719  1.00  0.00    -0.317 A  
HETATM   10  C   UNL     1     -11.586  15.929  68.880  1.00  0.00    -0.392 A  
ENDBRANCH   4   5
TORSDOF 1
ENDMDL
MODEL       21
REMARK 921   NORMALIZED FREE ENERGY PREDICTED BY IDOCK:   -4.02 KCAL/MOL
REMARK 922        TOTAL FREE ENERGY PREDICTED BY IDOCK:   -4.38 KCAL/MOL
REMARK 923 INTER-LIGAND FREE ENERGY PREDICTED BY IDOCK:   -4.26 KCAL/MOL
REMARK 924 INTRA-LIGAND FREE ENERGY PREDICTED BY IDOCK:   -0.12 KCAL/MOL
REMARK 927      BINDING AFFINITY PREDICTED BY RF-SCORE:    0.00 PKD
ROOT
HETATM    1  O   UNL     1     -12.003  11.357  70.708  1.00  0.00    -0.345 OA 
HETATM    2  C   UNL     1     -12.005  12.177  69.799  1.00  0.00    -0.302 C  
HETATM    3  C   UNL     1     -11.757  11.776  68.401  1.00  0.00    -0.389 C  
HETATM    4  C   UNL     1     -11.763  12.697  67.430  1.00  0.00    -0.432 C  
ENDROOT
BRANCH   4   5
HETATM    5  C   UNL     1     -11.539  12.316  66.036  1.00  0.00    -0.451 A  
HETATM    6  C   UNL     1     -10.439  11.522  65.697  1.00  0.00    -0.317 A  
HETATM    7  C   UNL     1     -10.214  11.165  64.366  1.00  0.00    -0.390 A  
HETATM    8  C   UNL     1     -11.086  11.601  63.370  1.00  0.00    -0.422 A  
HETATM    9  C   UNL     1     -12.183  12.396  63.702  1.00  0.00    -0.653 A  
HETATM   10  C   UNL     1     -12.409  12.755  65.033  1.00  0.00    -0.559 A  
ENDBRANCH   4   5
TORSDOF 1
ENDMDL
MODEL       22
REMARK 921   NORMALIZED FREE ENERGY PREDICTED BY IDOCK:   -4.01 KCAL/MOL
REMARK 922        TOTAL FREE ENERGY PREDICTED BY IDOCK:   -4.38 KCAL/MOL
REMARK 923 INTER-LIGAND FREE ENERGY PREDICTED BY IDOCK:   -4.25 KCAL/MOL
REMARK 924 INTRA-LIGAND FREE ENERGY PREDICTED BY IDOCK:   -0.13 KCAL/MOL
REMARK 927      BINDING AFFINITY PREDICTED BY RF-SCORE:    0.00 PKD
ROOT
HETATM    1  O   UNL     1     -13.000  12.010  63.207  1.00  0.00    -0.736 OA 
HETATM    2  C   UNL     1     -12.071  12.754  63.489  1.00  0.00    -0.559 C  
HETATM    3  C   UNL     1     -12.070  13.546  64.734  1.00  0.00    -0.442 C  
HETATM    4  C   UNL     1     -11.040  14.354  65.013  1.00  0.00    -0.385 C  
ENDROOT
BRANCH   4   5
HETATM    5  C   UNL     1     -11.013  15.131  66.251  1.00  0.00    -0.335 A  
HETATM    6  C   UNL     1     -11.669  14.654  67.391  1.00  0.00    -0.413 A  
HETATM    7  C   UNL     1     -11.655  15.398  68.572  1.00  0.00    -0.373 A  
HETATM    8  C   UNL     1     -10.988  16.621  68.618  1.00  0.00    -0.328 A  
HETATM    9  C   UNL     1     -10.335  17.103  67.484  1.00  0.00    -0.341 A  
HETATM   10  C   UNL     1     -10.348  16.361  66.301  1.00  0.00    -0.337 A  
ENDBRANCH   4   5
TORSDOF 1
ENDMDL
MODEL       23
REMARK 921   NORMALIZED FREE ENERGY PREDICTED BY IDOCK:   -3.98 KCAL/MOL
REMARK 922        TOTAL FREE ENERGY PREDICTED BY IDOCK:   -4.35 KCAL/MOL
REMARK 923 INTER-LIGAND FREE ENERGY PREDICTED BY IDOCK:   -4.22 KCAL/MOL
REMARK 924 INTRA-LIGAND FREE ENERGY PREDICTED BY IDOCK:   -0.13 KCAL/MOL
REMARK 927      BINDING AFFINITY PREDICTED BY RF-SCORE:    0.00 PKD
ROOT
HETATM    1  O   UNL     1     -12.544  14.698  63.722  1.00  0.00    -0.820 OA 
HETATM    2  C   UNL     1     -11.752  14.836  64.645  1.00  0.00    -0.422 C  
HETATM    3  C   UNL     1     -11.272  16.169  65.053  1.00  0.00    -0.225 C  
HETATM    4  C   UNL     1     -10.403  16.287  66.065  1.00  0.00    -0.363 C  
ENDROOT
BRANCH   4   5
HETATM    5  C   UNL     1      -9.931  17.602  66.497  1.00  0.00    -0.332 A  
HETATM    6  C   UNL     1      -8.963  17.701  67.503  1.00  0.00    -0.235 A  
HETATM    7  C   UNL     1      -8.518  18.954  67.926  1.00  0.00    -0.318 A  
HETATM    8  C   UNL     1      -9.037  20.112  67.349  1.00  0.00    -0.475 A  
HETATM    9  C   UNL     1     -10.004  20.018  66.348  1.00  0.00    -0.601 A  
HETATM   10  C   UNL     1     -10.452  18.766  65.922  1.00  0.00    -0.424 A  
ENDBRANCH   4   5
TORSDOF 1
ENDMDL
MODEL       24
REMARK 921   NORMALIZED FREE ENERGY PREDICTED BY IDOCK:   -3.97 KCAL/MOL
REMARK 922        TOTAL FREE ENERGY PREDICTED BY IDOCK:   -4.33 KCAL/MOL
REMARK 923 INTER-LIGAND FREE ENERGY PREDICTED BY IDOCK:   -4.21 KCAL/MOL
REMARK 924 INTRA-LIGAND FREE ENERGY PREDICTED BY IDOCK:   -0.13 KCAL/MOL
REMARK 927      BINDING AFFINITY PREDICTED BY RF-SCORE:    0.00 PKD
ROOT
HETATM    1  O   UNL     1     -11.767   6.349  71.403  1.00  0.00    -0.311 OA 
HETATM    2  C   UNL     1     -12.505   7.278  71.704  1.00  0.00    -0.359 C  
HETATM    3  C   UNL     1     -12.209   8.661  71.285  1.00  0.00    -0.320 C  
HETATM    4  C   UNL     1     -13.033   9.657  71.633  1.00  0.00    -0.501 C  
ENDROOT
BRANCH   4   5
HETATM    5  C   UNL     1     -12.767  11.031  71.211  1.00  0.00    -0.537 A  
HETATM    6  C   UNL     1     -12.031  11.274  70.046  1.00  0.00    -0.447 A  
HETATM    7  C   UNL     1     -11.765  12.584  69.644  1.00  0.00    -0.372 A  
HETATM    8  C   UNL     1     -12.230  13.656  70.405  1.00  0.00    -0.434 A  
HETATM    9  C   UNL     1     -12.961  13.419  71.569  1.00  0.00    -0.429 A  
HETATM   10  C   UNL     1     -13.229  12.109  71.973  1.00  0.00    -0.496 A  
ENDBRANCH   4   5
TORSDOF 1
ENDMDL
MODEL       25
REMARK 921   NORMALIZED FREE ENERGY PREDICTED BY IDOCK:   -3.96 KCAL/MOL
REMARK 922        TOTAL FREE ENERGY PREDICTED BY IDOCK:   -4.33 KCAL/MOL
REMARK 923 INTER-LIGAND FREE ENERGY PREDICTED BY IDOCK:   -4.20 KCAL/MOL
REMARK 924 INTRA-LIGAND FREE ENERGY PREDICTED BY IDOCK:   -0.13 KCAL/MOL
REMARK 927      BINDING AFFINITY PREDICTED BY RF-SCORE:    0.00 PKD
ROOT
HETATM    1  O   UNL     1     -13.851  15.998  73.143  1.00  0.00    -0.576 OA 
HETATM    2  C   UNL     1     -13.179  15.038  72.788  1.00  0.00    -0.468 C  
HETATM    3  C   UNL     1     -12.971  14.731  71.361  1.00  0.00    -0.413 C  
HETATM    4  C   UNL     1     -12.234  13.673  71.004  1.00  0.00    -0.374 C  
ENDROOT
BRANCH   4   5
HETATM    5  C   UNL     1     -12.000  13.364  69.594  1.00  0.00    -0.386 A  
HETATM    6  C   UNL     1     -12.017  14.389  68.641  1.00  0.00    -0.332 A  
HETATM    7  C   UNL     1     -11.806  14.097  67.293  1.00  0.00    -0.452 A  
HETATM    8  C   UNL     1     -11.579  12.782  66.890  1.00  0.00    -0.428 A  
HETATM    9  C   UNL     1     -11.564  11.756  67.835  1.00  0.00    -0.377 A  
HETATM   10  C   UNL     1     -11.776  12.045  69.185  1.00  0.00    -0.389 A  
ENDBRANCH   4   5
TORSDOF 1
ENDMDL
MODEL       26
REMARK 921   NORMALIZED FREE ENERGY PREDICTED BY IDOCK:   -3.94 KCAL/MOL
REMARK 922        TOTAL FREE ENERGY PREDICTED BY IDOCK:   -4.30 KCAL/MOL
REMARK 923 INTER-LIGAND FREE ENERGY PREDICTED BY IDOCK:   -4.17 KCAL/MOL
REMARK 924 INTRA-LIGAND FREE ENERGY PREDICTED BY IDOCK:   -0.13 KCAL/MOL
REMARK 927      BINDING AFFINITY PREDICTED BY RF-SCORE:    0.00 PKD
ROOT
HETATM    1  O   UNL     1     -10.487   7.751  70.895  1.00  0.00    -0.205 OA 
HETATM    2  C   UNL     1     -11.472   8.359  71.293  1.00  0.00    -0.280 C  
HETATM    3  C   UNL     1     -11.595   9.818  71.125  1.00  0.00    -0.469 C  
HETATM    4  C   UNL     1     -12.683  10.455  71.574  1.00  0.00    -0.564 C  
ENDROOT
BRANCH   4   5
HETATM    5  C   UNL     1     -12.832  11.900  71.399  1.00  0.00    -0.411 A  
HETATM    6  C   UNL     1     -12.084  12.566  70.422  1.00  0.00    -0.380 A  
HETATM    7  C   UNL     1     -12.213  13.945  70.259  1.00  0.00    -0.428 A  
HETATM    8  C   UNL     1     -13.088  14.666  71.071  1.00  0.00    -0.427 A  
HETATM    9  C   UNL     1     -13.834  14.007  72.049  1.00  0.00    -0.582 A  
HETATM   10  C   UNL     1     -13.705  12.626  72.215  1.00  0.00    -0.429 A  
ENDBRANCH   4   5
TORSDOF 1
ENDMDL
MODEL       27
REMARK 921   NORMALIZED FREE ENERGY PREDICTED BY IDOCK:   -3.94 KCAL/MOL
REMARK 922        TOTAL FREE ENERGY PREDICTED BY IDOCK:   -4.30 KCAL/MOL
REMARK 923 INTER-LIGAND FREE ENERGY PREDICTED BY IDOCK:   -4.18 KCAL/MOL
REMARK 924 INTRA-LIGAND FREE ENERGY PREDICTED BY IDOCK:   -0.13 KCAL/MOL
REMARK 927      BINDING AFFINITY PREDICTED BY RF-SCORE:    0.00 PKD
ROOT
HETATM    1  O   UNL     1     -11.419  16.601  63.910  1.00  0.00    -1.186 OA 
HETATM    2  C   UNL     1     -11.028  16.336  65.039  1.00  0.00    -0.298 C  
HETATM    3  C   UNL     1     -11.315  15.032  65.666  1.00  0.00    -0.297 C  
HETATM    4  C   UNL     1     -10.876  14.773  66.904  1.00  0.00    -0.316 C  
ENDROOT
BRANCH   4   5
HETATM    5  C   UNL     1     -11.135  13.479  67.534  1.00  0.00    -0.293 A  
HETATM    6  C   UNL     1     -11.075  12.307  66.773  1.00  0.00    -0.345 A  
HETATM    7  C   UNL     1     -11.333  11.070  67.368  1.00  0.00    -0.306 A  
HETATM    8  C   UNL     1     -11.651  11.001  68.723  1.00  0.00    -0.386 A  
HETATM    9  C   UNL     1     -11.714  12.167  69.485  1.00  0.00    -0.402 A  
HETATM   10  C   UNL     1     -11.458  13.405  68.893  1.00  0.00    -0.347 A  
ENDBRANCH   4   5
TORSDOF 1
ENDMDL
MODEL       28
REMARK 921   NORMALIZED FREE ENERGY PREDICTED BY IDOCK:   -3.92 KCAL/MOL
REMARK 922        TOTAL FREE ENERGY PREDICTED BY IDOCK:   -4.28 KCAL/MOL
REMARK 923 INTER-LIGAND FREE ENERGY PREDICTED BY IDOCK:   -4.16 KCAL/MOL
REMARK 924 INTRA-LIGAND FREE ENERGY PREDICTED BY IDOCK:   -0.12 KCAL/MOL
REMARK 927      BINDING AFFINITY PREDICTED BY RF-SCORE:    0.00 PKD
ROOT
HETATM    1  O   UNL     1     -14.156   8.758  72.669  1.00  0.00    -0.448 OA 
HETATM    2  C   UNL     1     -13.144   9.132  72.092  1.00  0.00    -0.446 C  
HETATM    3  C   UNL     1     -13.125  10.376  71.301  1.00  0.00    -0.494 C  
HETATM    4  C   UNL     1     -12.003  10.758  70.679  1.00  0.00    -0.466 C  
ENDROOT
BRANCH   4   5
HETATM    5  C   UNL     1     -11.960  11.998  69.906  1.00  0.00    -0.391 A  
HETATM    6  C   UNL     1     -11.716  11.956  68.529  1.00  0.00    -0.388 A  
HETATM    7  C   UNL     1     -11.663  13.137  67.789  1.00  0.00    -0.401 A  
HETATM    8  C   UNL     1     -11.851  14.366  68.420  1.00  0.00    -0.354 A  
HETATM    9  C   UNL     1     -12.091  14.414  69.793  1.00  0.00    -0.386 A  
HETATM   10  C   UNL     1     -12.144  13.233  70.537  1.00  0.00    -0.391 A  
ENDBRANCH   4   5
TORSDOF 1
ENDMDL
MODEL       29
REMARK 921   NORMALIZED FREE ENERGY PREDICTED BY IDOCK:   -3.92 KCAL/MOL
REMARK 922        TOTAL FREE ENERGY PREDICTED BY IDOCK:   -4.28 KCAL/MOL
REMARK 923 INTER-LIGAND FREE ENERGY PREDICTED BY IDOCK:   -4.16 KCAL/MOL
REMARK 924 INTRA-LIGAND FREE ENERGY PREDICTED BY IDOCK:   -0.12 KCAL/MOL
REMARK 927      BINDING AFFINITY PREDICTED BY RF-SCORE:    0.00 PKD
ROOT
HETATM    1  O   UNL     1     -13.061  12.156  63.366  1.00  0.00    -0.752 OA 
HETATM    2  C   UNL     1     -12.007  12.651  63.741  1.00  0.00    -0.510 C  
HETATM    3  C   UNL     1     -11.982  13.779  64.691  1.00  0.00    -0.445 C  
HETATM    4  C   UNL     1     -10.812  14.301  65.079  1.00  0.00    -0.414 C  
ENDROOT
BRANCH   4   5
HETATM    5  C   UNL     1     -10.766  15.407  66.035  1.00  0.00    -0.326 A  
HETATM    6  C   UNL     1     -10.356  16.677  65.616  1.00  0.00    -0.310 A  
HETATM    7  C   UNL     1     -10.300  17.732  66.528  1.00  0.00    -0.345 A  
HETATM    8  C   UNL     1     -10.651  17.523  67.860  1.00  0.00    -0.390 A  
HETATM    9  C   UNL     1     -11.058  16.258  68.284  1.00  0.00    -0.346 A  
HETATM   10  C   UNL     1     -11.115  15.200  67.374  1.00  0.00    -0.325 A  
ENDBRANCH   4   5
TORSDOF 1
ENDMDL
MODEL       30
REMARK 921   NORMALIZED FREE ENERGY PREDICTED BY IDOCK:   -3.91 KCAL/MOL
REMARK 922        TOTAL FREE ENERGY PREDICTED BY IDOCK:   -4.27 KCAL/MOL
REMARK 923 INTER-LIGAND FREE ENERGY PREDICTED BY IDOCK:   -4.14 KCAL/MOL
REMARK 924 INTRA-LIGAND FREE ENERGY PREDICTED BY IDOCK:   -0.13 KCAL/MOL
REMARK 927      BINDING AFFINITY PREDICTED BY RF-SCORE:    0.00 PKD
ROOT
HETATM    1  O   UNL     1     -11.175  16.907  64.292  1.00  0.00    -1.204 OA 
HETATM    2  C   UNL     1     -10.674  16.189  65.149  1.00  0.00    -0.371 C  
HETATM    3  C   UNL     1     -10.612  14.725  64.984  1.00  0.00    -0.452 C  
HETATM    4  C   UNL     1     -10.061  13.967  65.940  1.00  0.00    -0.336 C  
ENDROOT
BRANCH   4   5
HETATM    5  C   UNL     1      -9.973  12.515  65.787  1.00  0.00    -0.272 A  
HETATM    6  C   UNL     1     -10.010  11.944  64.510  1.00  0.00    -0.255 A  
HETATM    7  C   UNL     1      -9.937  10.559  64.359  1.00  0.00    -0.410 A  
HETATM    8  C   UNL     1      -9.828   9.739  65.481  1.00  0.00    -0.378 A  
HETATM    9  C   UNL     1      -9.793  10.303  66.756  1.00  0.00    -0.246 A  
HETATM   10  C   UNL     1      -9.867  11.689  66.910  1.00  0.00    -0.218 A  
ENDBRANCH   4   5
TORSDOF 1
ENDMDL
MODEL       31
REMARK 921   NORMALIZED FREE ENERGY PREDICTED BY IDOCK:   -3.90 KCAL/MOL
REMARK 922        TOTAL FREE ENERGY PREDICTED BY IDOCK:   -4.26 KCAL/MOL
REMARK 923 INTER-LIGAND FREE ENERGY PREDICTED BY IDOCK:   -4.13 KCAL/MOL
REMARK 924 INTRA-LIGAND FREE ENERGY PREDICTED BY IDOCK:   -0.13 KCAL/MOL
REMARK 927      BINDING AFFINITY PREDICTED BY RF-SCORE:    0.00 PKD
ROOT
HETATM    1  O   UNL     1     -12.604  14.125  70.119  1.00  0.00    -0.345 OA 
HETATM    2  C   UNL     1     -11.879  14.452  69.188  1.00  0.00    -0.323 C  
HETATM    3  C   UNL     1     -11.586  15.868  68.903  1.00  0.00    -0.392 C  
HETATM    4  C   UNL     1     -10.791  16.193  67.875  1.00  0.00    -0.332 C  
ENDROOT
BRANCH   4   5
HETATM    5  C   UNL     1     -10.473  17.592  67.589  1.00  0.00    -0.370 A  
HETATM    6  C   UNL     1     -10.184  18.472  68.637  1.00  0.00    -0.363 A  
HETATM    7  C   UNL     1      -9.891  19.810  68.370  1.00  0.00    -0.522 A  
HETATM    8  C   UNL     1      -9.886  20.274  67.055  1.00  0.00    -0.607 A  
HETATM    9  C   UNL     1     -10.176  19.401  66.007  1.00  0.00    -0.540 A  
HETATM   10  C   UNL     1     -10.471  18.062  66.272  1.00  0.00    -0.340 A  
ENDBRANCH   4   5
TORSDOF 1
ENDMDL
MODEL       32
REMARK 921   NORMALIZED FREE ENERGY PREDICTED BY IDOCK:   -3.90 KCAL/MOL
REMARK 922        TOTAL FREE ENERGY PREDICTED BY IDOCK:   -4.26 KCAL/MOL
REMARK 923 INTER-LIGAND FREE ENERGY PREDICTED BY IDOCK:   -4.13 KCAL/MOL
REMARK 924 INTRA-LIGAND FREE ENERGY PREDICTED BY IDOCK:   -0.13 KCAL/MOL
REMARK 927      BINDING AFFINITY PREDICTED BY RF-SCORE:    0.00 PKD
ROOT
HETATM    1  O   UNL     1     -11.611  10.527  70.420  1.00  0.00    -0.293 OA 
HETATM    2  C   UNL     1     -11.612  11.557  69.759  1.00  0.00    -0.326 C  
HETATM    3  C   UNL     1     -11.609  11.524  68.285  1.00  0.00    -0.378 C  
HETATM    4  C   UNL     1     -11.607  12.668  67.590  1.00  0.00    -0.414 C  
ENDROOT
BRANCH   4   5
HETATM    5  C   UNL     1     -11.624  12.656  66.127  1.00  0.00    -0.445 A  
HETATM    6  C   UNL     1     -12.250  13.692  65.427  1.00  0.00    -0.474 A  
HETATM    7  C   UNL     1     -12.279  13.679  64.032  1.00  0.00    -0.443 A  
HETATM    8  C   UNL     1     -11.685  12.631  63.331  1.00  0.00    -0.571 A  
HETATM    9  C   UNL     1     -11.062  11.593  64.025  1.00  0.00    -0.458 A  
HETATM   10  C   UNL     1     -11.032  11.604  65.421  1.00  0.00    -0.328 A  
ENDBRANCH   4   5
TORSDOF 1
ENDMDL
MODEL       33
REMARK 921   NORMALIZED FREE ENERGY PREDICTED BY IDOCK:   -3.90 KCAL/MOL
REMARK 922        TOTAL FREE ENERGY PREDICTED BY IDOCK:   -4.26 KCAL/MOL
REMARK 923 INTER-LIGAND FREE ENERGY PREDICTED BY IDOCK:   -4.13 KCAL/MOL
REMARK 924 INTRA-LIGAND FREE ENERGY PREDICTED BY IDOCK:   -0.12 KCAL/MOL
REMARK 927      BINDING AFFINITY PREDICTED BY RF-SCORE:    0.00 PKD
ROOT
HETATM    1  O   UNL     1     -11.726  13.659  64.278  1.00  0.00    -0.386 OA 
HETATM    2  C   UNL     1     -10.814  14.158  64.925  1.00  0.00    -0.411 C  
HETATM    3  C   UNL     1     -10.947  15.494  65.537  1.00  0.00    -0.331 C  
HETATM    4  C   UNL     1      -9.931  16.014  66.236  1.00  0.00    -0.329 C  
ENDROOT
BRANCH   4   5
HETATM    5  C   UNL     1     -10.052  17.328  66.866  1.00  0.00    -0.304 A  
HETATM    6  C   UNL     1     -10.395  18.444  66.095  1.00  0.00    -0.431 A  
HETATM    7  C   UNL     1     -10.499  19.702  66.690  1.00  0.00    -0.610 A  
HETATM    8  C   UNL     1     -10.261  19.851  68.055  1.00  0.00    -0.572 A  
HETATM    9  C   UNL     1      -9.915  18.742  68.828  1.00  0.00    -0.442 A  
HETATM   10  C   UNL     1      -9.809  17.482  68.235  1.00  0.00    -0.319 A  
ENDBRANCH   4   5
TORSDOF 1
ENDMDL
MODEL       34
REMARK 921   NORMALIZED FREE ENERGY PREDICTED BY IDOCK:   -3.89 KCAL/MOL
REMARK 922        TOTAL FREE ENERGY PREDICTED BY IDOCK:   -4.25 KCAL/MOL
REMARK 923 INTER-LIGAND FREE ENERGY PREDICTED BY IDOCK:   -4.13 KCAL/MOL
REMARK 924 INTRA-LIGAND FREE ENERGY PREDICTED BY IDOCK:   -0.12 KCAL/MOL
REMARK 927      BINDING AFFINITY PREDICTED BY RF-SCORE:    0.00 PKD
ROOT
HETATM    1  O   UNL     1     -11.818  14.298  65.302  1.00  0.00    -0.349 OA 
HETATM    2  C   UNL     1     -11.506  14.591  66.448  1.00  0.00    -0.360 C  
HETATM    3  C   UNL     1     -12.024  13.835  67.603  1.00  0.00    -0.392 C  
HETATM    4  C   UNL     1     -11.666  14.183  68.846  1.00  0.00    -0.369 C  
ENDROOT
BRANCH   4   5
HETATM    5  C   UNL     1     -12.154  13.433  70.003  1.00  0.00    -0.404 A  
HETATM    6  C   UNL     1     -11.956  12.049  70.073  1.00  0.00    -0.400 A  
HETATM    7  C   UNL     1     -12.430  11.327  71.169  1.00  0.00    -0.479 A  
HETATM    8  C   UNL     1     -13.103  11.983  72.199  1.00  0.00    -0.352 A  
HETATM    9  C   UNL     1     -13.305  13.362  72.132  1.00  0.00    -0.613 A  
HETATM   10  C   UNL     1     -12.833  14.086  71.036  1.00  0.00    -0.410 A  
ENDBRANCH   4   5
TORSDOF 1
ENDMDL
MODEL       35
REMARK 921   NORMALIZED FREE ENERGY PREDICTED BY IDOCK:   -3.86 KCAL/MOL
REMARK 922        TOTAL FREE ENERGY PREDICTED BY IDOCK:   -4.22 KCAL/MOL
REMARK 923 INTER-LIGAND FREE ENERGY PREDICTED BY IDOCK:   -4.09 KCAL/MOL
REMARK 924 INTRA-LIGAND FREE ENERGY PREDICTED BY IDOCK:   -0.13 KCAL/MOL
REMARK 927      BINDING AFFINITY PREDICTED BY RF-SCORE:    0.00 PKD
ROOT
HETATM    1  O   UNL     1     -11.802  16.445  72.290  1.00  0.00    -0.534 OA 
HETATM    2  C   UNL     1     -11.976  15.299  71.896  1.00  0.00    -0.401 C  
HETATM    3  C   UNL     1     -11.848  14.949  70.469  1.00  0.00    -0.358 C  
HETATM    4  C   UNL     1     -12.047  13.688  70.069  1.00  0.00    -0.417 C  
ENDROOT
BRANCH   4   5
HETATM    5  C   UNL     1     -11.906  13.318  68.661  1.00  0.00    -0.380 A  
HETATM    6  C   UNL     1     -11.543  12.012  68.314  1.00  0.00    -0.394 A  
HETATM    7  C   UNL     1     -11.395  11.657  66.973  1.00  0.00    -0.373 A  
HETATM    8  C   UNL     1     -11.608  12.604  65.973  1.00  0.00    -0.443 A  
HETATM    9  C   UNL     1     -11.967  13.908  66.313  1.00  0.00    -0.462 A  
HETATM   10  C   UNL     1     -12.115  14.266  67.655  1.00  0.00    -0.332 A  
ENDBRANCH   4   5
TORSDOF 1
ENDMDL
MODEL       36
REMARK 921   NORMALIZED FREE ENERGY PREDICTED BY IDOCK:   -3.82 KCAL/MOL
REMARK 922        TOTAL FREE ENERGY PREDICTED BY IDOCK:   -4.18 KCAL/MOL
REMARK 923 INTER-LIGAND FREE ENERGY PREDICTED BY IDOCK:   -4.06 KCAL/MOL
REMARK 924 INTRA-LIGAND FREE ENERGY PREDICTED BY IDOCK:   -0.12 KCAL/MOL
REMARK 927      BINDING AFFINITY PREDICTED BY RF-SCORE:    0.00 PKD
ROOT
HETATM    1  O   UNL     1     -12.115  13.103  68.129  1.00  0.00    -0.319 OA 
HETATM    2  C   UNL     1     -11.265  13.776  67.562  1.00  0.00    -0.294 C  
HETATM    3  C   UNL     1     -11.230  15.244  67.698  1.00  0.00    -0.320 C  
HETATM    4  C   UNL     1     -10.290  15.953  67.061  1.00  0.00    -0.297 C  
ENDROOT
BRANCH   4   5
HETATM    5  C   UNL     1     -10.227  17.408  67.200  1.00  0.00    -0.323 A  
HETATM    6  C   UNL     1     -10.023  17.982  68.460  1.00  0.00    -0.395 A  
HETATM    7  C   UNL     1      -9.974  19.369  68.599  1.00  0.00    -0.527 A  
HETATM    8  C   UNL     1     -10.129  20.189  67.482  1.00  0.00    -0.549 A  
HETATM    9  C   UNL     1     -10.336  19.622  66.225  1.00  0.00    -0.619 A  
HETATM   10  C   UNL     1     -10.387  18.234  66.083  1.00  0.00    -0.414 A  
ENDBRANCH   4   5
TORSDOF 1
ENDMDL
MODEL       37
REMARK 921   NORMALIZED FREE ENERGY PREDICTED BY IDOCK:   -3.79 KCAL/MOL
REMARK 922        TOTAL FREE ENERGY PREDICTED BY IDOCK:   -4.15 KCAL/MOL
REMARK 923 INTER-LIGAND FREE ENERGY PREDICTED BY IDOCK:   -4.03 KCAL/MOL
REMARK 924 INTRA-LIGAND FREE ENERGY PREDICTED BY IDOCK:   -0.12 KCAL/MOL
REMARK 927      BINDING AFFINITY PREDICTED BY RF-SCORE:    0.00 PKD
ROOT
HETATM    1  O   UNL     1      -9.817  18.680  65.743  1.00  0.00    -0.475 OA 
HETATM    2  C   UNL     1     -10.182  17.637  66.269  1.00  0.00    -0.362 C  
HETATM    3  C   UNL     1     -10.524  16.449  65.465  1.00  0.00    -0.349 C  
HETATM    4  C   UNL     1     -10.923  15.324  66.070  1.00  0.00    -0.317 C  
ENDROOT
BRANCH   4   5
HETATM    5  C   UNL     1     -11.247  14.129  65.291  1.00  0.00    -0.326 A  
HETATM    6  C   UNL     1     -10.234  13.434  64.623  1.00  0.00    -0.338 A  
HETATM    7  C   UNL     1     -10.540  12.300  63.868  1.00  0.00    -0.462 A  
HETATM    8  C   UNL     1     -11.859  11.858  63.777  1.00  0.00    -0.558 A  
HETATM    9  C   UNL     1     -12.873  12.550  64.438  1.00  0.00    -0.366 A  
HETATM   10  C   UNL     1     -12.570  13.685  65.193  1.00  0.00    -0.474 A  
ENDBRANCH   4   5
TORSDOF 1
ENDMDL
MODEL       38
REMARK 921   NORMALIZED FREE ENERGY PREDICTED BY IDOCK:   -3.79 KCAL/MOL
REMARK 922        TOTAL FREE ENERGY PREDICTED BY IDOCK:   -4.15 KCAL/MOL
REMARK 923 INTER-LIGAND FREE ENERGY PREDICTED BY IDOCK:   -4.02 KCAL/MOL
REMARK 924 INTRA-LIGAND FREE ENERGY PREDICTED BY IDOCK:   -0.13 KCAL/MOL
REMARK 927      BINDING AFFINITY PREDICTED BY RF-SCORE:    0.00 PKD
ROOT
HETATM    1  O   UNL     1     -10.731  11.773  65.272  1.00  0.00    -0.271 OA 
HETATM    2  C   UNL     1     -10.771  11.225  66.365  1.00  0.00    -0.267 C  
HETATM    3  C   UNL     1     -11.413  11.869  67.526  1.00  0.00    -0.396 C  
HETATM    4  C   UNL     1     -11.438  11.246  68.710  1.00  0.00    -0.359 C  
ENDROOT
BRANCH   4   5
HETATM    5  C   UNL     1     -12.087  11.861  69.867  1.00  0.00    -0.344 A  
HETATM    6  C   UNL     1     -12.153  13.254  69.973  1.00  0.00    -0.385 A  
HETATM    7  C   UNL     1     -12.762  13.845  71.080  1.00  0.00    -0.441 A  
HETATM    8  C   UNL     1     -13.306  13.048  72.087  1.00  0.00    -0.622 A  
HETATM    9  C   UNL     1     -13.240  11.659  71.987  1.00  0.00    -0.443 A  
HETATM   10  C   UNL     1     -12.631  11.064  70.880  1.00  0.00    -0.488 A  
ENDBRANCH   4   5
TORSDOF 1
ENDMDL
MODEL       39
REMARK 921   NORMALIZED FREE ENERGY PREDICTED BY IDOCK:   -3.76 KCAL/MOL
REMARK 922        TOTAL FREE ENERGY PREDICTED BY IDOCK:   -4.11 KCAL/MOL
REMARK 923 INTER-LIGAND FREE ENERGY PREDICTED BY IDOCK:   -4.00 KCAL/MOL
REMARK 924 INTRA-LIGAND FREE ENERGY PREDICTED BY IDOCK:   -0.12 KCAL/MOL
REMARK 927      BINDING AFFINITY PREDICTED BY RF-SCORE:    0.00 PKD
ROOT
HETATM    1  O   UNL     1     -10.813   7.706  73.028  1.00  0.00    -0.353 OA 
HETATM    2  C   UNL     1     -11.676   8.190  72.308  1.00  0.00    -0.379 C  
HETATM    3  C   UNL     1     -11.456   9.461  71.594  1.00  0.00    -0.463 C  
HETATM    4  C   UNL     1     -12.420   9.968  70.815  1.00  0.00    -0.386 C  
ENDROOT
BRANCH   4   5
HETATM    5  C   UNL     1     -12.214  11.217  70.084  1.00  0.00    -0.410 A  
HETATM    6  C   UNL     1     -11.901  11.186  68.721  1.00  0.00    -0.388 A  
HETATM    7  C   UNL     1     -11.691  12.375  68.021  1.00  0.00    -0.414 A  
HETATM    8  C   UNL     1     -11.791  13.599  68.680  1.00  0.00    -0.409 A  
HETATM    9  C   UNL     1     -12.100  13.636  70.040  1.00  0.00    -0.417 A  
HETATM   10  C   UNL     1     -12.309  12.447  70.742  1.00  0.00    -0.377 A  
ENDBRANCH   4   5
TORSDOF 1
ENDMDL
MODEL       40
REMARK 921   NORMALIZED FREE ENERGY PREDICTED BY IDOCK:   -3.76 KCAL/MOL
REMARK 922        TOTAL FREE ENERGY PREDICTED BY IDOCK:   -4.11 KCAL/MOL
REMARK 923 INTER-LIGAND FREE ENERGY PREDICTED BY IDOCK:   -4.00 KCAL/MOL
REMARK 924 INTRA-LIGAND FREE ENERGY PREDICTED BY IDOCK:   -0.12 KCAL/MOL
REMARK 927      BINDING AFFINITY PREDICTED BY RF-SCORE:    0.00 PKD
ROOT
HETATM    1  O   UNL     1     -11.905  14.372  65.993  1.00  0.00    -0.373 OA 
HETATM    2  C   UNL     1     -11.593  14.306  67.175  1.00  0.00    -0.380 C  
HETATM    3  C   UNL     1     -11.929  13.127  67.994  1.00  0.00    -0.345 C  
HETATM    4  C   UNL     1     -11.578  13.086  69.285  1.00  0.00    -0.367 C  
ENDROOT
BRANCH   4   5
HETATM    5  C   UNL     1     -11.884  11.917  70.108  1.00  0.00    -0.390 A  
HETATM    6  C   UNL     1     -12.863  12.000  71.104  1.00  0.00    -0.331 A  
HETATM    7  C   UNL     1     -13.150  10.890  71.900  1.00  0.00    -0.537 A  
HETATM    8  C   UNL     1     -12.462   9.694  71.705  1.00  0.00    -0.494 A  
HETATM    9  C   UNL     1     -11.483   9.607  70.715  1.00  0.00    -0.399 A  
HETATM   10  C   UNL     1     -11.193  10.716  69.918  1.00  0.00    -0.378 A  
ENDBRANCH   4   5
TORSDOF 1
ENDMDL
MODEL       41
REMARK 921   NORMALIZED FREE ENERGY PREDICTED BY IDOCK:   -3.76 KCAL/MOL
REMARK 922        TOTAL FREE ENERGY PREDICTED BY IDOCK:   -4.11 KCAL/MOL
REMARK 923 INTER-LIGAND FREE ENERGY PREDICTED BY IDOCK:   -3.99 KCAL/MOL
REMARK 924 INTRA-LIGAND FREE ENERGY PREDICTED BY IDOCK:   -0.12 KCAL/MOL
REMARK 927      BINDING AFFINITY PREDICTED BY RF-SCORE:    0.00 PKD
ROOT
HETATM    1  O   UNL     1      -9.486  11.308  62.822  1.00  0.00    -0.352 OA 
HETATM    2  C   UNL     1     -10.522  11.662  63.370  1.00  0.00    -0.426 C  
HETATM    3  C   UNL     1     -10.554  12.004  64.805  1.00  0.00    -0.340 C  
HETATM    4  C   UNL     1     -11.702  12.385  65.377  1.00  0.00    -0.452 C  
ENDROOT
BRANCH   4   5
HETATM    5  C   UNL     1     -11.750  12.746  66.793  1.00  0.00    -0.459 A  
HETATM    6  C   UNL     1     -11.868  14.089  67.168  1.00  0.00    -0.444 A  
HETATM    7  C   UNL     1     -11.902  14.440  68.518  1.00  0.00    -0.369 A  
HETATM    8  C   UNL     1     -11.816  13.453  69.499  1.00  0.00    -0.391 A  
HETATM    9  C   UNL     1     -11.695  12.113  69.130  1.00  0.00    -0.384 A  
HETATM   10  C   UNL     1     -11.660  11.759  67.779  1.00  0.00    -0.374 A  
ENDBRANCH   4   5
TORSDOF 1
ENDMDL
MODEL       42
REMARK 921   NORMALIZED FREE ENERGY PREDICTED BY IDOCK:   -3.73 KCAL/MOL
REMARK 922        TOTAL FREE ENERGY PREDICTED BY IDOCK:   -4.08 KCAL/MOL
REMARK 923 INTER-LIGAND FREE ENERGY PREDICTED BY IDOCK:   -3.95 KCAL/MOL
REMARK 924 INTRA-LIGAND FREE ENERGY PREDICTED BY IDOCK:   -0.13 KCAL/MOL
REMARK 927      BINDING AFFINITY PREDICTED BY RF-SCORE:    0.00 PKD
ROOT
HETATM    1  O   UNL     1     -10.928  16.418  68.947  1.00  0.00    -0.304 OA 
HETATM    2  C   UNL     1     -11.651  15.527  68.521  1.00  0.00    -0.368 C  
HETATM    3  C   UNL     1     -11.300  14.767  67.307  1.00  0.00    -0.366 C  
HETATM    4  C   UNL     1     -12.113  13.800  66.864  1.00  0.00    -0.454 C  
ENDROOT
BRANCH   4   5
HETATM    5  C   UNL     1     -11.772  13.022  65.674  1.00  0.00    -0.418 A  
HETATM    6  C   UNL     1     -10.437  12.698  65.409  1.00  0.00    -0.306 A  
HETATM    7  C   UNL     1     -10.105  11.965  64.269  1.00  0.00    -0.325 A  
HETATM    8  C   UNL     1     -11.105  11.555  63.387  1.00  0.00    -0.370 A  
HETATM    9  C   UNL     1     -12.437  11.879  63.645  1.00  0.00    -0.583 A  
HETATM   10  C   UNL     1     -12.771  12.612  64.785  1.00  0.00    -0.460 A  
ENDBRANCH   4   5
TORSDOF 1
ENDMDL
MODEL       43
REMARK 921   NORMALIZED FREE ENERGY PREDICTED BY IDOCK:   -3.72 KCAL/MOL
REMARK 922        TOTAL FREE ENERGY PREDICTED BY IDOCK:   -4.07 KCAL/MOL
REMARK 923 INTER-LIGAND FREE ENERGY PREDICTED BY IDOCK:   -3.96 KCAL/MOL
REMARK 924 INTRA-LIGAND FREE ENERGY PREDICTED BY IDOCK:   -0.11 KCAL/MOL
REMARK 927      BINDING AFFINITY PREDICTED BY RF-SCORE:    0.00 PKD
ROOT
HETATM    1  O   UNL     1     -12.468  13.018  63.212  1.00  0.00    -0.699 OA 
HETATM    2  C   UNL     1     -11.662  13.049  64.132  1.00  0.00    -0.412 C  
HETATM    3  C   UNL     1     -12.023  13.597  65.453  1.00  0.00    -0.400 C  
HETATM    4  C   UNL     1     -11.118  13.619  66.438  1.00  0.00    -0.307 C  
ENDROOT
BRANCH   4   5
HETATM    5  C   UNL     1     -11.463  14.142  67.760  1.00  0.00    -0.352 A  
HETATM    6  C   UNL     1     -11.328  15.508  68.029  1.00  0.00    -0.332 A  
HETATM    7  C   UNL     1     -11.645  16.009  69.293  1.00  0.00    -0.331 A  
HETATM    8  C   UNL     1     -12.096  15.148  70.292  1.00  0.00    -0.385 A  
HETATM    9  C   UNL     1     -12.230  13.785  70.030  1.00  0.00    -0.407 A  
HETATM   10  C   UNL     1     -11.912  13.281  68.767  1.00  0.00    -0.335 A  
ENDBRANCH   4   5
TORSDOF 1
ENDMDL
MODEL       44
REMARK 921   NORMALIZED FREE ENERGY PREDICTED BY IDOCK:   -3.72 KCAL/MOL
REMARK 922        TOTAL FREE ENERGY PREDICTED BY IDOCK:   -4.06 KCAL/MOL
REMARK 923 INTER-LIGAND FREE ENERGY PREDICTED BY IDOCK:   -3.95 KCAL/MOL
REMARK 924 INTRA-LIGAND FREE ENERGY PREDICTED BY IDOCK:   -0.12 KCAL/MOL
REMARK 927      BINDING AFFINITY PREDICTED BY RF-SCORE:    0.00 PKD
ROOT
HETATM    1  O   UNL     1     -11.961  16.027  71.720  1.00  0.00    -0.447 OA 
HETATM    2  C   UNL     1     -11.225  15.533  70.877  1.00  0.00    -0.371 C  
HETATM    3  C   UNL     1     -11.639  15.418  69.466  1.00  0.00    -0.346 C  
HETATM    4  C   UNL     1     -10.813  14.870  68.567  1.00  0.00    -0.249 C  
ENDROOT
BRANCH   4   5
HETATM    5  C   UNL     1     -11.199  14.766  67.161  1.00  0.00    -0.346 A  
HETATM    6  C   UNL     1     -10.729  15.705  66.236  1.00  0.00    -0.295 A  
HETATM    7  C   UNL     1     -11.104  15.617  64.894  1.00  0.00    -0.414 A  
HETATM    8  C   UNL     1     -11.950  14.592  64.472  1.00  0.00    -0.482 A  
HETATM    9  C   UNL     1     -12.422  13.655  65.390  1.00  0.00    -0.537 A  
HETATM   10  C   UNL     1     -12.050  13.741  66.733  1.00  0.00    -0.460 A  
ENDBRANCH   4   5
TORSDOF 1
ENDMDL
MODEL       45
REMARK 921   NORMALIZED FREE ENERGY PREDICTED BY IDOCK:   -3.71 KCAL/MOL
REMARK 922        TOTAL FREE ENERGY PREDICTED BY IDOCK:   -4.06 KCAL/MOL
REMARK 923 INTER-LIGAND FREE ENERGY PREDICTED BY IDOCK:   -3.94 KCAL/MOL
REMARK 924 INTRA-LIGAND FREE ENERGY PREDICTED BY IDOCK:   -0.12 KCAL/MOL
REMARK 927      BINDING AFFINITY PREDICTED BY RF-SCORE:    0.00 PKD
ROOT
HETATM    1  O   UNL     1     -13.401   9.728  72.213  1.00  0.00    -0.443 OA 
HETATM    2  C   UNL     1     -12.454  10.005  71.489  1.00  0.00    -0.419 C  
HETATM    3  C   UNL     1     -12.534  11.100  70.505  1.00  0.00    -0.414 C  
HETATM    4  C   UNL     1     -11.482  11.378  69.724  1.00  0.00    -0.376 C  
ENDROOT
BRANCH   4   5
HETATM    5  C   UNL     1     -11.536  12.473  68.756  1.00  0.00    -0.366 A  
HETATM    6  C   UNL     1     -11.559  13.799  69.202  1.00  0.00    -0.363 A  
HETATM    7  C   UNL     1     -11.623  14.847  68.282  1.00  0.00    -0.356 A  
HETATM    8  C   UNL     1     -11.664  14.575  66.915  1.00  0.00    -0.399 A  
HETATM    9  C   UNL     1     -11.644  13.254  66.467  1.00  0.00    -0.392 A  
HETATM   10  C   UNL     1     -11.582  12.204  67.385  1.00  0.00    -0.410 A  
ENDBRANCH   4   5
TORSDOF 1
ENDMDL
MODEL       46
REMARK 921   NORMALIZED FREE ENERGY PREDICTED BY IDOCK:   -3.69 KCAL/MOL
REMARK 922        TOTAL FREE ENERGY PREDICTED BY IDOCK:   -4.03 KCAL/MOL
REMARK 923 INTER-LIGAND FREE ENERGY PREDICTED BY IDOCK:   -3.90 KCAL/MOL
REMARK 924 INTRA-LIGAND FREE ENERGY PREDICTED BY IDOCK:   -0.13 KCAL/MOL
REMARK 927      BINDING AFFINITY PREDICTED BY RF-SCORE:    0.00 PKD
ROOT
HETATM    1  O   UNL     1     -14.031  13.775  72.753  1.00  0.00    -0.714 OA 
HETATM    2  C   UNL     1     -13.364  13.376  71.807  1.00  0.00    -0.394 C  
HETATM    3  C   UNL     1     -12.853  14.304  70.781  1.00  0.00    -0.404 C  
HETATM    4  C   UNL     1     -12.129  13.837  69.757  1.00  0.00    -0.400 C  
ENDROOT
BRANCH   4   5
HETATM    5  C   UNL     1     -11.597  14.745  68.741  1.00  0.00    -0.347 A  
HETATM    6  C   UNL     1     -11.416  14.296  67.428  1.00  0.00    -0.368 A  
HETATM    7  C   UNL     1     -10.897  15.154  66.458  1.00  0.00    -0.317 A  
HETATM    8  C   UNL     1     -10.556  16.463  66.795  1.00  0.00    -0.238 A  
HETATM    9  C   UNL     1     -10.732  16.915  68.103  1.00  0.00    -0.375 A  
HETATM   10  C   UNL     1     -11.250  16.057  69.076  1.00  0.00    -0.347 A  
ENDBRANCH   4   5
TORSDOF 1
ENDMDL
MODEL       47
REMARK 921   NORMALIZED FREE ENERGY PREDICTED BY IDOCK:   -3.65 KCAL/MOL
REMARK 922        TOTAL FREE ENERGY PREDICTED BY IDOCK:   -4.00 KCAL/MOL
REMARK 923 INTER-LIGAND FREE ENERGY PREDICTED BY IDOCK:   -3.88 KCAL/MOL
REMARK 924 INTRA-LIGAND FREE ENERGY PREDICTED BY IDOCK:   -0.12 KCAL/MOL
REMARK 927      BINDING AFFINITY PREDICTED BY RF-SCORE:    0.00 PKD
ROOT
HETATM    1  O   UNL     1     -10.311  20.069  68.609  1.00  0.00    -0.437 OA 
HETATM    2  C   UNL     1      -9.926  18.907  68.571  1.00  0.00    -0.406 C  
HETATM    3  C   UNL     1     -10.628  17.891  67.766  1.00  0.00    -0.399 C  
HETATM    4  C   UNL     1     -10.185  16.628  67.748  1.00  0.00    -0.292 C  
ENDROOT
BRANCH   4   5
HETATM    5  C   UNL     1     -10.857  15.610  66.940  1.00  0.00    -0.282 A  
HETATM    6  C   UNL     1     -11.569  14.581  67.564  1.00  0.00    -0.403 A  
HETATM    7  C   UNL     1     -12.202  13.600  66.798  1.00  0.00    -0.416 A  
HETATM    8  C   UNL     1     -12.125  13.644  65.407  1.00  0.00    -0.429 A  
HETATM    9  C   UNL     1     -11.413  14.667  64.780  1.00  0.00    -0.410 A  
HETATM   10  C   UNL     1     -10.778  15.648  65.544  1.00  0.00    -0.403 A  
ENDBRANCH   4   5
TORSDOF 1
ENDMDL
MODEL       48
REMARK 921   NORMALIZED FREE ENERGY PREDICTED BY IDOCK:   -3.65 KCAL/MOL
REMARK 922        TOTAL FREE ENERGY PREDICTED BY IDOCK:   -3.99 KCAL/MOL
REMARK 923 INTER-LIGAND FREE ENERGY PREDICTED BY IDOCK:   -3.87 KCAL/MOL
REMARK 924 INTRA-LIGAND FREE ENERGY PREDICTED BY IDOCK:   -0.13 KCAL/MOL
REMARK 927      BINDING AFFINITY PREDICTED BY RF-SCORE:    0.00 PKD
ROOT
HETATM    1  O   UNL     1     -12.562  14.711  64.040  1.00  0.00    -0.819 OA 
HETATM    2  C   UNL     1     -12.103  14.334  65.110  1.00  0.00    -0.410 C  
HETATM    3  C   UNL     1     -11.705  12.930  65.324  1.00  0.00    -0.399 C  
HETATM    4  C   UNL     1     -11.208  12.548  66.507  1.00  0.00    -0.356 C  
ENDROOT
BRANCH   4   5
HETATM    5  C   UNL     1     -10.790  11.165  66.732  1.00  0.00    -0.322 A  
HETATM    6  C   UNL     1     -11.008  10.562  67.975  1.00  0.00    -0.345 A  
HETATM    7  C   UNL     1     -10.601   9.246  68.198  1.00  0.00    -0.248 A  
HETATM    8  C   UNL     1      -9.973   8.528  67.181  1.00  0.00    -0.304 A  
HETATM    9  C   UNL     1      -9.751   9.125  65.941  1.00  0.00    -0.336 A  
HETATM   10  C   UNL     1     -10.157  10.442  65.715  1.00  0.00    -0.329 A  
ENDBRANCH   4   5
TORSDOF 1
ENDMDL
MODEL       49
REMARK 921   NORMALIZED FREE ENERGY PREDICTED BY IDOCK:   -3.63 KCAL/MOL
REMARK 922        TOTAL FREE ENERGY PREDICTED BY IDOCK:   -3.98 KCAL/MOL
REMARK 923 INTER-LIGAND FREE ENERGY PREDICTED BY IDOCK:   -3.86 KCAL/MOL
REMARK 924 INTRA-LIGAND FREE ENERGY PREDICTED BY IDOCK:   -0.12 KCAL/MOL
REMARK 927      BINDING AFFINITY PREDICTED BY RF-SCORE:    0.00 PKD
ROOT
HETATM    1  O   UNL     1      -9.294  17.042  69.043  1.00  0.00    -0.248 OA 
HETATM    2  C   UNL     1     -10.344  16.443  68.850  1.00  0.00    -0.270 C  
HETATM    3  C   UNL     1     -10.671  15.208  69.585  1.00  0.00    -0.289 C  
HETATM    4  C   UNL     1     -11.826  14.574  69.349  1.00  0.00    -0.367 C  
ENDROOT
BRANCH   4   5
HETATM    5  C   UNL     1     -12.176  13.357  70.082  1.00  0.00    -0.385 A  
HETATM    6  C   UNL     1     -12.874  13.447  71.291  1.00  0.00    -0.407 A  
HETATM    7  C   UNL     1     -13.200  12.290  72.000  1.00  0.00    -0.508 A  
HETATM    8  C   UNL     1     -12.830  11.041  71.506  1.00  0.00    -0.555 A  
HETATM    9  C   UNL     1     -12.131  10.946  70.303  1.00  0.00    -0.440 A  
HETATM   10  C   UNL     1     -11.802  12.102  69.591  1.00  0.00    -0.391 A  
ENDBRANCH   4   5
TORSDOF 1
ENDMDL
MODEL       50
REMARK 921   NORMALIZED FREE ENERGY PREDICTED BY IDOCK:   -3.63 KCAL/MOL
REMARK 922        TOTAL FREE ENERGY PREDICTED BY IDOCK:   -3.97 KCAL/MOL
REMARK 923 INTER-LIGAND FREE ENERGY PREDICTED BY IDOCK:   -3.85 KCAL/MOL
REMARK 924 INTRA-LIGAND FREE ENERGY PREDICTED BY IDOCK:   -0.12 KCAL/MOL
REMARK 927      BINDING AFFINITY PREDICTED BY RF-SCORE:    0.00 PKD
ROOT
HETATM    1  O   UNL     1      -9.539   6.137  74.200  1.00  0.00    -0.154 OA 
HETATM    2  C   UNL     1     -10.557   6.504  73.629  1.00  0.00    -0.286 C  
HETATM    3  C   UNL     1     -10.603   7.773  72.879  1.00  0.00    -0.428 C  
HETATM    4  C   UNL     1     -11.733   8.149  72.267  1.00  0.00    -0.439 C  
ENDROOT
BRANCH   4   5
HETATM    5  C   UNL     1     -11.792   9.394  71.502  1.00  0.00    -0.456 A  
HETATM    6  C   UNL     1     -10.884   9.618  70.461  1.00  0.00    -0.371 A  
HETATM    7  C   UNL     1     -10.928  10.809  69.736  1.00  0.00    -0.314 A  
HETATM    8  C   UNL     1     -11.878  11.781  70.047  1.00  0.00    -0.422 A  
HETATM    9  C   UNL     1     -12.784  11.563  71.085  1.00  0.00    -0.458 A  
HETATM   10  C   UNL     1     -12.741  10.372  71.813  1.00  0.00    -0.525 A  
ENDBRANCH   4   5
TORSDOF 1
ENDMDL
MODEL       51
REMARK 921   NORMALIZED FREE ENERGY PREDICTED BY IDOCK:   -3.59 KCAL/MOL
REMARK 922        TOTAL FREE ENERGY PREDICTED BY IDOCK:   -3.93 KCAL/MOL
REMARK 923 INTER-LIGAND FREE ENERGY PREDICTED BY IDOCK:   -3.80 KCAL/MOL
REMARK 924 INTRA-LIGAND FREE ENERGY PREDICTED BY IDOCK:   -0.13 KCAL/MOL
REMARK 927      BINDING AFFINITY PREDICTED BY RF-SCORE:    0.00 PKD
ROOT
HETATM    1  O   UNL     1     -11.048  17.498  64.827  1.00  0.00    -0.959 OA 
HETATM    2  C   UNL     1     -10.420  17.368  65.870  1.00  0.00    -0.252 C  
HETATM    3  C   UNL     1      -9.382  18.336  66.269  1.00  0.00    -0.223 C  
HETATM    4  C   UNL     1      -8.711  18.165  67.414  1.00  0.00    -0.245 C  
ENDROOT
BRANCH   4   5
HETATM    5  C   UNL     1      -7.692  19.126  67.835  1.00  0.00    -0.308 A  
HETATM    6  C   UNL     1      -7.441  20.264  67.061  1.00  0.00    -0.334 A  
HETATM    7  C   UNL     1      -6.462  21.177  67.453  1.00  0.00    -0.436 A  
HETATM    8  C   UNL     1      -5.729  20.958  68.618  1.00  0.00    -0.387 A  
HETATM    9  C   UNL     1      -5.973  19.823  69.392  1.00  0.00    -0.318 A  
HETATM   10  C   UNL     1      -6.952  18.907  69.002  1.00  0.00    -0.342 A  
ENDBRANCH   4   5
TORSDOF 1
ENDMDL
MODEL       52
REMARK 921   NORMALIZED FREE ENERGY PREDICTED BY IDOCK:   -3.59 KCAL/MOL
REMARK 922        TOTAL FREE ENERGY PREDICTED BY IDOCK:   -3.93 KCAL/MOL
REMARK 923 INTER-LIGAND FREE ENERGY PREDICTED BY IDOCK:   -3.81 KCAL/MOL
REMARK 924 INTRA-LIGAND FREE ENERGY PREDICTED BY IDOCK:   -0.12 KCAL/MOL
REMARK 927      BINDING AFFINITY PREDICTED BY RF-SCORE:    0.00 PKD
ROOT
HETATM    1  O   UNL     1     -13.089  12.747  64.954  1.00  0.00    -0.833 OA 
HETATM    2  C   UNL     1     -12.281  13.613  64.644  1.00  0.00    -0.409 C  
HETATM    3  C   UNL     1     -11.573  14.405  65.667  1.00  0.00    -0.347 C  
HETATM    4  C   UNL     1     -10.698  15.348  65.296  1.00  0.00    -0.439 C  
ENDROOT
BRANCH   4   5
HETATM    5  C   UNL     1      -9.972  16.130  66.296  1.00  0.00    -0.336 A  
HETATM    6  C   UNL     1     -10.654  16.671  67.391  1.00  0.00    -0.295 A  
HETATM    7  C   UNL     1      -9.968  17.428  68.341  1.00  0.00    -0.329 A  
HETATM    8  C   UNL     1      -8.598  17.648  68.202  1.00  0.00    -0.261 A  
HETATM    9  C   UNL     1      -7.914  17.112  67.111  1.00  0.00    -0.216 A  
HETATM   10  C   UNL     1      -8.599  16.356  66.158  1.00  0.00    -0.343 A  
ENDBRANCH   4   5
TORSDOF 1
ENDMDL
MODEL       53
REMARK 921   NORMALIZED FREE ENERGY PREDICTED BY IDOCK:   -3.58 KCAL/MOL
REMARK 922        TOTAL FREE ENERGY PREDICTED BY IDOCK:   -3.93 KCAL/MOL
REMARK 923 INTER-LIGAND FREE ENERGY PREDICTED BY IDOCK:   -3.79 KCAL/MOL
REMARK 924 INTRA-LIGAND FREE ENERGY PREDICTED BY IDOCK:   -0.13 KCAL/MOL
REMARK 927      BINDING AFFINITY PREDICTED BY RF-SCORE:    0.00 PKD
ROOT
HETATM    1  O   UNL     1      -9.300  19.216  66.500  1.00  0.00    -0.323 OA 
HETATM    2  C   UNL     1      -9.697  18.207  67.068  1.00  0.00    -0.307 C  
HETATM    3  C   UNL     1     -10.227  17.058  66.311  1.00  0.00    -0.336 C  
HETATM    4  C   UNL     1     -10.657  15.970  66.961  1.00  0.00    -0.302 C  
ENDROOT
BRANCH   4   5
HETATM    5  C   UNL     1     -11.168  14.812  66.228  1.00  0.00    -0.343 A  
HETATM    6  C   UNL     1     -11.383  14.898  64.848  1.00  0.00    -0.415 A  
HETATM    7  C   UNL     1     -11.881  13.800  64.145  1.00  0.00    -0.439 A  
HETATM    8  C   UNL     1     -12.167  12.613  64.817  1.00  0.00    -0.528 A  
HETATM    9  C   UNL     1     -11.957  12.522  66.193  1.00  0.00    -0.432 A  
HETATM   10  C   UNL     1     -11.459  13.620  66.899  1.00  0.00    -0.369 A  
ENDBRANCH   4   5
TORSDOF 1
ENDMDL
MODEL       54
REMARK 921   NORMALIZED FREE ENERGY PREDICTED BY IDOCK:   -3.57 KCAL/MOL
REMARK 922        TOTAL FREE ENERGY PREDICTED BY IDOCK:   -3.91 KCAL/MOL
REMARK 923 INTER-LIGAND FREE ENERGY PREDICTED BY IDOCK:   -3.78 KCAL/MOL
REMARK 924 INTRA-LIGAND FREE ENERGY PREDICTED BY IDOCK:   -0.13 KCAL/MOL
REMARK 927      BINDING AFFINITY PREDICTED BY RF-SCORE:    0.00 PKD
ROOT
HETATM    1  O   UNL     1      -8.435   7.525  66.242  1.00  0.00    -0.125 OA 
HETATM    2  C   UNL     1      -8.534   8.423  65.415  1.00  0.00    -0.176 C  
HETATM    3  C   UNL     1      -9.583   9.454  65.522  1.00  0.00    -0.328 C  
HETATM    4  C   UNL     1      -9.668  10.421  64.600  1.00  0.00    -0.392 C  
ENDROOT
BRANCH   4   5
HETATM    5  C   UNL     1     -10.689  11.463  64.700  1.00  0.00    -0.378 A  
HETATM    6  C   UNL     1     -11.080  11.940  65.955  1.00  0.00    -0.369 A  
HETATM    7  C   UNL     1     -12.062  12.927  66.056  1.00  0.00    -0.484 A  
HETATM    8  C   UNL     1     -12.658  13.439  64.905  1.00  0.00    -0.416 A  
HETATM    9  C   UNL     1     -12.274  12.964  63.651  1.00  0.00    -0.581 A  
HETATM   10  C   UNL     1     -11.292  11.976  63.547  1.00  0.00    -0.528 A  
ENDBRANCH   4   5
TORSDOF 1
ENDMDL
MODEL       55
REMARK 921   NORMALIZED FREE ENERGY PREDICTED BY IDOCK:   -3.54 KCAL/MOL
REMARK 922        TOTAL FREE ENERGY PREDICTED BY IDOCK:   -3.88 KCAL/MOL
REMARK 923 INTER-LIGAND FREE ENERGY PREDICTED BY IDOCK:   -3.75 KCAL/MOL
REMARK 924 INTRA-LIGAND FREE ENERGY PREDICTED BY IDOCK:   -0.13 KCAL/MOL
REMARK 927      BINDING AFFINITY PREDICTED BY RF-SCORE:    0.00 PKD
ROOT
HETATM    1  O   UNL     1     -11.947  11.185  71.196  1.00  0.00    -0.255 OA 
HETATM    2  C   UNL     1     -11.947  11.037  69.981  1.00  0.00    -0.351 C  
HETATM    3  C   UNL     1     -11.758  12.178  69.067  1.00  0.00    -0.377 C  
HETATM    4  C   UNL     1     -11.766  11.984  67.742  1.00  0.00    -0.379 C  
ENDROOT
BRANCH   4   5
HETATM    5  C   UNL     1     -11.560  13.101  66.821  1.00  0.00    -0.414 A  
HETATM    6  C   UNL     1     -12.087  13.045  65.526  1.00  0.00    -0.501 A  
HETATM    7  C   UNL     1     -11.884  14.103  64.639  1.00  0.00    -0.443 A  
HETATM    8  C   UNL     1     -11.153  15.220  65.041  1.00  0.00    -0.436 A  
HETATM    9  C   UNL     1     -10.623  15.280  66.330  1.00  0.00    -0.312 A  
HETATM   10  C   UNL     1     -10.825  14.222  67.219  1.00  0.00    -0.285 A  
ENDBRANCH   4   5
TORSDOF 1
ENDMDL
MODEL       56
REMARK 921   NORMALIZED FREE ENERGY PREDICTED BY IDOCK:   -3.54 KCAL/MOL
REMARK 922        TOTAL FREE ENERGY PREDICTED BY IDOCK:   -3.87 KCAL/MOL
REMARK 923 INTER-LIGAND FREE ENERGY PREDICTED BY IDOCK:   -3.76 KCAL/MOL
REMARK 924 INTRA-LIGAND FREE ENERGY PREDICTED BY IDOCK:   -0.12 KCAL/MOL
REMARK 927      BINDING AFFINITY PREDICTED BY RF-SCORE:    0.00 PKD
ROOT
HETATM    1  O   UNL     1      -9.764   4.402  68.345  1.00  0.00    -0.148 OA 
HETATM    2  C   UNL     1     -10.105   4.717  69.477  1.00  0.00    -0.190 C  
HETATM    3  C   UNL     1     -10.845   5.966  69.738  1.00  0.00    -0.447 C  
HETATM    4  C   UNL     1     -11.202   6.284  70.988  1.00  0.00    -0.372 C  
ENDROOT
BRANCH   4   5
HETATM    5  C   UNL     1     -11.953   7.509  71.263  1.00  0.00    -0.333 A  
HETATM    6  C   UNL     1     -11.305   8.748  71.232  1.00  0.00    -0.357 A  
HETATM    7  C   UNL     1     -12.015   9.918  71.506  1.00  0.00    -0.473 A  
HETATM    8  C   UNL     1     -13.374   9.855  71.812  1.00  0.00    -0.501 A  
HETATM    9  C   UNL     1     -14.024   8.621  71.847  1.00  0.00    -0.501 A  
HETATM   10  C   UNL     1     -13.315   7.449  71.575  1.00  0.00    -0.435 A  
ENDBRANCH   4   5
TORSDOF 1
ENDMDL
MODEL       57
REMARK 921   NORMALIZED FREE ENERGY PREDICTED BY IDOCK:   -3.52 KCAL/MOL
REMARK 922        TOTAL FREE ENERGY PREDICTED BY IDOCK:   -3.86 KCAL/MOL
REMARK 923 INTER-LIGAND FREE ENERGY PREDICTED BY IDOCK:   -3.73 KCAL/MOL
REMARK 924 INTRA-LIGAND FREE ENERGY PREDICTED BY IDOCK:   -0.13 KCAL/MOL
REMARK 927      BINDING AFFINITY PREDICTED BY RF-SCORE:    0.00 PKD
ROOT
HETATM    1  O   UNL     1     -11.786  13.751  66.225  1.00  0.00    -0.357 OA 
HETATM    2  C   UNL     1     -10.732  14.362  66.106  1.00  0.00    -0.304 C  
HETATM    3  C   UNL     1     -10.637  15.799  66.420  1.00  0.00    -0.307 C  
HETATM    4  C   UNL     1      -9.471  16.440  66.277  1.00  0.00    -0.347 C  
ENDROOT
BRANCH   4   5
HETATM    5  C   UNL     1      -9.352  17.861  66.601  1.00  0.00    -0.293 A  
HETATM    6  C   UNL     1      -8.126  18.515  66.443  1.00  0.00    -0.295 A  
HETATM    7  C   UNL     1      -8.005  19.868  66.762  1.00  0.00    -0.340 A  
HETATM    8  C   UNL     1      -9.107  20.573  67.242  1.00  0.00    -0.473 A  
HETATM    9  C   UNL     1     -10.332  19.925  67.405  1.00  0.00    -0.565 A  
HETATM   10  C   UNL     1     -10.455  18.571  67.087  1.00  0.00    -0.446 A  
ENDBRANCH   4   5
TORSDOF 1
ENDMDL
MODEL       58
REMARK 921   NORMALIZED FREE ENERGY PREDICTED BY IDOCK:   -3.52 KCAL/MOL
REMARK 922        TOTAL FREE ENERGY PREDICTED BY IDOCK:   -3.85 KCAL/MOL
REMARK 923 INTER-LIGAND FREE ENERGY PREDICTED BY IDOCK:   -3.72 KCAL/MOL
REMARK 924 INTRA-LIGAND FREE ENERGY PREDICTED BY IDOCK:   -0.13 KCAL/MOL
REMARK 927      BINDING AFFINITY PREDICTED BY RF-SCORE:    0.00 PKD
ROOT
HETATM    1  O   UNL     1     -10.689   4.418  74.173  1.00  0.00    -0.256 OA 
HETATM    2  C   UNL     1     -10.165   5.401  73.665  1.00  0.00    -0.214 C  
HETATM    3  C   UNL     1     -10.973   6.485  73.076  1.00  0.00    -0.270 C  
HETATM    4  C   UNL     1     -10.371   7.545  72.524  1.00  0.00    -0.291 C  
ENDROOT
BRANCH   4   5
HETATM    5  C   UNL     1     -11.156   8.639  71.954  1.00  0.00    -0.416 A  
HETATM    6  C   UNL     1     -12.505   8.783  72.294  1.00  0.00    -0.455 A  
HETATM    7  C   UNL     1     -13.261   9.819  71.743  1.00  0.00    -0.532 A  
HETATM    8  C   UNL     1     -12.673  10.713  70.850  1.00  0.00    -0.498 A  
HETATM    9  C   UNL     1     -11.329  10.572  70.505  1.00  0.00    -0.400 A  
HETATM   10  C   UNL     1     -10.571   9.536  71.054  1.00  0.00    -0.392 A  
ENDBRANCH   4   5
TORSDOF 1
ENDMDL
MODEL       59
REMARK 921   NORMALIZED FREE ENERGY PREDICTED BY IDOCK:   -3.51 KCAL/MOL
REMARK 922        TOTAL FREE ENERGY PREDICTED BY IDOCK:   -3.85 KCAL/MOL
REMARK 923 INTER-LIGAND FREE ENERGY PREDICTED BY IDOCK:   -3.72 KCAL/MOL
REMARK 924 INTRA-LIGAND FREE ENERGY PREDICTED BY IDOCK:   -0.13 KCAL/MOL
REMARK 927      BINDING AFFINITY PREDICTED BY RF-SCORE:    0.00 PKD
ROOT
HETATM    1  O   UNL     1      -7.674   8.228  66.184  1.00  0.00    -0.092 OA 
HETATM    2  C   UNL     1      -8.336   8.715  65.276  1.00  0.00    -0.168 C  
HETATM    3  C   UNL     1      -9.230   9.864  65.509  1.00  0.00    -0.255 C  
HETATM    4  C   UNL     1      -9.943  10.373  64.496  1.00  0.00    -0.401 C  
ENDROOT
BRANCH   4   5
HETATM    5  C   UNL     1     -10.821  11.525  64.703  1.00  0.00    -0.372 A  
HETATM    6  C   UNL     1     -11.323  12.227  63.602  1.00  0.00    -0.547 A  
HETATM    7  C   UNL     1     -12.151  13.333  63.794  1.00  0.00    -0.546 A  
HETATM    8  C   UNL     1     -12.479  13.744  65.085  1.00  0.00    -0.483 A  
HETATM    9  C   UNL     1     -11.978  13.049  66.186  1.00  0.00    -0.488 A  
HETATM   10  C   UNL     1     -11.149  11.942  65.997  1.00  0.00    -0.369 A  
ENDBRANCH   4   5
TORSDOF 1
ENDMDL
MODEL       60
REMARK 921   NORMALIZED FREE ENERGY PREDICTED BY IDOCK:   -3.50 KCAL/MOL
REMARK 922        TOTAL FREE ENERGY PREDICTED BY IDOCK:   -3.84 KCAL/MOL
REMARK 923 INTER-LIGAND FREE ENERGY PREDICTED BY IDOCK:   -3.71 KCAL/MOL
REMARK 924 INTRA-LIGAND FREE ENERGY PREDICTED BY IDOCK:   -0.13 KCAL/MOL
REMARK 927      BINDING AFFINITY PREDICTED BY RF-SCORE:    0.00 PKD
ROOT
HETATM    1  O   UNL     1      -9.851  20.686  67.127  1.00  0.00    -0.469 OA 
HETATM    2  C   UNL     1      -9.933  19.551  66.674  1.00  0.00    -0.407 C  
HETATM    3  C   UNL     1     -10.420  18.429  67.497  1.00  0.00    -0.445 C  
HETATM    4  C   UNL     1     -10.495  17.199  66.974  1.00  0.00    -0.282 C  
ENDROOT
BRANCH   4   5
HETATM    5  C   UNL     1     -10.993  16.076  67.769  1.00  0.00    -0.307 A  
HETATM    6  C   UNL     1     -11.198  14.830  67.167  1.00  0.00    -0.346 A  
HETATM    7  C   UNL     1     -11.684  13.760  67.918  1.00  0.00    -0.395 A  
HETATM    8  C   UNL     1     -11.969  13.929  69.273  1.00  0.00    -0.402 A  
HETATM    9  C   UNL     1     -11.769  15.171  69.877  1.00  0.00    -0.346 A  
HETATM   10  C   UNL     1     -11.284  16.244  69.127  1.00  0.00    -0.309 A  
ENDBRANCH   4   5
TORSDOF 1
ENDMDL
MODEL       61
REMARK 921   NORMALIZED FREE ENERGY PREDICTED BY IDOCK:   -3.50 KCAL/MOL
REMARK 922        TOTAL FREE ENERGY PREDICTED BY IDOCK:   -3.84 KCAL/MOL
REMARK 923 INTER-LIGAND FREE ENERGY PREDICTED BY IDOCK:   -3.72 KCAL/MOL
REMARK 924 INTRA-LIGAND FREE ENERGY PREDICTED BY IDOCK:   -0.12 KCAL/MOL
REMARK 927      BINDING AFFINITY PREDICTED BY RF-SCORE:    0.00 PKD
ROOT
HETATM    1  O   UNL     1      -9.822   4.440  68.287  1.00  0.00    -0.138 OA 
HETATM    2  C   UNL     1      -9.975   4.827  69.438  1.00  0.00    -0.199 C  
HETATM    3  C   UNL     1     -10.952   5.881  69.772  1.00  0.00    -0.452 C  
HETATM    4  C   UNL     1     -11.094   6.285  71.039  1.00  0.00    -0.357 C  
ENDROOT
BRANCH   4   5
HETATM    5  C   UNL     1     -12.071   7.315  71.392  1.00  0.00    -0.370 A  
HETATM    6  C   UNL     1     -13.426   6.984  71.499  1.00  0.00    -0.363 A  
HETATM    7  C   UNL     1     -14.364   7.966  71.824  1.00  0.00    -0.589 A  
HETATM    8  C   UNL     1     -13.953   9.280  72.042  1.00  0.00    -0.392 A  
HETATM    9  C   UNL     1     -12.603   9.614  71.933  1.00  0.00    -0.481 A  
HETATM   10  C   UNL     1     -11.663   8.635  71.608  1.00  0.00    -0.380 A  
ENDBRANCH   4   5
TORSDOF 1
ENDMDL
MODEL       62
REMARK 921   NORMALIZED FREE ENERGY PREDICTED BY IDOCK:   -3.50 KCAL/MOL
REMARK 922        TOTAL FREE ENERGY PREDICTED BY IDOCK:   -3.83 KCAL/MOL
REMARK 923 INTER-LIGAND FREE ENERGY PREDICTED BY IDOCK:   -3.70 KCAL/MOL
REMARK 924 INTRA-LIGAND FREE ENERGY PREDICTED BY IDOCK:   -0.13 KCAL/MOL
REMARK 927      BINDING AFFINITY PREDICTED BY RF-SCORE:    0.00 PKD
ROOT
HETATM    1  O   UNL     1      -9.623   8.309  68.825  1.00  0.00    -0.148 OA 
HETATM    2  C   UNL     1     -10.043   9.452  68.700  1.00  0.00    -0.190 C  
HETATM    3  C   UNL     1     -10.369  10.010  67.375  1.00  0.00    -0.292 C  
HETATM    4  C   UNL     1     -10.823  11.265  67.270  1.00  0.00    -0.317 C  
ENDROOT
BRANCH   4   5
HETATM    5  C   UNL     1     -11.170  11.830  65.966  1.00  0.00    -0.352 A  
HETATM    6  C   UNL     1     -10.650  11.263  64.798  1.00  0.00    -0.376 A  
HETATM    7  C   UNL     1     -10.969  11.805  63.552  1.00  0.00    -0.499 A  
HETATM    8  C   UNL     1     -11.807  12.916  63.469  1.00  0.00    -0.605 A  
HETATM    9  C   UNL     1     -12.326  13.487  64.631  1.00  0.00    -0.419 A  
HETATM   10  C   UNL     1     -12.008  12.946  65.879  1.00  0.00    -0.504 A  
ENDBRANCH   4   5
TORSDOF 1
ENDMDL
MODEL       63
REMARK 921   NORMALIZED FREE ENERGY PREDICTED BY IDOCK:   -3.49 KCAL/MOL
REMARK 922        TOTAL FREE ENERGY PREDICTED BY IDOCK:   -3.82 KCAL/MOL
REMARK 923 INTER-LIGAND FREE ENERGY PREDICTED BY IDOCK:   -3.69 KCAL/MOL
REMARK 924 INTRA-LIGAND FREE ENERGY PREDICTED BY IDOCK:   -0.13 KCAL/MOL
REMARK 927      BINDING AFFINITY PREDICTED BY RF-SCORE:    0.00 PKD
ROOT
HETATM    1  O   UNL     1     -13.741  13.118  72.592  1.00  0.00    -0.651 OA 
HETATM    2  C   UNL     1     -13.259  12.126  72.061  1.00  0.00    -0.391 C  
HETATM    3  C   UNL     1     -12.661  12.190  70.714  1.00  0.00    -0.220 C  
HETATM    4  C   UNL     1     -12.144  11.087  70.158  1.00  0.00    -0.438 C  
ENDROOT
BRANCH   4   5
HETATM    5  C   UNL     1     -11.530  11.134  68.832  1.00  0.00    -0.363 A  
HETATM    6  C   UNL     1     -11.742  12.240  68.002  1.00  0.00    -0.417 A  
HETATM    7  C   UNL     1     -11.168  12.285  66.731  1.00  0.00    -0.371 A  
HETATM    8  C   UNL     1     -10.379  11.226  66.284  1.00  0.00    -0.294 A  
HETATM    9  C   UNL     1     -10.167  10.120  67.106  1.00  0.00    -0.278 A  
HETATM   10  C   UNL     1     -10.742  10.072  68.378  1.00  0.00    -0.271 A  
ENDBRANCH   4   5
TORSDOF 1
ENDMDL
MODEL       64
REMARK 921   NORMALIZED FREE ENERGY PREDICTED BY IDOCK:   -3.48 KCAL/MOL
REMARK 922        TOTAL FREE ENERGY PREDICTED BY IDOCK:   -3.82 KCAL/MOL
REMARK 923 INTER-LIGAND FREE ENERGY PREDICTED BY IDOCK:   -3.69 KCAL/MOL
REMARK 924 INTRA-LIGAND FREE ENERGY PREDICTED BY IDOCK:   -0.12 KCAL/MOL
REMARK 927      BINDING AFFINITY PREDICTED BY RF-SCORE:    0.00 PKD
ROOT
HETATM    1  O   UNL     1     -10.739   3.859  72.847  1.00  0.00    -0.170 OA 
HETATM    2  C   UNL     1     -10.261   4.981  72.741  1.00  0.00    -0.181 C  
HETATM    3  C   UNL     1     -11.090   6.135  72.344  1.00  0.00    -0.316 C  
HETATM    4  C   UNL     1     -10.537   7.349  72.233  1.00  0.00    -0.270 C  
ENDROOT
BRANCH   4   5
HETATM    5  C   UNL     1     -11.347   8.509  71.860  1.00  0.00    -0.399 A  
HETATM    6  C   UNL     1     -10.831   9.468  70.981  1.00  0.00    -0.423 A  
HETATM    7  C   UNL     1     -11.596  10.582  70.632  1.00  0.00    -0.445 A  
HETATM    8  C   UNL     1     -12.876  10.743  71.158  1.00  0.00    -0.513 A  
HETATM    9  C   UNL     1     -13.394   9.791  72.036  1.00  0.00    -0.547 A  
HETATM   10  C   UNL     1     -12.631   8.676  72.389  1.00  0.00    -0.426 A  
ENDBRANCH   4   5
TORSDOF 1
ENDMDL
MODEL       65
REMARK 921   NORMALIZED FREE ENERGY PREDICTED BY IDOCK:   -3.46 KCAL/MOL
REMARK 922        TOTAL FREE ENERGY PREDICTED BY IDOCK:   -3.80 KCAL/MOL
REMARK 923 INTER-LIGAND FREE ENERGY PREDICTED BY IDOCK:   -3.67 KCAL/MOL
REMARK 924 INTRA-LIGAND FREE ENERGY PREDICTED BY IDOCK:   -0.13 KCAL/MOL
REMARK 927      BINDING AFFINITY PREDICTED BY RF-SCORE:    0.00 PKD
ROOT
HETATM    1  O   UNL     1      -7.414   9.140  62.470  1.00  0.00    -0.101 OA 
HETATM    2  C   UNL     1      -8.279   9.166  63.336  1.00  0.00    -0.178 C  
HETATM    3  C   UNL     1      -9.128  10.354  63.540  1.00  0.00    -0.270 C  
HETATM    4  C   UNL     1     -10.063  10.352  64.498  1.00  0.00    -0.365 C  
ENDROOT
BRANCH   4   5
HETATM    5  C   UNL     1     -10.927  11.514  64.702  1.00  0.00    -0.353 A  
HETATM    6  C   UNL     1     -11.420  12.222  63.600  1.00  0.00    -0.572 A  
HETATM    7  C   UNL     1     -12.235  13.338  63.790  1.00  0.00    -0.508 A  
HETATM    8  C   UNL     1     -12.561  13.753  65.081  1.00  0.00    -0.471 A  
HETATM    9  C   UNL     1     -12.071  13.052  66.183  1.00  0.00    -0.473 A  
HETATM   10  C   UNL     1     -11.254  11.936  65.995  1.00  0.00    -0.377 A  
ENDBRANCH   4   5
TORSDOF 1
ENDMDL
MODEL       66
REMARK 921   NORMALIZED FREE ENERGY PREDICTED BY IDOCK:   -3.46 KCAL/MOL
REMARK 922        TOTAL FREE ENERGY PREDICTED BY IDOCK:   -3.79 KCAL/MOL
REMARK 923 INTER-LIGAND FREE ENERGY PREDICTED BY IDOCK:   -3.67 KCAL/MOL
REMARK 924 INTRA-LIGAND FREE ENERGY PREDICTED BY IDOCK:   -0.13 KCAL/MOL
REMARK 927      BINDING AFFINITY PREDICTED BY RF-SCORE:    0.00 PKD
ROOT
HETATM    1  O   UNL     1      -9.502   8.308  69.591  1.00  0.00    -0.162 OA 
HETATM    2  C   UNL     1     -10.017   9.328  69.153  1.00  0.00    -0.179 C  
HETATM    3  C   UNL     1     -10.806  10.224  70.019  1.00  0.00    -0.364 C  
HETATM    4  C   UNL     1     -11.361  11.331  69.509  1.00  0.00    -0.362 C  
ENDROOT
BRANCH   4   5
HETATM    5  C   UNL     1     -12.130  12.241  70.357  1.00  0.00    -0.385 A  
HETATM    6  C   UNL     1     -12.949  11.729  71.369  1.00  0.00    -0.408 A  
HETATM    7  C   UNL     1     -13.694  12.593  72.173  1.00  0.00    -0.406 A  
HETATM    8  C   UNL     1     -13.625  13.971  71.968  1.00  0.00    -0.552 A  
HETATM    9  C   UNL     1     -12.812  14.486  70.959  1.00  0.00    -0.418 A  
HETATM   10  C   UNL     1     -12.066  13.623  70.152  1.00  0.00    -0.431 A  
ENDBRANCH   4   5
TORSDOF 1
ENDMDL
MODEL       67
REMARK 921   NORMALIZED FREE ENERGY PREDICTED BY IDOCK:   -3.44 KCAL/MOL
REMARK 922        TOTAL FREE ENERGY PREDICTED BY IDOCK:   -3.77 KCAL/MOL
REMARK 923 INTER-LIGAND FREE ENERGY PREDICTED BY IDOCK:   -3.65 KCAL/MOL
REMARK 924 INTRA-LIGAND FREE ENERGY PREDICTED BY IDOCK:   -0.12 KCAL/MOL
REMARK 927      BINDING AFFINITY PREDICTED BY RF-SCORE:    0.00 PKD
ROOT
HETATM    1  O   UNL     1      -9.997  19.550  67.277  1.00  0.00    -0.338 OA 
HETATM    2  C   UNL     1      -9.623  18.492  67.766  1.00  0.00    -0.290 C  
HETATM    3  C   UNL     1     -10.535  17.647  68.558  1.00  0.00    -0.337 C  
HETATM    4  C   UNL     1     -10.095  16.496  69.083  1.00  0.00    -0.287 C  
ENDROOT
BRANCH   4   5
HETATM    5  C   UNL     1     -10.990  15.635  69.855  1.00  0.00    -0.323 A  
HETATM    6  C   UNL     1     -11.526  16.089  71.064  1.00  0.00    -0.460 A  
HETATM    7  C   UNL     1     -12.371  15.266  71.810  1.00  0.00    -0.429 A  
HETATM    8  C   UNL     1     -12.683  13.987  71.352  1.00  0.00    -0.442 A  
HETATM    9  C   UNL     1     -12.148  13.528  70.148  1.00  0.00    -0.425 A  
HETATM   10  C   UNL     1     -11.302  14.349  69.400  1.00  0.00    -0.319 A  
ENDBRANCH   4   5
TORSDOF 1
ENDMDL
MODEL       68
REMARK 921   NORMALIZED FREE ENERGY PREDICTED BY IDOCK:   -3.30 KCAL/MOL
REMARK 922        TOTAL FREE ENERGY PREDICTED BY IDOCK:   -3.63 KCAL/MOL
REMARK 923 INTER-LIGAND FREE ENERGY PREDICTED BY IDOCK:   -3.51 KCAL/MOL
REMARK 924 INTRA-LIGAND FREE ENERGY PREDICTED BY IDOCK:   -0.12 KCAL/MOL
REMARK 927      BINDING AFFINITY PREDICTED BY RF-SCORE:    0.00 PKD
ROOT
HETATM    1  O   UNL     1     -10.136   4.619  70.361  1.00  0.00    -0.237 OA 
HETATM    2  C   UNL     1      -9.756   5.738  70.678  1.00  0.00    -0.178 C  
HETATM    3  C   UNL     1     -10.671   6.894  70.666  1.00  0.00    -0.267 C  
HETATM    4  C   UNL     1     -10.224   8.106  71.015  1.00  0.00    -0.221 C  
ENDROOT
BRANCH   4   5
HETATM    5  C   UNL     1     -11.123   9.261  71.027  1.00  0.00    -0.396 A  
HETATM    6  C   UNL     1     -12.177   9.316  71.945  1.00  0.00    -0.448 A  
HETATM    7  C   UNL     1     -13.044  10.409  71.954  1.00  0.00    -0.563 A  
HETATM    8  C   UNL     1     -12.862  11.451  71.045  1.00  0.00    -0.381 A  
HETATM    9  C   UNL     1     -11.814  11.400  70.126  1.00  0.00    -0.440 A  
HETATM   10  C   UNL     1     -10.946  10.306  70.115  1.00  0.00    -0.377 A  
ENDBRANCH   4   5
TORSDOF 1
ENDMDL
MODEL       69
REMARK 921   NORMALIZED FREE ENERGY PREDICTED BY IDOCK:   -3.27 KCAL/MOL
REMARK 922        TOTAL FREE ENERGY PREDICTED BY IDOCK:   -3.60 KCAL/MOL
REMARK 923 INTER-LIGAND FREE ENERGY PREDICTED BY IDOCK:   -3.47 KCAL/MOL
REMARK 924 INTRA-LIGAND FREE ENERGY PREDICTED BY IDOCK:   -0.13 KCAL/MOL
REMARK 927      BINDING AFFINITY PREDICTED BY RF-SCORE:    0.00 PKD
ROOT
HETATM    1  O   UNL     1     -13.248  11.232  72.104  1.00  0.00    -0.481 OA 
HETATM    2  C   UNL     1     -12.778  10.707  71.103  1.00  0.00    -0.422 C  
HETATM    3  C   UNL     1     -12.342  11.511  69.947  1.00  0.00    -0.247 C  
HETATM    4  C   UNL     1     -11.835  10.907  68.865  1.00  0.00    -0.340 C  
ENDROOT
BRANCH   4   5
HETATM    5  C   UNL     1     -11.379  11.689  67.716  1.00  0.00    -0.356 A  
HETATM    6  C   UNL     1     -10.568  11.095  66.744  1.00  0.00    -0.311 A  
HETATM    7  C   UNL     1     -10.120  11.840  65.652  1.00  0.00    -0.278 A  
HETATM    8  C   UNL     1     -10.479  13.181  65.528  1.00  0.00    -0.297 A  
HETATM    9  C   UNL     1     -11.285  13.779  66.496  1.00  0.00    -0.319 A  
HETATM   10  C   UNL     1     -11.734  13.036  67.590  1.00  0.00    -0.415 A  
ENDBRANCH   4   5
TORSDOF 1
ENDMDL
MODEL       70
REMARK 921   NORMALIZED FREE ENERGY PREDICTED BY IDOCK:   -3.27 KCAL/MOL
REMARK 922        TOTAL FREE ENERGY PREDICTED BY IDOCK:   -3.59 KCAL/MOL
REMARK 923 INTER-LIGAND FREE ENERGY PREDICTED BY IDOCK:   -3.47 KCAL/MOL
REMARK 924 INTRA-LIGAND FREE ENERGY PREDICTED BY IDOCK:   -0.13 KCAL/MOL
REMARK 927      BINDING AFFINITY PREDICTED BY RF-SCORE:    0.00 PKD
ROOT
HETATM    1  O   UNL     1     -12.950  14.091  65.361  1.00  0.00    -0.726 OA 
HETATM    2  C   UNL     1     -12.476  13.358  64.502  1.00  0.00    -0.301 C  
HETATM    3  C   UNL     1     -11.473  12.331  64.837  1.00  0.00    -0.382 C  
HETATM    4  C   UNL     1     -10.970  11.548  63.875  1.00  0.00    -0.474 C  
ENDROOT
BRANCH   4   5
HETATM    5  C   UNL     1      -9.989  10.510  64.191  1.00  0.00    -0.385 A  
HETATM    6  C   UNL     1     -10.006   9.890  65.444  1.00  0.00    -0.349 A  
HETATM    7  C   UNL     1      -9.064   8.908  65.755  1.00  0.00    -0.276 A  
HETATM    8  C   UNL     1      -8.101   8.543  64.815  1.00  0.00    -0.151 A  
HETATM    9  C   UNL     1      -8.078   9.161  63.564  1.00  0.00    -0.159 A  
HETATM   10  C   UNL     1      -9.019  10.144  63.252  1.00  0.00    -0.262 A  
ENDBRANCH   4   5
TORSDOF 1
ENDMDL
MODEL       71
REMARK 921   NORMALIZED FREE ENERGY PREDICTED BY IDOCK:   -3.27 KCAL/MOL
REMARK 922        TOTAL FREE ENERGY PREDICTED BY IDOCK:   -3.59 KCAL/MOL
REMARK 923 INTER-LIGAND FREE ENERGY PREDICTED BY IDOCK:   -3.46 KCAL/MOL
REMARK 924 INTRA-LIGAND FREE ENERGY PREDICTED BY IDOCK:   -0.13 KCAL/MOL
REMARK 927      BINDING AFFINITY PREDICTED BY RF-SCORE:    0.00 PKD
ROOT
HETATM    1  O   UNL     1     -12.587  13.724  63.409  1.00  0.00    -0.842 OA 
HETATM    2  C   UNL     1     -11.950  12.680  63.371  1.00  0.00    -0.528 C  
HETATM    3  C   UNL     1     -11.310  12.126  64.578  1.00  0.00    -0.393 C  
HETATM    4  C   UNL     1     -10.617  10.984  64.504  1.00  0.00    -0.383 C  
ENDROOT
BRANCH   4   5
HETATM    5  C   UNL     1      -9.992  10.408  65.695  1.00  0.00    -0.337 A  
HETATM    6  C   UNL     1      -9.423   9.132  65.638  1.00  0.00    -0.309 A  
HETATM    7  C   UNL     1      -8.836   8.573  66.775  1.00  0.00    -0.158 A  
HETATM    8  C   UNL     1      -8.817   9.287  67.972  1.00  0.00    -0.128 A  
HETATM    9  C   UNL     1      -9.386  10.559  68.035  1.00  0.00    -0.150 A  
HETATM   10  C   UNL     1      -9.974  11.119  66.899  1.00  0.00    -0.230 A  
ENDBRANCH   4   5
TORSDOF 1
ENDMDL
MODEL       72
REMARK 921   NORMALIZED FREE ENERGY PREDICTED BY IDOCK:   -3.26 KCAL/MOL
REMARK 922        TOTAL FREE ENERGY PREDICTED BY IDOCK:   -3.58 KCAL/MOL
REMARK 923 INTER-LIGAND FREE ENERGY PREDICTED BY IDOCK:   -3.46 KCAL/MOL
REMARK 924 INTRA-LIGAND FREE ENERGY PREDICTED BY IDOCK:   -0.12 KCAL/MOL
REMARK 927      BINDING AFFINITY PREDICTED BY RF-SCORE:    0.00 PKD
ROOT
HETATM    1  O   UNL     1      -9.815   8.160  66.370  1.00  0.00    -0.236 OA 
HETATM    2  C   UNL     1     -10.365   9.124  66.886  1.00  0.00    -0.251 C  
HETATM    3  C   UNL     1     -10.372  10.445  66.233  1.00  0.00    -0.270 C  
HETATM    4  C   UNL     1     -10.979  11.481  66.824  1.00  0.00    -0.347 C  
ENDROOT
BRANCH   4   5
HETATM    5  C   UNL     1     -11.014  12.795  66.182  1.00  0.00    -0.310 A  
HETATM    6  C   UNL     1      -9.891  13.628  66.235  1.00  0.00    -0.310 A  
HETATM    7  C   UNL     1      -9.922  14.887  65.634  1.00  0.00    -0.389 A  
HETATM    8  C   UNL     1     -11.075  15.320  64.979  1.00  0.00    -0.436 A  
HETATM    9  C   UNL     1     -12.198  14.494  64.927  1.00  0.00    -0.409 A  
HETATM   10  C   UNL     1     -12.169  13.234  65.528  1.00  0.00    -0.506 A  
ENDBRANCH   4   5
TORSDOF 1
ENDMDL
MODEL       73
REMARK 921   NORMALIZED FREE ENERGY PREDICTED BY IDOCK:   -3.25 KCAL/MOL
REMARK 922        TOTAL FREE ENERGY PREDICTED BY IDOCK:   -3.58 KCAL/MOL
REMARK 923 INTER-LIGAND FREE ENERGY PREDICTED BY IDOCK:   -3.45 KCAL/MOL
REMARK 924 INTRA-LIGAND FREE ENERGY PREDICTED BY IDOCK:   -0.13 KCAL/MOL
REMARK 927      BINDING AFFINITY PREDICTED BY RF-SCORE:    0.00 PKD
ROOT
HETATM    1  O   UNL     1     -12.499  13.190  70.080  1.00  0.00    -0.233 OA 
HETATM    2  C   UNL     1     -11.877  12.205  69.705  1.00  0.00    -0.327 C  
HETATM    3  C   UNL     1     -11.842  10.968  70.506  1.00  0.00    -0.464 C  
HETATM    4  C   UNL     1     -11.150   9.908  70.071  1.00  0.00    -0.335 C  
ENDROOT
BRANCH   4   5
HETATM    5  C   UNL     1     -11.119   8.665  70.841  1.00  0.00    -0.310 A  
HETATM    6  C   UNL     1     -11.071   8.710  72.239  1.00  0.00    -0.395 A  
HETATM    7  C   UNL     1     -11.030   7.527  72.978  1.00  0.00    -0.443 A  
HETATM    8  C   UNL     1     -11.036   6.296  72.325  1.00  0.00    -0.311 A  
HETATM    9  C   UNL     1     -11.082   6.245  70.932  1.00  0.00    -0.366 A  
HETATM   10  C   UNL     1     -11.122   7.428  70.190  1.00  0.00    -0.265 A  
ENDBRANCH   4   5
TORSDOF 1
ENDMDL
MODEL       74
REMARK 921   NORMALIZED FREE ENERGY PREDICTED BY IDOCK:   -3.24 KCAL/MOL
REMARK 922        TOTAL FREE ENERGY PREDICTED BY IDOCK:   -3.56 KCAL/MOL
REMARK 923 INTER-LIGAND FREE ENERGY PREDICTED BY IDOCK:   -3.45 KCAL/MOL
REMARK 924 INTRA-LIGAND FREE ENERGY PREDICTED BY IDOCK:   -0.12 KCAL/MOL
REMARK 927      BINDING AFFINITY PREDICTED BY RF-SCORE:    0.00 PKD
ROOT
HETATM    1  O   UNL     1      -6.550   9.711  62.734  1.00  0.00    -0.099 OA 
HETATM    2  C   UNL     1      -7.691   9.502  63.125  1.00  0.00    -0.125 C  
HETATM    3  C   UNL     1      -8.580  10.608  63.526  1.00  0.00    -0.124 C  
HETATM    4  C   UNL     1      -9.822  10.347  63.952  1.00  0.00    -0.332 C  
ENDROOT
BRANCH   4   5
HETATM    5  C   UNL     1     -10.725  11.432  64.335  1.00  0.00    -0.405 A  
HETATM    6  C   UNL     1     -10.934  11.723  65.688  1.00  0.00    -0.348 A  
HETATM    7  C   UNL     1     -11.804  12.749  66.059  1.00  0.00    -0.495 A  
HETATM    8  C   UNL     1     -12.469  13.488  65.081  1.00  0.00    -0.495 A  
HETATM    9  C   UNL     1     -12.267  13.200  63.732  1.00  0.00    -0.528 A  
HETATM   10  C   UNL     1     -11.397  12.173  63.358  1.00  0.00    -0.495 A  
ENDBRANCH   4   5
TORSDOF 1
ENDMDL
MODEL       75
REMARK 921   NORMALIZED FREE ENERGY PREDICTED BY IDOCK:   -3.23 KCAL/MOL
REMARK 922        TOTAL FREE ENERGY PREDICTED BY IDOCK:   -3.55 KCAL/MOL
REMARK 923 INTER-LIGAND FREE ENERGY PREDICTED BY IDOCK:   -3.42 KCAL/MOL
REMARK 924 INTRA-LIGAND FREE ENERGY PREDICTED BY IDOCK:   -0.13 KCAL/MOL
REMARK 927      BINDING AFFINITY PREDICTED BY RF-SCORE:    0.00 PKD
ROOT
HETATM    1  O   UNL     1      -9.897  18.216  66.928  1.00  0.00    -0.301 OA 
HETATM    2  C   UNL     1     -10.410  17.197  66.483  1.00  0.00    -0.306 C  
HETATM    3  C   UNL     1     -10.667  16.027  67.343  1.00  0.00    -0.306 C  
HETATM    4  C   UNL     1     -11.226  14.927  66.826  1.00  0.00    -0.338 C  
ENDROOT
BRANCH   4   5
HETATM    5  C   UNL     1     -11.507  13.764  67.667  1.00  0.00    -0.354 A  
HETATM    6  C   UNL     1     -11.712  13.928  69.041  1.00  0.00    -0.378 A  
HETATM    7  C   UNL     1     -11.970  12.821  69.850  1.00  0.00    -0.368 A  
HETATM    8  C   UNL     1     -12.022  11.545  69.290  1.00  0.00    -0.397 A  
HETATM    9  C   UNL     1     -11.815  11.375  67.922  1.00  0.00    -0.239 A  
HETATM   10  C   UNL     1     -11.557  12.482  67.110  1.00  0.00    -0.437 A  
ENDBRANCH   4   5
TORSDOF 1
ENDMDL
MODEL       76
REMARK 921   NORMALIZED FREE ENERGY PREDICTED BY IDOCK:   -3.23 KCAL/MOL
REMARK 922        TOTAL FREE ENERGY PREDICTED BY IDOCK:   -3.55 KCAL/MOL
REMARK 923 INTER-LIGAND FREE ENERGY PREDICTED BY IDOCK:   -3.42 KCAL/MOL
REMARK 924 INTRA-LIGAND FREE ENERGY PREDICTED BY IDOCK:   -0.13 KCAL/MOL
REMARK 927      BINDING AFFINITY PREDICTED BY RF-SCORE:    0.00 PKD
ROOT
HETATM    1  O   UNL     1     -10.472   8.750  68.007  1.00  0.00    -0.223 OA 
HETATM    2  C   UNL     1     -10.950   9.806  67.615  1.00  0.00    -0.162 C  
HETATM    3  C   UNL     1     -11.097  10.965  68.515  1.00  0.00    -0.311 C  
HETATM    4  C   UNL     1     -11.626  12.105  68.057  1.00  0.00    -0.411 C  
ENDROOT
BRANCH   4   5
HETATM    5  C   UNL     1     -11.763  13.271  68.929  1.00  0.00    -0.369 A  
HETATM    6  C   UNL     1     -11.521  14.554  68.425  1.00  0.00    -0.328 A  
HETATM    7  C   UNL     1     -11.638  15.668  69.257  1.00  0.00    -0.375 A  
HETATM    8  C   UNL     1     -11.996  15.506  70.595  1.00  0.00    -0.416 A  
HETATM    9  C   UNL     1     -12.236  14.230  71.103  1.00  0.00    -0.431 A  
HETATM   10  C   UNL     1     -12.118  13.113  70.273  1.00  0.00    -0.399 A  
ENDBRANCH   4   5
TORSDOF 1
ENDMDL
MODEL       77
REMARK 921   NORMALIZED FREE ENERGY PREDICTED BY IDOCK:   -3.22 KCAL/MOL
REMARK 922        TOTAL FREE ENERGY PREDICTED BY IDOCK:   -3.54 KCAL/MOL
REMARK 923 INTER-LIGAND FREE ENERGY PREDICTED BY IDOCK:   -3.42 KCAL/MOL
REMARK 924 INTRA-LIGAND FREE ENERGY PREDICTED BY IDOCK:   -0.12 KCAL/MOL
REMARK 927      BINDING AFFINITY PREDICTED BY RF-SCORE:    0.00 PKD
ROOT
HETATM    1  O   UNL     1      -6.937   8.776  72.146  1.00  0.00    -0.225 OA 
HETATM    2  C   UNL     1      -7.885   8.937  71.388  1.00  0.00    -0.097 C  
HETATM    3  C   UNL     1      -9.272   8.699  71.830  1.00  0.00    -0.345 C  
HETATM    4  C   UNL     1     -10.287   8.881  70.977  1.00  0.00    -0.321 C  
ENDROOT
BRANCH   4   5
HETATM    5  C   UNL     1     -11.670   8.669  71.402  1.00  0.00    -0.355 A  
HETATM    6  C   UNL     1     -12.202   7.376  71.432  1.00  0.00    -0.374 A  
HETATM    7  C   UNL     1     -13.525   7.170  71.826  1.00  0.00    -0.348 A  
HETATM    8  C   UNL     1     -14.321   8.255  72.191  1.00  0.00    -0.498 A  
HETATM    9  C   UNL     1     -13.796   9.547  72.160  1.00  0.00    -0.376 A  
HETATM   10  C   UNL     1     -12.473   9.755  71.765  1.00  0.00    -0.485 A  
ENDBRANCH   4   5
TORSDOF 1
ENDMDL
MODEL       78
REMARK 921   NORMALIZED FREE ENERGY PREDICTED BY IDOCK:   -3.22 KCAL/MOL
REMARK 922        TOTAL FREE ENERGY PREDICTED BY IDOCK:   -3.54 KCAL/MOL
REMARK 923 INTER-LIGAND FREE ENERGY PREDICTED BY IDOCK:   -3.41 KCAL/MOL
REMARK 924 INTRA-LIGAND FREE ENERGY PREDICTED BY IDOCK:   -0.12 KCAL/MOL
REMARK 927      BINDING AFFINITY PREDICTED BY RF-SCORE:    0.00 PKD
ROOT
HETATM    1  O   UNL     1      -7.172   7.304  68.804  1.00  0.00    -0.084 OA 
HETATM    2  C   UNL     1      -7.619   8.306  69.346  1.00  0.00    -0.096 C  
HETATM    3  C   UNL     1      -8.991   8.340  69.887  1.00  0.00    -0.139 C  
HETATM    4  C   UNL     1      -9.453   9.452  70.472  1.00  0.00    -0.327 C  
ENDROOT
BRANCH   4   5
HETATM    5  C   UNL     1     -10.803   9.498  71.031  1.00  0.00    -0.423 A  
HETATM    6  C   UNL     1     -11.241   8.481  71.886  1.00  0.00    -0.397 A  
HETATM    7  C   UNL     1     -12.533   8.515  72.413  1.00  0.00    -0.416 A  
HETATM    8  C   UNL     1     -13.392   9.563  72.087  1.00  0.00    -0.545 A  
HETATM    9  C   UNL     1     -12.962  10.578  71.232  1.00  0.00    -0.532 A  
HETATM   10  C   UNL     1     -11.670  10.546  70.703  1.00  0.00    -0.453 A  
ENDBRANCH   4   5
TORSDOF 1
ENDMDL
MODEL       79
REMARK 921   NORMALIZED FREE ENERGY PREDICTED BY IDOCK:   -3.22 KCAL/MOL
REMARK 922        TOTAL FREE ENERGY PREDICTED BY IDOCK:   -3.54 KCAL/MOL
REMARK 923 INTER-LIGAND FREE ENERGY PREDICTED BY IDOCK:   -3.40 KCAL/MOL
REMARK 924 INTRA-LIGAND FREE ENERGY PREDICTED BY IDOCK:   -0.13 KCAL/MOL
REMARK 927      BINDING AFFINITY PREDICTED BY RF-SCORE:    0.00 PKD
ROOT
HETATM    1  O   UNL     1      -6.153  13.838  67.440  1.00  0.00    -0.344 OA 
HETATM    2  C   UNL     1      -7.202  14.339  67.822  1.00  0.00    -0.175 C  
HETATM    3  C   UNL     1      -7.598  15.700  67.412  1.00  0.00    -0.227 C  
HETATM    4  C   UNL     1      -8.750  16.222  67.849  1.00  0.00    -0.175 C  
ENDROOT
BRANCH   4   5
HETATM    5  C   UNL     1      -9.169  17.561  67.438  1.00  0.00    -0.238 A  
HETATM    6  C   UNL     1      -8.287  18.382  66.726  1.00  0.00    -0.271 A  
HETATM    7  C   UNL     1      -8.678  19.665  66.342  1.00  0.00    -0.404 A  
HETATM    8  C   UNL     1      -9.950  20.134  66.667  1.00  0.00    -0.595 A  
HETATM    9  C   UNL     1     -10.832  19.321  67.379  1.00  0.00    -0.554 A  
HETATM   10  C   UNL     1     -10.443  18.037  67.765  1.00  0.00    -0.421 A  
ENDBRANCH   4   5
TORSDOF 1
ENDMDL
MODEL       80
REMARK 921   NORMALIZED FREE ENERGY PREDICTED BY IDOCK:   -3.21 KCAL/MOL
REMARK 922        TOTAL FREE ENERGY PREDICTED BY IDOCK:   -3.53 KCAL/MOL
REMARK 923 INTER-LIGAND FREE ENERGY PREDICTED BY IDOCK:   -3.39 KCAL/MOL
REMARK 924 INTRA-LIGAND FREE ENERGY PREDICTED BY IDOCK:   -0.13 KCAL/MOL
REMARK 927      BINDING AFFINITY PREDICTED BY RF-SCORE:    0.00 PKD
ROOT
HETATM    1  O   UNL     1     -11.626  11.469  66.972  1.00  0.00    -0.510 OA 
HETATM    2  C   UNL     1     -11.896  12.623  67.280  1.00  0.00    -0.328 C  
HETATM    3  C   UNL     1     -10.923  13.715  67.094  1.00  0.00    -0.299 C  
HETATM    4  C   UNL     1     -11.247  14.966  67.444  1.00  0.00    -0.343 C  
ENDROOT
BRANCH   4   5
HETATM    5  C   UNL     1     -10.303  16.066  67.248  1.00  0.00    -0.295 A  
HETATM    6  C   UNL     1      -9.175  15.884  66.442  1.00  0.00    -0.344 A  
HETATM    7  C   UNL     1      -8.265  16.927  66.261  1.00  0.00    -0.344 A  
HETATM    8  C   UNL     1      -8.478  18.155  66.886  1.00  0.00    -0.265 A  
HETATM    9  C   UNL     1      -9.600  18.341  67.693  1.00  0.00    -0.287 A  
HETATM   10  C   UNL     1     -10.511  17.298  67.876  1.00  0.00    -0.382 A  
ENDBRANCH   4   5
TORSDOF 1
ENDMDL
MODEL       81
REMARK 921   NORMALIZED FREE ENERGY PREDICTED BY IDOCK:   -3.21 KCAL/MOL
REMARK 922        TOTAL FREE ENERGY PREDICTED BY IDOCK:   -3.53 KCAL/MOL
REMARK 923 INTER-LIGAND FREE ENERGY PREDICTED BY IDOCK:   -3.41 KCAL/MOL
REMARK 924 INTRA-LIGAND FREE ENERGY PREDICTED BY IDOCK:   -0.12 KCAL/MOL
REMARK 927      BINDING AFFINITY PREDICTED BY RF-SCORE:    0.00 PKD
ROOT
HETATM    1  O   UNL     1      -7.918  15.557  68.764  1.00  0.00    -0.140 OA 
HETATM    2  C   UNL     1      -8.279  14.437  68.428  1.00  0.00    -0.145 C  
HETATM    3  C   UNL     1      -9.227  14.235  67.316  1.00  0.00    -0.218 C  
HETATM    4  C   UNL     1      -9.605  12.998  66.975  1.00  0.00    -0.236 C  
ENDROOT
BRANCH   4   5
HETATM    5  C   UNL     1     -10.529  12.777  65.862  1.00  0.00    -0.295 A  
HETATM    6  C   UNL     1     -11.884  13.092  66.006  1.00  0.00    -0.471 A  
HETATM    7  C   UNL     1     -12.771  12.872  64.951  1.00  0.00    -0.474 A  
HETATM    8  C   UNL     1     -12.308  12.336  63.750  1.00  0.00    -0.637 A  
HETATM    9  C   UNL     1     -10.958  12.018  63.603  1.00  0.00    -0.517 A  
HETATM   10  C   UNL     1     -10.069  12.236  64.657  1.00  0.00    -0.275 A  
ENDBRANCH   4   5
TORSDOF 1
ENDMDL
MODEL       82
REMARK 921   NORMALIZED FREE ENERGY PREDICTED BY IDOCK:   -3.20 KCAL/MOL
REMARK 922        TOTAL FREE ENERGY PREDICTED BY IDOCK:   -3.52 KCAL/MOL
REMARK 923 INTER-LIGAND FREE ENERGY PREDICTED BY IDOCK:   -3.40 KCAL/MOL
REMARK 924 INTRA-LIGAND FREE ENERGY PREDICTED BY IDOCK:   -0.12 KCAL/MOL
REMARK 927      BINDING AFFINITY PREDICTED BY RF-SCORE:    0.00 PKD
ROOT
HETATM    1  O   UNL     1      -6.815  15.239  68.302  1.00  0.00    -0.107 OA 
HETATM    2  C   UNL     1      -7.655  15.621  67.498  1.00  0.00    -0.175 C  
HETATM    3  C   UNL     1      -8.671  14.701  66.953  1.00  0.00    -0.251 C  
HETATM    4  C   UNL     1      -9.575  15.148  66.073  1.00  0.00    -0.365 C  
ENDROOT
BRANCH   4   5
HETATM    5  C   UNL     1     -10.602  14.255  65.536  1.00  0.00    -0.351 A  
HETATM    6  C   UNL     1     -10.297  13.394  64.477  1.00  0.00    -0.394 A  
HETATM    7  C   UNL     1     -11.277  12.549  63.954  1.00  0.00    -0.496 A  
HETATM    8  C   UNL     1     -12.565  12.562  64.486  1.00  0.00    -0.503 A  
HETATM    9  C   UNL     1     -12.876  13.420  65.540  1.00  0.00    -0.361 A  
HETATM   10  C   UNL     1     -11.897  14.268  66.065  1.00  0.00    -0.399 A  
ENDBRANCH   4   5
TORSDOF 1
ENDMDL
MODEL       83
REMARK 921   NORMALIZED FREE ENERGY PREDICTED BY IDOCK:   -3.20 KCAL/MOL
REMARK 922        TOTAL FREE ENERGY PREDICTED BY IDOCK:   -3.52 KCAL/MOL
REMARK 923 INTER-LIGAND FREE ENERGY PREDICTED BY IDOCK:   -3.40 KCAL/MOL
REMARK 924 INTRA-LIGAND FREE ENERGY PREDICTED BY IDOCK:   -0.12 KCAL/MOL
REMARK 927      BINDING AFFINITY PREDICTED BY RF-SCORE:    0.00 PKD
ROOT
HETATM    1  O   UNL     1      -6.387  15.613  67.781  1.00  0.00    -0.132 OA 
HETATM    2  C   UNL     1      -7.427  15.995  67.261  1.00  0.00    -0.201 C  
HETATM    3  C   UNL     1      -8.416  15.040  66.729  1.00  0.00    -0.239 C  
HETATM    4  C   UNL     1      -9.543  15.489  66.163  1.00  0.00    -0.362 C  
ENDROOT
BRANCH   4   5
HETATM    5  C   UNL     1     -10.545  14.556  65.647  1.00  0.00    -0.343 A  
HETATM    6  C   UNL     1     -11.817  14.507  66.226  1.00  0.00    -0.354 A  
HETATM    7  C   UNL     1     -12.773  13.610  65.745  1.00  0.00    -0.470 A  
HETATM    8  C   UNL     1     -12.461  12.760  64.685  1.00  0.00    -0.525 A  
HETATM    9  C   UNL     1     -11.193  12.803  64.106  1.00  0.00    -0.435 A  
HETATM   10  C   UNL     1     -10.235  13.699  64.587  1.00  0.00    -0.338 A  
ENDBRANCH   4   5
TORSDOF 1
ENDMDL
MODEL       84
REMARK 921   NORMALIZED FREE ENERGY PREDICTED BY IDOCK:   -3.17 KCAL/MOL
REMARK 922        TOTAL FREE ENERGY PREDICTED BY IDOCK:   -3.49 KCAL/MOL
REMARK 923 INTER-LIGAND FREE ENERGY PREDICTED BY IDOCK:   -3.37 KCAL/MOL
REMARK 924 INTRA-LIGAND FREE ENERGY PREDICTED BY IDOCK:   -0.13 KCAL/MOL
REMARK 927      BINDING AFFINITY PREDICTED BY RF-SCORE:    0.00 PKD
ROOT
HETATM    1  O   UNL     1      -8.946   8.139  65.559  1.00  0.00    -0.137 OA 
HETATM    2  C   UNL     1      -9.764   8.566  66.363  1.00  0.00    -0.258 C  
HETATM    3  C   UNL     1     -10.122   9.996  66.409  1.00  0.00    -0.307 C  
HETATM    4  C   UNL     1     -11.017  10.433  67.303  1.00  0.00    -0.306 C  
ENDROOT
BRANCH   4   5
HETATM    5  C   UNL     1     -11.401  11.844  67.350  1.00  0.00    -0.389 A  
HETATM    6  C   UNL     1     -11.645  12.461  68.581  1.00  0.00    -0.365 A  
HETATM    7  C   UNL     1     -12.023  13.804  68.631  1.00  0.00    -0.401 A  
HETATM    8  C   UNL     1     -12.158  14.535  67.451  1.00  0.00    -0.292 A  
HETATM    9  C   UNL     1     -11.918  13.923  66.221  1.00  0.00    -0.462 A  
HETATM   10  C   UNL     1     -11.541  12.579  66.168  1.00  0.00    -0.448 A  
ENDBRANCH   4   5
TORSDOF 1
ENDMDL
MODEL       85
REMARK 921   NORMALIZED FREE ENERGY PREDICTED BY IDOCK:   -3.15 KCAL/MOL
REMARK 922        TOTAL FREE ENERGY PREDICTED BY IDOCK:   -3.46 KCAL/MOL
REMARK 923 INTER-LIGAND FREE ENERGY PREDICTED BY IDOCK:   -3.35 KCAL/MOL
REMARK 924 INTRA-LIGAND FREE ENERGY PREDICTED BY IDOCK:   -0.12 KCAL/MOL
REMARK 927      BINDING AFFINITY PREDICTED BY RF-SCORE:    0.00 PKD
ROOT
HETATM    1  O   UNL     1     -12.362  15.424  69.842  1.00  0.00    -0.341 OA 
HETATM    2  C   UNL     1     -11.622  15.652  68.895  1.00  0.00    -0.383 C  
HETATM    3  C   UNL     1     -10.744  16.837  68.873  1.00  0.00    -0.333 C  
HETATM    4  C   UNL     1      -9.948  17.061  67.820  1.00  0.00    -0.280 C  
ENDROOT
BRANCH   4   5
HETATM    5  C   UNL     1      -9.056  18.220  67.789  1.00  0.00    -0.273 A  
HETATM    6  C   UNL     1      -9.400  19.346  67.033  1.00  0.00    -0.393 A  
HETATM    7  C   UNL     1      -8.547  20.450  66.991  1.00  0.00    -0.370 A  
HETATM    8  C   UNL     1      -7.348  20.433  67.702  1.00  0.00    -0.338 A  
HETATM    9  C   UNL     1      -7.000  19.312  68.455  1.00  0.00    -0.329 A  
HETATM   10  C   UNL     1      -7.851  18.206  68.498  1.00  0.00    -0.308 A  
ENDBRANCH   4   5
TORSDOF 1
ENDMDL
MODEL       86
REMARK 921   NORMALIZED FREE ENERGY PREDICTED BY IDOCK:   -3.15 KCAL/MOL
REMARK 922        TOTAL FREE ENERGY PREDICTED BY IDOCK:   -3.46 KCAL/MOL
REMARK 923 INTER-LIGAND FREE ENERGY PREDICTED BY IDOCK:   -3.33 KCAL/MOL
REMARK 924 INTRA-LIGAND FREE ENERGY PREDICTED BY IDOCK:   -0.13 KCAL/MOL
REMARK 927      BINDING AFFINITY PREDICTED BY RF-SCORE:    0.00 PKD
ROOT
HETATM    1  O   UNL     1     -10.768   4.813  65.904  1.00  0.00    -0.318 OA 
HETATM    2  C   UNL     1     -10.326   5.765  66.534  1.00  0.00    -0.209 C  
HETATM    3  C   UNL     1     -10.835   6.101  67.877  1.00  0.00    -0.406 C  
HETATM    4  C   UNL     1     -10.334   7.150  68.540  1.00  0.00    -0.203 C  
ENDROOT
BRANCH   4   5
HETATM    5  C   UNL     1     -10.812   7.487  69.880  1.00  0.00    -0.250 A  
HETATM    6  C   UNL     1     -10.430   8.694  70.476  1.00  0.00    -0.237 A  
HETATM    7  C   UNL     1     -10.874   9.014  71.759  1.00  0.00    -0.437 A  
HETATM    8  C   UNL     1     -11.700   8.131  72.453  1.00  0.00    -0.461 A  
HETATM    9  C   UNL     1     -12.082   6.925  71.865  1.00  0.00    -0.370 A  
HETATM   10  C   UNL     1     -11.638   6.602  70.581  1.00  0.00    -0.439 A  
ENDBRANCH   4   5
TORSDOF 1
ENDMDL
MODEL       87
REMARK 921   NORMALIZED FREE ENERGY PREDICTED BY IDOCK:   -3.14 KCAL/MOL
REMARK 922        TOTAL FREE ENERGY PREDICTED BY IDOCK:   -3.46 KCAL/MOL
REMARK 923 INTER-LIGAND FREE ENERGY PREDICTED BY IDOCK:   -3.33 KCAL/MOL
REMARK 924 INTRA-LIGAND FREE ENERGY PREDICTED BY IDOCK:   -0.13 KCAL/MOL
REMARK 927      BINDING AFFINITY PREDICTED BY RF-SCORE:    0.00 PKD
ROOT
HETATM    1  O   UNL     1      -6.879   6.682  73.169  1.00  0.00    -0.075 OA 
HETATM    2  C   UNL     1      -7.418   7.323  72.277  1.00  0.00    -0.083 C  
HETATM    3  C   UNL     1      -8.807   7.802  72.406  1.00  0.00    -0.192 C  
HETATM    4  C   UNL     1      -9.370   8.498  71.411  1.00  0.00    -0.274 C  
ENDROOT
BRANCH   4   5
HETATM    5  C   UNL     1     -10.740   8.997  71.529  1.00  0.00    -0.421 A  
HETATM    6  C   UNL     1     -11.628   8.397  72.428  1.00  0.00    -0.450 A  
HETATM    7  C   UNL     1     -12.939   8.863  72.536  1.00  0.00    -0.415 A  
HETATM    8  C   UNL     1     -13.369   9.927  71.746  1.00  0.00    -0.501 A  
HETATM    9  C   UNL     1     -12.489  10.527  70.845  1.00  0.00    -0.488 A  
HETATM   10  C   UNL     1     -11.176  10.063  70.735  1.00  0.00    -0.428 A  
ENDBRANCH   4   5
TORSDOF 1
ENDMDL
MODEL       88
REMARK 921   NORMALIZED FREE ENERGY PREDICTED BY IDOCK:   -3.10 KCAL/MOL
REMARK 922        TOTAL FREE ENERGY PREDICTED BY IDOCK:   -3.42 KCAL/MOL
REMARK 923 INTER-LIGAND FREE ENERGY PREDICTED BY IDOCK:   -3.29 KCAL/MOL
REMARK 924 INTRA-LIGAND FREE ENERGY PREDICTED BY IDOCK:   -0.13 KCAL/MOL
REMARK 927      BINDING AFFINITY PREDICTED BY RF-SCORE:    0.00 PKD
ROOT
HETATM    1  O   UNL     1      -6.628   7.787  69.577  1.00  0.00    -0.037 OA 
HETATM    2  C   UNL     1      -7.395   8.739  69.641  1.00  0.00    -0.059 C  
HETATM    3  C   UNL     1      -8.723   8.615  70.271  1.00  0.00    -0.151 C  
HETATM    4  C   UNL     1      -9.540   9.674  70.323  1.00  0.00    -0.307 C  
ENDROOT
BRANCH   4   5
HETATM    5  C   UNL     1     -10.853   9.576  70.961  1.00  0.00    -0.423 A  
HETATM    6  C   UNL     1     -11.809  10.575  70.750  1.00  0.00    -0.465 A  
HETATM    7  C   UNL     1     -13.058  10.492  71.366  1.00  0.00    -0.509 A  
HETATM    8  C   UNL     1     -13.357   9.413  72.196  1.00  0.00    -0.545 A  
HETATM    9  C   UNL     1     -12.406   8.416  72.412  1.00  0.00    -0.412 A  
HETATM   10  C   UNL     1     -11.155   8.497  71.797  1.00  0.00    -0.378 A  
ENDBRANCH   4   5
TORSDOF 1
ENDMDL
MODEL       89
REMARK 921   NORMALIZED FREE ENERGY PREDICTED BY IDOCK:   -3.08 KCAL/MOL
REMARK 922        TOTAL FREE ENERGY PREDICTED BY IDOCK:   -3.39 KCAL/MOL
REMARK 923 INTER-LIGAND FREE ENERGY PREDICTED BY IDOCK:   -3.27 KCAL/MOL
REMARK 924 INTRA-LIGAND FREE ENERGY PREDICTED BY IDOCK:   -0.12 KCAL/MOL
REMARK 927      BINDING AFFINITY PREDICTED BY RF-SCORE:    0.00 PKD
ROOT
HETATM    1  O   UNL     1     -10.814   4.935  65.935  1.00  0.00    -0.289 OA 
HETATM    2  C   UNL     1     -10.321   5.160  67.032  1.00  0.00    -0.217 C  
HETATM    3  C   UNL     1     -10.952   6.096  67.981  1.00  0.00    -0.399 C  
HETATM    4  C   UNL     1     -10.387   6.324  69.172  1.00  0.00    -0.262 C  
ENDROOT
BRANCH   4   5
HETATM    5  C   UNL     1     -11.009   7.234  70.134  1.00  0.00    -0.280 A  
HETATM    6  C   UNL     1     -12.240   6.906  70.712  1.00  0.00    -0.364 A  
HETATM    7  C   UNL     1     -12.843   7.777  71.621  1.00  0.00    -0.365 A  
HETATM    8  C   UNL     1     -12.219   8.978  71.956  1.00  0.00    -0.446 A  
HETATM    9  C   UNL     1     -10.993   9.311  71.380  1.00  0.00    -0.429 A  
HETATM   10  C   UNL     1     -10.388   8.442  70.469  1.00  0.00    -0.220 A  
ENDBRANCH   4   5
TORSDOF 1
ENDMDL
MODEL       90
REMARK 921   NORMALIZED FREE ENERGY PREDICTED BY IDOCK:   -3.06 KCAL/MOL
REMARK 922        TOTAL FREE ENERGY PREDICTED BY IDOCK:   -3.37 KCAL/MOL
REMARK 923 INTER-LIGAND FREE ENERGY PREDICTED BY IDOCK:   -3.25 KCAL/MOL
REMARK 924 INTRA-LIGAND FREE ENERGY PREDICTED BY IDOCK:   -0.12 KCAL/MOL
REMARK 927      BINDING AFFINITY PREDICTED BY RF-SCORE:    0.00 PKD
ROOT
HETATM    1  O   UNL     1     -10.391  10.483  69.605  1.00  0.00    -0.231 OA 
HETATM    2  C   UNL     1     -11.142   9.913  70.385  1.00  0.00    -0.319 C  
HETATM    3  C   UNL     1     -10.697   8.743  71.165  1.00  0.00    -0.316 C  
HETATM    4  C   UNL     1     -11.543   8.139  72.008  1.00  0.00    -0.389 C  
ENDROOT
BRANCH   4   5
HETATM    5  C   UNL     1     -11.114   6.990  72.805  1.00  0.00    -0.320 A  
HETATM    6  C   UNL     1     -10.140   7.152  73.795  1.00  0.00    -0.391 A  
HETATM    7  C   UNL     1      -9.719   6.056  74.550  1.00  0.00    -0.263 A  
HETATM    8  C   UNL     1     -10.268   4.796  74.318  1.00  0.00    -0.289 A  
HETATM    9  C   UNL     1     -11.237   4.629  73.330  1.00  0.00    -0.411 A  
HETATM   10  C   UNL     1     -11.660   5.724  72.572  1.00  0.00    -0.321 A  
ENDBRANCH   4   5
TORSDOF 1
ENDMDL
MODEL       91
REMARK 921   NORMALIZED FREE ENERGY PREDICTED BY IDOCK:   -3.05 KCAL/MOL
REMARK 922        TOTAL FREE ENERGY PREDICTED BY IDOCK:   -3.36 KCAL/MOL
REMARK 923 INTER-LIGAND FREE ENERGY PREDICTED BY IDOCK:   -3.23 KCAL/MOL
REMARK 924 INTRA-LIGAND FREE ENERGY PREDICTED BY IDOCK:   -0.13 KCAL/MOL
REMARK 927      BINDING AFFINITY PREDICTED BY RF-SCORE:    0.00 PKD
ROOT
HETATM    1  O   UNL     1     -11.300  16.384  69.037  1.00  0.00    -0.317 OA 
HETATM    2  C   UNL     1     -11.968  15.458  69.477  1.00  0.00    -0.334 C  
HETATM    3  C   UNL     1     -11.507  14.061  69.377  1.00  0.00    -0.343 C  
HETATM    4  C   UNL     1     -12.262  13.070  69.865  1.00  0.00    -0.271 C  
ENDROOT
BRANCH   4   5
HETATM    5  C   UNL     1     -11.812  11.680  69.792  1.00  0.00    -0.428 A  
HETATM    6  C   UNL     1     -12.061  10.808  70.857  1.00  0.00    -0.475 A  
HETATM    7  C   UNL     1     -11.624   9.484  70.797  1.00  0.00    -0.378 A  
HETATM    8  C   UNL     1     -10.936   9.027  69.674  1.00  0.00    -0.147 A  
HETATM    9  C   UNL     1     -10.682   9.893  68.611  1.00  0.00    -0.256 A  
HETATM   10  C   UNL     1     -11.118  11.219  68.669  1.00  0.00    -0.286 A  
ENDBRANCH   4   5
TORSDOF 1
ENDMDL
MODEL       92
REMARK 921   NORMALIZED FREE ENERGY PREDICTED BY IDOCK:   -3.04 KCAL/MOL
REMARK 922        TOTAL FREE ENERGY PREDICTED BY IDOCK:   -3.35 KCAL/MOL
REMARK 923 INTER-LIGAND FREE ENERGY PREDICTED BY IDOCK:   -3.22 KCAL/MOL
REMARK 924 INTRA-LIGAND FREE ENERGY PREDICTED BY IDOCK:   -0.13 KCAL/MOL
REMARK 927      BINDING AFFINITY PREDICTED BY RF-SCORE:    0.00 PKD
ROOT
HETATM    1  O   UNL     1     -13.142  14.668  71.203  1.00  0.00    -0.336 OA 
HETATM    2  C   UNL     1     -12.471  14.598  70.182  1.00  0.00    -0.317 C  
HETATM    3  C   UNL     1     -11.706  15.756  69.684  1.00  0.00    -0.363 C  
HETATM    4  C   UNL     1     -10.984  15.649  68.563  1.00  0.00    -0.303 C  
ENDROOT
BRANCH   4   5
HETATM    5  C   UNL     1     -10.203  16.781  68.064  1.00  0.00    -0.300 A  
HETATM    6  C   UNL     1      -9.375  16.621  66.948  1.00  0.00    -0.246 A  
HETATM    7  C   UNL     1      -8.619  17.695  66.475  1.00  0.00    -0.287 A  
HETATM    8  C   UNL     1      -8.687  18.932  67.115  1.00  0.00    -0.298 A  
HETATM    9  C   UNL     1      -9.509  19.095  68.230  1.00  0.00    -0.408 A  
HETATM   10  C   UNL     1     -10.266  18.022  68.705  1.00  0.00    -0.362 A  
ENDBRANCH   4   5
TORSDOF 1
ENDMDL
MODEL       93
REMARK 921   NORMALIZED FREE ENERGY PREDICTED BY IDOCK:   -3.02 KCAL/MOL
REMARK 922        TOTAL FREE ENERGY PREDICTED BY IDOCK:   -3.33 KCAL/MOL
REMARK 923 INTER-LIGAND FREE ENERGY PREDICTED BY IDOCK:   -3.20 KCAL/MOL
REMARK 924 INTRA-LIGAND FREE ENERGY PREDICTED BY IDOCK:   -0.13 KCAL/MOL
REMARK 927      BINDING AFFINITY PREDICTED BY RF-SCORE:    0.00 PKD
ROOT
HETATM    1  O   UNL     1     -10.869  19.795  66.030  1.00  0.00    -0.428 OA 
HETATM    2  C   UNL     1     -10.052  18.934  66.330  1.00  0.00    -0.414 C  
HETATM    3  C   UNL     1      -9.050  19.160  67.387  1.00  0.00    -0.333 C  
HETATM    4  C   UNL     1      -8.167  18.201  67.690  1.00  0.00    -0.243 C  
ENDROOT
BRANCH   4   5
HETATM    5  C   UNL     1      -7.179  18.399  68.749  1.00  0.00    -0.300 A  
HETATM    6  C   UNL     1      -6.516  17.299  69.303  1.00  0.00    -0.243 A  
HETATM    7  C   UNL     1      -5.580  17.482  70.322  1.00  0.00    -0.236 A  
HETATM    8  C   UNL     1      -5.304  18.765  70.793  1.00  0.00    -0.251 A  
HETATM    9  C   UNL     1      -5.964  19.865  70.247  1.00  0.00    -0.362 A  
HETATM   10  C   UNL     1      -6.901  19.684  69.227  1.00  0.00    -0.390 A  
ENDBRANCH   4   5
TORSDOF 1
ENDMDL
MODEL       94
REMARK 921   NORMALIZED FREE ENERGY PREDICTED BY IDOCK:   -3.02 KCAL/MOL
REMARK 922        TOTAL FREE ENERGY PREDICTED BY IDOCK:   -3.32 KCAL/MOL
REMARK 923 INTER-LIGAND FREE ENERGY PREDICTED BY IDOCK:   -3.20 KCAL/MOL
REMARK 924 INTRA-LIGAND FREE ENERGY PREDICTED BY IDOCK:   -0.12 KCAL/MOL
REMARK 927      BINDING AFFINITY PREDICTED BY RF-SCORE:    0.00 PKD
ROOT
HETATM    1  O   UNL     1     -12.268   6.469  71.976  1.00  0.00    -0.338 OA 
HETATM    2  C   UNL     1     -11.399   7.195  71.511  1.00  0.00    -0.255 C  
HETATM    3  C   UNL     1     -11.739   8.407  70.744  1.00  0.00    -0.219 C  
HETATM    4  C   UNL     1     -10.766   9.180  70.245  1.00  0.00    -0.268 C  
ENDROOT
BRANCH   4   5
HETATM    5  C   UNL     1     -11.084  10.396  69.498  1.00  0.00    -0.314 A  
HETATM    6  C   UNL     1     -11.569  11.523  70.171  1.00  0.00    -0.336 A  
HETATM    7  C   UNL     1     -11.885  12.682  69.461  1.00  0.00    -0.376 A  
HETATM    8  C   UNL     1     -11.719  12.720  68.077  1.00  0.00    -0.405 A  
HETATM    9  C   UNL     1     -11.239  11.598  67.401  1.00  0.00    -0.358 A  
HETATM   10  C   UNL     1     -10.923  10.437  68.109  1.00  0.00    -0.334 A  
ENDBRANCH   4   5
TORSDOF 1
ENDMDL
MODEL       95
REMARK 921   NORMALIZED FREE ENERGY PREDICTED BY IDOCK:   -2.98 KCAL/MOL
REMARK 922        TOTAL FREE ENERGY PREDICTED BY IDOCK:   -3.29 KCAL/MOL
REMARK 923 INTER-LIGAND FREE ENERGY PREDICTED BY IDOCK:   -3.16 KCAL/MOL
REMARK 924 INTRA-LIGAND FREE ENERGY PREDICTED BY IDOCK:   -0.13 KCAL/MOL
REMARK 927      BINDING AFFINITY PREDICTED BY RF-SCORE:    0.00 PKD
ROOT
HETATM    1  O   UNL     1      -9.450   9.352  65.267  1.00  0.00    -0.265 OA 
HETATM    2  C   UNL     1      -9.533   8.485  66.127  1.00  0.00    -0.217 C  
HETATM    3  C   UNL     1     -10.167   8.754  67.431  1.00  0.00    -0.318 C  
HETATM    4  C   UNL     1     -10.240   7.785  68.352  1.00  0.00    -0.230 C  
ENDROOT
BRANCH   4   5
HETATM    5  C   UNL     1     -10.882   8.027  69.643  1.00  0.00    -0.172 A  
HETATM    6  C   UNL     1     -11.456   6.964  70.349  1.00  0.00    -0.387 A  
HETATM    7  C   UNL     1     -12.080   7.191  71.576  1.00  0.00    -0.377 A  
HETATM    8  C   UNL     1     -12.136   8.481  72.103  1.00  0.00    -0.449 A  
HETATM    9  C   UNL     1     -11.568   9.545  71.402  1.00  0.00    -0.466 A  
HETATM   10  C   UNL     1     -10.944   9.320  70.173  1.00  0.00    -0.278 A  
ENDBRANCH   4   5
TORSDOF 1
ENDMDL
MODEL       96
REMARK 921   NORMALIZED FREE ENERGY PREDICTED BY IDOCK:   -2.97 KCAL/MOL
REMARK 922        TOTAL FREE ENERGY PREDICTED BY IDOCK:   -3.28 KCAL/MOL
REMARK 923 INTER-LIGAND FREE ENERGY PREDICTED BY IDOCK:   -3.16 KCAL/MOL
REMARK 924 INTRA-LIGAND FREE ENERGY PREDICTED BY IDOCK:   -0.12 KCAL/MOL
REMARK 927      BINDING AFFINITY PREDICTED BY RF-SCORE:    0.00 PKD
ROOT
HETATM    1  O   UNL     1      -9.719  11.475  68.662  1.00  0.00    -0.197 OA 
HETATM    2  C   UNL     1     -10.618  10.944  69.301  1.00  0.00    -0.217 C  
HETATM    3  C   UNL     1     -10.358   9.789  70.180  1.00  0.00    -0.335 C  
HETATM    4  C   UNL     1     -11.363   9.228  70.863  1.00  0.00    -0.373 C  
ENDROOT
BRANCH   4   5
HETATM    5  C   UNL     1     -11.120   8.094  71.755  1.00  0.00    -0.329 A  
HETATM    6  C   UNL     1     -11.847   6.910  71.592  1.00  0.00    -0.363 A  
HETATM    7  C   UNL     1     -11.628   5.829  72.448  1.00  0.00    -0.320 A  
HETATM    8  C   UNL     1     -10.684   5.928  73.469  1.00  0.00    -0.284 A  
HETATM    9  C   UNL     1      -9.959   7.108  73.637  1.00  0.00    -0.367 A  
HETATM   10  C   UNL     1     -10.177   8.191  72.783  1.00  0.00    -0.372 A  
ENDBRANCH   4   5
TORSDOF 1
ENDMDL
MODEL       97
REMARK 921   NORMALIZED FREE ENERGY PREDICTED BY IDOCK:   -2.92 KCAL/MOL
REMARK 922        TOTAL FREE ENERGY PREDICTED BY IDOCK:   -3.22 KCAL/MOL
REMARK 923 INTER-LIGAND FREE ENERGY PREDICTED BY IDOCK:   -3.09 KCAL/MOL
REMARK 924 INTRA-LIGAND FREE ENERGY PREDICTED BY IDOCK:   -0.13 KCAL/MOL
REMARK 927      BINDING AFFINITY PREDICTED BY RF-SCORE:    0.00 PKD
ROOT
HETATM    1  O   UNL     1     -10.100   4.837  67.092  1.00  0.00    -0.194 OA 
HETATM    2  C   UNL     1     -10.059   5.899  67.699  1.00  0.00    -0.163 C  
HETATM    3  C   UNL     1     -10.308   7.183  67.019  1.00  0.00    -0.368 C  
HETATM    4  C   UNL     1     -10.253   8.328  67.710  1.00  0.00    -0.282 C  
ENDROOT
BRANCH   4   5
HETATM    5  C   UNL     1     -10.517   9.610  67.058  1.00  0.00    -0.302 A  
HETATM    6  C   UNL     1     -11.243  10.600  67.729  1.00  0.00    -0.383 A  
HETATM    7  C   UNL     1     -11.508  11.820  67.106  1.00  0.00    -0.366 A  
HETATM    8  C   UNL     1     -11.050  12.057  65.811  1.00  0.00    -0.371 A  
HETATM    9  C   UNL     1     -10.328  11.072  65.136  1.00  0.00    -0.346 A  
HETATM   10  C   UNL     1     -10.063   9.850  65.757  1.00  0.00    -0.317 A  
ENDBRANCH   4   5
TORSDOF 1
ENDMDL
MODEL       98
REMARK 921   NORMALIZED FREE ENERGY PREDICTED BY IDOCK:   -2.92 KCAL/MOL
REMARK 922        TOTAL FREE ENERGY PREDICTED BY IDOCK:   -3.22 KCAL/MOL
REMARK 923 INTER-LIGAND FREE ENERGY PREDICTED BY IDOCK:   -3.09 KCAL/MOL
REMARK 924 INTRA-LIGAND FREE ENERGY PREDICTED BY IDOCK:   -0.13 KCAL/MOL
REMARK 927      BINDING AFFINITY PREDICTED BY RF-SCORE:    0.00 PKD
ROOT
HETATM    1  O   UNL     1     -10.449   6.926  66.641  1.00  0.00    -0.223 OA 
HETATM    2  C   UNL     1     -10.081   8.092  66.693  1.00  0.00    -0.273 C  
HETATM    3  C   UNL     1     -10.738   9.067  67.585  1.00  0.00    -0.232 C  
HETATM    4  C   UNL     1     -10.314  10.336  67.617  1.00  0.00    -0.264 C  
ENDROOT
BRANCH   4   5
HETATM    5  C   UNL     1     -10.940  11.312  68.509  1.00  0.00    -0.266 A  
HETATM    6  C   UNL     1     -11.565  10.883  69.685  1.00  0.00    -0.394 A  
HETATM    7  C   UNL     1     -12.173  11.809  70.534  1.00  0.00    -0.438 A  
HETATM    8  C   UNL     1     -12.162  13.165  70.210  1.00  0.00    -0.376 A  
HETATM    9  C   UNL     1     -11.543  13.597  69.037  1.00  0.00    -0.356 A  
HETATM   10  C   UNL     1     -10.934  12.672  68.186  1.00  0.00    -0.265 A  
ENDBRANCH   4   5
TORSDOF 1
ENDMDL
MODEL       99
REMARK 921   NORMALIZED FREE ENERGY PREDICTED BY IDOCK:   -2.91 KCAL/MOL
REMARK 922        TOTAL FREE ENERGY PREDICTED BY IDOCK:   -3.21 KCAL/MOL
REMARK 923 INTER-LIGAND FREE ENERGY PREDICTED BY IDOCK:   -3.09 KCAL/MOL
REMARK 924 INTRA-LIGAND FREE ENERGY PREDICTED BY IDOCK:   -0.13 KCAL/MOL
REMARK 927      BINDING AFFINITY PREDICTED BY RF-SCORE:    0.00 PKD
ROOT
HETATM    1  O   UNL     1      -7.422  19.890  68.867  1.00  0.00    -0.294 OA 
HETATM    2  C   UNL     1      -8.503  19.525  68.426  1.00  0.00    -0.350 C  
HETATM    3  C   UNL     1      -8.645  18.251  67.697  1.00  0.00    -0.261 C  
HETATM    4  C   UNL     1      -9.841  17.880  67.223  1.00  0.00    -0.309 C  
ENDROOT
BRANCH   4   5
HETATM    5  C   UNL     1     -10.005  16.611  66.515  1.00  0.00    -0.296 A  
HETATM    6  C   UNL     1      -9.313  15.475  66.948  1.00  0.00    -0.252 A  
HETATM    7  C   UNL     1      -9.458  14.264  66.269  1.00  0.00    -0.277 A  
HETATM    8  C   UNL     1     -10.292  14.184  65.155  1.00  0.00    -0.429 A  
HETATM    9  C   UNL     1     -10.982  15.314  64.718  1.00  0.00    -0.403 A  
HETATM   10  C   UNL     1     -10.838  16.527  65.395  1.00  0.00    -0.216 A  
ENDBRANCH   4   5
TORSDOF 1
ENDMDL
MODEL      100
REMARK 921   NORMALIZED FREE ENERGY PREDICTED BY IDOCK:   -2.91 KCAL/MOL
REMARK 922        TOTAL FREE ENERGY PREDICTED BY IDOCK:   -3.21 KCAL/MOL
REMARK 923 INTER-LIGAND FREE ENERGY PREDICTED BY IDOCK:   -3.10 KCAL/MOL
REMARK 924 INTRA-LIGAND FREE ENERGY PREDICTED BY IDOCK:   -0.11 KCAL/MOL
REMARK 927      BINDING AFFINITY PREDICTED BY RF-SCORE:    0.00 PKD
ROOT
HETATM    1  O   UNL     1      -9.192  14.717  66.604  1.00  0.00    -0.246 OA 
HETATM    2  C   UNL     1      -9.475  15.818  67.058  1.00  0.00    -0.223 C  
HETATM    3  C   UNL     1      -8.457  16.874  67.205  1.00  0.00    -0.218 C  
HETATM    4  C   UNL     1      -8.797  18.067  67.708  1.00  0.00    -0.255 C  
ENDROOT
BRANCH   4   5
HETATM    5  C   UNL     1      -7.805  19.133  67.843  1.00  0.00    -0.318 A  
HETATM    6  C   UNL     1      -7.084  19.270  69.034  1.00  0.00    -0.391 A  
HETATM    7  C   UNL     1      -6.145  20.293  69.172  1.00  0.00    -0.370 A  
HETATM    8  C   UNL     1      -5.923  21.183  68.122  1.00  0.00    -0.373 A  
HETATM    9  C   UNL     1      -6.641  21.053  66.934  1.00  0.00    -0.397 A  
HETATM   10  C   UNL     1      -7.582  20.030  66.794  1.00  0.00    -0.306 A  
ENDBRANCH   4   5
TORSDOF 1
ENDMDL
MODEL      101
REMARK 921   NORMALIZED FREE ENERGY PREDICTED BY IDOCK:   -2.91 KCAL/MOL
REMARK 922        TOTAL FREE ENERGY PREDICTED BY IDOCK:   -3.21 KCAL/MOL
REMARK 923 INTER-LIGAND FREE ENERGY PREDICTED BY IDOCK:   -3.09 KCAL/MOL
REMARK 924 INTRA-LIGAND FREE ENERGY PREDICTED BY IDOCK:   -0.12 KCAL/MOL
REMARK 927      BINDING AFFINITY PREDICTED BY RF-SCORE:    0.00 PKD
ROOT
HETATM    1  O   UNL     1     -10.900   4.925  65.863  1.00  0.00    -0.289 OA 
HETATM    2  C   UNL     1     -10.357   5.556  66.760  1.00  0.00    -0.269 C  
HETATM    3  C   UNL     1     -10.797   6.917  67.118  1.00  0.00    -0.447 C  
HETATM    4  C   UNL     1     -10.181   7.583  68.102  1.00  0.00    -0.228 C  
ENDROOT
BRANCH   4   5
HETATM    5  C   UNL     1     -10.616   8.926  68.484  1.00  0.00    -0.183 A  
HETATM    6  C   UNL     1     -10.740   9.924  67.512  1.00  0.00    -0.333 A  
HETATM    7  C   UNL     1     -11.143  11.210  67.873  1.00  0.00    -0.331 A  
HETATM    8  C   UNL     1     -11.423  11.505  69.207  1.00  0.00    -0.370 A  
HETATM    9  C   UNL     1     -11.298  10.514  70.181  1.00  0.00    -0.400 A  
HETATM   10  C   UNL     1     -10.893   9.227  69.822  1.00  0.00    -0.239 A  
ENDBRANCH   4   5
TORSDOF 1
ENDMDL
MODEL      102
REMARK 921   NORMALIZED FREE ENERGY PREDICTED BY IDOCK:   -2.90 KCAL/MOL
REMARK 922        TOTAL FREE ENERGY PREDICTED BY IDOCK:   -3.20 KCAL/MOL
REMARK 923 INTER-LIGAND FREE ENERGY PREDICTED BY IDOCK:   -3.09 KCAL/MOL
REMARK 924 INTRA-LIGAND FREE ENERGY PREDICTED BY IDOCK:   -0.11 KCAL/MOL
REMARK 927      BINDING AFFINITY PREDICTED BY RF-SCORE:    0.00 PKD
ROOT
HETATM    1  O   UNL     1     -10.173   9.390  67.695  1.00  0.00    -0.197 OA 
HETATM    2  C   UNL     1     -10.985  10.277  67.467  1.00  0.00    -0.280 C  
HETATM    3  C   UNL     1     -10.775  11.655  67.949  1.00  0.00    -0.241 C  
HETATM    4  C   UNL     1     -11.683  12.602  67.687  1.00  0.00    -0.420 C  
ENDROOT
BRANCH   4   5
HETATM    5  C   UNL     1     -11.482  13.978  68.140  1.00  0.00    -0.341 A  
HETATM    6  C   UNL     1     -11.913  14.364  69.414  1.00  0.00    -0.370 A  
HETATM    7  C   UNL     1     -11.734  15.679  69.846  1.00  0.00    -0.372 A  
HETATM    8  C   UNL     1     -11.125  16.613  69.009  1.00  0.00    -0.234 A  
HETATM    9  C   UNL     1     -10.697  16.234  67.737  1.00  0.00    -0.325 A  
HETATM   10  C   UNL     1     -10.875  14.919  67.301  1.00  0.00    -0.306 A  
ENDBRANCH   4   5
TORSDOF 1
ENDMDL
MODEL      103
REMARK 921   NORMALIZED FREE ENERGY PREDICTED BY IDOCK:   -2.90 KCAL/MOL
REMARK 922        TOTAL FREE ENERGY PREDICTED BY IDOCK:   -3.20 KCAL/MOL
REMARK 923 INTER-LIGAND FREE ENERGY PREDICTED BY IDOCK:   -3.07 KCAL/MOL
REMARK 924 INTRA-LIGAND FREE ENERGY PREDICTED BY IDOCK:   -0.13 KCAL/MOL
REMARK 927      BINDING AFFINITY PREDICTED BY RF-SCORE:    0.00 PKD
ROOT
HETATM    1  O   UNL     1      -6.440  17.181  66.647  1.00  0.00    -0.195 OA 
HETATM    2  C   UNL     1      -7.571  16.931  66.253  1.00  0.00    -0.277 C  
HETATM    3  C   UNL     1      -8.320  15.763  66.754  1.00  0.00    -0.309 C  
HETATM    4  C   UNL     1      -9.554  15.515  66.300  1.00  0.00    -0.338 C  
ENDROOT
BRANCH   4   5
HETATM    5  C   UNL     1     -10.320  14.373  66.800  1.00  0.00    -0.273 A  
HETATM    6  C   UNL     1     -10.304  14.064  68.164  1.00  0.00    -0.241 A  
HETATM    7  C   UNL     1     -11.023  12.968  68.644  1.00  0.00    -0.297 A  
HETATM    8  C   UNL     1     -11.760  12.177  67.763  1.00  0.00    -0.390 A  
HETATM    9  C   UNL     1     -11.776  12.479  66.402  1.00  0.00    -0.458 A  
HETATM   10  C   UNL     1     -11.057  13.574  65.919  1.00  0.00    -0.292 A  
ENDBRANCH   4   5
TORSDOF 1
ENDMDL
MODEL      104
REMARK 921   NORMALIZED FREE ENERGY PREDICTED BY IDOCK:   -2.80 KCAL/MOL
REMARK 922        TOTAL FREE ENERGY PREDICTED BY IDOCK:   -3.10 KCAL/MOL
REMARK 923 INTER-LIGAND FREE ENERGY PREDICTED BY IDOCK:   -2.97 KCAL/MOL
REMARK 924 INTRA-LIGAND FREE ENERGY PREDICTED BY IDOCK:   -0.13 KCAL/MOL
REMARK 927      BINDING AFFINITY PREDICTED BY RF-SCORE:    0.00 PKD
ROOT
HETATM    1  O   UNL     1     -12.988  10.264  71.395  1.00  0.00    -0.373 OA 
HETATM    2  C   UNL     1     -12.224  10.628  70.511  1.00  0.00    -0.358 C  
HETATM    3  C   UNL     1     -12.028  12.057  70.205  1.00  0.00    -0.398 C  
HETATM    4  C   UNL     1     -11.187  12.424  69.230  1.00  0.00    -0.264 C  
ENDROOT
BRANCH   4   5
HETATM    5  C   UNL     1     -10.965  13.837  68.926  1.00  0.00    -0.281 A  
HETATM    6  C   UNL     1      -9.721  14.261  68.446  1.00  0.00    -0.225 A  
HETATM    7  C   UNL     1      -9.500  15.610  68.165  1.00  0.00    -0.195 A  
HETATM    8  C   UNL     1     -10.520  16.540  68.363  1.00  0.00    -0.307 A  
HETATM    9  C   UNL     1     -11.760  16.123  68.843  1.00  0.00    -0.250 A  
HETATM   10  C   UNL     1     -11.984  14.774  69.126  1.00  0.00    -0.317 A  
ENDBRANCH   4   5
TORSDOF 1
ENDMDL
MODEL      105
REMARK 921   NORMALIZED FREE ENERGY PREDICTED BY IDOCK:   -2.73 KCAL/MOL
REMARK 922        TOTAL FREE ENERGY PREDICTED BY IDOCK:   -3.02 KCAL/MOL
REMARK 923 INTER-LIGAND FREE ENERGY PREDICTED BY IDOCK:   -2.90 KCAL/MOL
REMARK 924 INTRA-LIGAND FREE ENERGY PREDICTED BY IDOCK:   -0.12 KCAL/MOL
REMARK 927      BINDING AFFINITY PREDICTED BY RF-SCORE:    0.00 PKD
ROOT
HETATM    1  O   UNL     1     -10.813   4.601  65.434  1.00  0.00    -0.252 OA 
HETATM    2  C   UNL     1     -10.181   5.215  66.283  1.00  0.00    -0.253 C  
HETATM    3  C   UNL     1     -10.688   6.474  66.859  1.00  0.00    -0.403 C  
HETATM    4  C   UNL     1      -9.972   7.123  67.784  1.00  0.00    -0.192 C  
ENDROOT
BRANCH   4   5
HETATM    5  C   UNL     1     -10.468   8.363  68.381  1.00  0.00    -0.208 A  
HETATM    6  C   UNL     1     -10.679   8.438  69.762  1.00  0.00    -0.211 A  
HETATM    7  C   UNL     1     -11.163   9.615  70.335  1.00  0.00    -0.342 A  
HETATM    8  C   UNL     1     -11.439  10.720  69.531  1.00  0.00    -0.365 A  
HETATM    9  C   UNL     1     -11.233  10.650  68.154  1.00  0.00    -0.366 A  
HETATM   10  C   UNL     1     -10.749   9.473  67.578  1.00  0.00    -0.311 A  
ENDBRANCH   4   5
TORSDOF 1
ENDMDL
MODEL      106
REMARK 921   NORMALIZED FREE ENERGY PREDICTED BY IDOCK:   -2.73 KCAL/MOL
REMARK 922        TOTAL FREE ENERGY PREDICTED BY IDOCK:   -3.02 KCAL/MOL
REMARK 923 INTER-LIGAND FREE ENERGY PREDICTED BY IDOCK:   -2.90 KCAL/MOL
REMARK 924 INTRA-LIGAND FREE ENERGY PREDICTED BY IDOCK:   -0.12 KCAL/MOL
REMARK 927      BINDING AFFINITY PREDICTED BY RF-SCORE:    0.00 PKD
ROOT
HETATM    1  O   UNL     1     -10.263  10.613  63.966  1.00  0.00    -0.341 OA 
HETATM    2  C   UNL     1     -10.532  11.793  64.147  1.00  0.00    -0.346 C  
HETATM    3  C   UNL     1     -10.336  12.433  65.461  1.00  0.00    -0.298 C  
HETATM    4  C   UNL     1     -10.643  13.725  65.629  1.00  0.00    -0.302 C  
ENDROOT
BRANCH   4   5
HETATM    5  C   UNL     1     -10.437  14.382  66.919  1.00  0.00    -0.269 A  
HETATM    6  C   UNL     1     -11.526  14.927  67.607  1.00  0.00    -0.366 A  
HETATM    7  C   UNL     1     -11.333  15.566  68.833  1.00  0.00    -0.329 A  
HETATM    8  C   UNL     1     -10.053  15.663  69.376  1.00  0.00    -0.269 A  
HETATM    9  C   UNL     1      -8.963  15.124  68.692  1.00  0.00    -0.191 A  
HETATM   10  C   UNL     1      -9.153  14.486  67.465  1.00  0.00    -0.193 A  
ENDBRANCH   4   5
TORSDOF 1
ENDMDL
MODEL      107
REMARK 921   NORMALIZED FREE ENERGY PREDICTED BY IDOCK:   -2.72 KCAL/MOL
REMARK 922        TOTAL FREE ENERGY PREDICTED BY IDOCK:   -3.01 KCAL/MOL
REMARK 923 INTER-LIGAND FREE ENERGY PREDICTED BY IDOCK:   -2.88 KCAL/MOL
REMARK 924 INTRA-LIGAND FREE ENERGY PREDICTED BY IDOCK:   -0.13 KCAL/MOL
REMARK 927      BINDING AFFINITY PREDICTED BY RF-SCORE:    0.00 PKD
ROOT
HETATM    1  O   UNL     1      -8.360  10.596  68.780  1.00  0.00    -0.127 OA 
HETATM    2  C   UNL     1      -9.264  10.673  67.958  1.00  0.00    -0.148 C  
HETATM    3  C   UNL     1      -9.624  11.958  67.330  1.00  0.00    -0.181 C  
HETATM    4  C   UNL     1     -10.620  12.011  66.437  1.00  0.00    -0.278 C  
ENDROOT
BRANCH   4   5
HETATM    5  C   UNL     1     -10.978  13.272  65.789  1.00  0.00    -0.284 A  
HETATM    6  C   UNL     1     -12.070  13.324  64.916  1.00  0.00    -0.440 A  
HETATM    7  C   UNL     1     -12.409  14.522  64.286  1.00  0.00    -0.396 A  
HETATM    8  C   UNL     1     -11.658  15.672  64.524  1.00  0.00    -0.262 A  
HETATM    9  C   UNL     1     -10.566  15.625  65.391  1.00  0.00    -0.436 A  
HETATM   10  C   UNL     1     -10.225  14.427  66.022  1.00  0.00    -0.328 A  
ENDBRANCH   4   5
TORSDOF 1
ENDMDL
MODEL      108
REMARK 921   NORMALIZED FREE ENERGY PREDICTED BY IDOCK:   -2.69 KCAL/MOL
REMARK 922        TOTAL FREE ENERGY PREDICTED BY IDOCK:   -2.98 KCAL/MOL
REMARK 923 INTER-LIGAND FREE ENERGY PREDICTED BY IDOCK:   -2.86 KCAL/MOL
REMARK 924 INTRA-LIGAND FREE ENERGY PREDICTED BY IDOCK:   -0.12 KCAL/MOL
REMARK 927      BINDING AFFINITY PREDICTED BY RF-SCORE:    0.00 PKD
ROOT
HETATM    1  O   UNL     1     -13.039   9.036  73.016  1.00  0.00    -0.295 OA 
HETATM    2  C   UNL     1     -12.263   8.708  72.128  1.00  0.00    -0.386 C  
HETATM    3  C   UNL     1     -11.830   9.666  71.093  1.00  0.00    -0.448 C  
HETATM    4  C   UNL     1     -10.983   9.276  70.132  1.00  0.00    -0.278 C  
ENDROOT
BRANCH   4   5
HETATM    5  C   UNL     1     -10.527  10.217  69.109  1.00  0.00    -0.242 A  
HETATM    6  C   UNL     1     -11.443  10.764  68.205  1.00  0.00    -0.353 A  
HETATM    7  C   UNL     1     -11.011  11.653  67.220  1.00  0.00    -0.318 A  
HETATM    8  C   UNL     1      -9.663  11.997  67.133  1.00  0.00    -0.203 A  
HETATM    9  C   UNL     1      -8.745  11.452  68.030  1.00  0.00    -0.148 A  
HETATM   10  C   UNL     1      -9.175  10.561  69.017  1.00  0.00    -0.193 A  
ENDBRANCH   4   5
TORSDOF 1
ENDMDL
MODEL      109
REMARK 921   NORMALIZED FREE ENERGY PREDICTED BY IDOCK:   -2.68 KCAL/MOL
REMARK 922        TOTAL FREE ENERGY PREDICTED BY IDOCK:   -2.97 KCAL/MOL
REMARK 923 INTER-LIGAND FREE ENERGY PREDICTED BY IDOCK:   -2.85 KCAL/MOL
REMARK 924 INTRA-LIGAND FREE ENERGY PREDICTED BY IDOCK:   -0.12 KCAL/MOL
REMARK 927      BINDING AFFINITY PREDICTED BY RF-SCORE:    0.00 PKD
ROOT
HETATM    1  O   UNL     1     -10.840   7.347  66.811  1.00  0.00    -0.303 OA 
HETATM    2  C   UNL     1     -10.554   7.509  67.990  1.00  0.00    -0.155 C  
HETATM    3  C   UNL     1     -10.696   6.418  68.972  1.00  0.00    -0.339 C  
HETATM    4  C   UNL     1     -10.379   6.627  70.255  1.00  0.00    -0.235 C  
ENDROOT
BRANCH   4   5
HETATM    5  C   UNL     1     -10.494   5.552  71.240  1.00  0.00    -0.306 A  
HETATM    6  C   UNL     1     -11.288   5.730  72.379  1.00  0.00    -0.348 A  
HETATM    7  C   UNL     1     -11.392   4.711  73.327  1.00  0.00    -0.393 A  
HETATM    8  C   UNL     1     -10.704   3.513  73.143  1.00  0.00    -0.267 A  
HETATM    9  C   UNL     1      -9.910   3.332  72.011  1.00  0.00    -0.240 A  
HETATM   10  C   UNL     1      -9.803   4.350  71.061  1.00  0.00    -0.260 A  
ENDBRANCH   4   5
TORSDOF 1
ENDMDL
MODEL      110
REMARK 921   NORMALIZED FREE ENERGY PREDICTED BY IDOCK:   -2.68 KCAL/MOL
REMARK 922        TOTAL FREE ENERGY PREDICTED BY IDOCK:   -2.97 KCAL/MOL
REMARK 923 INTER-LIGAND FREE ENERGY PREDICTED BY IDOCK:   -2.83 KCAL/MOL
REMARK 924 INTRA-LIGAND FREE ENERGY PREDICTED BY IDOCK:   -0.13 KCAL/MOL
REMARK 927      BINDING AFFINITY PREDICTED BY RF-SCORE:    0.00 PKD
ROOT
HETATM    1  O   UNL     1      -9.127   6.534  67.958  1.00  0.00    -0.117 OA 
HETATM    2  C   UNL     1      -9.868   7.471  68.223  1.00  0.00    -0.163 C  
HETATM    3  C   UNL     1      -9.925   8.671  67.367  1.00  0.00    -0.270 C  
HETATM    4  C   UNL     1     -10.743   9.681  67.685  1.00  0.00    -0.324 C  
ENDROOT
BRANCH   4   5
HETATM    5  C   UNL     1     -10.828  10.871  66.838  1.00  0.00    -0.307 A  
HETATM    6  C   UNL     1      -9.983  11.002  65.731  1.00  0.00    -0.294 A  
HETATM    7  C   UNL     1     -10.053  12.141  64.927  1.00  0.00    -0.280 A  
HETATM    8  C   UNL     1     -10.964  13.152  65.226  1.00  0.00    -0.304 A  
HETATM    9  C   UNL     1     -11.807  13.027  66.330  1.00  0.00    -0.465 A  
HETATM   10  C   UNL     1     -11.739  11.889  67.137  1.00  0.00    -0.311 A  
ENDBRANCH   4   5
TORSDOF 1
ENDMDL
MODEL      111
REMARK 921   NORMALIZED FREE ENERGY PREDICTED BY IDOCK:   -2.67 KCAL/MOL
REMARK 922        TOTAL FREE ENERGY PREDICTED BY IDOCK:   -2.95 KCAL/MOL
REMARK 923 INTER-LIGAND FREE ENERGY PREDICTED BY IDOCK:   -2.83 KCAL/MOL
REMARK 924 INTRA-LIGAND FREE ENERGY PREDICTED BY IDOCK:   -0.12 KCAL/MOL
REMARK 927      BINDING AFFINITY PREDICTED BY RF-SCORE:    0.00 PKD
ROOT
HETATM    1  O   UNL     1     -10.299  14.935  68.767  1.00  0.00    -0.230 OA 
HETATM    2  C   UNL     1     -10.506  13.760  68.495  1.00  0.00    -0.244 C  
HETATM    3  C   UNL     1     -10.159  13.204  67.173  1.00  0.00    -0.242 C  
HETATM    4  C   UNL     1     -10.401  11.916  66.904  1.00  0.00    -0.238 C  
ENDROOT
BRANCH   4   5
HETATM    5  C   UNL     1     -10.045  11.342  65.606  1.00  0.00    -0.293 A  
HETATM    6  C   UNL     1     -10.490  11.951  64.428  1.00  0.00    -0.356 A  
HETATM    7  C   UNL     1     -10.164  11.402  63.188  1.00  0.00    -0.380 A  
HETATM    8  C   UNL     1      -9.394  10.242  63.119  1.00  0.00    -0.343 A  
HETATM    9  C   UNL     1      -8.950   9.629  64.291  1.00  0.00    -0.269 A  
HETATM   10  C   UNL     1      -9.276  10.177  65.534  1.00  0.00    -0.237 A  
ENDBRANCH   4   5
TORSDOF 1
ENDMDL
MODEL      112
REMARK 921   NORMALIZED FREE ENERGY PREDICTED BY IDOCK:   -2.65 KCAL/MOL
REMARK 922        TOTAL FREE ENERGY PREDICTED BY IDOCK:   -2.93 KCAL/MOL
REMARK 923 INTER-LIGAND FREE ENERGY PREDICTED BY IDOCK:   -2.82 KCAL/MOL
REMARK 924 INTRA-LIGAND FREE ENERGY PREDICTED BY IDOCK:   -0.12 KCAL/MOL
REMARK 927      BINDING AFFINITY PREDICTED BY RF-SCORE:    0.00 PKD
ROOT
HETATM    1  O   UNL     1      -7.327   9.987  63.459  1.00  0.00    -0.133 OA 
HETATM    2  C   UNL     1      -8.377   9.652  63.989  1.00  0.00    -0.171 C  
HETATM    3  C   UNL     1      -8.891  10.347  65.184  1.00  0.00    -0.207 C  
HETATM    4  C   UNL     1     -10.041   9.954  65.744  1.00  0.00    -0.317 C  
ENDROOT
BRANCH   4   5
HETATM    5  C   UNL     1     -10.576  10.644  66.918  1.00  0.00    -0.311 A  
HETATM    6  C   UNL     1     -11.134  11.920  66.785  1.00  0.00    -0.359 A  
HETATM    7  C   UNL     1     -11.635  12.587  67.904  1.00  0.00    -0.403 A  
HETATM    8  C   UNL     1     -11.580  11.982  69.160  1.00  0.00    -0.370 A  
HETATM    9  C   UNL     1     -11.023  10.711  69.298  1.00  0.00    -0.294 A  
HETATM   10  C   UNL     1     -10.520  10.042  68.180  1.00  0.00    -0.250 A  
ENDBRANCH   4   5
TORSDOF 1
ENDMDL
MODEL      113
REMARK 921   NORMALIZED FREE ENERGY PREDICTED BY IDOCK:   -2.64 KCAL/MOL
REMARK 922        TOTAL FREE ENERGY PREDICTED BY IDOCK:   -2.93 KCAL/MOL
REMARK 923 INTER-LIGAND FREE ENERGY PREDICTED BY IDOCK:   -2.80 KCAL/MOL
REMARK 924 INTRA-LIGAND FREE ENERGY PREDICTED BY IDOCK:   -0.13 KCAL/MOL
REMARK 927      BINDING AFFINITY PREDICTED BY RF-SCORE:    0.00 PKD
ROOT
HETATM    1  O   UNL     1     -10.782   4.699  65.419  1.00  0.00    -0.241 OA 
HETATM    2  C   UNL     1     -10.084   4.789  66.420  1.00  0.00    -0.262 C  
HETATM    3  C   UNL     1     -10.659   5.152  67.728  1.00  0.00    -0.041 C  
HETATM    4  C   UNL     1      -9.869   5.246  68.805  1.00  0.00    -0.224 C  
ENDROOT
BRANCH   4   5
HETATM    5  C   UNL     1     -10.424   5.586  70.114  1.00  0.00    -0.370 A  
HETATM    6  C   UNL     1      -9.891   5.008  71.271  1.00  0.00    -0.246 A  
HETATM    7  C   UNL     1     -10.425   5.320  72.522  1.00  0.00    -0.266 A  
HETATM    8  C   UNL     1     -11.494   6.210  72.622  1.00  0.00    -0.277 A  
HETATM    9  C   UNL     1     -12.031   6.787  71.472  1.00  0.00    -0.396 A  
HETATM   10  C   UNL     1     -11.499   6.475  70.219  1.00  0.00    -0.474 A  
ENDBRANCH   4   5
TORSDOF 1
ENDMDL
MODEL      114
REMARK 921   NORMALIZED FREE ENERGY PREDICTED BY IDOCK:   -2.60 KCAL/MOL
REMARK 922        TOTAL FREE ENERGY PREDICTED BY IDOCK:   -2.88 KCAL/MOL
REMARK 923 INTER-LIGAND FREE ENERGY PREDICTED BY IDOCK:   -2.77 KCAL/MOL
REMARK 924 INTRA-LIGAND FREE ENERGY PREDICTED BY IDOCK:   -0.12 KCAL/MOL
REMARK 927      BINDING AFFINITY PREDICTED BY RF-SCORE:    0.00 PKD
ROOT
HETATM    1  O   UNL     1      -9.685   4.640  73.825  1.00  0.00    -0.132 OA 
HETATM    2  C   UNL     1     -10.565   5.198  73.183  1.00  0.00    -0.233 C  
HETATM    3  C   UNL     1     -10.303   5.756  71.843  1.00  0.00    -0.263 C  
HETATM    4  C   UNL     1     -11.285   6.363  71.167  1.00  0.00    -0.357 C  
ENDROOT
BRANCH   4   5
HETATM    5  C   UNL     1     -11.049   6.905  69.829  1.00  0.00    -0.316 A  
HETATM    6  C   UNL     1     -10.799   8.272  69.662  1.00  0.00    -0.154 A  
HETATM    7  C   UNL     1     -10.585   8.796  68.387  1.00  0.00    -0.185 A  
HETATM    8  C   UNL     1     -10.621   7.958  67.273  1.00  0.00    -0.365 A  
HETATM    9  C   UNL     1     -10.872   6.595  67.433  1.00  0.00    -0.434 A  
HETATM   10  C   UNL     1     -11.088   6.069  68.709  1.00  0.00    -0.329 A  
ENDBRANCH   4   5
TORSDOF 1
ENDMDL
MODEL      115
REMARK 921   NORMALIZED FREE ENERGY PREDICTED BY IDOCK:   -2.59 KCAL/MOL
REMARK 922        TOTAL FREE ENERGY PREDICTED BY IDOCK:   -2.87 KCAL/MOL
REMARK 923 INTER-LIGAND FREE ENERGY PREDICTED BY IDOCK:   -2.75 KCAL/MOL
REMARK 924 INTRA-LIGAND FREE ENERGY PREDICTED BY IDOCK:   -0.13 KCAL/MOL
REMARK 927      BINDING AFFINITY PREDICTED BY RF-SCORE:    0.00 PKD
ROOT
HETATM    1  O   UNL     1     -10.444   4.035  63.919  1.00  0.00    -0.207 OA 
HETATM    2  C   UNL     1      -9.837   3.893  64.973  1.00  0.00    -0.192 C  
HETATM    3  C   UNL     1     -10.302   4.529  66.219  1.00  0.00    -0.227 C  
HETATM    4  C   UNL     1      -9.615   4.358  67.355  1.00  0.00    -0.218 C  
ENDROOT
BRANCH   4   5
HETATM    5  C   UNL     1     -10.071   4.965  68.605  1.00  0.00    -0.159 A  
HETATM    6  C   UNL     1     -10.862   6.119  68.574  1.00  0.00    -0.389 A  
HETATM    7  C   UNL     1     -11.290   6.709  69.764  1.00  0.00    -0.412 A  
HETATM    8  C   UNL     1     -10.930   6.150  70.989  1.00  0.00    -0.354 A  
HETATM    9  C   UNL     1     -10.139   5.001  71.025  1.00  0.00    -0.297 A  
HETATM   10  C   UNL     1      -9.709   4.409  69.836  1.00  0.00    -0.291 A  
ENDBRANCH   4   5
TORSDOF 1
ENDMDL
MODEL      116
REMARK 921   NORMALIZED FREE ENERGY PREDICTED BY IDOCK:   -2.59 KCAL/MOL
REMARK 922        TOTAL FREE ENERGY PREDICTED BY IDOCK:   -2.87 KCAL/MOL
REMARK 923 INTER-LIGAND FREE ENERGY PREDICTED BY IDOCK:   -2.74 KCAL/MOL
REMARK 924 INTRA-LIGAND FREE ENERGY PREDICTED BY IDOCK:   -0.13 KCAL/MOL
REMARK 927      BINDING AFFINITY PREDICTED BY RF-SCORE:    0.00 PKD
ROOT
HETATM    1  O   UNL     1      -9.609   2.089  70.570  1.00  0.00    -0.119 OA 
HETATM    2  C   UNL     1      -9.210   3.229  70.374  1.00  0.00    -0.148 C  
HETATM    3  C   UNL     1     -10.011   4.403  70.769  1.00  0.00    -0.247 C  
HETATM    4  C   UNL     1      -9.548   5.637  70.537  1.00  0.00    -0.221 C  
ENDROOT
BRANCH   4   5
HETATM    5  C   UNL     1     -10.319   6.813  70.940  1.00  0.00    -0.222 A  
HETATM    6  C   UNL     1      -9.685   8.054  71.070  1.00  0.00    -0.185 A  
HETATM    7  C   UNL     1     -10.414   9.176  71.466  1.00  0.00    -0.422 A  
HETATM    8  C   UNL     1     -11.778   9.065  71.733  1.00  0.00    -0.440 A  
HETATM    9  C   UNL     1     -12.414   7.830  71.607  1.00  0.00    -0.352 A  
HETATM   10  C   UNL     1     -11.687   6.705  71.213  1.00  0.00    -0.386 A  
ENDBRANCH   4   5
TORSDOF 1
ENDMDL
MODEL      117
REMARK 921   NORMALIZED FREE ENERGY PREDICTED BY IDOCK:   -2.57 KCAL/MOL
REMARK 922        TOTAL FREE ENERGY PREDICTED BY IDOCK:   -2.86 KCAL/MOL
REMARK 923 INTER-LIGAND FREE ENERGY PREDICTED BY IDOCK:   -2.74 KCAL/MOL
REMARK 924 INTRA-LIGAND FREE ENERGY PREDICTED BY IDOCK:   -0.12 KCAL/MOL
REMARK 927      BINDING AFFINITY PREDICTED BY RF-SCORE:    0.00 PKD
ROOT
HETATM    1  O   UNL     1      -7.234  16.761  69.036  1.00  0.00    -0.209 OA 
HETATM    2  C   UNL     1      -7.688  15.625  69.027  1.00  0.00    -0.199 C  
HETATM    3  C   UNL     1      -8.779  15.240  68.113  1.00  0.00    -0.162 C  
HETATM    4  C   UNL     1      -9.256  13.989  68.129  1.00  0.00    -0.196 C  
ENDROOT
BRANCH   4   5
HETATM    5  C   UNL     1     -10.324  13.583  67.216  1.00  0.00    -0.241 A  
HETATM    6  C   UNL     1     -11.636  14.015  67.440  1.00  0.00    -0.397 A  
HETATM    7  C   UNL     1     -12.661  13.621  66.578  1.00  0.00    -0.225 A  
HETATM    8  C   UNL     1     -12.380  12.794  65.491  1.00  0.00    -0.495 A  
HETATM    9  C   UNL     1     -11.074  12.359  65.265  1.00  0.00    -0.342 A  
HETATM   10  C   UNL     1     -10.047  12.751  66.127  1.00  0.00    -0.274 A  
ENDBRANCH   4   5
TORSDOF 1
ENDMDL
MODEL      118
REMARK 921   NORMALIZED FREE ENERGY PREDICTED BY IDOCK:   -2.54 KCAL/MOL
REMARK 922        TOTAL FREE ENERGY PREDICTED BY IDOCK:   -2.82 KCAL/MOL
REMARK 923 INTER-LIGAND FREE ENERGY PREDICTED BY IDOCK:   -2.69 KCAL/MOL
REMARK 924 INTRA-LIGAND FREE ENERGY PREDICTED BY IDOCK:   -0.13 KCAL/MOL
REMARK 927      BINDING AFFINITY PREDICTED BY RF-SCORE:    0.00 PKD
ROOT
HETATM    1  O   UNL     1      -9.104  10.376  69.388  1.00  0.00    -0.196 OA 
HETATM    2  C   UNL     1      -9.465  10.948  68.368  1.00  0.00    -0.178 C  
HETATM    3  C   UNL     1      -9.615  12.415  68.322  1.00  0.00    -0.211 C  
HETATM    4  C   UNL     1     -10.014  13.012  67.192  1.00  0.00    -0.235 C  
ENDROOT
BRANCH   4   5
HETATM    5  C   UNL     1     -10.149  14.466  67.122  1.00  0.00    -0.253 A  
HETATM    6  C   UNL     1      -9.866  15.137  65.927  1.00  0.00    -0.372 A  
HETATM    7  C   UNL     1      -9.982  16.526  65.858  1.00  0.00    -0.342 A  
HETATM    8  C   UNL     1     -10.381  17.250  66.981  1.00  0.00    -0.318 A  
HETATM    9  C   UNL     1     -10.662  16.586  68.175  1.00  0.00    -0.343 A  
HETATM   10  C   UNL     1     -10.545  15.196  68.247  1.00  0.00    -0.243 A  
ENDBRANCH   4   5
TORSDOF 1
ENDMDL
MODEL      119
REMARK 921   NORMALIZED FREE ENERGY PREDICTED BY IDOCK:   -2.52 KCAL/MOL
REMARK 922        TOTAL FREE ENERGY PREDICTED BY IDOCK:   -2.80 KCAL/MOL
REMARK 923 INTER-LIGAND FREE ENERGY PREDICTED BY IDOCK:   -2.67 KCAL/MOL
REMARK 924 INTRA-LIGAND FREE ENERGY PREDICTED BY IDOCK:   -0.13 KCAL/MOL
REMARK 927      BINDING AFFINITY PREDICTED BY RF-SCORE:    0.00 PKD
ROOT
HETATM    1  O   UNL     1      -5.824   5.871  72.090  1.00  0.00    -0.029 OA 
HETATM    2  C   UNL     1      -6.339   6.827  71.527  1.00  0.00    -0.042 C  
HETATM    3  C   UNL     1      -7.751   7.185  71.756  1.00  0.00    -0.092 C  
HETATM    4  C   UNL     1      -8.288   8.235  71.123  1.00  0.00    -0.149 C  
ENDROOT
BRANCH   4   5
HETATM    5  C   UNL     1      -9.681   8.617  71.353  1.00  0.00    -0.314 A  
HETATM    6  C   UNL     1     -10.232   9.699  70.659  1.00  0.00    -0.346 A  
HETATM    7  C   UNL     1     -11.558  10.075  70.884  1.00  0.00    -0.463 A  
HETATM    8  C   UNL     1     -12.336   9.372  71.802  1.00  0.00    -0.471 A  
HETATM    9  C   UNL     1     -11.790   8.293  72.498  1.00  0.00    -0.439 A  
HETATM   10  C   UNL     1     -10.464   7.916  72.276  1.00  0.00    -0.322 A  
ENDBRANCH   4   5
TORSDOF 1
ENDMDL
MODEL      120
REMARK 921   NORMALIZED FREE ENERGY PREDICTED BY IDOCK:   -2.51 KCAL/MOL
REMARK 922        TOTAL FREE ENERGY PREDICTED BY IDOCK:   -2.79 KCAL/MOL
REMARK 923 INTER-LIGAND FREE ENERGY PREDICTED BY IDOCK:   -2.67 KCAL/MOL
REMARK 924 INTRA-LIGAND FREE ENERGY PREDICTED BY IDOCK:   -0.12 KCAL/MOL
REMARK 927      BINDING AFFINITY PREDICTED BY RF-SCORE:    0.00 PKD
ROOT
HETATM    1  O   UNL     1      -7.788   9.034  66.572  1.00  0.00    -0.098 OA 
HETATM    2  C   UNL     1      -8.148   9.643  67.571  1.00  0.00    -0.114 C  
HETATM    3  C   UNL     1      -8.862   8.965  68.669  1.00  0.00    -0.137 C  
HETATM    4  C   UNL     1      -9.246   9.659  69.747  1.00  0.00    -0.237 C  
ENDROOT
BRANCH   4   5
HETATM    5  C   UNL     1      -9.937   9.000  70.855  1.00  0.00    -0.326 A  
HETATM    6  C   UNL     1      -9.220   8.600  71.987  1.00  0.00    -0.338 A  
HETATM    7  C   UNL     1      -9.872   7.960  73.042  1.00  0.00    -0.355 A  
HETATM    8  C   UNL     1     -11.243   7.716  72.969  1.00  0.00    -0.388 A  
HETATM    9  C   UNL     1     -11.962   8.110  71.841  1.00  0.00    -0.367 A  
HETATM   10  C   UNL     1     -11.311   8.750  70.784  1.00  0.00    -0.313 A  
ENDBRANCH   4   5
TORSDOF 1
ENDMDL
MODEL      121
REMARK 921   NORMALIZED FREE ENERGY PREDICTED BY IDOCK:   -2.48 KCAL/MOL
REMARK 922        TOTAL FREE ENERGY PREDICTED BY IDOCK:   -2.76 KCAL/MOL
REMARK 923 INTER-LIGAND FREE ENERGY PREDICTED BY IDOCK:   -2.64 KCAL/MOL
REMARK 924 INTRA-LIGAND FREE ENERGY PREDICTED BY IDOCK:   -0.12 KCAL/MOL
REMARK 927      BINDING AFFINITY PREDICTED BY RF-SCORE:    0.00 PKD
ROOT
HETATM    1  O   UNL     1      -7.722  18.043  66.304  1.00  0.00    -0.251 OA 
HETATM    2  C   UNL     1      -8.710  17.355  66.526  1.00  0.00    -0.260 C  
HETATM    3  C   UNL     1      -8.668  15.887  66.399  1.00  0.00    -0.362 C  
HETATM    4  C   UNL     1      -9.766  15.162  66.646  1.00  0.00    -0.274 C  
ENDROOT
BRANCH   4   5
HETATM    5  C   UNL     1      -9.739  13.703  66.544  1.00  0.00    -0.298 A  
HETATM    6  C   UNL     1     -10.423  13.062  65.506  1.00  0.00    -0.297 A  
HETATM    7  C   UNL     1     -10.410  11.670  65.411  1.00  0.00    -0.313 A  
HETATM    8  C   UNL     1      -9.714  10.913  66.352  1.00  0.00    -0.240 A  
HETATM    9  C   UNL     1      -9.033  11.547  67.391  1.00  0.00    -0.156 A  
HETATM   10  C   UNL     1      -9.045  12.940  67.489  1.00  0.00    -0.191 A  
ENDBRANCH   4   5
TORSDOF 1
ENDMDL
MODEL      122
REMARK 921   NORMALIZED FREE ENERGY PREDICTED BY IDOCK:   -2.45 KCAL/MOL
REMARK 922        TOTAL FREE ENERGY PREDICTED BY IDOCK:   -2.73 KCAL/MOL
REMARK 923 INTER-LIGAND FREE ENERGY PREDICTED BY IDOCK:   -2.61 KCAL/MOL
REMARK 924 INTRA-LIGAND FREE ENERGY PREDICTED BY IDOCK:   -0.12 KCAL/MOL
REMARK 927      BINDING AFFINITY PREDICTED BY RF-SCORE:    0.00 PKD
ROOT
HETATM    1  O   UNL     1     -10.368   5.460  68.256  1.00  0.00    -0.180 OA 
HETATM    2  C   UNL     1     -10.370   6.296  69.150  1.00  0.00    -0.216 C  
HETATM    3  C   UNL     1     -10.535   7.732  68.858  1.00  0.00    -0.208 C  
HETATM    4  C   UNL     1     -10.530   8.622  69.858  1.00  0.00    -0.221 C  
ENDROOT
BRANCH   4   5
HETATM    5  C   UNL     1     -10.712  10.049  69.590  1.00  0.00    -0.282 A  
HETATM    6  C   UNL     1     -11.750  10.749  70.214  1.00  0.00    -0.442 A  
HETATM    7  C   UNL     1     -11.936  12.108  69.953  1.00  0.00    -0.380 A  
HETATM    8  C   UNL     1     -11.087  12.771  69.068  1.00  0.00    -0.285 A  
HETATM    9  C   UNL     1     -10.053  12.076  68.441  1.00  0.00    -0.211 A  
HETATM   10  C   UNL     1      -9.865  10.717  68.700  1.00  0.00    -0.183 A  
ENDBRANCH   4   5
TORSDOF 1
ENDMDL
MODEL      123
REMARK 921   NORMALIZED FREE ENERGY PREDICTED BY IDOCK:   -2.45 KCAL/MOL
REMARK 922        TOTAL FREE ENERGY PREDICTED BY IDOCK:   -2.73 KCAL/MOL
REMARK 923 INTER-LIGAND FREE ENERGY PREDICTED BY IDOCK:   -2.61 KCAL/MOL
REMARK 924 INTRA-LIGAND FREE ENERGY PREDICTED BY IDOCK:   -0.12 KCAL/MOL
REMARK 927      BINDING AFFINITY PREDICTED BY RF-SCORE:    0.00 PKD
ROOT
HETATM    1  O   UNL     1     -11.001   5.985  66.880  1.00  0.00    -0.318 OA 
HETATM    2  C   UNL     1     -10.115   5.972  67.724  1.00  0.00    -0.156 C  
HETATM    3  C   UNL     1     -10.417   6.124  69.159  1.00  0.00    -0.310 C  
HETATM    4  C   UNL     1      -9.426   6.109  70.058  1.00  0.00    -0.172 C  
ENDROOT
BRANCH   4   5
HETATM    5  C   UNL     1      -9.708   6.238  71.487  1.00  0.00    -0.179 A  
HETATM    6  C   UNL     1     -10.410   5.228  72.154  1.00  0.00    -0.268 A  
HETATM    7  C   UNL     1     -10.692   5.352  73.516  1.00  0.00    -0.331 A  
HETATM    8  C   UNL     1     -10.276   6.484  74.215  1.00  0.00    -0.373 A  
HETATM    9  C   UNL     1      -9.579   7.495  73.553  1.00  0.00    -0.339 A  
HETATM   10  C   UNL     1      -9.296   7.374  72.190  1.00  0.00    -0.164 A  
ENDBRANCH   4   5
TORSDOF 1
ENDMDL
MODEL      124
REMARK 921   NORMALIZED FREE ENERGY PREDICTED BY IDOCK:   -2.43 KCAL/MOL
REMARK 922        TOTAL FREE ENERGY PREDICTED BY IDOCK:   -2.70 KCAL/MOL
REMARK 923 INTER-LIGAND FREE ENERGY PREDICTED BY IDOCK:   -2.58 KCAL/MOL
REMARK 924 INTRA-LIGAND FREE ENERGY PREDICTED BY IDOCK:   -0.12 KCAL/MOL
REMARK 927      BINDING AFFINITY PREDICTED BY RF-SCORE:    0.00 PKD
ROOT
HETATM    1  O   UNL     1      -7.032  10.439  64.978  1.00  0.00    -0.128 OA 
HETATM    2  C   UNL     1      -7.993  10.591  65.722  1.00  0.00    -0.158 C  
HETATM    3  C   UNL     1      -8.577   9.458  66.463  1.00  0.00    -0.142 C  
HETATM    4  C   UNL     1      -9.630   9.655  67.265  1.00  0.00    -0.203 C  
ENDROOT
BRANCH   4   5
HETATM    5  C   UNL     1     -10.211   8.548  68.024  1.00  0.00    -0.264 A  
HETATM    6  C   UNL     1     -10.516   8.713  69.379  1.00  0.00    -0.224 A  
HETATM    7  C   UNL     1     -11.060   7.655  70.110  1.00  0.00    -0.229 A  
HETATM    8  C   UNL     1     -11.300   6.430  69.490  1.00  0.00    -0.460 A  
HETATM    9  C   UNL     1     -10.996   6.259  68.140  1.00  0.00    -0.412 A  
HETATM   10  C   UNL     1     -10.450   7.315  67.407  1.00  0.00    -0.359 A  
ENDBRANCH   4   5
TORSDOF 1
ENDMDL
MODEL      125
REMARK 921   NORMALIZED FREE ENERGY PREDICTED BY IDOCK:   -2.43 KCAL/MOL
REMARK 922        TOTAL FREE ENERGY PREDICTED BY IDOCK:   -2.70 KCAL/MOL
REMARK 923 INTER-LIGAND FREE ENERGY PREDICTED BY IDOCK:   -2.57 KCAL/MOL
REMARK 924 INTRA-LIGAND FREE ENERGY PREDICTED BY IDOCK:   -0.13 KCAL/MOL
REMARK 927      BINDING AFFINITY PREDICTED BY RF-SCORE:    0.00 PKD
ROOT
HETATM    1  O   UNL     1     -11.648  11.922  69.454  1.00  0.00    -0.279 OA 
HETATM    2  C   UNL     1     -11.009  12.339  68.497  1.00  0.00    -0.240 C  
HETATM    3  C   UNL     1     -10.376  13.670  68.517  1.00  0.00    -0.244 C  
HETATM    4  C   UNL     1      -9.686  14.099  67.453  1.00  0.00    -0.232 C  
ENDROOT
BRANCH   4   5
HETATM    5  C   UNL     1      -9.034  15.409  67.462  1.00  0.00    -0.191 A  
HETATM    6  C   UNL     1      -8.815  16.073  68.674  1.00  0.00    -0.210 A  
HETATM    7  C   UNL     1      -8.205  17.327  68.686  1.00  0.00    -0.262 A  
HETATM    8  C   UNL     1      -7.812  17.925  67.490  1.00  0.00    -0.217 A  
HETATM    9  C   UNL     1      -8.031  17.269  66.278  1.00  0.00    -0.330 A  
HETATM   10  C   UNL     1      -8.643  16.013  66.263  1.00  0.00    -0.363 A  
ENDBRANCH   4   5
TORSDOF 1
ENDMDL
MODEL      126
REMARK 921   NORMALIZED FREE ENERGY PREDICTED BY IDOCK:   -2.42 KCAL/MOL
REMARK 922        TOTAL FREE ENERGY PREDICTED BY IDOCK:   -2.70 KCAL/MOL
REMARK 923 INTER-LIGAND FREE ENERGY PREDICTED BY IDOCK:   -2.57 KCAL/MOL
REMARK 924 INTRA-LIGAND FREE ENERGY PREDICTED BY IDOCK:   -0.12 KCAL/MOL
REMARK 927      BINDING AFFINITY PREDICTED BY RF-SCORE:    0.00 PKD
ROOT
HETATM    1  O   UNL     1      -9.972   5.293  71.479  1.00  0.00    -0.169 OA 
HETATM    2  C   UNL     1     -10.335   5.468  70.323  1.00  0.00    -0.279 C  
HETATM    3  C   UNL     1     -10.130   6.759  69.640  1.00  0.00    -0.197 C  
HETATM    4  C   UNL     1     -10.541   6.920  68.376  1.00  0.00    -0.249 C  
ENDROOT
BRANCH   4   5
HETATM    5  C   UNL     1     -10.330   8.186  67.676  1.00  0.00    -0.313 A  
HETATM    6  C   UNL     1      -9.830   8.187  66.370  1.00  0.00    -0.261 A  
HETATM    7  C   UNL     1      -9.615   9.394  65.701  1.00  0.00    -0.345 A  
HETATM    8  C   UNL     1      -9.898  10.603  66.335  1.00  0.00    -0.259 A  
HETATM    9  C   UNL     1     -10.394  10.607  67.639  1.00  0.00    -0.246 A  
HETATM   10  C   UNL     1     -10.609   9.401  68.310  1.00  0.00    -0.256 A  
ENDBRANCH   4   5
TORSDOF 1
ENDMDL
MODEL      127
REMARK 921   NORMALIZED FREE ENERGY PREDICTED BY IDOCK:   -2.42 KCAL/MOL
REMARK 922        TOTAL FREE ENERGY PREDICTED BY IDOCK:   -2.69 KCAL/MOL
REMARK 923 INTER-LIGAND FREE ENERGY PREDICTED BY IDOCK:   -2.57 KCAL/MOL
REMARK 924 INTRA-LIGAND FREE ENERGY PREDICTED BY IDOCK:   -0.12 KCAL/MOL
REMARK 927      BINDING AFFINITY PREDICTED BY RF-SCORE:    0.00 PKD
ROOT
HETATM    1  O   UNL     1      -8.779   8.403  71.925  1.00  0.00    -0.159 OA 
HETATM    2  C   UNL     1      -8.455   8.885  70.847  1.00  0.00    -0.186 C  
HETATM    3  C   UNL     1      -9.391   9.714  70.065  1.00  0.00    -0.276 C  
HETATM    4  C   UNL     1      -9.009  10.225  68.888  1.00  0.00    -0.164 C  
ENDROOT
BRANCH   4   5
HETATM    5  C   UNL     1      -9.916  11.066  68.107  1.00  0.00    -0.190 A  
HETATM    6  C   UNL     1     -10.525  12.176  68.700  1.00  0.00    -0.237 A  
HETATM    7  C   UNL     1     -11.400  12.975  67.962  1.00  0.00    -0.327 A  
HETATM    8  C   UNL     1     -11.671  12.666  66.630  1.00  0.00    -0.464 A  
HETATM    9  C   UNL     1     -11.068  11.558  66.035  1.00  0.00    -0.289 A  
HETATM   10  C   UNL     1     -10.193  10.757  66.771  1.00  0.00    -0.279 A  
ENDBRANCH   4   5
TORSDOF 1
ENDMDL
MODEL      128
REMARK 921   NORMALIZED FREE ENERGY PREDICTED BY IDOCK:   -2.41 KCAL/MOL
REMARK 922        TOTAL FREE ENERGY PREDICTED BY IDOCK:   -2.68 KCAL/MOL
REMARK 923 INTER-LIGAND FREE ENERGY PREDICTED BY IDOCK:   -2.55 KCAL/MOL
REMARK 924 INTRA-LIGAND FREE ENERGY PREDICTED BY IDOCK:   -0.13 KCAL/MOL
REMARK 927      BINDING AFFINITY PREDICTED BY RF-SCORE:    0.00 PKD
ROOT
HETATM    1  O   UNL     1      -5.711   9.945  66.484  1.00  0.00    -0.051 OA 
HETATM    2  C   UNL     1      -6.907   9.900  66.229  1.00  0.00    -0.091 C  
HETATM    3  C   UNL     1      -7.776  11.078  66.408  1.00  0.00    -0.146 C  
HETATM    4  C   UNL     1      -9.082  10.996  66.124  1.00  0.00    -0.208 C  
ENDROOT
BRANCH   4   5
HETATM    5  C   UNL     1      -9.956  12.159  66.276  1.00  0.00    -0.249 A  
HETATM    6  C   UNL     1      -9.447  13.351  66.801  1.00  0.00    -0.263 A  
HETATM    7  C   UNL     1     -10.279  14.460  66.960  1.00  0.00    -0.263 A  
HETATM    8  C   UNL     1     -11.623  14.382  66.595  1.00  0.00    -0.396 A  
HETATM    9  C   UNL     1     -12.136  13.194  66.073  1.00  0.00    -0.495 A  
HETATM   10  C   UNL     1     -11.305  12.083  65.915  1.00  0.00    -0.391 A  
ENDBRANCH   4   5
TORSDOF 1
ENDMDL
MODEL      129
REMARK 921   NORMALIZED FREE ENERGY PREDICTED BY IDOCK:   -2.40 KCAL/MOL
REMARK 922        TOTAL FREE ENERGY PREDICTED BY IDOCK:   -2.67 KCAL/MOL
REMARK 923 INTER-LIGAND FREE ENERGY PREDICTED BY IDOCK:   -2.55 KCAL/MOL
REMARK 924 INTRA-LIGAND FREE ENERGY PREDICTED BY IDOCK:   -0.12 KCAL/MOL
REMARK 927      BINDING AFFINITY PREDICTED BY RF-SCORE:    0.00 PKD
ROOT
HETATM    1  O   UNL     1     -12.628  12.811  65.367  1.00  0.00    -0.607 OA 
HETATM    2  C   UNL     1     -11.640  12.130  65.127  1.00  0.00    -0.317 C  
HETATM    3  C   UNL     1     -11.151  11.120  66.083  1.00  0.00    -0.152 C  
HETATM    4  C   UNL     1     -10.066  10.393  65.793  1.00  0.00    -0.329 C  
ENDROOT
BRANCH   4   5
HETATM    5  C   UNL     1      -9.578   9.372  66.720  1.00  0.00    -0.234 A  
HETATM    6  C   UNL     1      -8.421   9.606  67.471  1.00  0.00    -0.125 A  
HETATM    7  C   UNL     1      -7.944   8.631  68.349  1.00  0.00    -0.113 A  
HETATM    8  C   UNL     1      -8.621   7.419  68.479  1.00  0.00    -0.128 A  
HETATM    9  C   UNL     1      -9.773   7.180  67.731  1.00  0.00    -0.161 A  
HETATM   10  C   UNL     1     -10.252   8.154  66.851  1.00  0.00    -0.387 A  
ENDBRANCH   4   5
TORSDOF 1
ENDMDL
MODEL      130
REMARK 921   NORMALIZED FREE ENERGY PREDICTED BY IDOCK:   -2.36 KCAL/MOL
REMARK 922        TOTAL FREE ENERGY PREDICTED BY IDOCK:   -2.63 KCAL/MOL
REMARK 923 INTER-LIGAND FREE ENERGY PREDICTED BY IDOCK:   -2.50 KCAL/MOL
REMARK 924 INTRA-LIGAND FREE ENERGY PREDICTED BY IDOCK:   -0.13 KCAL/MOL
REMARK 927      BINDING AFFINITY PREDICTED BY RF-SCORE:    0.00 PKD
ROOT
HETATM    1  O   UNL     1      -9.790  11.884  66.066  1.00  0.00    -0.224 OA 
HETATM    2  C   UNL     1      -9.305  11.528  67.132  1.00  0.00    -0.172 C  
HETATM    3  C   UNL     1      -9.916  10.452  67.933  1.00  0.00    -0.192 C  
HETATM    4  C   UNL     1      -9.364  10.087  69.097  1.00  0.00    -0.200 C  
ENDROOT
BRANCH   4   5
HETATM    5  C   UNL     1      -9.944   9.008  69.896  1.00  0.00    -0.203 A  
HETATM    6  C   UNL     1     -10.617   7.956  69.265  1.00  0.00    -0.195 A  
HETATM    7  C   UNL     1     -11.182   6.930  70.024  1.00  0.00    -0.347 A  
HETATM    8  C   UNL     1     -11.080   6.952  71.414  1.00  0.00    -0.284 A  
HETATM    9  C   UNL     1     -10.413   8.001  72.047  1.00  0.00    -0.308 A  
HETATM   10  C   UNL     1      -9.847   9.029  71.290  1.00  0.00    -0.376 A  
ENDBRANCH   4   5
TORSDOF 1
ENDMDL
MODEL      131
REMARK 921   NORMALIZED FREE ENERGY PREDICTED BY IDOCK:   -2.34 KCAL/MOL
REMARK 922        TOTAL FREE ENERGY PREDICTED BY IDOCK:   -2.61 KCAL/MOL
REMARK 923 INTER-LIGAND FREE ENERGY PREDICTED BY IDOCK:   -2.48 KCAL/MOL
REMARK 924 INTRA-LIGAND FREE ENERGY PREDICTED BY IDOCK:   -0.13 KCAL/MOL
REMARK 927      BINDING AFFINITY PREDICTED BY RF-SCORE:    0.00 PKD
ROOT
HETATM    1  O   UNL     1      -8.289   8.872  72.147  1.00  0.00    -0.381 OA 
HETATM    2  C   UNL     1      -9.049   8.144  72.771  1.00  0.00    -0.259 C  
HETATM    3  C   UNL     1      -9.204   6.719  72.426  1.00  0.00    -0.142 C  
HETATM    4  C   UNL     1     -10.046   5.948  73.125  1.00  0.00    -0.199 C  
ENDROOT
BRANCH   4   5
HETATM    5  C   UNL     1     -10.198   4.528  72.810  1.00  0.00    -0.233 A  
HETATM    6  C   UNL     1     -10.950   3.702  73.653  1.00  0.00    -0.333 A  
HETATM    7  C   UNL     1     -11.089   2.344  73.363  1.00  0.00    -0.294 A  
HETATM    8  C   UNL     1     -10.476   1.805  72.233  1.00  0.00    -0.188 A  
HETATM    9  C   UNL     1      -9.723   2.624  71.391  1.00  0.00    -0.217 A  
HETATM   10  C   UNL     1      -9.583   3.983  71.679  1.00  0.00    -0.230 A  
ENDBRANCH   4   5
TORSDOF 1
ENDMDL
MODEL      132
REMARK 921   NORMALIZED FREE ENERGY PREDICTED BY IDOCK:   -2.33 KCAL/MOL
REMARK 922        TOTAL FREE ENERGY PREDICTED BY IDOCK:   -2.60 KCAL/MOL
REMARK 923 INTER-LIGAND FREE ENERGY PREDICTED BY IDOCK:   -2.49 KCAL/MOL
REMARK 924 INTRA-LIGAND FREE ENERGY PREDICTED BY IDOCK:   -0.12 KCAL/MOL
REMARK 927      BINDING AFFINITY PREDICTED BY RF-SCORE:    0.00 PKD
ROOT
HETATM    1  O   UNL     1      -8.111   8.652  73.972  1.00  0.00    -0.385 OA 
HETATM    2  C   UNL     1      -8.866   7.764  73.597  1.00  0.00    -0.266 C  
HETATM    3  C   UNL     1      -9.010   7.431  72.168  1.00  0.00    -0.154 C  
HETATM    4  C   UNL     1      -9.846   6.457  71.789  1.00  0.00    -0.178 C  
ENDROOT
BRANCH   4   5
HETATM    5  C   UNL     1      -9.989   6.098  70.378  1.00  0.00    -0.223 A  
HETATM    6  C   UNL     1      -9.087   5.206  69.790  1.00  0.00    -0.154 A  
HETATM    7  C   UNL     1      -9.211   4.870  68.441  1.00  0.00    -0.157 A  
HETATM    8  C   UNL     1     -10.235   5.425  67.675  1.00  0.00    -0.236 A  
HETATM    9  C   UNL     1     -11.135   6.318  68.257  1.00  0.00    -0.364 A  
HETATM   10  C   UNL     1     -11.012   6.656  69.606  1.00  0.00    -0.367 A  
ENDBRANCH   4   5
TORSDOF 1
ENDMDL
MODEL      133
REMARK 921   NORMALIZED FREE ENERGY PREDICTED BY IDOCK:   -2.31 KCAL/MOL
REMARK 922        TOTAL FREE ENERGY PREDICTED BY IDOCK:   -2.58 KCAL/MOL
REMARK 923 INTER-LIGAND FREE ENERGY PREDICTED BY IDOCK:   -2.45 KCAL/MOL
REMARK 924 INTRA-LIGAND FREE ENERGY PREDICTED BY IDOCK:   -0.13 KCAL/MOL
REMARK 927      BINDING AFFINITY PREDICTED BY RF-SCORE:    0.00 PKD
ROOT
HETATM    1  O   UNL     1      -6.483   2.566  72.963  1.00  0.00    -0.013 OA 
HETATM    2  C   UNL     1      -7.307   2.640  72.061  1.00  0.00    -0.043 C  
HETATM    3  C   UNL     1      -8.266   3.758  71.986  1.00  0.00    -0.076 C  
HETATM    4  C   UNL     1      -9.158   3.809  70.989  1.00  0.00    -0.180 C  
ENDROOT
BRANCH   4   5
HETATM    5  C   UNL     1     -10.104   4.920  70.888  1.00  0.00    -0.292 A  
HETATM    6  C   UNL     1     -10.641   5.489  72.048  1.00  0.00    -0.284 A  
HETATM    7  C   UNL     1     -11.553   6.541  71.957  1.00  0.00    -0.354 A  
HETATM    8  C   UNL     1     -11.934   7.028  70.707  1.00  0.00    -0.392 A  
HETATM    9  C   UNL     1     -11.404   6.462  69.547  1.00  0.00    -0.460 A  
HETATM   10  C   UNL     1     -10.492   5.408  69.636  1.00  0.00    -0.361 A  
ENDBRANCH   4   5
TORSDOF 1
ENDMDL
MODEL      134
REMARK 921   NORMALIZED FREE ENERGY PREDICTED BY IDOCK:   -2.30 KCAL/MOL
REMARK 922        TOTAL FREE ENERGY PREDICTED BY IDOCK:   -2.57 KCAL/MOL
REMARK 923 INTER-LIGAND FREE ENERGY PREDICTED BY IDOCK:   -2.44 KCAL/MOL
REMARK 924 INTRA-LIGAND FREE ENERGY PREDICTED BY IDOCK:   -0.13 KCAL/MOL
REMARK 927      BINDING AFFINITY PREDICTED BY RF-SCORE:    0.00 PKD
ROOT
HETATM    1  O   UNL     1     -13.005  13.993  65.499  1.00  0.00    -0.681 OA 
HETATM    2  C   UNL     1     -12.105  13.174  65.369  1.00  0.00    -0.433 C  
HETATM    3  C   UNL     1     -10.986  13.104  66.327  1.00  0.00    -0.295 C  
HETATM    4  C   UNL     1     -10.014  12.199  66.157  1.00  0.00    -0.253 C  
ENDROOT
BRANCH   4   5
HETATM    5  C   UNL     1      -8.907  12.102  67.107  1.00  0.00    -0.191 A  
HETATM    6  C   UNL     1      -8.370  10.851  67.429  1.00  0.00    -0.117 A  
HETATM    7  C   UNL     1      -7.321  10.752  68.344  1.00  0.00    -0.092 A  
HETATM    8  C   UNL     1      -6.805  11.901  68.942  1.00  0.00    -0.103 A  
HETATM    9  C   UNL     1      -7.339  13.151  68.626  1.00  0.00    -0.102 A  
HETATM   10  C   UNL     1      -8.389  13.252  67.712  1.00  0.00    -0.171 A  
ENDBRANCH   4   5
TORSDOF 1
ENDMDL
MODEL      135
REMARK 921   NORMALIZED FREE ENERGY PREDICTED BY IDOCK:   -2.29 KCAL/MOL
REMARK 922        TOTAL FREE ENERGY PREDICTED BY IDOCK:   -2.56 KCAL/MOL
REMARK 923 INTER-LIGAND FREE ENERGY PREDICTED BY IDOCK:   -2.44 KCAL/MOL
REMARK 924 INTRA-LIGAND FREE ENERGY PREDICTED BY IDOCK:   -0.12 KCAL/MOL
REMARK 927      BINDING AFFINITY PREDICTED BY RF-SCORE:    0.00 PKD
ROOT
HETATM    1  O   UNL     1      -8.377   8.620  73.990  1.00  0.00    -0.325 OA 
HETATM    2  C   UNL     1      -8.271   7.785  73.102  1.00  0.00    -0.149 C  
HETATM    3  C   UNL     1      -8.965   7.942  71.811  1.00  0.00    -0.172 C  
HETATM    4  C   UNL     1      -8.832   7.010  70.861  1.00  0.00    -0.148 C  
ENDROOT
BRANCH   4   5
HETATM    5  C   UNL     1      -9.497   7.158  69.567  1.00  0.00    -0.151 A  
HETATM    6  C   UNL     1     -10.289   6.120  69.064  1.00  0.00    -0.263 A  
HETATM    7  C   UNL     1     -10.916   6.252  67.825  1.00  0.00    -0.427 A  
HETATM    8  C   UNL     1     -10.755   7.421  67.082  1.00  0.00    -0.400 A  
HETATM    9  C   UNL     1      -9.965   8.458  67.577  1.00  0.00    -0.259 A  
HETATM   10  C   UNL     1      -9.335   8.328  68.817  1.00  0.00    -0.143 A  
ENDBRANCH   4   5
TORSDOF 1
ENDMDL
MODEL      136
REMARK 921   NORMALIZED FREE ENERGY PREDICTED BY IDOCK:   -2.25 KCAL/MOL
REMARK 922        TOTAL FREE ENERGY PREDICTED BY IDOCK:   -2.51 KCAL/MOL
REMARK 923 INTER-LIGAND FREE ENERGY PREDICTED BY IDOCK:   -2.38 KCAL/MOL
REMARK 924 INTRA-LIGAND FREE ENERGY PREDICTED BY IDOCK:   -0.13 KCAL/MOL
REMARK 927      BINDING AFFINITY PREDICTED BY RF-SCORE:    0.00 PKD
ROOT
HETATM    1  O   UNL     1     -11.717   5.396  72.854  1.00  0.00    -0.297 OA 
HETATM    2  C   UNL     1     -12.030   6.440  72.296  1.00  0.00    -0.244 C  
HETATM    3  C   UNL     1     -11.049   7.223  71.524  1.00  0.00    -0.264 C  
HETATM    4  C   UNL     1     -11.421   8.363  70.928  1.00  0.00    -0.295 C  
ENDROOT
BRANCH   4   5
HETATM    5  C   UNL     1     -10.466   9.143  70.141  1.00  0.00    -0.249 A  
HETATM    6  C   UNL     1      -9.112   9.149  70.491  1.00  0.00    -0.284 A  
HETATM    7  C   UNL     1      -8.199   9.901  69.750  1.00  0.00    -0.191 A  
HETATM    8  C   UNL     1      -8.635  10.651  68.659  1.00  0.00    -0.144 A  
HETATM    9  C   UNL     1      -9.985  10.650  68.307  1.00  0.00    -0.173 A  
HETATM   10  C   UNL     1     -10.901   9.899  69.048  1.00  0.00    -0.242 A  
ENDBRANCH   4   5
TORSDOF 1
ENDMDL
MODEL      137
REMARK 921   NORMALIZED FREE ENERGY PREDICTED BY IDOCK:   -2.23 KCAL/MOL
REMARK 922        TOTAL FREE ENERGY PREDICTED BY IDOCK:   -2.49 KCAL/MOL
REMARK 923 INTER-LIGAND FREE ENERGY PREDICTED BY IDOCK:   -2.36 KCAL/MOL
REMARK 924 INTRA-LIGAND FREE ENERGY PREDICTED BY IDOCK:   -0.13 KCAL/MOL
REMARK 927      BINDING AFFINITY PREDICTED BY RF-SCORE:    0.00 PKD
ROOT
HETATM    1  O   UNL     1      -8.163   8.766  73.643  1.00  0.00    -0.366 OA 
HETATM    2  C   UNL     1      -8.249   8.235  72.544  1.00  0.00    -0.164 C  
HETATM    3  C   UNL     1      -8.805   8.956  71.384  1.00  0.00    -0.283 C  
HETATM    4  C   UNL     1      -8.889   8.348  70.194  1.00  0.00    -0.141 C  
ENDROOT
BRANCH   4   5
HETATM    5  C   UNL     1      -9.418   9.053  69.028  1.00  0.00    -0.155 A  
HETATM    6  C   UNL     1      -9.733  10.413  69.117  1.00  0.00    -0.234 A  
HETATM    7  C   UNL     1     -10.250  11.088  68.010  1.00  0.00    -0.201 A  
HETATM    8  C   UNL     1     -10.455  10.408  66.811  1.00  0.00    -0.287 A  
HETATM    9  C   UNL     1     -10.145   9.051  66.718  1.00  0.00    -0.344 A  
HETATM   10  C   UNL     1      -9.629   8.373  67.824  1.00  0.00    -0.185 A  
ENDBRANCH   4   5
TORSDOF 1
ENDMDL
MODEL      138
REMARK 921   NORMALIZED FREE ENERGY PREDICTED BY IDOCK:   -2.17 KCAL/MOL
REMARK 922        TOTAL FREE ENERGY PREDICTED BY IDOCK:   -2.42 KCAL/MOL
REMARK 923 INTER-LIGAND FREE ENERGY PREDICTED BY IDOCK:   -2.29 KCAL/MOL
REMARK 924 INTRA-LIGAND FREE ENERGY PREDICTED BY IDOCK:   -0.13 KCAL/MOL
REMARK 927      BINDING AFFINITY PREDICTED BY RF-SCORE:    0.00 PKD
ROOT
HETATM    1  O   UNL     1      -5.400  15.636  69.411  1.00  0.00    -0.104 OA 
HETATM    2  C   UNL     1      -6.301  16.081  68.712  1.00  0.00    -0.117 C  
HETATM    3  C   UNL     1      -7.335  15.200  68.138  1.00  0.00    -0.117 C  
HETATM    4  C   UNL     1      -8.305  15.717  67.374  1.00  0.00    -0.198 C  
ENDROOT
BRANCH   4   5
HETATM    5  C   UNL     1      -9.351  14.862  66.813  1.00  0.00    -0.270 A  
HETATM    6  C   UNL     1      -9.170  13.476  66.765  1.00  0.00    -0.248 A  
HETATM    7  C   UNL     1     -10.159  12.657  66.219  1.00  0.00    -0.264 A  
HETATM    8  C   UNL     1     -11.333  13.219  65.719  1.00  0.00    -0.328 A  
HETATM    9  C   UNL     1     -11.518  14.601  65.762  1.00  0.00    -0.338 A  
HETATM   10  C   UNL     1     -10.528  15.422  66.307  1.00  0.00    -0.310 A  
ENDBRANCH   4   5
TORSDOF 1
ENDMDL
MODEL      139
REMARK 921   NORMALIZED FREE ENERGY PREDICTED BY IDOCK:   -2.15 KCAL/MOL
REMARK 922        TOTAL FREE ENERGY PREDICTED BY IDOCK:   -2.41 KCAL/MOL
REMARK 923 INTER-LIGAND FREE ENERGY PREDICTED BY IDOCK:   -2.29 KCAL/MOL
REMARK 924 INTRA-LIGAND FREE ENERGY PREDICTED BY IDOCK:   -0.12 KCAL/MOL
REMARK 927      BINDING AFFINITY PREDICTED BY RF-SCORE:    0.00 PKD
ROOT
HETATM    1  O   UNL     1     -11.151   7.205  67.674  1.00  0.00    -0.175 OA 
HETATM    2  C   UNL     1     -10.630   6.224  68.188  1.00  0.00    -0.257 C  
HETATM    3  C   UNL     1     -10.531   6.085  69.653  1.00  0.00    -0.325 C  
HETATM    4  C   UNL     1      -9.952   5.002  70.185  1.00  0.00    -0.328 C  
ENDROOT
BRANCH   4   5
HETATM    5  C   UNL     1      -9.862   4.837  71.635  1.00  0.00    -0.248 A  
HETATM    6  C   UNL     1      -8.644   4.480  72.224  1.00  0.00    -0.118 A  
HETATM    7  C   UNL     1      -8.556   4.310  73.606  1.00  0.00    -0.092 A  
HETATM    8  C   UNL     1      -9.683   4.495  74.406  1.00  0.00    -0.168 A  
HETATM    9  C   UNL     1     -10.900   4.848  73.824  1.00  0.00    -0.376 A  
HETATM   10  C   UNL     1     -10.992   5.018  72.440  1.00  0.00    -0.198 A  
ENDBRANCH   4   5
TORSDOF 1
ENDMDL
MODEL      140
REMARK 921   NORMALIZED FREE ENERGY PREDICTED BY IDOCK:   -2.14 KCAL/MOL
REMARK 922        TOTAL FREE ENERGY PREDICTED BY IDOCK:   -2.40 KCAL/MOL
REMARK 923 INTER-LIGAND FREE ENERGY PREDICTED BY IDOCK:   -2.27 KCAL/MOL
REMARK 924 INTRA-LIGAND FREE ENERGY PREDICTED BY IDOCK:   -0.13 KCAL/MOL
REMARK 927      BINDING AFFINITY PREDICTED BY RF-SCORE:    0.00 PKD
ROOT
HETATM    1  O   UNL     1      -7.227  12.230  67.199  1.00  0.00    -0.144 OA 
HETATM    2  C   UNL     1      -6.870  12.943  68.127  1.00  0.00    -0.097 C  
HETATM    3  C   UNL     1      -7.035  14.408  68.079  1.00  0.00    -0.149 C  
HETATM    4  C   UNL     1      -6.632  15.161  69.109  1.00  0.00    -0.128 C  
ENDROOT
BRANCH   4   5
HETATM    5  C   UNL     1      -6.805  16.613  69.088  1.00  0.00    -0.224 A  
HETATM    6  C   UNL     1      -5.859  17.439  69.704  1.00  0.00    -0.242 A  
HETATM    7  C   UNL     1      -6.026  18.825  69.697  1.00  0.00    -0.274 A  
HETATM    8  C   UNL     1      -7.139  19.390  69.076  1.00  0.00    -0.397 A  
HETATM    9  C   UNL     1      -8.087  18.571  68.463  1.00  0.00    -0.354 A  
HETATM   10  C   UNL     1      -7.922  17.184  68.470  1.00  0.00    -0.259 A  
ENDBRANCH   4   5
TORSDOF 1
ENDMDL
MODEL      141
REMARK 921   NORMALIZED FREE ENERGY PREDICTED BY IDOCK:   -2.12 KCAL/MOL
REMARK 922        TOTAL FREE ENERGY PREDICTED BY IDOCK:   -2.38 KCAL/MOL
REMARK 923 INTER-LIGAND FREE ENERGY PREDICTED BY IDOCK:   -2.25 KCAL/MOL
REMARK 924 INTRA-LIGAND FREE ENERGY PREDICTED BY IDOCK:   -0.12 KCAL/MOL
REMARK 927      BINDING AFFINITY PREDICTED BY RF-SCORE:    0.00 PKD
ROOT
HETATM    1  O   UNL     1     -12.337   6.642  71.274  1.00  0.00    -0.352 OA 
HETATM    2  C   UNL     1     -11.233   7.029  70.913  1.00  0.00    -0.282 C  
HETATM    3  C   UNL     1     -10.984   7.451  69.522  1.00  0.00    -0.155 C  
HETATM    4  C   UNL     1      -9.765   7.866  69.157  1.00  0.00    -0.162 C  
ENDROOT
BRANCH   4   5
HETATM    5  C   UNL     1      -9.503   8.308  67.787  1.00  0.00    -0.171 A  
HETATM    6  C   UNL     1     -10.300   9.302  67.210  1.00  0.00    -0.332 A  
HETATM    7  C   UNL     1     -10.062   9.719  65.899  1.00  0.00    -0.314 A  
HETATM    8  C   UNL     1      -9.029   9.144  65.161  1.00  0.00    -0.238 A  
HETATM    9  C   UNL     1      -8.233   8.150  65.731  1.00  0.00    -0.126 A  
HETATM   10  C   UNL     1      -8.470   7.731  67.042  1.00  0.00    -0.124 A  
ENDBRANCH   4   5
TORSDOF 1
ENDMDL
MODEL      142
REMARK 921   NORMALIZED FREE ENERGY PREDICTED BY IDOCK:   -2.12 KCAL/MOL
REMARK 922        TOTAL FREE ENERGY PREDICTED BY IDOCK:   -2.37 KCAL/MOL
REMARK 923 INTER-LIGAND FREE ENERGY PREDICTED BY IDOCK:   -2.25 KCAL/MOL
REMARK 924 INTRA-LIGAND FREE ENERGY PREDICTED BY IDOCK:   -0.13 KCAL/MOL
REMARK 927      BINDING AFFINITY PREDICTED BY RF-SCORE:    0.00 PKD
ROOT
HETATM    1  O   UNL     1     -11.676   7.957  70.682  1.00  0.00    -0.256 OA 
HETATM    2  C   UNL     1     -11.964   7.188  71.590  1.00  0.00    -0.318 C  
HETATM    3  C   UNL     1     -11.121   6.019  71.902  1.00  0.00    -0.331 C  
HETATM    4  C   UNL     1     -11.464   5.194  72.899  1.00  0.00    -0.329 C  
ENDROOT
BRANCH   4   5
HETATM    5  C   UNL     1     -10.631   4.040  73.236  1.00  0.00    -0.270 A  
HETATM    6  C   UNL     1      -9.238   4.136  73.151  1.00  0.00    -0.123 A  
HETATM    7  C   UNL     1      -8.439   3.034  73.461  1.00  0.00    -0.073 A  
HETATM    8  C   UNL     1      -9.028   1.833  73.855  1.00  0.00    -0.058 A  
HETATM    9  C   UNL     1     -10.416   1.733  73.939  1.00  0.00    -0.178 A  
HETATM   10  C   UNL     1     -11.218   2.833  73.629  1.00  0.00    -0.311 A  
ENDBRANCH   4   5
TORSDOF 1
ENDMDL
MODEL      143
REMARK 921   NORMALIZED FREE ENERGY PREDICTED BY IDOCK:   -2.10 KCAL/MOL
REMARK 922        TOTAL FREE ENERGY PREDICTED BY IDOCK:   -2.36 KCAL/MOL
REMARK 923 INTER-LIGAND FREE ENERGY PREDICTED BY IDOCK:   -2.23 KCAL/MOL
REMARK 924 INTRA-LIGAND FREE ENERGY PREDICTED BY IDOCK:   -0.13 KCAL/MOL
REMARK 927      BINDING AFFINITY PREDICTED BY RF-SCORE:    0.00 PKD
ROOT
HETATM    1  O   UNL     1     -13.361   7.093  71.210  1.00  0.00    -0.368 OA 
HETATM    2  C   UNL     1     -12.309   7.205  71.825  1.00  0.00    -0.350 C  
HETATM    3  C   UNL     1     -11.134   7.866  71.227  1.00  0.00    -0.278 C  
HETATM    4  C   UNL     1      -9.997   7.970  71.924  1.00  0.00    -0.255 C  
ENDROOT
BRANCH   4   5
HETATM    5  C   UNL     1      -8.828   8.640  71.354  1.00  0.00    -0.276 A  
HETATM    6  C   UNL     1      -8.993   9.607  70.357  1.00  0.00    -0.239 A  
HETATM    7  C   UNL     1      -7.880  10.240  69.802  1.00  0.00    -0.151 A  
HETATM    8  C   UNL     1      -6.598   9.909  70.239  1.00  0.00    -0.116 A  
HETATM    9  C   UNL     1      -6.428   8.943  71.231  1.00  0.00    -0.077 A  
HETATM   10  C   UNL     1      -7.540   8.307  71.787  1.00  0.00    -0.119 A  
ENDBRANCH   4   5
TORSDOF 1
ENDMDL
MODEL      144
REMARK 921   NORMALIZED FREE ENERGY PREDICTED BY IDOCK:   -2.10 KCAL/MOL
REMARK 922        TOTAL FREE ENERGY PREDICTED BY IDOCK:   -2.35 KCAL/MOL
REMARK 923 INTER-LIGAND FREE ENERGY PREDICTED BY IDOCK:   -2.23 KCAL/MOL
REMARK 924 INTRA-LIGAND FREE ENERGY PREDICTED BY IDOCK:   -0.12 KCAL/MOL
REMARK 927      BINDING AFFINITY PREDICTED BY RF-SCORE:    0.00 PKD
ROOT
HETATM    1  O   UNL     1      -9.826   7.284  72.977  1.00  0.00    -0.174 OA 
HETATM    2  C   UNL     1     -10.521   6.850  72.068  1.00  0.00    -0.205 C  
HETATM    3  C   UNL     1      -9.934   6.099  70.944  1.00  0.00    -0.223 C  
HETATM    4  C   UNL     1     -10.720   5.639  69.963  1.00  0.00    -0.390 C  
ENDROOT
BRANCH   4   5
HETATM    5  C   UNL     1     -10.159   4.875  68.849  1.00  0.00    -0.185 A  
HETATM    6  C   UNL     1      -9.364   3.752  69.102  1.00  0.00    -0.243 A  
HETATM    7  C   UNL     1      -8.816   3.027  68.043  1.00  0.00    -0.162 A  
HETATM    8  C   UNL     1      -9.060   3.420  66.728  1.00  0.00    -0.183 A  
HETATM    9  C   UNL     1      -9.849   4.541  66.470  1.00  0.00    -0.244 A  
HETATM   10  C   UNL     1     -10.398   5.269  67.528  1.00  0.00    -0.221 A  
ENDBRANCH   4   5
TORSDOF 1
ENDMDL
MODEL      145
REMARK 921   NORMALIZED FREE ENERGY PREDICTED BY IDOCK:   -2.07 KCAL/MOL
REMARK 922        TOTAL FREE ENERGY PREDICTED BY IDOCK:   -2.33 KCAL/MOL
REMARK 923 INTER-LIGAND FREE ENERGY PREDICTED BY IDOCK:   -2.20 KCAL/MOL
REMARK 924 INTRA-LIGAND FREE ENERGY PREDICTED BY IDOCK:   -0.13 KCAL/MOL
REMARK 927      BINDING AFFINITY PREDICTED BY RF-SCORE:    0.00 PKD
ROOT
HETATM    1  O   UNL     1     -11.800  10.964  67.677  1.00  0.00    -0.572 OA 
HETATM    2  C   UNL     1     -10.817  10.247  67.808  1.00  0.00    -0.292 C  
HETATM    3  C   UNL     1     -10.789   9.155  68.799  1.00  0.00    -0.096 C  
HETATM    4  C   UNL     1      -9.697   8.390  68.922  1.00  0.00    -0.168 C  
ENDROOT
BRANCH   4   5
HETATM    5  C   UNL     1      -9.657   7.290  69.885  1.00  0.00    -0.163 A  
HETATM    6  C   UNL     1     -10.366   7.388  71.087  1.00  0.00    -0.209 A  
HETATM    7  C   UNL     1     -10.322   6.347  72.015  1.00  0.00    -0.222 A  
HETATM    8  C   UNL     1      -9.570   5.204  71.746  1.00  0.00    -0.199 A  
HETATM    9  C   UNL     1      -8.860   5.102  70.549  1.00  0.00    -0.142 A  
HETATM   10  C   UNL     1      -8.901   6.144  69.620  1.00  0.00    -0.134 A  
ENDBRANCH   4   5
TORSDOF 1
ENDMDL
MODEL      146
REMARK 921   NORMALIZED FREE ENERGY PREDICTED BY IDOCK:   -2.04 KCAL/MOL
REMARK 922        TOTAL FREE ENERGY PREDICTED BY IDOCK:   -2.29 KCAL/MOL
REMARK 923 INTER-LIGAND FREE ENERGY PREDICTED BY IDOCK:   -2.16 KCAL/MOL
REMARK 924 INTRA-LIGAND FREE ENERGY PREDICTED BY IDOCK:   -0.13 KCAL/MOL
REMARK 927      BINDING AFFINITY PREDICTED BY RF-SCORE:    0.00 PKD
ROOT
HETATM    1  O   UNL     1      -7.397   4.603  65.877  1.00  0.00    -0.075 OA 
HETATM    2  C   UNL     1      -7.613   5.700  66.375  1.00  0.00    -0.091 C  
HETATM    3  C   UNL     1      -8.635   5.879  67.424  1.00  0.00    -0.106 C  
HETATM    4  C   UNL     1      -8.850   7.092  67.947  1.00  0.00    -0.124 C  
ENDROOT
BRANCH   4   5
HETATM    5  C   UNL     1      -9.845   7.286  69.002  1.00  0.00    -0.165 A  
HETATM    6  C   UNL     1     -10.800   6.295  69.253  1.00  0.00    -0.406 A  
HETATM    7  C   UNL     1     -11.758   6.481  70.250  1.00  0.00    -0.430 A  
HETATM    8  C   UNL     1     -11.768   7.657  70.999  1.00  0.00    -0.306 A  
HETATM    9  C   UNL     1     -10.820   8.649  70.750  1.00  0.00    -0.272 A  
HETATM   10  C   UNL     1      -9.860   8.466  69.753  1.00  0.00    -0.187 A  
ENDBRANCH   4   5
TORSDOF 1
ENDMDL
MODEL      147
REMARK 921   NORMALIZED FREE ENERGY PREDICTED BY IDOCK:   -1.96 KCAL/MOL
REMARK 922        TOTAL FREE ENERGY PREDICTED BY IDOCK:   -2.21 KCAL/MOL
REMARK 923 INTER-LIGAND FREE ENERGY PREDICTED BY IDOCK:   -2.08 KCAL/MOL
REMARK 924 INTRA-LIGAND FREE ENERGY PREDICTED BY IDOCK:   -0.13 KCAL/MOL
REMARK 927      BINDING AFFINITY PREDICTED BY RF-SCORE:    0.00 PKD
ROOT
HETATM    1  O   UNL     1     -12.318  13.159  69.378  1.00  0.00    -0.187 OA 
HETATM    2  C   UNL     1     -11.393  12.503  68.918  1.00  0.00    -0.297 C  
HETATM    3  C   UNL     1     -10.962  11.239  69.544  1.00  0.00    -0.249 C  
HETATM    4  C   UNL     1      -9.944  10.545  69.020  1.00  0.00    -0.223 C  
ENDROOT
BRANCH   4   5
HETATM    5  C   UNL     1      -9.515   9.279  69.614  1.00  0.00    -0.188 A  
HETATM    6  C   UNL     1      -9.122   8.218  68.792  1.00  0.00    -0.144 A  
HETATM    7  C   UNL     1      -8.723   7.005  69.354  1.00  0.00    -0.133 A  
HETATM    8  C   UNL     1      -8.717   6.846  70.739  1.00  0.00    -0.145 A  
HETATM    9  C   UNL     1      -9.111   7.900  71.564  1.00  0.00    -0.169 A  
HETATM   10  C   UNL     1      -9.511   9.115  71.003  1.00  0.00    -0.344 A  
ENDBRANCH   4   5
TORSDOF 1
ENDMDL
MODEL      148
REMARK 921   NORMALIZED FREE ENERGY PREDICTED BY IDOCK:   -1.95 KCAL/MOL
REMARK 922        TOTAL FREE ENERGY PREDICTED BY IDOCK:   -2.19 KCAL/MOL
REMARK 923 INTER-LIGAND FREE ENERGY PREDICTED BY IDOCK:   -2.06 KCAL/MOL
REMARK 924 INTRA-LIGAND FREE ENERGY PREDICTED BY IDOCK:   -0.13 KCAL/MOL
REMARK 927      BINDING AFFINITY PREDICTED BY RF-SCORE:    0.00 PKD
ROOT
HETATM    1  O   UNL     1      -5.885  11.615  66.228  1.00  0.00    -0.187 OA 
HETATM    2  C   UNL     1      -6.776  12.102  66.911  1.00  0.00     0.006 C  
HETATM    3  C   UNL     1      -7.721  11.254  67.661  1.00  0.00    -0.115 C  
HETATM    4  C   UNL     1      -8.687  11.817  68.396  1.00  0.00    -0.155 C  
ENDROOT
BRANCH   4   5
HETATM    5  C   UNL     1      -9.622  10.993  69.162  1.00  0.00    -0.081 A  
HETATM    6  C   UNL     1      -9.192   9.784  69.721  1.00  0.00    -0.248 A  
HETATM    7  C   UNL     1     -10.083   8.989  70.442  1.00  0.00    -0.248 A  
HETATM    8  C   UNL     1     -11.406   9.396  70.608  1.00  0.00    -0.352 A  
HETATM    9  C   UNL     1     -11.840  10.599  70.051  1.00  0.00    -0.403 A  
HETATM   10  C   UNL     1     -10.951  11.397  69.328  1.00  0.00    -0.282 A  
ENDBRANCH   4   5
TORSDOF 1
ENDMDL
MODEL      149
REMARK 921   NORMALIZED FREE ENERGY PREDICTED BY IDOCK:   -1.89 KCAL/MOL
REMARK 922        TOTAL FREE ENERGY PREDICTED BY IDOCK:   -2.13 KCAL/MOL
REMARK 923 INTER-LIGAND FREE ENERGY PREDICTED BY IDOCK:   -2.00 KCAL/MOL
REMARK 924 INTRA-LIGAND FREE ENERGY PREDICTED BY IDOCK:   -0.12 KCAL/MOL
REMARK 927      BINDING AFFINITY PREDICTED BY RF-SCORE:    0.00 PKD
ROOT
HETATM    1  O   UNL     1      -9.322   4.644  73.990  1.00  0.00    -0.116 OA 
HETATM    2  C   UNL     1     -10.091   5.505  73.583  1.00  0.00    -0.196 C  
HETATM    3  C   UNL     1      -9.687   6.466  72.540  1.00  0.00    -0.168 C  
HETATM    4  C   UNL     1     -10.549   7.399  72.119  1.00  0.00    -0.256 C  
ENDROOT
BRANCH   4   5
HETATM    5  C   UNL     1     -10.173   8.348  71.071  1.00  0.00    -0.245 A  
HETATM    6  C   UNL     1     -11.060   8.622  70.025  1.00  0.00    -0.161 A  
HETATM    7  C   UNL     1     -10.701   9.517  69.017  1.00  0.00    -0.224 A  
HETATM    8  C   UNL     1      -9.455  10.141  69.048  1.00  0.00    -0.195 A  
HETATM    9  C   UNL     1      -8.565   9.869  70.088  1.00  0.00    -0.141 A  
HETATM   10  C   UNL     1      -8.922   8.973  71.098  1.00  0.00    -0.303 A  
ENDBRANCH   4   5
TORSDOF 1
ENDMDL
MODEL      150
REMARK 921   NORMALIZED FREE ENERGY PREDICTED BY IDOCK:   -1.87 KCAL/MOL
REMARK 922        TOTAL FREE ENERGY PREDICTED BY IDOCK:   -2.11 KCAL/MOL
REMARK 923 INTER-LIGAND FREE ENERGY PREDICTED BY IDOCK:   -1.98 KCAL/MOL
REMARK 924 INTRA-LIGAND FREE ENERGY PREDICTED BY IDOCK:   -0.13 KCAL/MOL
REMARK 927      BINDING AFFINITY PREDICTED BY RF-SCORE:    0.00 PKD
ROOT
HETATM    1  O   UNL     1      -5.437  11.261  65.807  1.00  0.00    -0.212 OA 
HETATM    2  C   UNL     1      -6.557  11.082  66.267  1.00  0.00    -0.105 C  
HETATM    3  C   UNL     1      -7.152   9.735  66.339  1.00  0.00    -0.094 C  
HETATM    4  C   UNL     1      -8.381   9.572  66.844  1.00  0.00    -0.116 C  
ENDROOT
BRANCH   4   5
HETATM    5  C   UNL     1      -8.980   8.241  66.942  1.00  0.00    -0.169 A  
HETATM    6  C   UNL     1     -10.372   8.101  66.957  1.00  0.00    -0.403 A  
HETATM    7  C   UNL     1     -10.948   6.834  67.062  1.00  0.00    -0.439 A  
HETATM    8  C   UNL     1     -10.137   5.704  67.154  1.00  0.00    -0.215 A  
HETATM    9  C   UNL     1      -8.749   5.839  67.142  1.00  0.00    -0.108 A  
HETATM   10  C   UNL     1      -8.170   7.105  67.038  1.00  0.00    -0.117 A  
ENDBRANCH   4   5
TORSDOF 1
ENDMDL
MODEL      151
REMARK 921   NORMALIZED FREE ENERGY PREDICTED BY IDOCK:   -1.82 KCAL/MOL
REMARK 922        TOTAL FREE ENERGY PREDICTED BY IDOCK:   -2.06 KCAL/MOL
REMARK 923 INTER-LIGAND FREE ENERGY PREDICTED BY IDOCK:   -1.94 KCAL/MOL
REMARK 924 INTRA-LIGAND FREE ENERGY PREDICTED BY IDOCK:   -0.13 KCAL/MOL
REMARK 927      BINDING AFFINITY PREDICTED BY RF-SCORE:    0.00 PKD
ROOT
HETATM    1  O   UNL     1      -9.963   6.779  71.873  1.00  0.00    -0.177 OA 
HETATM    2  C   UNL     1     -10.562   7.400  71.004  1.00  0.00    -0.224 C  
HETATM    3  C   UNL     1      -9.953   8.563  70.333  1.00  0.00    -0.203 C  
HETATM    4  C   UNL     1     -10.634   9.223  69.389  1.00  0.00    -0.234 C  
ENDROOT
BRANCH   4   5
HETATM    5  C   UNL     1     -10.039  10.367  68.697  1.00  0.00    -0.188 A  
HETATM    6  C   UNL     1      -8.701  10.320  68.294  1.00  0.00    -0.126 A  
HETATM    7  C   UNL     1      -8.125  11.414  67.645  1.00  0.00    -0.124 A  
HETATM    8  C   UNL     1      -8.884  12.557  67.397  1.00  0.00    -0.187 A  
HETATM    9  C   UNL     1     -10.218  12.609  67.800  1.00  0.00    -0.222 A  
HETATM   10  C   UNL     1     -10.796  11.516  68.450  1.00  0.00    -0.250 A  
ENDBRANCH   4   5
TORSDOF 1
ENDMDL
MODEL      152
REMARK 921   NORMALIZED FREE ENERGY PREDICTED BY IDOCK:   -1.80 KCAL/MOL
REMARK 922        TOTAL FREE ENERGY PREDICTED BY IDOCK:   -2.04 KCAL/MOL
REMARK 923 INTER-LIGAND FREE ENERGY PREDICTED BY IDOCK:   -1.91 KCAL/MOL
REMARK 924 INTRA-LIGAND FREE ENERGY PREDICTED BY IDOCK:   -0.13 KCAL/MOL
REMARK 927      BINDING AFFINITY PREDICTED BY RF-SCORE:    0.00 PKD
ROOT
HETATM    1  O   UNL     1      -6.681   6.691  73.143  1.00  0.00    -0.067 OA 
HETATM    2  C   UNL     1      -6.802   6.934  71.949  1.00  0.00    -0.062 C  
HETATM    3  C   UNL     1      -7.943   7.716  71.436  1.00  0.00    -0.094 C  
HETATM    4  C   UNL     1      -8.049   7.962  70.124  1.00  0.00    -0.116 C  
ENDROOT
BRANCH   4   5
HETATM    5  C   UNL     1      -9.162   8.752  69.599  1.00  0.00    -0.150 A  
HETATM    6  C   UNL     1      -9.518   8.647  68.250  1.00  0.00    -0.150 A  
HETATM    7  C   UNL     1     -10.572   9.407  67.741  1.00  0.00    -0.317 A  
HETATM    8  C   UNL     1     -11.274  10.275  68.576  1.00  0.00    -0.271 A  
HETATM    9  C   UNL     1     -10.921  10.386  69.921  1.00  0.00    -0.364 A  
HETATM   10  C   UNL     1      -9.866   9.627  70.433  1.00  0.00    -0.315 A  
ENDBRANCH   4   5
TORSDOF 1
ENDMDL
MODEL      153
REMARK 921   NORMALIZED FREE ENERGY PREDICTED BY IDOCK:   -1.79 KCAL/MOL
REMARK 922        TOTAL FREE ENERGY PREDICTED BY IDOCK:   -2.03 KCAL/MOL
REMARK 923 INTER-LIGAND FREE ENERGY PREDICTED BY IDOCK:   -1.90 KCAL/MOL
REMARK 924 INTRA-LIGAND FREE ENERGY PREDICTED BY IDOCK:   -0.12 KCAL/MOL
REMARK 927      BINDING AFFINITY PREDICTED BY RF-SCORE:    0.00 PKD
ROOT
HETATM    1  O   UNL     1      -9.705   9.458  71.458  1.00  0.00    -0.226 OA 
HETATM    2  C   UNL     1     -10.298   8.497  70.986  1.00  0.00    -0.209 C  
HETATM    3  C   UNL     1      -9.773   7.771  69.814  1.00  0.00    -0.176 C  
HETATM    4  C   UNL     1     -10.446   6.726  69.318  1.00  0.00    -0.241 C  
ENDROOT
BRANCH   4   5
HETATM    5  C   UNL     1      -9.932   5.981  68.168  1.00  0.00    -0.168 A  
HETATM    6  C   UNL     1     -10.797   5.606  67.135  1.00  0.00    -0.242 A  
HETATM    7  C   UNL     1     -10.313   4.886  66.042  1.00  0.00    -0.307 A  
HETATM    8  C   UNL     1      -8.965   4.537  65.977  1.00  0.00    -0.122 A  
HETATM    9  C   UNL     1      -8.099   4.906  67.006  1.00  0.00    -0.107 A  
HETATM   10  C   UNL     1      -8.581   5.626  68.102  1.00  0.00    -0.104 A  
ENDBRANCH   4   5
TORSDOF 1
ENDMDL
MODEL      154
REMARK 921   NORMALIZED FREE ENERGY PREDICTED BY IDOCK:   -1.76 KCAL/MOL
REMARK 922        TOTAL FREE ENERGY PREDICTED BY IDOCK:   -1.99 KCAL/MOL
REMARK 923 INTER-LIGAND FREE ENERGY PREDICTED BY IDOCK:   -1.86 KCAL/MOL
REMARK 924 INTRA-LIGAND FREE ENERGY PREDICTED BY IDOCK:   -0.13 KCAL/MOL
REMARK 927      BINDING AFFINITY PREDICTED BY RF-SCORE:    0.00 PKD
ROOT
HETATM    1  O   UNL     1      -6.563   4.398  74.357  1.00  0.00    -0.054 OA 
HETATM    2  C   UNL     1      -6.572   4.694  73.169  1.00  0.00    -0.052 C  
HETATM    3  C   UNL     1      -7.832   4.982  72.458  1.00  0.00    -0.097 C  
HETATM    4  C   UNL     1      -7.809   5.300  71.158  1.00  0.00    -0.103 C  
ENDROOT
BRANCH   4   5
HETATM    5  C   UNL     1      -9.046   5.608  70.441  1.00  0.00    -0.164 A  
HETATM    6  C   UNL     1      -9.071   5.571  69.043  1.00  0.00    -0.131 A  
HETATM    7  C   UNL     1     -10.246   5.876  68.354  1.00  0.00    -0.236 A  
HETATM    8  C   UNL     1     -11.399   6.219  69.058  1.00  0.00    -0.319 A  
HETATM    9  C   UNL     1     -11.379   6.259  70.452  1.00  0.00    -0.440 A  
HETATM   10  C   UNL     1     -10.204   5.956  71.144  1.00  0.00    -0.266 A  
ENDBRANCH   4   5
TORSDOF 1
ENDMDL
MODEL      155
REMARK 921   NORMALIZED FREE ENERGY PREDICTED BY IDOCK:   -1.75 KCAL/MOL
REMARK 922        TOTAL FREE ENERGY PREDICTED BY IDOCK:   -1.99 KCAL/MOL
REMARK 923 INTER-LIGAND FREE ENERGY PREDICTED BY IDOCK:   -1.87 KCAL/MOL
REMARK 924 INTRA-LIGAND FREE ENERGY PREDICTED BY IDOCK:   -0.12 KCAL/MOL
REMARK 927      BINDING AFFINITY PREDICTED BY RF-SCORE:    0.00 PKD
ROOT
HETATM    1  O   UNL     1      -9.683   3.033  67.800  1.00  0.00    -0.128 OA 
HETATM    2  C   UNL     1      -8.958   4.005  67.964  1.00  0.00    -0.121 C  
HETATM    3  C   UNL     1      -9.501   5.305  68.399  1.00  0.00    -0.159 C  
HETATM    4  C   UNL     1      -8.683   6.351  68.566  1.00  0.00    -0.121 C  
ENDROOT
BRANCH   4   5
HETATM    5  C   UNL     1      -9.200   7.642  69.017  1.00  0.00    -0.140 A  
HETATM    6  C   UNL     1     -10.100   8.353  68.215  1.00  0.00    -0.232 A  
HETATM    7  C   UNL     1     -10.588   9.591  68.635  1.00  0.00    -0.239 A  
HETATM    8  C   UNL     1     -10.178  10.125  69.855  1.00  0.00    -0.284 A  
HETATM    9  C   UNL     1      -9.279   9.422  70.657  1.00  0.00    -0.303 A  
HETATM   10  C   UNL     1      -8.789   8.183  70.239  1.00  0.00    -0.141 A  
ENDBRANCH   4   5
TORSDOF 1
ENDMDL
MODEL      156
REMARK 921   NORMALIZED FREE ENERGY PREDICTED BY IDOCK:   -1.72 KCAL/MOL
REMARK 922        TOTAL FREE ENERGY PREDICTED BY IDOCK:   -1.95 KCAL/MOL
REMARK 923 INTER-LIGAND FREE ENERGY PREDICTED BY IDOCK:   -1.82 KCAL/MOL
REMARK 924 INTRA-LIGAND FREE ENERGY PREDICTED BY IDOCK:   -0.13 KCAL/MOL
REMARK 927      BINDING AFFINITY PREDICTED BY RF-SCORE:    0.00 PKD
ROOT
HETATM    1  O   UNL     1     -11.162  11.644  66.565  1.00  0.00    -0.307 OA 
HETATM    2  C   UNL     1     -11.360  10.758  67.386  1.00  0.00    -0.160 C  
HETATM    3  C   UNL     1     -10.464   9.591  67.489  1.00  0.00    -0.336 C  
HETATM    4  C   UNL     1     -10.709   8.637  68.395  1.00  0.00    -0.098 C  
ENDROOT
BRANCH   4   5
HETATM    5  C   UNL     1      -9.821   7.482  68.525  1.00  0.00    -0.170 A  
HETATM    6  C   UNL     1      -8.436   7.651  68.431  1.00  0.00    -0.125 A  
HETATM    7  C   UNL     1      -7.585   6.550  68.543  1.00  0.00    -0.097 A  
HETATM    8  C   UNL     1      -8.114   5.277  68.746  1.00  0.00    -0.090 A  
HETATM    9  C   UNL     1      -9.495   5.102  68.837  1.00  0.00    -0.184 A  
HETATM   10  C   UNL     1     -10.349   6.202  68.725  1.00  0.00    -0.256 A  
ENDBRANCH   4   5
TORSDOF 1
ENDMDL
MODEL      157
REMARK 921   NORMALIZED FREE ENERGY PREDICTED BY IDOCK:   -1.71 KCAL/MOL
REMARK 922        TOTAL FREE ENERGY PREDICTED BY IDOCK:   -1.94 KCAL/MOL
REMARK 923 INTER-LIGAND FREE ENERGY PREDICTED BY IDOCK:   -1.83 KCAL/MOL
REMARK 924 INTRA-LIGAND FREE ENERGY PREDICTED BY IDOCK:   -0.12 KCAL/MOL
REMARK 927      BINDING AFFINITY PREDICTED BY RF-SCORE:    0.00 PKD
ROOT
HETATM    1  O   UNL     1     -10.488   8.061  68.849  1.00  0.00    -0.217 OA 
HETATM    2  C   UNL     1     -10.938   7.707  69.931  1.00  0.00    -0.200 C  
HETATM    3  C   UNL     1     -10.228   6.730  70.777  1.00  0.00    -0.215 C  
HETATM    4  C   UNL     1     -10.748   6.361  71.954  1.00  0.00    -0.262 C  
ENDROOT
BRANCH   4   5
HETATM    5  C   UNL     1     -10.049   5.408  72.815  1.00  0.00    -0.211 A  
HETATM    6  C   UNL     1     -10.545   4.109  72.968  1.00  0.00    -0.256 A  
HETATM    7  C   UNL     1      -9.888   3.200  73.798  1.00  0.00    -0.151 A  
HETATM    8  C   UNL     1      -8.734   3.584  74.480  1.00  0.00    -0.090 A  
HETATM    9  C   UNL     1      -8.237   4.879  74.333  1.00  0.00    -0.102 A  
HETATM   10  C   UNL     1      -8.893   5.791  73.503  1.00  0.00    -0.122 A  
ENDBRANCH   4   5
TORSDOF 1
ENDMDL
MODEL      158
REMARK 921   NORMALIZED FREE ENERGY PREDICTED BY IDOCK:   -1.71 KCAL/MOL
REMARK 922        TOTAL FREE ENERGY PREDICTED BY IDOCK:   -1.94 KCAL/MOL
REMARK 923 INTER-LIGAND FREE ENERGY PREDICTED BY IDOCK:   -1.81 KCAL/MOL
REMARK 924 INTRA-LIGAND FREE ENERGY PREDICTED BY IDOCK:   -0.13 KCAL/MOL
REMARK 927      BINDING AFFINITY PREDICTED BY RF-SCORE:    0.00 PKD
ROOT
HETATM    1  O   UNL     1      -9.459   2.307  69.942  1.00  0.00    -0.114 OA 
HETATM    2  C   UNL     1      -8.751   3.032  69.256  1.00  0.00    -0.082 C  
HETATM    3  C   UNL     1      -9.262   4.295  68.691  1.00  0.00    -0.197 C  
HETATM    4  C   UNL     1      -8.464   5.064  67.941  1.00  0.00    -0.104 C  
ENDROOT
BRANCH   4   5
HETATM    5  C   UNL     1      -8.947   6.330  67.389  1.00  0.00    -0.109 A  
HETATM    6  C   UNL     1      -8.275   6.926  66.317  1.00  0.00    -0.117 A  
HETATM    7  C   UNL     1      -8.725   8.139  65.794  1.00  0.00    -0.183 A  
HETATM    8  C   UNL     1      -9.847   8.761  66.340  1.00  0.00    -0.352 A  
HETATM    9  C   UNL     1     -10.519   8.172  67.411  1.00  0.00    -0.356 A  
HETATM   10  C   UNL     1     -10.070   6.959  67.936  1.00  0.00    -0.195 A  
ENDBRANCH   4   5
TORSDOF 1
ENDMDL
MODEL      159
REMARK 921   NORMALIZED FREE ENERGY PREDICTED BY IDOCK:   -1.69 KCAL/MOL
REMARK 922        TOTAL FREE ENERGY PREDICTED BY IDOCK:   -1.92 KCAL/MOL
REMARK 923 INTER-LIGAND FREE ENERGY PREDICTED BY IDOCK:   -1.80 KCAL/MOL
REMARK 924 INTRA-LIGAND FREE ENERGY PREDICTED BY IDOCK:   -0.12 KCAL/MOL
REMARK 927      BINDING AFFINITY PREDICTED BY RF-SCORE:    0.00 PKD
ROOT
HETATM    1  O   UNL     1     -13.004   6.907  71.596  1.00  0.00    -0.370 OA 
HETATM    2  C   UNL     1     -11.781   6.955  71.628  1.00  0.00    -0.304 C  
HETATM    3  C   UNL     1     -10.989   7.187  70.406  1.00  0.00    -0.290 C  
HETATM    4  C   UNL     1      -9.653   7.231  70.473  1.00  0.00    -0.168 C  
ENDROOT
BRANCH   4   5
HETATM    5  C   UNL     1      -8.851   7.480  69.275  1.00  0.00    -0.136 A  
HETATM    6  C   UNL     1      -7.839   6.584  68.913  1.00  0.00    -0.110 A  
HETATM    7  C   UNL     1      -7.064   6.823  67.778  1.00  0.00    -0.085 A  
HETATM    8  C   UNL     1      -7.294   7.957  67.001  1.00  0.00    -0.091 A  
HETATM    9  C   UNL     1      -8.299   8.855  67.360  1.00  0.00    -0.108 A  
HETATM   10  C   UNL     1      -9.076   8.619  68.496  1.00  0.00    -0.138 A  
ENDBRANCH   4   5
TORSDOF 1
ENDMDL
MODEL      160
REMARK 921   NORMALIZED FREE ENERGY PREDICTED BY IDOCK:   -1.46 KCAL/MOL
REMARK 922        TOTAL FREE ENERGY PREDICTED BY IDOCK:   -1.68 KCAL/MOL
REMARK 923 INTER-LIGAND FREE ENERGY PREDICTED BY IDOCK:   -1.56 KCAL/MOL
REMARK 924 INTRA-LIGAND FREE ENERGY PREDICTED BY IDOCK:   -0.12 KCAL/MOL
REMARK 927      BINDING AFFINITY PREDICTED BY RF-SCORE:    0.00 PKD
ROOT
HETATM    1  O   UNL     1      -9.324   5.120  72.845  1.00  0.00    -0.134 OA 
HETATM    2  C   UNL     1      -9.617   4.680  71.741  1.00  0.00    -0.158 C  
HETATM    3  C   UNL     1      -9.250   5.397  70.506  1.00  0.00    -0.183 C  
HETATM    4  C   UNL     1      -9.588   4.892  69.314  1.00  0.00    -0.241 C  
ENDROOT
BRANCH   4   5
HETATM    5  C   UNL     1      -9.216   5.579  68.077  1.00  0.00    -0.114 A  
HETATM    6  C   UNL     1      -8.113   5.138  67.338  1.00  0.00    -0.100 A  
HETATM    7  C   UNL     1      -7.746   5.797  66.163  1.00  0.00    -0.095 A  
HETATM    8  C   UNL     1      -8.479   6.899  65.724  1.00  0.00    -0.150 A  
HETATM    9  C   UNL     1      -9.578   7.344  66.458  1.00  0.00    -0.228 A  
HETATM   10  C   UNL     1      -9.946   6.686  67.634  1.00  0.00    -0.161 A  
ENDBRANCH   4   5
TORSDOF 1
ENDMDL
MODEL      161
REMARK 921   NORMALIZED FREE ENERGY PREDICTED BY IDOCK:   -1.45 KCAL/MOL
REMARK 922        TOTAL FREE ENERGY PREDICTED BY IDOCK:   -1.67 KCAL/MOL
REMARK 923 INTER-LIGAND FREE ENERGY PREDICTED BY IDOCK:   -1.54 KCAL/MOL
REMARK 924 INTRA-LIGAND FREE ENERGY PREDICTED BY IDOCK:   -0.13 KCAL/MOL
REMARK 927      BINDING AFFINITY PREDICTED BY RF-SCORE:    0.00 PKD
ROOT
HETATM    1  O   UNL     1      -7.845   8.470  72.706  1.00  0.00    -0.309 OA 
HETATM    2  C   UNL     1      -7.625   7.371  72.214  1.00  0.00    -0.088 C  
HETATM    3  C   UNL     1      -8.201   6.980  70.914  1.00  0.00    -0.121 C  
HETATM    4  C   UNL     1      -7.943   5.770  70.404  1.00  0.00    -0.105 C  
ENDROOT
BRANCH   4   5
HETATM    5  C   UNL     1      -8.490   5.372  69.107  1.00  0.00    -0.103 A  
HETATM    6  C   UNL     1      -8.455   6.265  68.031  1.00  0.00    -0.117 A  
HETATM    7  C   UNL     1      -8.986   5.895  66.794  1.00  0.00    -0.120 A  
HETATM    8  C   UNL     1      -9.553   4.633  66.628  1.00  0.00    -0.192 A  
HETATM    9  C   UNL     1      -9.592   3.740  67.699  1.00  0.00    -0.199 A  
HETATM   10  C   UNL     1      -9.063   4.108  68.937  1.00  0.00    -0.186 A  
ENDBRANCH   4   5
TORSDOF 1
ENDMDL
MODEL      162
REMARK 921   NORMALIZED FREE ENERGY PREDICTED BY IDOCK:   -1.40 KCAL/MOL
REMARK 922        TOTAL FREE ENERGY PREDICTED BY IDOCK:   -1.61 KCAL/MOL
REMARK 923 INTER-LIGAND FREE ENERGY PREDICTED BY IDOCK:   -1.48 KCAL/MOL
REMARK 924 INTRA-LIGAND FREE ENERGY PREDICTED BY IDOCK:   -0.13 KCAL/MOL
REMARK 927      BINDING AFFINITY PREDICTED BY RF-SCORE:    0.00 PKD
ROOT
HETATM    1  O   UNL     1     -12.769   6.849  71.008  1.00  0.00    -0.356 OA 
HETATM    2  C   UNL     1     -11.814   6.488  71.683  1.00  0.00    -0.333 C  
HETATM    3  C   UNL     1     -10.443   6.493  71.139  1.00  0.00    -0.257 C  
HETATM    4  C   UNL     1      -9.419   6.089  71.901  1.00  0.00    -0.163 C  
ENDROOT
BRANCH   4   5
HETATM    5  C   UNL     1      -8.051   6.106  71.386  1.00  0.00    -0.118 A  
HETATM    6  C   UNL     1      -7.722   6.926  70.302  1.00  0.00    -0.100 A  
HETATM    7  C   UNL     1      -6.420   6.937  69.799  1.00  0.00    -0.043 A  
HETATM    8  C   UNL     1      -5.442   6.127  70.376  1.00  0.00    -0.014 A  
HETATM    9  C   UNL     1      -5.766   5.305  71.455  1.00  0.00    -0.013 A  
HETATM   10  C   UNL     1      -7.068   5.292  71.959  1.00  0.00    -0.084 A  
ENDBRANCH   4   5
TORSDOF 1
ENDMDL
MODEL      163
REMARK 921   NORMALIZED FREE ENERGY PREDICTED BY IDOCK:   -1.38 KCAL/MOL
REMARK 922        TOTAL FREE ENERGY PREDICTED BY IDOCK:   -1.59 KCAL/MOL
REMARK 923 INTER-LIGAND FREE ENERGY PREDICTED BY IDOCK:   -1.46 KCAL/MOL
REMARK 924 INTRA-LIGAND FREE ENERGY PREDICTED BY IDOCK:   -0.13 KCAL/MOL
REMARK 927      BINDING AFFINITY PREDICTED BY RF-SCORE:    0.00 PKD
ROOT
HETATM    1  O   UNL     1      -9.239   5.030  72.867  1.00  0.00    -0.133 OA 
HETATM    2  C   UNL     1      -9.425   4.115  72.076  1.00  0.00    -0.136 C  
HETATM    3  C   UNL     1      -9.089   4.255  70.647  1.00  0.00    -0.175 C  
HETATM    4  C   UNL     1      -9.307   3.237  69.805  1.00  0.00    -0.229 C  
ENDROOT
BRANCH   4   5
HETATM    5  C   UNL     1      -8.962   3.349  68.388  1.00  0.00    -0.185 A  
HETATM    6  C   UNL     1      -9.249   2.296  67.514  1.00  0.00    -0.185 A  
HETATM    7  C   UNL     1      -8.911   2.393  66.163  1.00  0.00    -0.117 A  
HETATM    8  C   UNL     1      -8.286   3.542  65.681  1.00  0.00    -0.097 A  
HETATM    9  C   UNL     1      -7.995   4.594  66.550  1.00  0.00    -0.103 A  
HETATM   10  C   UNL     1      -8.331   4.498  67.902  1.00  0.00    -0.098 A  
ENDBRANCH   4   5
TORSDOF 1
ENDMDL
MODEL      164
REMARK 921   NORMALIZED FREE ENERGY PREDICTED BY IDOCK:   -1.36 KCAL/MOL
REMARK 922        TOTAL FREE ENERGY PREDICTED BY IDOCK:   -1.57 KCAL/MOL
REMARK 923 INTER-LIGAND FREE ENERGY PREDICTED BY IDOCK:   -1.44 KCAL/MOL
REMARK 924 INTRA-LIGAND FREE ENERGY PREDICTED BY IDOCK:   -0.13 KCAL/MOL
REMARK 927      BINDING AFFINITY PREDICTED BY RF-SCORE:    0.00 PKD
ROOT
HETATM    1  O   UNL     1      -7.137  10.374  65.277  1.00  0.00    -0.136 OA 
HETATM    2  C   UNL     1      -7.687   9.323  64.975  1.00  0.00    -0.109 C  
HETATM    3  C   UNL     1      -7.995   8.297  65.988  1.00  0.00    -0.098 C  
HETATM    4  C   UNL     1      -8.595   7.157  65.626  1.00  0.00    -0.119 C  
ENDROOT
BRANCH   4   5
HETATM    5  C   UNL     1      -8.925   6.136  66.620  1.00  0.00    -0.133 A  
HETATM    6  C   UNL     1      -8.951   6.466  67.979  1.00  0.00    -0.115 A  
HETATM    7  C   UNL     1      -9.254   5.493  68.932  1.00  0.00    -0.141 A  
HETATM    8  C   UNL     1      -9.531   4.187  68.532  1.00  0.00    -0.216 A  
HETATM    9  C   UNL     1      -9.504   3.852  67.178  1.00  0.00    -0.231 A  
HETATM   10  C   UNL     1      -9.200   4.824  66.223  1.00  0.00    -0.141 A  
ENDBRANCH   4   5
TORSDOF 1
ENDMDL
MODEL      165
REMARK 921   NORMALIZED FREE ENERGY PREDICTED BY IDOCK:   -1.30 KCAL/MOL
REMARK 922        TOTAL FREE ENERGY PREDICTED BY IDOCK:   -1.51 KCAL/MOL
REMARK 923 INTER-LIGAND FREE ENERGY PREDICTED BY IDOCK:   -1.39 KCAL/MOL
REMARK 924 INTRA-LIGAND FREE ENERGY PREDICTED BY IDOCK:   -0.12 KCAL/MOL
REMARK 927      BINDING AFFINITY PREDICTED BY RF-SCORE:    0.00 PKD
ROOT
HETATM    1  O   UNL     1      -7.769   6.438  68.570  1.00  0.00    -0.100 OA 
HETATM    2  C   UNL     1      -8.219   6.439  67.432  1.00  0.00    -0.116 C  
HETATM    3  C   UNL     1      -8.478   5.182  66.706  1.00  0.00    -0.106 C  
HETATM    4  C   UNL     1      -8.968   5.216  65.461  1.00  0.00    -0.156 C  
ENDROOT
BRANCH   4   5
HETATM    5  C   UNL     1      -9.249   3.979  64.733  1.00  0.00    -0.152 A  
HETATM    6  C   UNL     1      -8.263   2.993  64.624  1.00  0.00    -0.086 A  
HETATM    7  C   UNL     1      -8.522   1.816  63.920  1.00  0.00    -0.077 A  
HETATM    8  C   UNL     1      -9.766   1.619  63.323  1.00  0.00    -0.104 A  
HETATM    9  C   UNL     1     -10.752   2.600  63.427  1.00  0.00    -0.223 A  
HETATM   10  C   UNL     1     -10.495   3.779  64.130  1.00  0.00    -0.267 A  
ENDBRANCH   4   5
TORSDOF 1
ENDMDL
MODEL      166
REMARK 921   NORMALIZED FREE ENERGY PREDICTED BY IDOCK:   -1.09 KCAL/MOL
REMARK 922        TOTAL FREE ENERGY PREDICTED BY IDOCK:   -1.28 KCAL/MOL
REMARK 923 INTER-LIGAND FREE ENERGY PREDICTED BY IDOCK:   -1.15 KCAL/MOL
REMARK 924 INTRA-LIGAND FREE ENERGY PREDICTED BY IDOCK:   -0.13 KCAL/MOL
REMARK 927      BINDING AFFINITY PREDICTED BY RF-SCORE:    0.00 PKD
ROOT
HETATM    1  O   UNL     1      -9.859   4.002  67.781  1.00  0.00    -0.137 OA 
HETATM    2  C   UNL     1      -8.891   4.498  67.218  1.00  0.00    -0.106 C  
HETATM    3  C   UNL     1      -8.913   5.891  66.737  1.00  0.00    -0.120 C  
HETATM    4  C   UNL     1      -7.841   6.405  66.123  1.00  0.00    -0.102 C  
ENDROOT
BRANCH   4   5
HETATM    5  C   UNL     1      -7.837   7.791  65.657  1.00  0.00    -0.107 A  
HETATM    6  C   UNL     1      -9.046   8.462  65.450  1.00  0.00    -0.050 A  
HETATM    7  C   UNL     1      -9.048   9.781  64.994  1.00  0.00    -0.280 A  
HETATM    8  C   UNL     1      -7.842  10.434  64.742  1.00  0.00    -0.086 A  
HETATM    9  C   UNL     1      -6.634   9.768  64.944  1.00  0.00    -0.108 A  
HETATM   10  C   UNL     1      -6.629   8.448  65.399  1.00  0.00    -0.056 A  
ENDBRANCH   4   5
TORSDOF 1
ENDMDL
MODEL      167
REMARK 921   NORMALIZED FREE ENERGY PREDICTED BY IDOCK:   -0.97 KCAL/MOL
REMARK 922        TOTAL FREE ENERGY PREDICTED BY IDOCK:   -1.16 KCAL/MOL
REMARK 923 INTER-LIGAND FREE ENERGY PREDICTED BY IDOCK:   -1.03 KCAL/MOL
REMARK 924 INTRA-LIGAND FREE ENERGY PREDICTED BY IDOCK:   -0.12 KCAL/MOL
REMARK 927      BINDING AFFINITY PREDICTED BY RF-SCORE:    0.00 PKD
ROOT
HETATM    1  O   UNL     1      -7.561  10.473  65.582  1.00  0.00    -0.148 OA 
HETATM    2  C   UNL     1      -7.839   9.649  64.720  1.00  0.00    -0.128 C  
HETATM    3  C   UNL     1      -7.715   8.202  64.972  1.00  0.00    -0.113 C  
HETATM    4  C   UNL     1      -8.023   7.326  64.008  1.00  0.00    -0.087 C  
ENDROOT
BRANCH   4   5
HETATM    5  C   UNL     1      -7.926   5.886  64.246  1.00  0.00    -0.122 A  
HETATM    6  C   UNL     1      -8.546   5.319  65.364  1.00  0.00    -0.149 A  
HETATM    7  C   UNL     1      -8.447   3.947  65.601  1.00  0.00    -0.110 A  
HETATM    8  C   UNL     1      -7.727   3.137  64.724  1.00  0.00    -0.078 A  
HETATM    9  C   UNL     1      -7.104   3.698  63.610  1.00  0.00    -0.050 A  
HETATM   10  C   UNL     1      -7.201   5.071  63.370  1.00  0.00    -0.048 A  
ENDBRANCH   4   5
TORSDOF 1
ENDMDL
MODEL      168
REMARK 921   NORMALIZED FREE ENERGY PREDICTED BY IDOCK:   -0.69 KCAL/MOL
REMARK 922        TOTAL FREE ENERGY PREDICTED BY IDOCK:   -0.87 KCAL/MOL
REMARK 923 INTER-LIGAND FREE ENERGY PREDICTED BY IDOCK:   -0.74 KCAL/MOL
REMARK 924 INTRA-LIGAND FREE ENERGY PREDICTED BY IDOCK:   -0.13 KCAL/MOL
REMARK 927      BINDING AFFINITY PREDICTED BY RF-SCORE:    0.00 PKD
ROOT
HETATM    1  O   UNL     1     -12.390   4.654  72.679  1.00  0.00     0.455 OA 
HETATM    2  C   UNL     1     -11.870   5.757  72.782  1.00  0.00    -0.096 C  
HETATM    3  C   UNL     1     -10.410   5.932  72.673  1.00  0.00    -0.225 C  
HETATM    4  C   UNL     1      -9.871   7.151  72.795  1.00  0.00    -0.212 C  
ENDROOT
BRANCH   4   5
HETATM    5  C   UNL     1      -8.427   7.347  72.670  1.00  0.00    -0.138 A  
HETATM    6  C   UNL     1      -7.729   6.748  71.616  1.00  0.00    -0.096 A  
HETATM    7  C   UNL     1      -6.349   6.922  71.499  1.00  0.00    -0.041 A  
HETATM    8  C   UNL     1      -5.662   7.694  72.434  1.00  0.00    -0.036 A  
HETATM    9  C   UNL     1      -6.352   8.291  73.489  1.00  0.00    -0.126 A  
HETATM   10  C   UNL     1      -7.733   8.117  73.608  1.00  0.00    -0.225 A  
ENDBRANCH   4   5
TORSDOF 1
ENDMDL
MODEL      169
REMARK 921   NORMALIZED FREE ENERGY PREDICTED BY IDOCK:    0.96 KCAL/MOL
REMARK 922        TOTAL FREE ENERGY PREDICTED BY IDOCK:    0.89 KCAL/MOL
REMARK 923 INTER-LIGAND FREE ENERGY PREDICTED BY IDOCK:    1.02 KCAL/MOL
REMARK 924 INTRA-LIGAND FREE ENERGY PREDICTED BY IDOCK:   -0.13 KCAL/MOL
REMARK 927      BINDING AFFINITY PREDICTED BY RF-SCORE:    0.00 PKD
ROOT
HETATM    1  O   UNL     1     -13.424   4.116  72.996  1.00  0.00     0.854 OA 
HETATM    2  C   UNL     1     -12.854   5.172  72.758  1.00  0.00     1.004 C  
HETATM    3  C   UNL     1     -11.541   5.203  72.086  1.00  0.00     0.195 C  
HETATM    4  C   UNL     1     -10.941   6.374  71.843  1.00  0.00    -0.295 C  
ENDROOT
BRANCH   4   5
HETATM    5  C   UNL     1      -9.648   6.425  71.161  1.00  0.00    -0.187 A  
HETATM    6  C   UNL     1      -9.410   5.605  70.052  1.00  0.00    -0.183 A  
HETATM    7  C   UNL     1      -8.174   5.642  69.405  1.00  0.00    -0.103 A  
HETATM    8  C   UNL     1      -7.172   6.496  69.862  1.00  0.00    -0.077 A  
HETATM    9  C   UNL     1      -7.403   7.313  70.968  1.00  0.00    -0.074 A  
HETATM   10  C   UNL     1      -8.639   7.278  71.619  1.00  0.00    -0.120 A  
ENDBRANCH   4   5
TORSDOF 1
ENDMDL
MODEL      170
REMARK 921   NORMALIZED FREE ENERGY PREDICTED BY IDOCK:   10.82 KCAL/MOL
REMARK 922        TOTAL FREE ENERGY PREDICTED BY IDOCK:   11.32 KCAL/MOL
REMARK 923 INTER-LIGAND FREE ENERGY PREDICTED BY IDOCK:   11.45 KCAL/MOL
REMARK 924 INTRA-LIGAND FREE ENERGY PREDICTED BY IDOCK:   -0.13 KCAL/MOL
REMARK 927      BINDING AFFINITY PREDICTED BY RF-SCORE:    0.00 PKD
ROOT
HETATM    1  O   UNL     1      -7.917  16.960  66.745  1.00  0.00    -0.187 OA 
HETATM    2  C   UNL     1      -8.234  16.204  67.655  1.00  0.00    -0.147 C  
HETATM    3  C   UNL     1      -7.474  16.162  68.918  1.00  0.00    -0.197 C  
HETATM    4  C   UNL     1      -7.842  15.323  69.893  1.00  0.00     0.062 C  
ENDROOT
BRANCH   4   5
HETATM    5  C   UNL     1      -7.113  15.280  71.160  1.00  0.00     1.608 A  
HETATM    6  C   UNL     1      -7.404  14.287  72.101  1.00  0.00     4.229 A  
HETATM    7  C   UNL     1      -6.719  14.249  73.317  1.00  0.00     2.400 A  
HETATM    8  C   UNL     1      -5.743  15.204  73.598  1.00  0.00     0.934 A  
HETATM    9  C   UNL     1      -5.451  16.198  72.664  1.00  0.00     1.358 A  
HETATM   10  C   UNL     1      -6.136  16.239  71.447  1.00  0.00     1.395 A  
ENDBRANCH   4   5
TORSDOF 1
ENDMDL
