MODEL        1
REMARK 921   NORMALIZED FREE ENERGY PREDICTED BY IDOCK:   -5.08 KCAL/MOL
REMARK 922        TOTAL FREE ENERGY PREDICTED BY IDOCK:   -8.11 KCAL/MOL
REMARK 923 INTER-LIGAND FREE ENERGY PREDICTED BY IDOCK:   -7.46 KCAL/MOL
REMARK 924 INTRA-LIGAND FREE ENERGY PREDICTED BY IDOCK:   -0.65 KCAL/MOL
REMARK 927      BINDING AFFINITY PREDICTED BY RF-SCORE:    0.00 PKD
ROOT
HETATM    1  C   UNL     1     -10.021  10.946  65.419  1.00  0.00    -0.319 C  
HETATM    2  C   UNL     1      -9.601  10.871  63.962  1.00  0.00    -0.278 C  
ENDROOT
BRANCH   2   3
HETATM    3  O   UNL     1     -10.368  11.821  63.233  1.00  0.00    -0.405 OA 
BRANCH   3   4
HETATM    4  C   UNL     1     -11.754  11.800  63.584  1.00  0.00    -0.415 C  
BRANCH   4   5
HETATM    5  C   UNL     1     -12.277  13.218  63.424  1.00  0.00    -0.403 C  
BRANCH   5   6
HETATM    6  O   UNL     1     -12.694  13.815  64.655  1.00  0.00    -0.644 OA 
BRANCH   6   7
HETATM    7  C   UNL     1     -11.679  14.281  65.425  1.00  0.00    -0.354 C  
HETATM    8  O   UNL     1     -10.693  14.888  65.045  1.00  0.00    -0.380 OA 
BRANCH   7   9
HETATM    9  C   UNL     1     -12.097  14.090  66.830  1.00  0.00    -0.465 C  
HETATM   10  C   UNL     1     -11.351  14.563  67.843  1.00  0.00    -0.329 C  
BRANCH  10  11
HETATM   11  C   UNL     1     -11.819  14.621  69.237  1.00  0.00    -0.357 A  
HETATM   12  C   UNL     1     -11.836  15.799  69.993  1.00  0.00    -0.365 A  
HETATM   13  C   UNL     1     -12.226  15.781  71.336  1.00  0.00    -0.500 A  
HETATM   14  C   UNL     1     -12.643  14.596  71.942  1.00  0.00    -0.339 A  
HETATM   15  C   UNL     1     -12.653  13.420  71.197  1.00  0.00    -0.430 A  
HETATM   16  C   UNL     1     -12.248  13.434  69.854  1.00  0.00    -0.337 A  
BRANCH  14  17
HETATM   17  O   UNL     1     -12.950  14.701  73.270  1.00  0.00    -0.518 OA 
HETATM   18  C   UNL     1     -12.583  15.919  73.905  1.00  0.00    -0.623 C  
ENDBRANCH  14  17
ENDBRANCH  10  11
ENDBRANCH   7   9
ENDBRANCH   6   7
ENDBRANCH   5   6
ENDBRANCH   4   5
ENDBRANCH   3   4
ENDBRANCH   2   3
TORSDOF 8
ENDMDL
MODEL        2
REMARK 921   NORMALIZED FREE ENERGY PREDICTED BY IDOCK:   -5.05 KCAL/MOL
REMARK 922        TOTAL FREE ENERGY PREDICTED BY IDOCK:   -8.06 KCAL/MOL
REMARK 923 INTER-LIGAND FREE ENERGY PREDICTED BY IDOCK:   -7.63 KCAL/MOL
REMARK 924 INTRA-LIGAND FREE ENERGY PREDICTED BY IDOCK:   -0.43 KCAL/MOL
REMARK 927      BINDING AFFINITY PREDICTED BY RF-SCORE:    0.00 PKD
ROOT
HETATM    1  C   UNL     1     -11.111  11.527  63.760  1.00  0.00    -0.471 C  
HETATM    2  C   UNL     1     -12.465  12.163  63.499  1.00  0.00    -0.555 C  
ENDROOT
BRANCH   2   3
HETATM    3  O   UNL     1     -13.036  12.514  64.754  1.00  0.00    -0.853 OA 
BRANCH   3   4
HETATM    4  C   UNL     1     -12.450  13.688  65.320  1.00  0.00    -0.479 C  
BRANCH   4   5
HETATM    5  C   UNL     1     -12.148  13.379  66.777  1.00  0.00    -0.365 C  
BRANCH   5   6
HETATM    6  O   UNL     1     -11.553  14.472  67.482  1.00  0.00    -0.347 OA 
BRANCH   6   7
HETATM    7  C   UNL     1     -11.794  14.477  68.817  1.00  0.00    -0.315 C  
HETATM    8  O   UNL     1     -12.221  15.407  69.478  1.00  0.00    -0.313 OA 
BRANCH   7   9
HETATM    9  C   UNL     1     -11.634  13.081  69.278  1.00  0.00    -0.367 C  
HETATM   10  C   UNL     1     -12.179  12.669  70.435  1.00  0.00    -0.368 C  
BRANCH  10  11
HETATM   11  C   UNL     1     -12.264  11.255  70.833  1.00  0.00    -0.460 A  
HETATM   12  C   UNL     1     -11.395  10.269  70.351  1.00  0.00    -0.410 A  
HETATM   13  C   UNL     1     -11.565   8.928  70.712  1.00  0.00    -0.301 A  
HETATM   14  C   UNL     1     -12.582   8.549  71.588  1.00  0.00    -0.333 A  
HETATM   15  C   UNL     1     -13.440   9.521  72.094  1.00  0.00    -0.535 A  
HETATM   16  C   UNL     1     -13.279  10.864  71.722  1.00  0.00    -0.513 A  
BRANCH  14  17
HETATM   17  O   UNL     1     -12.675   7.205  71.821  1.00  0.00    -0.340 OA 
HETATM   18  C   UNL     1     -11.526   6.431  71.501  1.00  0.00    -0.306 C  
ENDBRANCH  14  17
ENDBRANCH  10  11
ENDBRANCH   7   9
ENDBRANCH   6   7
ENDBRANCH   5   6
ENDBRANCH   4   5
ENDBRANCH   3   4
ENDBRANCH   2   3
TORSDOF 8
ENDMDL
MODEL        3
REMARK 921   NORMALIZED FREE ENERGY PREDICTED BY IDOCK:   -5.01 KCAL/MOL
REMARK 922        TOTAL FREE ENERGY PREDICTED BY IDOCK:   -8.00 KCAL/MOL
REMARK 923 INTER-LIGAND FREE ENERGY PREDICTED BY IDOCK:   -7.57 KCAL/MOL
REMARK 924 INTRA-LIGAND FREE ENERGY PREDICTED BY IDOCK:   -0.44 KCAL/MOL
REMARK 927      BINDING AFFINITY PREDICTED BY RF-SCORE:    0.00 PKD
ROOT
HETATM    1  C   UNL     1     -12.101  16.208  72.496  1.00  0.00    -0.644 C  
HETATM    2  C   UNL     1     -13.502  15.736  72.841  1.00  0.00    -0.580 C  
ENDROOT
BRANCH   2   3
HETATM    3  O   UNL     1     -13.427  14.364  73.206  1.00  0.00    -0.574 OA 
BRANCH   3   4
HETATM    4  C   UNL     1     -14.155  13.514  72.316  1.00  0.00    -0.465 C  
BRANCH   4   5
HETATM    5  C   UNL     1     -13.139  12.632  71.609  1.00  0.00    -0.323 C  
BRANCH   5   6
HETATM    6  O   UNL     1     -13.179  11.265  72.030  1.00  0.00    -0.506 OA 
BRANCH   6   7
HETATM    7  C   UNL     1     -12.265  10.465  71.426  1.00  0.00    -0.362 C  
HETATM    8  O   UNL     1     -11.983   9.319  71.731  1.00  0.00    -0.349 OA 
BRANCH   7   9
HETATM    9  C   UNL     1     -11.825  11.175  70.207  1.00  0.00    -0.455 C  
HETATM   10  C   UNL     1     -11.466  10.497  69.104  1.00  0.00    -0.314 C  
BRANCH  10  11
HETATM   11  C   UNL     1     -11.251  11.133  67.794  1.00  0.00    -0.359 A  
HETATM   12  C   UNL     1     -11.776  12.386  67.455  1.00  0.00    -0.417 A  
HETATM   13  C   UNL     1     -11.597  12.912  66.171  1.00  0.00    -0.423 A  
HETATM   14  C   UNL     1     -10.861  12.217  65.211  1.00  0.00    -0.293 A  
HETATM   15  C   UNL     1     -10.313  10.980  65.541  1.00  0.00    -0.321 A  
HETATM   16  C   UNL     1     -10.505  10.445  66.824  1.00  0.00    -0.287 A  
BRANCH  14  17
HETATM   17  O   UNL     1     -10.802  12.812  63.982  1.00  0.00    -0.376 OA 
HETATM   18  C   UNL     1     -12.050  13.068  63.349  1.00  0.00    -0.515 C  
ENDBRANCH  14  17
ENDBRANCH  10  11
ENDBRANCH   7   9
ENDBRANCH   6   7
ENDBRANCH   5   6
ENDBRANCH   4   5
ENDBRANCH   3   4
ENDBRANCH   2   3
TORSDOF 8
ENDMDL
MODEL        4
REMARK 921   NORMALIZED FREE ENERGY PREDICTED BY IDOCK:   -5.00 KCAL/MOL
REMARK 922        TOTAL FREE ENERGY PREDICTED BY IDOCK:   -7.98 KCAL/MOL
REMARK 923 INTER-LIGAND FREE ENERGY PREDICTED BY IDOCK:   -7.41 KCAL/MOL
REMARK 924 INTRA-LIGAND FREE ENERGY PREDICTED BY IDOCK:   -0.57 KCAL/MOL
REMARK 927      BINDING AFFINITY PREDICTED BY RF-SCORE:    0.00 PKD
ROOT
HETATM    1  C   UNL     1     -12.409  15.470  74.327  1.00  0.00    -0.815 C  
HETATM    2  C   UNL     1     -13.096  14.761  73.174  1.00  0.00    -0.492 C  
ENDROOT
BRANCH   2   3
HETATM    3  O   UNL     1     -13.065  15.625  72.044  1.00  0.00    -0.417 OA 
BRANCH   3   4
HETATM    4  C   UNL     1     -11.762  16.154  71.787  1.00  0.00    -0.488 C  
BRANCH   4   5
HETATM    5  C   UNL     1     -11.401  15.777  70.359  1.00  0.00    -0.374 C  
BRANCH   5   6
HETATM    6  O   UNL     1     -12.386  14.961  69.718  1.00  0.00    -0.298 OA 
BRANCH   6   7
HETATM    7  C   UNL     1     -11.902  14.169  68.729  1.00  0.00    -0.349 C  
HETATM    8  O   UNL     1     -11.598  14.513  67.600  1.00  0.00    -0.344 OA 
BRANCH   7   9
HETATM    9  C   UNL     1     -11.623  12.854  69.344  1.00  0.00    -0.363 C  
HETATM   10  C   UNL     1     -12.394  12.377  70.335  1.00  0.00    -0.307 C  
BRANCH  10  11
HETATM   11  C   UNL     1     -12.323  10.991  70.823  1.00  0.00    -0.496 A  
HETATM   12  C   UNL     1     -11.356  10.075  70.394  1.00  0.00    -0.392 A  
HETATM   13  C   UNL     1     -11.378   8.750  70.840  1.00  0.00    -0.322 A  
HETATM   14  C   UNL     1     -12.341   8.320  71.752  1.00  0.00    -0.328 A  
HETATM   15  C   UNL     1     -13.297   9.225  72.207  1.00  0.00    -0.547 A  
HETATM   16  C   UNL     1     -13.284  10.551  71.748  1.00  0.00    -0.522 A  
BRANCH  14  17
HETATM   17  O   UNL     1     -12.288   6.991  72.071  1.00  0.00    -0.310 OA 
HETATM   18  C   UNL     1     -10.994   6.400  72.077  1.00  0.00    -0.250 C  
ENDBRANCH  14  17
ENDBRANCH  10  11
ENDBRANCH   7   9
ENDBRANCH   6   7
ENDBRANCH   5   6
ENDBRANCH   4   5
ENDBRANCH   3   4
ENDBRANCH   2   3
TORSDOF 8
ENDMDL
MODEL        5
REMARK 921   NORMALIZED FREE ENERGY PREDICTED BY IDOCK:   -4.98 KCAL/MOL
REMARK 922        TOTAL FREE ENERGY PREDICTED BY IDOCK:   -7.96 KCAL/MOL
REMARK 923 INTER-LIGAND FREE ENERGY PREDICTED BY IDOCK:   -7.30 KCAL/MOL
REMARK 924 INTRA-LIGAND FREE ENERGY PREDICTED BY IDOCK:   -0.66 KCAL/MOL
REMARK 927      BINDING AFFINITY PREDICTED BY RF-SCORE:    0.00 PKD
ROOT
HETATM    1  C   UNL     1     -10.220   9.953  66.540  1.00  0.00    -0.292 C  
HETATM    2  C   UNL     1      -9.999  11.160  65.646  1.00  0.00    -0.249 C  
ENDROOT
BRANCH   2   3
HETATM    3  O   UNL     1     -10.514  10.852  64.356  1.00  0.00    -0.355 OA 
BRANCH   3   4
HETATM    4  C   UNL     1     -10.983  12.008  63.657  1.00  0.00    -0.448 C  
BRANCH   4   5
HETATM    5  C   UNL     1     -12.287  12.428  64.316  1.00  0.00    -0.455 C  
BRANCH   5   6
HETATM    6  O   UNL     1     -12.481  13.845  64.345  1.00  0.00    -0.613 OA 
BRANCH   6   7
HETATM    7  C   UNL     1     -11.629  14.512  65.163  1.00  0.00    -0.371 C  
HETATM    8  O   UNL     1     -10.715  15.243  64.825  1.00  0.00    -0.410 OA 
BRANCH   7   9
HETATM    9  C   UNL     1     -12.148  14.343  66.538  1.00  0.00    -0.395 C  
HETATM   10  C   UNL     1     -11.310  14.204  67.579  1.00  0.00    -0.343 C  
BRANCH  10  11
HETATM   11  C   UNL     1     -11.745  14.272  68.984  1.00  0.00    -0.352 A  
HETATM   12  C   UNL     1     -12.026  13.139  69.755  1.00  0.00    -0.382 A  
HETATM   13  C   UNL     1     -12.502  13.266  71.065  1.00  0.00    -0.422 A  
HETATM   14  C   UNL     1     -12.672  14.523  71.643  1.00  0.00    -0.342 A  
HETATM   15  C   UNL     1     -12.374  15.660  70.896  1.00  0.00    -0.479 A  
HETATM   16  C   UNL     1     -11.911  15.534  69.578  1.00  0.00    -0.390 A  
BRANCH  14  17
HETATM   17  O   UNL     1     -13.190  14.515  72.908  1.00  0.00    -0.477 OA 
HETATM   18  C   UNL     1     -12.361  15.056  73.930  1.00  0.00    -0.527 C  
ENDBRANCH  14  17
ENDBRANCH  10  11
ENDBRANCH   7   9
ENDBRANCH   6   7
ENDBRANCH   5   6
ENDBRANCH   4   5
ENDBRANCH   3   4
ENDBRANCH   2   3
TORSDOF 8
ENDMDL
MODEL        6
REMARK 921   NORMALIZED FREE ENERGY PREDICTED BY IDOCK:   -4.95 KCAL/MOL
REMARK 922        TOTAL FREE ENERGY PREDICTED BY IDOCK:   -7.91 KCAL/MOL
REMARK 923 INTER-LIGAND FREE ENERGY PREDICTED BY IDOCK:   -7.50 KCAL/MOL
REMARK 924 INTRA-LIGAND FREE ENERGY PREDICTED BY IDOCK:   -0.41 KCAL/MOL
REMARK 927      BINDING AFFINITY PREDICTED BY RF-SCORE:    0.00 PKD
ROOT
HETATM    1  C   UNL     1      -9.514  19.061  66.430  1.00  0.00    -0.375 C  
HETATM    2  C   UNL     1     -10.840  19.103  65.692  1.00  0.00    -0.137 C  
ENDROOT
BRANCH   2   3
HETATM    3  O   UNL     1     -10.989  17.877  64.985  1.00  0.00    -0.776 OA 
BRANCH   3   4
HETATM    4  C   UNL     1     -10.407  16.767  65.673  1.00  0.00    -0.265 C  
BRANCH   4   5
HETATM    5  C   UNL     1     -10.834  15.510  64.933  1.00  0.00    -0.427 C  
BRANCH   5   6
HETATM    6  O   UNL     1     -10.906  14.352  65.769  1.00  0.00    -0.292 OA 
BRANCH   6   7
HETATM    7  C   UNL     1     -12.168  13.963  66.082  1.00  0.00    -0.464 C  
HETATM    8  O   UNL     1     -13.039  13.617  65.304  1.00  0.00    -0.735 OA 
BRANCH   7   9
HETATM    9  C   UNL     1     -12.217  13.844  67.555  1.00  0.00    -0.266 C  
HETATM   10  C   UNL     1     -11.693  14.798  68.343  1.00  0.00    -0.343 C  
BRANCH  10  11
HETATM   11  C   UNL     1     -11.916  14.863  69.796  1.00  0.00    -0.366 A  
HETATM   12  C   UNL     1     -11.537  15.957  70.582  1.00  0.00    -0.426 A  
HETATM   13  C   UNL     1     -11.711  15.935  71.969  1.00  0.00    -0.588 A  
HETATM   14  C   UNL     1     -12.300  14.838  72.597  1.00  0.00    -0.287 A  
HETATM   15  C   UNL     1     -12.704  13.751  71.826  1.00  0.00    -0.373 A  
HETATM   16  C   UNL     1     -12.516  13.766  70.436  1.00  0.00    -0.384 A  
BRANCH  14  17
HETATM   17  O   UNL     1     -12.368  14.916  73.961  1.00  0.00    -0.547 OA 
HETATM   18  C   UNL     1     -12.311  16.224  74.517  1.00  0.00    -0.450 C  
ENDBRANCH  14  17
ENDBRANCH  10  11
ENDBRANCH   7   9
ENDBRANCH   6   7
ENDBRANCH   5   6
ENDBRANCH   4   5
ENDBRANCH   3   4
ENDBRANCH   2   3
TORSDOF 8
ENDMDL
MODEL        7
REMARK 921   NORMALIZED FREE ENERGY PREDICTED BY IDOCK:   -4.94 KCAL/MOL
REMARK 922        TOTAL FREE ENERGY PREDICTED BY IDOCK:   -7.90 KCAL/MOL
REMARK 923 INTER-LIGAND FREE ENERGY PREDICTED BY IDOCK:   -7.07 KCAL/MOL
REMARK 924 INTRA-LIGAND FREE ENERGY PREDICTED BY IDOCK:   -0.83 KCAL/MOL
REMARK 927      BINDING AFFINITY PREDICTED BY RF-SCORE:    0.00 PKD
ROOT
HETATM    1  C   UNL     1     -10.822  10.417  67.610  1.00  0.00    -0.361 C  
HETATM    2  C   UNL     1      -9.410  10.744  67.158  1.00  0.00    -0.155 C  
ENDROOT
BRANCH   2   3
HETATM    3  O   UNL     1      -9.497  11.617  66.039  1.00  0.00    -0.220 OA 
BRANCH   3   4
HETATM    4  C   UNL     1     -10.241  11.055  64.955  1.00  0.00    -0.299 C  
BRANCH   4   5
HETATM    5  C   UNL     1     -10.789  12.216  64.141  1.00  0.00    -0.360 C  
BRANCH   5   6
HETATM    6  O   UNL     1     -12.163  12.506  64.412  1.00  0.00    -0.403 OA 
BRANCH   6   7
HETATM    7  C   UNL     1     -12.397  13.773  64.835  1.00  0.00    -0.405 C  
HETATM    8  O   UNL     1     -12.711  14.727  64.145  1.00  0.00    -0.758 OA 
BRANCH   7   9
HETATM    9  C   UNL     1     -12.397  13.729  66.313  1.00  0.00    -0.479 C  
HETATM   10  C   UNL     1     -11.615  14.555  67.029  1.00  0.00    -0.402 C  
BRANCH  10  11
HETATM   11  C   UNL     1     -11.739  14.731  68.485  1.00  0.00    -0.347 A  
HETATM   12  C   UNL     1     -11.445  15.932  69.140  1.00  0.00    -0.377 A  
HETATM   13  C   UNL     1     -11.515  16.022  70.534  1.00  0.00    -0.409 A  
HETATM   14  C   UNL     1     -11.914  14.927  71.300  1.00  0.00    -0.340 A  
HETATM   15  C   UNL     1     -12.232  13.731  70.661  1.00  0.00    -0.434 A  
HETATM   16  C   UNL     1     -12.148  13.636  69.264  1.00  0.00    -0.360 A  
BRANCH  14  17
HETATM   17  O   UNL     1     -11.892  15.126  72.653  1.00  0.00    -0.399 OA 
HETATM   18  C   UNL     1     -13.017  15.797  73.206  1.00  0.00    -0.565 C  
ENDBRANCH  14  17
ENDBRANCH  10  11
ENDBRANCH   7   9
ENDBRANCH   6   7
ENDBRANCH   5   6
ENDBRANCH   4   5
ENDBRANCH   3   4
ENDBRANCH   2   3
TORSDOF 8
ENDMDL
MODEL        8
REMARK 921   NORMALIZED FREE ENERGY PREDICTED BY IDOCK:   -4.91 KCAL/MOL
REMARK 922        TOTAL FREE ENERGY PREDICTED BY IDOCK:   -7.86 KCAL/MOL
REMARK 923 INTER-LIGAND FREE ENERGY PREDICTED BY IDOCK:   -7.43 KCAL/MOL
REMARK 924 INTRA-LIGAND FREE ENERGY PREDICTED BY IDOCK:   -0.43 KCAL/MOL
REMARK 927      BINDING AFFINITY PREDICTED BY RF-SCORE:    0.00 PKD
ROOT
HETATM    1  C   UNL     1      -9.456  20.085  67.180  1.00  0.00    -0.514 C  
HETATM    2  C   UNL     1     -10.212  19.960  65.869  1.00  0.00    -0.451 C  
ENDROOT
BRANCH   2   3
HETATM    3  O   UNL     1     -10.525  18.587  65.670  1.00  0.00    -0.615 OA 
BRANCH   3   4
HETATM    4  C   UNL     1      -9.787  17.720  66.535  1.00  0.00    -0.329 C  
BRANCH   4   5
HETATM    5  C   UNL     1      -9.884  16.320  65.951  1.00  0.00    -0.334 C  
BRANCH   5   6
HETATM    6  O   UNL     1     -10.752  16.233  64.818  1.00  0.00    -0.680 OA 
BRANCH   6   7
HETATM    7  C   UNL     1     -11.638  15.207  64.867  1.00  0.00    -0.336 C  
HETATM    8  O   UNL     1     -12.493  14.941  64.041  1.00  0.00    -0.807 OA 
BRANCH   7   9
HETATM    9  C   UNL     1     -11.235  14.358  66.008  1.00  0.00    -0.333 C  
HETATM   10  C   UNL     1     -12.093  13.478  66.551  1.00  0.00    -0.460 C  
BRANCH  10  11
HETATM   11  C   UNL     1     -11.691  12.444  67.519  1.00  0.00    -0.425 A  
HETATM   12  C   UNL     1     -11.146  11.211  67.142  1.00  0.00    -0.352 A  
HETATM   13  C   UNL     1     -10.846  10.239  68.101  1.00  0.00    -0.312 A  
HETATM   14  C   UNL     1     -11.048  10.489  69.458  1.00  0.00    -0.268 A  
HETATM   15  C   UNL     1     -11.568  11.720  69.851  1.00  0.00    -0.351 A  
HETATM   16  C   UNL     1     -11.883  12.690  68.888  1.00  0.00    -0.345 A  
BRANCH  14  17
HETATM   17  O   UNL     1     -10.764   9.442  70.291  1.00  0.00    -0.219 OA 
HETATM   18  C   UNL     1     -11.796   9.061  71.192  1.00  0.00    -0.301 C  
ENDBRANCH  14  17
ENDBRANCH  10  11
ENDBRANCH   7   9
ENDBRANCH   6   7
ENDBRANCH   5   6
ENDBRANCH   4   5
ENDBRANCH   3   4
ENDBRANCH   2   3
TORSDOF 8
ENDMDL
MODEL        9
REMARK 921   NORMALIZED FREE ENERGY PREDICTED BY IDOCK:   -4.88 KCAL/MOL
REMARK 922        TOTAL FREE ENERGY PREDICTED BY IDOCK:   -7.81 KCAL/MOL
REMARK 923 INTER-LIGAND FREE ENERGY PREDICTED BY IDOCK:   -7.41 KCAL/MOL
REMARK 924 INTRA-LIGAND FREE ENERGY PREDICTED BY IDOCK:   -0.40 KCAL/MOL
REMARK 927      BINDING AFFINITY PREDICTED BY RF-SCORE:    0.00 PKD
ROOT
HETATM    1  C   UNL     1     -10.523  19.815  66.555  1.00  0.00    -0.615 C  
HETATM    2  C   UNL     1      -9.998  18.407  66.773  1.00  0.00    -0.360 C  
ENDROOT
BRANCH   2   3
HETATM    3  O   UNL     1     -10.229  17.662  65.584  1.00  0.00    -0.593 OA 
BRANCH   3   4
HETATM    4  C   UNL     1     -10.041  16.256  65.766  1.00  0.00    -0.347 C  
BRANCH   4   5
HETATM    5  C   UNL     1     -11.149  15.555  64.998  1.00  0.00    -0.401 C  
BRANCH   5   6
HETATM    6  O   UNL     1     -10.775  14.265  64.506  1.00  0.00    -0.388 OA 
BRANCH   6   7
HETATM    7  C   UNL     1     -11.814  13.417  64.306  1.00  0.00    -0.423 C  
HETATM    8  O   UNL     1     -12.331  13.133  63.239  1.00  0.00    -0.712 OA 
BRANCH   7   9
HETATM    9  C   UNL     1     -12.066  12.749  65.601  1.00  0.00    -0.514 C  
HETATM   10  C   UNL     1     -11.175  11.887  66.118  1.00  0.00    -0.387 C  
BRANCH  10  11
HETATM   11  C   UNL     1     -11.246  11.376  67.497  1.00  0.00    -0.356 A  
HETATM   12  C   UNL     1     -11.778  12.113  68.561  1.00  0.00    -0.382 A  
HETATM   13  C   UNL     1     -11.758  11.604  69.863  1.00  0.00    -0.414 A  
HETATM   14  C   UNL     1     -11.239  10.336  70.126  1.00  0.00    -0.318 A  
HETATM   15  C   UNL     1     -10.727   9.581  69.074  1.00  0.00    -0.224 A  
HETATM   16  C   UNL     1     -10.734  10.098  67.769  1.00  0.00    -0.328 A  
BRANCH  14  17
HETATM   17  O   UNL     1     -11.229   9.974  71.444  1.00  0.00    -0.306 OA 
HETATM   18  C   UNL     1     -10.625   8.723  71.747  1.00  0.00    -0.347 C  
ENDBRANCH  14  17
ENDBRANCH  10  11
ENDBRANCH   7   9
ENDBRANCH   6   7
ENDBRANCH   5   6
ENDBRANCH   4   5
ENDBRANCH   3   4
ENDBRANCH   2   3
TORSDOF 8
ENDMDL
MODEL       10
REMARK 921   NORMALIZED FREE ENERGY PREDICTED BY IDOCK:   -4.87 KCAL/MOL
REMARK 922        TOTAL FREE ENERGY PREDICTED BY IDOCK:   -7.80 KCAL/MOL
REMARK 923 INTER-LIGAND FREE ENERGY PREDICTED BY IDOCK:   -7.03 KCAL/MOL
REMARK 924 INTRA-LIGAND FREE ENERGY PREDICTED BY IDOCK:   -0.77 KCAL/MOL
REMARK 927      BINDING AFFINITY PREDICTED BY RF-SCORE:    0.00 PKD
ROOT
HETATM    1  C   UNL     1      -9.346  11.110  65.215  1.00  0.00    -0.243 C  
HETATM    2  C   UNL     1     -10.488  11.055  64.216  1.00  0.00    -0.359 C  
ENDROOT
BRANCH   2   3
HETATM    3  O   UNL     1     -10.586  12.329  63.589  1.00  0.00    -0.408 OA 
BRANCH   3   4
HETATM    4  C   UNL     1     -11.938  12.718  63.335  1.00  0.00    -0.535 C  
BRANCH   4   5
HETATM    5  C   UNL     1     -12.658  12.728  64.674  1.00  0.00    -0.419 C  
BRANCH   5   6
HETATM    6  O   UNL     1     -12.672  14.011  65.305  1.00  0.00    -0.595 OA 
BRANCH   6   7
HETATM    7  C   UNL     1     -11.782  14.148  66.320  1.00  0.00    -0.390 C  
HETATM    8  O   UNL     1     -11.078  15.115  66.547  1.00  0.00    -0.330 OA 
BRANCH   7   9
HETATM    9  C   UNL     1     -11.979  12.985  67.211  1.00  0.00    -0.379 C  
HETATM   10  C   UNL     1     -11.278  12.861  68.350  1.00  0.00    -0.305 C  
BRANCH  10  11
HETATM   11  C   UNL     1     -11.590  11.867  69.391  1.00  0.00    -0.388 A  
HETATM   12  C   UNL     1     -11.131  10.546  69.351  1.00  0.00    -0.310 A  
HETATM   13  C   UNL     1     -11.515   9.626  70.332  1.00  0.00    -0.325 A  
HETATM   14  C   UNL     1     -12.334  10.014  71.392  1.00  0.00    -0.415 A  
HETATM   15  C   UNL     1     -12.779  11.332  71.459  1.00  0.00    -0.481 A  
HETATM   16  C   UNL     1     -12.406  12.251  70.467  1.00  0.00    -0.349 A  
BRANCH  14  17
HETATM   17  O   UNL     1     -12.679   9.012  72.256  1.00  0.00    -0.380 OA 
HETATM   18  C   UNL     1     -14.072   8.763  72.403  1.00  0.00    -0.413 C  
ENDBRANCH  14  17
ENDBRANCH  10  11
ENDBRANCH   7   9
ENDBRANCH   6   7
ENDBRANCH   5   6
ENDBRANCH   4   5
ENDBRANCH   3   4
ENDBRANCH   2   3
TORSDOF 8
ENDMDL
MODEL       11
REMARK 921   NORMALIZED FREE ENERGY PREDICTED BY IDOCK:   -4.87 KCAL/MOL
REMARK 922        TOTAL FREE ENERGY PREDICTED BY IDOCK:   -7.80 KCAL/MOL
REMARK 923 INTER-LIGAND FREE ENERGY PREDICTED BY IDOCK:   -7.18 KCAL/MOL
REMARK 924 INTRA-LIGAND FREE ENERGY PREDICTED BY IDOCK:   -0.62 KCAL/MOL
REMARK 927      BINDING AFFINITY PREDICTED BY RF-SCORE:    0.00 PKD
ROOT
HETATM    1  C   UNL     1     -10.540  17.057  65.739  1.00  0.00    -0.218 C  
HETATM    2  C   UNL     1     -10.018  15.658  66.012  1.00  0.00    -0.333 C  
ENDROOT
BRANCH   2   3
HETATM    3  O   UNL     1     -10.310  14.850  64.878  1.00  0.00    -0.400 OA 
BRANCH   3   4
HETATM    4  C   UNL     1     -11.714  14.713  64.642  1.00  0.00    -0.426 C  
BRANCH   4   5
HETATM    5  C   UNL     1     -11.975  13.245  64.346  1.00  0.00    -0.406 C  
BRANCH   5   6
HETATM    6  O   UNL     1     -12.434  12.507  65.482  1.00  0.00    -0.646 OA 
BRANCH   6   7
HETATM    7  C   UNL     1     -11.446  11.945  66.223  1.00  0.00    -0.301 C  
HETATM    8  O   UNL     1     -10.414  11.447  65.807  1.00  0.00    -0.249 OA 
BRANCH   7   9
HETATM    9  C   UNL     1     -11.765  12.235  67.637  1.00  0.00    -0.403 C  
HETATM   10  C   UNL     1     -11.355  13.375  68.217  1.00  0.00    -0.330 C  
BRANCH  10  11
HETATM   11  C   UNL     1     -11.834  13.834  69.531  1.00  0.00    -0.394 A  
HETATM   12  C   UNL     1     -12.335  12.969  70.510  1.00  0.00    -0.365 A  
HETATM   13  C   UNL     1     -12.841  13.468  71.714  1.00  0.00    -0.399 A  
HETATM   14  C   UNL     1     -12.823  14.837  71.983  1.00  0.00    -0.326 A  
HETATM   15  C   UNL     1     -12.306  15.709  71.028  1.00  0.00    -0.481 A  
HETATM   16  C   UNL     1     -11.812  15.210  69.813  1.00  0.00    -0.364 A  
BRANCH  14  17
HETATM   17  O   UNL     1     -13.392  15.203  73.171  1.00  0.00    -0.473 OA 
HETATM   18  C   UNL     1     -12.499  15.667  74.177  1.00  0.00    -0.661 C  
ENDBRANCH  14  17
ENDBRANCH  10  11
ENDBRANCH   7   9
ENDBRANCH   6   7
ENDBRANCH   5   6
ENDBRANCH   4   5
ENDBRANCH   3   4
ENDBRANCH   2   3
TORSDOF 8
ENDMDL
MODEL       12
REMARK 921   NORMALIZED FREE ENERGY PREDICTED BY IDOCK:   -4.83 KCAL/MOL
REMARK 922        TOTAL FREE ENERGY PREDICTED BY IDOCK:   -7.74 KCAL/MOL
REMARK 923 INTER-LIGAND FREE ENERGY PREDICTED BY IDOCK:   -7.47 KCAL/MOL
REMARK 924 INTRA-LIGAND FREE ENERGY PREDICTED BY IDOCK:   -0.26 KCAL/MOL
REMARK 927      BINDING AFFINITY PREDICTED BY RF-SCORE:    0.00 PKD
ROOT
HETATM    1  C   UNL     1     -11.138  11.639  63.717  1.00  0.00    -0.499 C  
HETATM    2  C   UNL     1     -12.383  12.456  63.423  1.00  0.00    -0.499 C  
ENDROOT
BRANCH   2   3
HETATM    3  O   UNL     1     -12.352  13.616  64.246  1.00  0.00    -0.563 OA 
BRANCH   3   4
HETATM    4  C   UNL     1     -11.035  13.941  64.696  1.00  0.00    -0.398 C  
BRANCH   4   5
HETATM    5  C   UNL     1     -10.946  15.458  64.757  1.00  0.00    -0.393 C  
BRANCH   5   6
HETATM    6  O   UNL     1     -10.072  15.938  65.782  1.00  0.00    -0.314 OA 
BRANCH   6   7
HETATM    7  C   UNL     1     -10.400  17.160  66.273  1.00  0.00    -0.313 C  
HETATM    8  O   UNL     1     -10.396  18.215  65.664  1.00  0.00    -0.603 OA 
BRANCH   7   9
HETATM    9  C   UNL     1     -10.956  16.934  67.624  1.00  0.00    -0.165 C  
HETATM   10  C   UNL     1     -11.281  15.699  68.040  1.00  0.00    -0.339 C  
BRANCH  10  11
HETATM   11  C   UNL     1     -11.609  15.373  69.437  1.00  0.00    -0.354 A  
HETATM   12  C   UNL     1     -12.177  14.155  69.827  1.00  0.00    -0.397 A  
HETATM   13  C   UNL     1     -12.531  13.926  71.161  1.00  0.00    -0.450 A  
HETATM   14  C   UNL     1     -12.293  14.892  72.138  1.00  0.00    -0.351 A  
HETATM   15  C   UNL     1     -11.707  16.101  71.770  1.00  0.00    -0.568 A  
HETATM   16  C   UNL     1     -11.365  16.336  70.429  1.00  0.00    -0.313 A  
BRANCH  14  17
HETATM   17  O   UNL     1     -12.730  14.569  73.393  1.00  0.00    -0.472 OA 
HETATM   18  C   UNL     1     -12.600  15.582  74.382  1.00  0.00    -0.480 C  
ENDBRANCH  14  17
ENDBRANCH  10  11
ENDBRANCH   7   9
ENDBRANCH   6   7
ENDBRANCH   5   6
ENDBRANCH   4   5
ENDBRANCH   3   4
ENDBRANCH   2   3
TORSDOF 8
ENDMDL
MODEL       13
REMARK 921   NORMALIZED FREE ENERGY PREDICTED BY IDOCK:   -4.78 KCAL/MOL
REMARK 922        TOTAL FREE ENERGY PREDICTED BY IDOCK:   -7.67 KCAL/MOL
REMARK 923 INTER-LIGAND FREE ENERGY PREDICTED BY IDOCK:   -7.23 KCAL/MOL
REMARK 924 INTRA-LIGAND FREE ENERGY PREDICTED BY IDOCK:   -0.44 KCAL/MOL
REMARK 927      BINDING AFFINITY PREDICTED BY RF-SCORE:    0.00 PKD
ROOT
HETATM    1  C   UNL     1      -9.441  10.431  62.722  1.00  0.00    -0.351 C  
HETATM    2  C   UNL     1     -10.059  11.228  63.856  1.00  0.00    -0.340 C  
ENDROOT
BRANCH   2   3
HETATM    3  O   UNL     1     -10.721  12.355  63.292  1.00  0.00    -0.416 OA 
BRANCH   3   4
HETATM    4  C   UNL     1     -12.088  12.455  63.700  1.00  0.00    -0.556 C  
BRANCH   4   5
HETATM    5  C   UNL     1     -12.283  13.852  64.267  1.00  0.00    -0.408 C  
BRANCH   5   6
HETATM    6  O   UNL     1     -12.439  13.873  65.689  1.00  0.00    -0.453 OA 
BRANCH   6   7
HETATM    7  C   UNL     1     -11.324  14.239  66.371  1.00  0.00    -0.343 C  
HETATM    8  O   UNL     1     -10.197  14.347  65.922  1.00  0.00    -0.296 OA 
BRANCH   7   9
HETATM    9  C   UNL     1     -11.775  14.676  67.709  1.00  0.00    -0.386 C  
HETATM   10  C   UNL     1     -11.820  13.814  68.738  1.00  0.00    -0.398 C  
BRANCH  10  11
HETATM   11  C   UNL     1     -12.026  14.229  70.135  1.00  0.00    -0.391 A  
HETATM   12  C   UNL     1     -11.479  15.398  70.677  1.00  0.00    -0.361 A  
HETATM   13  C   UNL     1     -11.650  15.707  72.030  1.00  0.00    -0.540 A  
HETATM   14  C   UNL     1     -12.400  14.876  72.862  1.00  0.00    -0.328 A  
HETATM   15  C   UNL     1     -12.970  13.721  72.333  1.00  0.00    -0.440 A  
HETATM   16  C   UNL     1     -12.786  13.403  70.979  1.00  0.00    -0.387 A  
BRANCH  14  17
HETATM   17  O   UNL     1     -12.450  15.260  74.174  1.00  0.00    -0.586 OA 
HETATM   18  C   UNL     1     -12.303  16.652  74.425  1.00  0.00    -0.245 C  
ENDBRANCH  14  17
ENDBRANCH  10  11
ENDBRANCH   7   9
ENDBRANCH   6   7
ENDBRANCH   5   6
ENDBRANCH   4   5
ENDBRANCH   3   4
ENDBRANCH   2   3
TORSDOF 8
ENDMDL
MODEL       14
REMARK 921   NORMALIZED FREE ENERGY PREDICTED BY IDOCK:   -4.77 KCAL/MOL
REMARK 922        TOTAL FREE ENERGY PREDICTED BY IDOCK:   -7.65 KCAL/MOL
REMARK 923 INTER-LIGAND FREE ENERGY PREDICTED BY IDOCK:   -7.31 KCAL/MOL
REMARK 924 INTRA-LIGAND FREE ENERGY PREDICTED BY IDOCK:   -0.34 KCAL/MOL
REMARK 927      BINDING AFFINITY PREDICTED BY RF-SCORE:    0.00 PKD
ROOT
HETATM    1  C   UNL     1     -10.607  18.789  65.932  1.00  0.00    -0.405 C  
HETATM    2  C   UNL     1     -10.590  17.300  65.635  1.00  0.00    -0.166 C  
ENDROOT
BRANCH   2   3
HETATM    3  O   UNL     1     -11.170  17.100  64.351  1.00  0.00    -1.143 OA 
BRANCH   3   4
HETATM    4  C   UNL     1     -11.821  15.833  64.229  1.00  0.00    -0.118 C  
BRANCH   4   5
HETATM    5  C   UNL     1     -11.089  14.865  65.144  1.00  0.00    -0.393 C  
BRANCH   5   6
HETATM    6  O   UNL     1     -11.928  14.277  66.142  1.00  0.00    -0.391 OA 
BRANCH   6   7
HETATM    7  C   UNL     1     -12.314  13.005  65.871  1.00  0.00    -0.368 C  
HETATM    8  O   UNL     1     -12.934  12.622  64.895  1.00  0.00    -0.830 OA 
BRANCH   7   9
HETATM    9  C   UNL     1     -11.664  12.145  66.883  1.00  0.00    -0.374 C  
HETATM   10  C   UNL     1     -11.908  12.315  68.194  1.00  0.00    -0.372 C  
BRANCH  10  11
HETATM   11  C   UNL     1     -11.491  11.356  69.228  1.00  0.00    -0.370 A  
HETATM   12  C   UNL     1     -10.312  10.605  69.147  1.00  0.00    -0.242 A  
HETATM   13  C   UNL     1      -9.999   9.657  70.127  1.00  0.00    -0.309 A  
HETATM   14  C   UNL     1     -10.836   9.464  71.225  1.00  0.00    -0.361 A  
HETATM   15  C   UNL     1     -12.001  10.219  71.333  1.00  0.00    -0.419 A  
HETATM   16  C   UNL     1     -12.323  11.160  70.342  1.00  0.00    -0.430 A  
BRANCH  14  17
HETATM   17  O   UNL     1     -10.447   8.474  72.085  1.00  0.00    -0.297 OA 
HETATM   18  C   UNL     1     -11.461   7.565  72.494  1.00  0.00    -0.327 C  
ENDBRANCH  14  17
ENDBRANCH  10  11
ENDBRANCH   7   9
ENDBRANCH   6   7
ENDBRANCH   5   6
ENDBRANCH   4   5
ENDBRANCH   3   4
ENDBRANCH   2   3
TORSDOF 8
ENDMDL
MODEL       15
REMARK 921   NORMALIZED FREE ENERGY PREDICTED BY IDOCK:   -4.74 KCAL/MOL
REMARK 922        TOTAL FREE ENERGY PREDICTED BY IDOCK:   -7.62 KCAL/MOL
REMARK 923 INTER-LIGAND FREE ENERGY PREDICTED BY IDOCK:   -7.06 KCAL/MOL
REMARK 924 INTRA-LIGAND FREE ENERGY PREDICTED BY IDOCK:   -0.55 KCAL/MOL
REMARK 927      BINDING AFFINITY PREDICTED BY RF-SCORE:    0.00 PKD
ROOT
HETATM    1  C   UNL     1     -11.825  12.816  66.704  1.00  0.00    -0.462 C  
HETATM    2  C   UNL     1     -11.429  13.225  68.112  1.00  0.00    -0.312 C  
ENDROOT
BRANCH   2   3
HETATM    3  O   UNL     1     -12.258  14.314  68.503  1.00  0.00    -0.289 OA 
BRANCH   3   4
HETATM    4  C   UNL     1     -11.579  15.251  69.343  1.00  0.00    -0.330 C  
BRANCH   4   5
HETATM    5  C   UNL     1     -12.415  15.405  70.604  1.00  0.00    -0.428 C  
BRANCH   5   6
HETATM    6  O   UNL     1     -13.306  14.311  70.836  1.00  0.00    -0.330 OA 
BRANCH   6   7
HETATM    7  C   UNL     1     -13.461  13.980  72.143  1.00  0.00    -0.475 C  
HETATM    8  O   UNL     1     -13.704  14.739  73.064  1.00  0.00    -0.524 OA 
BRANCH   7   9
HETATM    9  C   UNL     1     -13.480  12.503  72.202  1.00  0.00    -0.523 C  
HETATM   10  C   UNL     1     -12.859  11.766  71.266  1.00  0.00    -0.409 C  
BRANCH  10  11
HETATM   11  C   UNL     1     -12.634  10.317  71.390  1.00  0.00    -0.539 A  
HETATM   12  C   UNL     1     -13.647   9.410  71.721  1.00  0.00    -0.461 A  
HETATM   13  C   UNL     1     -13.363   8.051  71.894  1.00  0.00    -0.336 A  
HETATM   14  C   UNL     1     -12.070   7.564  71.704  1.00  0.00    -0.311 A  
HETATM   15  C   UNL     1     -11.055   8.450  71.351  1.00  0.00    -0.312 A  
HETATM   16  C   UNL     1     -11.338   9.816  71.193  1.00  0.00    -0.459 A  
BRANCH  14  17
HETATM   17  O   UNL     1     -11.910   6.229  71.952  1.00  0.00    -0.319 OA 
HETATM   18  C   UNL     1     -10.697   5.646  71.491  1.00  0.00    -0.242 C  
ENDBRANCH  14  17
ENDBRANCH  10  11
ENDBRANCH   7   9
ENDBRANCH   6   7
ENDBRANCH   5   6
ENDBRANCH   4   5
ENDBRANCH   3   4
ENDBRANCH   2   3
TORSDOF 8
ENDMDL
MODEL       16
REMARK 921   NORMALIZED FREE ENERGY PREDICTED BY IDOCK:   -4.71 KCAL/MOL
REMARK 922        TOTAL FREE ENERGY PREDICTED BY IDOCK:   -7.57 KCAL/MOL
REMARK 923 INTER-LIGAND FREE ENERGY PREDICTED BY IDOCK:   -6.78 KCAL/MOL
REMARK 924 INTRA-LIGAND FREE ENERGY PREDICTED BY IDOCK:   -0.79 KCAL/MOL
REMARK 927      BINDING AFFINITY PREDICTED BY RF-SCORE:    0.00 PKD
ROOT
HETATM    1  C   UNL     1     -11.524  12.065  65.860  1.00  0.00    -0.392 C  
HETATM    2  C   UNL     1     -12.558  12.897  65.124  1.00  0.00    -0.471 C  
ENDROOT
BRANCH   2   3
HETATM    3  O   UNL     1     -12.233  14.269  65.310  1.00  0.00    -0.395 OA 
BRANCH   3   4
HETATM    4  C   UNL     1     -10.917  14.592  64.855  1.00  0.00    -0.407 C  
BRANCH   4   5
HETATM    5  C   UNL     1     -10.477  15.837  65.609  1.00  0.00    -0.383 C  
BRANCH   5   6
HETATM    6  O   UNL     1      -9.818  15.551  66.846  1.00  0.00    -0.230 OA 
BRANCH   6   7
HETATM    7  C   UNL     1     -10.303  16.237  67.912  1.00  0.00    -0.285 C  
HETATM    8  O   UNL     1     -10.589  17.421  67.949  1.00  0.00    -0.367 OA 
BRANCH   7   9
HETATM    9  C   UNL     1     -10.609  15.233  68.953  1.00  0.00    -0.242 C  
HETATM   10  C   UNL     1     -11.835  14.692  69.051  1.00  0.00    -0.346 C  
BRANCH  10  11
HETATM   11  C   UNL     1     -12.142  13.528  69.896  1.00  0.00    -0.408 A  
HETATM   12  C   UNL     1     -11.817  12.214  69.539  1.00  0.00    -0.386 A  
HETATM   13  C   UNL     1     -12.195  11.138  70.350  1.00  0.00    -0.457 A  
HETATM   14  C   UNL     1     -12.872  11.353  71.550  1.00  0.00    -0.403 A  
HETATM   15  C   UNL     1     -13.183  12.656  71.931  1.00  0.00    -0.504 A  
HETATM   16  C   UNL     1     -12.817  13.734  71.111  1.00  0.00    -0.409 A  
BRANCH  14  17
HETATM   17  O   UNL     1     -13.231  10.220  72.226  1.00  0.00    -0.409 OA 
HETATM   18  C   UNL     1     -13.598   9.103  71.426  1.00  0.00    -0.288 C  
ENDBRANCH  14  17
ENDBRANCH  10  11
ENDBRANCH   7   9
ENDBRANCH   6   7
ENDBRANCH   5   6
ENDBRANCH   4   5
ENDBRANCH   3   4
ENDBRANCH   2   3
TORSDOF 8
ENDMDL
MODEL       17
REMARK 921   NORMALIZED FREE ENERGY PREDICTED BY IDOCK:   -4.71 KCAL/MOL
REMARK 922        TOTAL FREE ENERGY PREDICTED BY IDOCK:   -7.56 KCAL/MOL
REMARK 923 INTER-LIGAND FREE ENERGY PREDICTED BY IDOCK:   -7.17 KCAL/MOL
REMARK 924 INTRA-LIGAND FREE ENERGY PREDICTED BY IDOCK:   -0.40 KCAL/MOL
REMARK 927      BINDING AFFINITY PREDICTED BY RF-SCORE:    0.00 PKD
ROOT
HETATM    1  C   UNL     1     -10.335  19.436  66.697  1.00  0.00    -0.555 C  
HETATM    2  C   UNL     1      -9.492  18.211  66.393  1.00  0.00    -0.278 C  
ENDROOT
BRANCH   2   3
HETATM    3  O   UNL     1     -10.168  17.447  65.401  1.00  0.00    -0.603 OA 
BRANCH   3   4
HETATM    4  C   UNL     1     -10.406  16.098  65.809  1.00  0.00    -0.378 C  
BRANCH   4   5
HETATM    5  C   UNL     1     -11.184  15.424  64.690  1.00  0.00    -0.364 C  
BRANCH   5   6
HETATM    6  O   UNL     1     -10.723  14.104  64.390  1.00  0.00    -0.352 OA 
BRANCH   6   7
HETATM    7  C   UNL     1     -11.693  13.155  64.399  1.00  0.00    -0.380 C  
HETATM    8  O   UNL     1     -11.995  12.411  63.482  1.00  0.00    -0.475 OA 
BRANCH   7   9
HETATM    9  C   UNL     1     -12.174  13.059  65.793  1.00  0.00    -0.511 C  
HETATM   10  C   UNL     1     -11.477  12.379  66.719  1.00  0.00    -0.423 C  
BRANCH  10  11
HETATM   11  C   UNL     1     -11.766  12.443  68.161  1.00  0.00    -0.408 A  
HETATM   12  C   UNL     1     -11.732  11.323  68.999  1.00  0.00    -0.410 A  
HETATM   13  C   UNL     1     -12.083  11.429  70.349  1.00  0.00    -0.473 A  
HETATM   14  C   UNL     1     -12.439  12.661  70.898  1.00  0.00    -0.278 A  
HETATM   15  C   UNL     1     -12.454  13.789  70.082  1.00  0.00    -0.332 A  
HETATM   16  C   UNL     1     -12.117  13.680  68.725  1.00  0.00    -0.332 A  
BRANCH  14  17
HETATM   17  O   UNL     1     -12.809  12.625  72.214  1.00  0.00    -0.203 OA 
HETATM   18  C   UNL     1     -13.915  13.443  72.577  1.00  0.00    -0.413 C  
ENDBRANCH  14  17
ENDBRANCH  10  11
ENDBRANCH   7   9
ENDBRANCH   6   7
ENDBRANCH   5   6
ENDBRANCH   4   5
ENDBRANCH   3   4
ENDBRANCH   2   3
TORSDOF 8
ENDMDL
MODEL       18
REMARK 921   NORMALIZED FREE ENERGY PREDICTED BY IDOCK:   -4.69 KCAL/MOL
REMARK 922        TOTAL FREE ENERGY PREDICTED BY IDOCK:   -7.54 KCAL/MOL
REMARK 923 INTER-LIGAND FREE ENERGY PREDICTED BY IDOCK:   -7.04 KCAL/MOL
REMARK 924 INTRA-LIGAND FREE ENERGY PREDICTED BY IDOCK:   -0.50 KCAL/MOL
REMARK 927      BINDING AFFINITY PREDICTED BY RF-SCORE:    0.00 PKD
ROOT
HETATM    1  C   UNL     1     -10.586  19.109  65.963  1.00  0.00    -0.524 C  
HETATM    2  C   UNL     1     -10.126  17.665  66.051  1.00  0.00    -0.254 C  
ENDROOT
BRANCH   2   3
HETATM    3  O   UNL     1     -10.748  16.939  64.998  1.00  0.00    -0.700 OA 
BRANCH   3   4
HETATM    4  C   UNL     1     -10.881  15.546  65.289  1.00  0.00    -0.411 C  
BRANCH   4   5
HETATM    5  C   UNL     1     -10.298  15.323  66.675  1.00  0.00    -0.280 C  
BRANCH   5   6
HETATM    6  O   UNL     1     -11.030  14.372  67.455  1.00  0.00    -0.280 OA 
BRANCH   6   7
HETATM    7  C   UNL     1     -11.619  14.889  68.563  1.00  0.00    -0.323 C  
HETATM    8  O   UNL     1     -11.920  16.055  68.752  1.00  0.00    -0.340 OA 
BRANCH   7   9
HETATM    9  C   UNL     1     -12.009  13.740  69.406  1.00  0.00    -0.397 C  
HETATM   10  C   UNL     1     -11.706  12.482  69.043  1.00  0.00    -0.368 C  
BRANCH  10  11
HETATM   11  C   UNL     1     -11.848  11.323  69.937  1.00  0.00    -0.436 A  
HETATM   12  C   UNL     1     -12.900  11.183  70.851  1.00  0.00    -0.374 A  
HETATM   13  C   UNL     1     -12.947  10.092  71.725  1.00  0.00    -0.567 A  
HETATM   14  C   UNL     1     -11.968   9.100  71.682  1.00  0.00    -0.367 A  
HETATM   15  C   UNL     1     -10.928   9.212  70.762  1.00  0.00    -0.332 A  
HETATM   16  C   UNL     1     -10.872  10.314  69.895  1.00  0.00    -0.355 A  
BRANCH  14  17
HETATM   17  O   UNL     1     -12.098   8.114  72.620  1.00  0.00    -0.359 OA 
HETATM   18  C   UNL     1     -10.909   7.411  72.959  1.00  0.00    -0.375 C  
ENDBRANCH  14  17
ENDBRANCH  10  11
ENDBRANCH   7   9
ENDBRANCH   6   7
ENDBRANCH   5   6
ENDBRANCH   4   5
ENDBRANCH   3   4
ENDBRANCH   2   3
TORSDOF 8
ENDMDL
MODEL       19
REMARK 921   NORMALIZED FREE ENERGY PREDICTED BY IDOCK:   -4.68 KCAL/MOL
REMARK 922        TOTAL FREE ENERGY PREDICTED BY IDOCK:   -7.52 KCAL/MOL
REMARK 923 INTER-LIGAND FREE ENERGY PREDICTED BY IDOCK:   -7.11 KCAL/MOL
REMARK 924 INTRA-LIGAND FREE ENERGY PREDICTED BY IDOCK:   -0.41 KCAL/MOL
REMARK 927      BINDING AFFINITY PREDICTED BY RF-SCORE:    0.00 PKD
ROOT
HETATM    1  C   UNL     1     -10.071  19.924  66.550  1.00  0.00    -0.607 C  
HETATM    2  C   UNL     1     -10.769  18.895  67.422  1.00  0.00    -0.444 C  
ENDROOT
BRANCH   2   3
HETATM    3  O   UNL     1      -9.829  18.418  68.378  1.00  0.00    -0.331 OA 
BRANCH   3   4
HETATM    4  C   UNL     1     -10.209  17.164  68.950  1.00  0.00    -0.332 C  
BRANCH   4   5
HETATM    5  C   UNL     1     -10.625  16.259  67.802  1.00  0.00    -0.314 C  
BRANCH   5   6
HETATM    6  O   UNL     1     -11.669  15.343  68.147  1.00  0.00    -0.351 OA 
BRANCH   6   7
HETATM    7  C   UNL     1     -11.820  14.311  67.280  1.00  0.00    -0.413 C  
HETATM    8  O   UNL     1     -11.949  14.387  66.070  1.00  0.00    -0.386 OA 
BRANCH   7   9
HETATM    9  C   UNL     1     -11.594  13.074  68.056  1.00  0.00    -0.383 C  
HETATM   10  C   UNL     1     -11.908  13.010  69.361  1.00  0.00    -0.380 C  
BRANCH  10  11
HETATM   11  C   UNL     1     -11.935  11.755  70.129  1.00  0.00    -0.421 A  
HETATM   12  C   UNL     1     -11.076  10.681  69.873  1.00  0.00    -0.364 A  
HETATM   13  C   UNL     1     -11.192   9.485  70.590  1.00  0.00    -0.364 A  
HETATM   14  C   UNL     1     -12.142   9.350  71.601  1.00  0.00    -0.388 A  
HETATM   15  C   UNL     1     -12.990  10.418  71.884  1.00  0.00    -0.555 A  
HETATM   16  C   UNL     1     -12.883  11.612  71.155  1.00  0.00    -0.392 A  
BRANCH  14  17
HETATM   17  O   UNL     1     -12.190   8.118  72.192  1.00  0.00    -0.319 OA 
HETATM   18  C   UNL     1     -13.084   7.177  71.610  1.00  0.00    -0.361 C  
ENDBRANCH  14  17
ENDBRANCH  10  11
ENDBRANCH   7   9
ENDBRANCH   6   7
ENDBRANCH   5   6
ENDBRANCH   4   5
ENDBRANCH   3   4
ENDBRANCH   2   3
TORSDOF 8
ENDMDL
MODEL       20
REMARK 921   NORMALIZED FREE ENERGY PREDICTED BY IDOCK:   -4.67 KCAL/MOL
REMARK 922        TOTAL FREE ENERGY PREDICTED BY IDOCK:   -7.51 KCAL/MOL
REMARK 923 INTER-LIGAND FREE ENERGY PREDICTED BY IDOCK:   -6.85 KCAL/MOL
REMARK 924 INTRA-LIGAND FREE ENERGY PREDICTED BY IDOCK:   -0.67 KCAL/MOL
REMARK 927      BINDING AFFINITY PREDICTED BY RF-SCORE:    0.00 PKD
ROOT
HETATM    1  C   UNL     1     -10.213   7.317  69.263  1.00  0.00    -0.193 C  
HETATM    2  C   UNL     1     -11.272   6.239  69.406  1.00  0.00    -0.420 C  
ENDROOT
BRANCH   2   3
HETATM    3  O   UNL     1     -11.783   6.297  70.732  1.00  0.00    -0.340 OA 
BRANCH   3   4
HETATM    4  C   UNL     1     -10.787   6.651  71.694  1.00  0.00    -0.234 C  
BRANCH   4   5
HETATM    5  C   UNL     1     -11.428   7.637  72.657  1.00  0.00    -0.349 C  
BRANCH   5   6
HETATM    6  O   UNL     1     -11.577   8.952  72.113  1.00  0.00    -0.363 OA 
BRANCH   6   7
HETATM    7  C   UNL     1     -12.863   9.368  71.995  1.00  0.00    -0.414 C  
HETATM    8  O   UNL     1     -13.822   8.963  72.627  1.00  0.00    -0.445 OA 
BRANCH   7   9
HETATM    9  C   UNL     1     -12.842  10.546  71.101  1.00  0.00    -0.513 C  
HETATM   10  C   UNL     1     -11.778  10.803  70.323  1.00  0.00    -0.442 C  
BRANCH  10  11
HETATM   11  C   UNL     1     -11.783  11.807  69.246  1.00  0.00    -0.398 A  
HETATM   12  C   UNL     1     -11.646  11.480  67.893  1.00  0.00    -0.352 A  
HETATM   13  C   UNL     1     -11.590  12.482  66.918  1.00  0.00    -0.436 A  
HETATM   14  C   UNL     1     -11.706  13.827  67.269  1.00  0.00    -0.382 A  
HETATM   15  C   UNL     1     -11.866  14.167  68.610  1.00  0.00    -0.383 A  
HETATM   16  C   UNL     1     -11.908  13.163  69.590  1.00  0.00    -0.390 A  
BRANCH  14  17
HETATM   17  O   UNL     1     -11.584  14.710  66.233  1.00  0.00    -0.366 OA 
HETATM   18  C   UNL     1     -11.947  14.223  64.947  1.00  0.00    -0.425 C  
ENDBRANCH  14  17
ENDBRANCH  10  11
ENDBRANCH   7   9
ENDBRANCH   6   7
ENDBRANCH   5   6
ENDBRANCH   4   5
ENDBRANCH   3   4
ENDBRANCH   2   3
TORSDOF 8
ENDMDL
MODEL       21
REMARK 921   NORMALIZED FREE ENERGY PREDICTED BY IDOCK:   -4.66 KCAL/MOL
REMARK 922        TOTAL FREE ENERGY PREDICTED BY IDOCK:   -7.50 KCAL/MOL
REMARK 923 INTER-LIGAND FREE ENERGY PREDICTED BY IDOCK:   -6.89 KCAL/MOL
REMARK 924 INTRA-LIGAND FREE ENERGY PREDICTED BY IDOCK:   -0.61 KCAL/MOL
REMARK 927      BINDING AFFINITY PREDICTED BY RF-SCORE:    0.00 PKD
ROOT
HETATM    1  C   UNL     1     -12.116  13.146  69.916  1.00  0.00    -0.357 C  
HETATM    2  C   UNL     1     -11.684  11.740  69.539  1.00  0.00    -0.343 C  
ENDROOT
BRANCH   2   3
HETATM    3  O   UNL     1     -12.153  11.473  68.223  1.00  0.00    -0.580 OA 
BRANCH   3   4
HETATM    4  C   UNL     1     -11.146  10.904  67.382  1.00  0.00    -0.307 C  
BRANCH   4   5
HETATM    5  C   UNL     1     -11.096  11.744  66.116  1.00  0.00    -0.307 C  
BRANCH   5   6
HETATM    6  O   UNL     1     -12.329  12.404  65.819  1.00  0.00    -0.644 OA 
BRANCH   6   7
HETATM    7  C   UNL     1     -12.192  13.585  65.167  1.00  0.00    -0.428 C  
HETATM    8  O   UNL     1     -12.782  13.936  64.160  1.00  0.00    -0.665 OA 
BRANCH   7   9
HETATM    9  C   UNL     1     -11.342  14.441  66.022  1.00  0.00    -0.335 C  
HETATM   10  C   UNL     1     -10.810  15.579  65.548  1.00  0.00    -0.372 C  
BRANCH  10  11
HETATM   11  C   UNL     1     -10.162  16.589  66.401  1.00  0.00    -0.324 A  
HETATM   12  C   UNL     1      -9.351  16.263  67.494  1.00  0.00    -0.217 A  
HETATM   13  C   UNL     1      -8.817  17.265  68.311  1.00  0.00    -0.258 A  
HETATM   14  C   UNL     1      -9.050  18.611  68.034  1.00  0.00    -0.305 A  
HETATM   15  C   UNL     1      -9.836  18.953  66.936  1.00  0.00    -0.371 A  
HETATM   16  C   UNL     1     -10.384  17.948  66.125  1.00  0.00    -0.352 A  
BRANCH  14  17
HETATM   17  O   UNL     1      -8.516  19.491  68.935  1.00  0.00    -0.358 OA 
HETATM   18  C   UNL     1      -7.096  19.538  69.000  1.00  0.00    -0.364 C  
ENDBRANCH  14  17
ENDBRANCH  10  11
ENDBRANCH   7   9
ENDBRANCH   6   7
ENDBRANCH   5   6
ENDBRANCH   4   5
ENDBRANCH   3   4
ENDBRANCH   2   3
TORSDOF 8
ENDMDL
MODEL       22
REMARK 921   NORMALIZED FREE ENERGY PREDICTED BY IDOCK:   -4.65 KCAL/MOL
REMARK 922        TOTAL FREE ENERGY PREDICTED BY IDOCK:   -7.48 KCAL/MOL
REMARK 923 INTER-LIGAND FREE ENERGY PREDICTED BY IDOCK:   -6.73 KCAL/MOL
REMARK 924 INTRA-LIGAND FREE ENERGY PREDICTED BY IDOCK:   -0.75 KCAL/MOL
REMARK 927      BINDING AFFINITY PREDICTED BY RF-SCORE:    0.00 PKD
ROOT
HETATM    1  C   UNL     1      -9.295  10.779  64.953  1.00  0.00    -0.261 C  
HETATM    2  C   UNL     1     -10.437  10.988  63.975  1.00  0.00    -0.366 C  
ENDROOT
BRANCH   2   3
HETATM    3  O   UNL     1     -10.396  12.340  63.533  1.00  0.00    -0.429 OA 
BRANCH   3   4
HETATM    4  C   UNL     1     -11.698  12.908  63.371  1.00  0.00    -0.461 C  
BRANCH   4   5
HETATM    5  C   UNL     1     -12.528  12.473  64.568  1.00  0.00    -0.459 C  
BRANCH   5   6
HETATM    6  O   UNL     1     -12.887  13.552  65.435  1.00  0.00    -0.617 OA 
BRANCH   6   7
HETATM    7  C   UNL     1     -11.981  13.816  66.409  1.00  0.00    -0.438 C  
HETATM    8  O   UNL     1     -11.626  14.914  66.798  1.00  0.00    -0.344 OA 
BRANCH   7   9
HETATM    9  C   UNL     1     -11.659  12.520  67.046  1.00  0.00    -0.437 C  
HETATM   10  C   UNL     1     -11.549  12.415  68.381  1.00  0.00    -0.373 C  
BRANCH  10  11
HETATM   11  C   UNL     1     -11.470  11.128  69.089  1.00  0.00    -0.366 A  
HETATM   12  C   UNL     1     -12.062  10.902  70.337  1.00  0.00    -0.453 A  
HETATM   13  C   UNL     1     -11.897   9.679  70.996  1.00  0.00    -0.428 A  
HETATM   14  C   UNL     1     -11.169   8.645  70.409  1.00  0.00    -0.218 A  
HETATM   15  C   UNL     1     -10.593   8.846  69.156  1.00  0.00    -0.211 A  
HETATM   16  C   UNL     1     -10.746  10.078  68.502  1.00  0.00    -0.264 A  
BRANCH  14  17
HETATM   17  O   UNL     1     -11.037   7.520  71.174  1.00  0.00    -0.244 OA 
HETATM   18  C   UNL     1     -11.389   6.292  70.549  1.00  0.00    -0.361 C  
ENDBRANCH  14  17
ENDBRANCH  10  11
ENDBRANCH   7   9
ENDBRANCH   6   7
ENDBRANCH   5   6
ENDBRANCH   4   5
ENDBRANCH   3   4
ENDBRANCH   2   3
TORSDOF 8
ENDMDL
MODEL       23
REMARK 921   NORMALIZED FREE ENERGY PREDICTED BY IDOCK:   -4.65 KCAL/MOL
REMARK 922        TOTAL FREE ENERGY PREDICTED BY IDOCK:   -7.47 KCAL/MOL
REMARK 923 INTER-LIGAND FREE ENERGY PREDICTED BY IDOCK:   -7.09 KCAL/MOL
REMARK 924 INTRA-LIGAND FREE ENERGY PREDICTED BY IDOCK:   -0.38 KCAL/MOL
REMARK 927      BINDING AFFINITY PREDICTED BY RF-SCORE:    0.00 PKD
ROOT
HETATM    1  C   UNL     1     -10.500  19.751  67.326  1.00  0.00    -0.579 C  
HETATM    2  C   UNL     1      -9.466  18.708  67.710  1.00  0.00    -0.300 C  
ENDROOT
BRANCH   2   3
HETATM    3  O   UNL     1      -9.958  17.993  68.836  1.00  0.00    -0.370 OA 
BRANCH   3   4
HETATM    4  C   UNL     1     -10.588  16.761  68.477  1.00  0.00    -0.354 C  
BRANCH   4   5
HETATM    5  C   UNL     1     -10.709  15.934  69.748  1.00  0.00    -0.324 C  
BRANCH   5   6
HETATM    6  O   UNL     1     -11.674  14.883  69.656  1.00  0.00    -0.284 OA 
BRANCH   6   7
HETATM    7  C   UNL     1     -12.609  14.892  70.639  1.00  0.00    -0.363 C  
HETATM    8  O   UNL     1     -13.322  15.826  70.961  1.00  0.00    -0.580 OA 
BRANCH   7   9
HETATM    9  C   UNL     1     -12.737  13.496  71.108  1.00  0.00    -0.425 C  
HETATM   10  C   UNL     1     -12.302  12.472  70.355  1.00  0.00    -0.311 C  
BRANCH  10  11
HETATM   11  C   UNL     1     -12.179  11.092  70.854  1.00  0.00    -0.468 A  
HETATM   12  C   UNL     1     -11.181  10.209  70.428  1.00  0.00    -0.402 A  
HETATM   13  C   UNL     1     -11.154   8.887  70.884  1.00  0.00    -0.328 A  
HETATM   14  C   UNL     1     -12.098   8.430  71.803  1.00  0.00    -0.328 A  
HETATM   15  C   UNL     1     -13.084   9.304  72.254  1.00  0.00    -0.517 A  
HETATM   16  C   UNL     1     -13.121  10.626  71.785  1.00  0.00    -0.571 A  
BRANCH  14  17
HETATM   17  O   UNL     1     -11.996   7.107  72.132  1.00  0.00    -0.292 OA 
HETATM   18  C   UNL     1     -11.468   6.250  71.127  1.00  0.00    -0.299 C  
ENDBRANCH  14  17
ENDBRANCH  10  11
ENDBRANCH   7   9
ENDBRANCH   6   7
ENDBRANCH   5   6
ENDBRANCH   4   5
ENDBRANCH   3   4
ENDBRANCH   2   3
TORSDOF 8
ENDMDL
MODEL       24
REMARK 921   NORMALIZED FREE ENERGY PREDICTED BY IDOCK:   -4.65 KCAL/MOL
REMARK 922        TOTAL FREE ENERGY PREDICTED BY IDOCK:   -7.47 KCAL/MOL
REMARK 923 INTER-LIGAND FREE ENERGY PREDICTED BY IDOCK:   -7.14 KCAL/MOL
REMARK 924 INTRA-LIGAND FREE ENERGY PREDICTED BY IDOCK:   -0.33 KCAL/MOL
REMARK 927      BINDING AFFINITY PREDICTED BY RF-SCORE:    0.00 PKD
ROOT
HETATM    1  C   UNL     1     -12.268  12.571  63.457  1.00  0.00    -0.652 C  
HETATM    2  C   UNL     1     -11.934  13.914  64.083  1.00  0.00    -0.428 C  
ENDROOT
BRANCH   2   3
HETATM    3  O   UNL     1     -10.568  13.887  64.479  1.00  0.00    -0.424 OA 
BRANCH   3   4
HETATM    4  C   UNL     1     -10.282  14.798  65.543  1.00  0.00    -0.374 C  
BRANCH   4   5
HETATM    5  C   UNL     1     -11.244  14.478  66.675  1.00  0.00    -0.346 C  
BRANCH   5   6
HETATM    6  O   UNL     1     -10.757  13.476  67.572  1.00  0.00    -0.255 OA 
BRANCH   6   7
HETATM    7  C   UNL     1     -11.453  12.311  67.545  1.00  0.00    -0.347 C  
HETATM    8  O   UNL     1     -12.132  11.889  66.627  1.00  0.00    -0.587 OA 
BRANCH   7   9
HETATM    9  C   UNL     1     -11.064  11.562  68.759  1.00  0.00    -0.288 C  
HETATM   10  C   UNL     1     -11.994  11.008  69.555  1.00  0.00    -0.413 C  
BRANCH  10  11
HETATM   11  C   UNL     1     -11.677  10.057  70.633  1.00  0.00    -0.421 A  
HETATM   12  C   UNL     1     -10.380   9.601  70.896  1.00  0.00    -0.334 A  
HETATM   13  C   UNL     1     -10.146   8.644  71.889  1.00  0.00    -0.398 A  
HETATM   14  C   UNL     1     -11.195   8.150  72.664  1.00  0.00    -0.378 A  
HETATM   15  C   UNL     1     -12.488   8.611  72.430  1.00  0.00    -0.428 A  
HETATM   16  C   UNL     1     -12.725   9.559  71.424  1.00  0.00    -0.445 A  
BRANCH  14  17
HETATM   17  O   UNL     1     -10.845   7.183  73.565  1.00  0.00    -0.361 OA 
HETATM   18  C   UNL     1     -10.880   5.842  73.092  1.00  0.00    -0.266 C  
ENDBRANCH  14  17
ENDBRANCH  10  11
ENDBRANCH   7   9
ENDBRANCH   6   7
ENDBRANCH   5   6
ENDBRANCH   4   5
ENDBRANCH   3   4
ENDBRANCH   2   3
TORSDOF 8
ENDMDL
MODEL       25
REMARK 921   NORMALIZED FREE ENERGY PREDICTED BY IDOCK:   -4.62 KCAL/MOL
REMARK 922        TOTAL FREE ENERGY PREDICTED BY IDOCK:   -7.44 KCAL/MOL
REMARK 923 INTER-LIGAND FREE ENERGY PREDICTED BY IDOCK:   -6.64 KCAL/MOL
REMARK 924 INTRA-LIGAND FREE ENERGY PREDICTED BY IDOCK:   -0.79 KCAL/MOL
REMARK 927      BINDING AFFINITY PREDICTED BY RF-SCORE:    0.00 PKD
ROOT
HETATM    1  C   UNL     1      -8.965   8.824  70.724  1.00  0.00    -0.231 C  
HETATM    2  C   UNL     1      -9.718   7.911  69.774  1.00  0.00    -0.176 C  
ENDROOT
BRANCH   2   3
HETATM    3  O   UNL     1     -10.287   6.854  70.538  1.00  0.00    -0.201 OA 
BRANCH   3   4
HETATM    4  C   UNL     1     -11.717   6.862  70.514  1.00  0.00    -0.350 C  
BRANCH   4   5
HETATM    5  C   UNL     1     -12.185   7.153  71.931  1.00  0.00    -0.323 C  
BRANCH   5   6
HETATM    6  O   UNL     1     -12.164   8.543  72.265  1.00  0.00    -0.357 OA 
BRANCH   6   7
HETATM    7  C   UNL     1     -13.380   9.145  72.242  1.00  0.00    -0.477 C  
HETATM    8  O   UNL     1     -14.350   8.856  72.920  1.00  0.00    -0.548 OA 
BRANCH   7   9
HETATM    9  C   UNL     1     -13.238  10.344  71.389  1.00  0.00    -0.459 C  
HETATM   10  C   UNL     1     -12.056  10.660  70.833  1.00  0.00    -0.489 C  
BRANCH  10  11
HETATM   11  C   UNL     1     -11.899  11.689  69.792  1.00  0.00    -0.428 A  
HETATM   12  C   UNL     1     -12.022  13.060  70.045  1.00  0.00    -0.383 A  
HETATM   13  C   UNL     1     -11.930  13.989  69.003  1.00  0.00    -0.392 A  
HETATM   14  C   UNL     1     -11.678  13.574  67.696  1.00  0.00    -0.363 A  
HETATM   15  C   UNL     1     -11.530  12.214  67.433  1.00  0.00    -0.415 A  
HETATM   16  C   UNL     1     -11.636  11.280  68.475  1.00  0.00    -0.384 A  
BRANCH  14  17
HETATM   17  O   UNL     1     -11.662  14.572  66.762  1.00  0.00    -0.373 OA 
HETATM   18  C   UNL     1     -10.379  14.990  66.313  1.00  0.00    -0.296 C  
ENDBRANCH  14  17
ENDBRANCH  10  11
ENDBRANCH   7   9
ENDBRANCH   6   7
ENDBRANCH   5   6
ENDBRANCH   4   5
ENDBRANCH   3   4
ENDBRANCH   2   3
TORSDOF 8
ENDMDL
MODEL       26
REMARK 921   NORMALIZED FREE ENERGY PREDICTED BY IDOCK:   -4.61 KCAL/MOL
REMARK 922        TOTAL FREE ENERGY PREDICTED BY IDOCK:   -7.42 KCAL/MOL
REMARK 923 INTER-LIGAND FREE ENERGY PREDICTED BY IDOCK:   -7.01 KCAL/MOL
REMARK 924 INTRA-LIGAND FREE ENERGY PREDICTED BY IDOCK:   -0.41 KCAL/MOL
REMARK 927      BINDING AFFINITY PREDICTED BY RF-SCORE:    0.00 PKD
ROOT
HETATM    1  C   UNL     1     -12.410  16.385  73.985  1.00  0.00    -0.588 C  
HETATM    2  C   UNL     1     -12.299  15.236  72.998  1.00  0.00    -0.417 C  
ENDROOT
BRANCH   2   3
HETATM    3  O   UNL     1     -13.229  14.232  73.386  1.00  0.00    -0.543 OA 
BRANCH   3   4
HETATM    4  C   UNL     1     -13.800  13.545  72.269  1.00  0.00    -0.581 C  
BRANCH   4   5
HETATM    5  C   UNL     1     -12.804  13.649  71.125  1.00  0.00    -0.323 C  
BRANCH   5   6
HETATM    6  O   UNL     1     -12.313  12.381  70.679  1.00  0.00    -0.351 OA 
BRANCH   6   7
HETATM    7  C   UNL     1     -11.998  12.334  69.361  1.00  0.00    -0.259 C  
HETATM    8  O   UNL     1     -12.110  11.374  68.618  1.00  0.00    -0.518 OA 
BRANCH   7   9
HETATM    9  C   UNL     1     -11.688  13.720  68.953  1.00  0.00    -0.374 C  
HETATM   10  C   UNL     1     -10.446  14.067  68.573  1.00  0.00    -0.251 C  
BRANCH  10  11
HETATM   11  C   UNL     1     -10.122  15.352  67.933  1.00  0.00    -0.226 A  
HETATM   12  C   UNL     1     -10.810  16.540  68.207  1.00  0.00    -0.352 A  
HETATM   13  C   UNL     1     -10.504  17.718  67.518  1.00  0.00    -0.376 A  
HETATM   14  C   UNL     1      -9.483  17.745  66.569  1.00  0.00    -0.290 A  
HETATM   15  C   UNL     1      -8.774  16.576  66.301  1.00  0.00    -0.369 A  
HETATM   16  C   UNL     1      -9.090  15.391  66.982  1.00  0.00    -0.247 A  
BRANCH  14  17
HETATM   17  O   UNL     1      -9.316  18.941  65.929  1.00  0.00    -0.454 OA 
HETATM   18  C   UNL     1     -10.291  19.940  66.202  1.00  0.00    -0.494 C  
ENDBRANCH  14  17
ENDBRANCH  10  11
ENDBRANCH   7   9
ENDBRANCH   6   7
ENDBRANCH   5   6
ENDBRANCH   4   5
ENDBRANCH   3   4
ENDBRANCH   2   3
TORSDOF 8
ENDMDL
MODEL       27
REMARK 921   NORMALIZED FREE ENERGY PREDICTED BY IDOCK:   -4.61 KCAL/MOL
REMARK 922        TOTAL FREE ENERGY PREDICTED BY IDOCK:   -7.42 KCAL/MOL
REMARK 923 INTER-LIGAND FREE ENERGY PREDICTED BY IDOCK:   -6.94 KCAL/MOL
REMARK 924 INTRA-LIGAND FREE ENERGY PREDICTED BY IDOCK:   -0.48 KCAL/MOL
REMARK 927      BINDING AFFINITY PREDICTED BY RF-SCORE:    0.00 PKD
ROOT
HETATM    1  C   UNL     1     -12.451  15.831  74.162  1.00  0.00    -0.793 C  
HETATM    2  C   UNL     1     -12.009  16.056  72.727  1.00  0.00    -0.518 C  
ENDROOT
BRANCH   2   3
HETATM    3  O   UNL     1     -12.993  15.492  71.869  1.00  0.00    -0.382 OA 
BRANCH   3   4
HETATM    4  C   UNL     1     -12.632  15.565  70.488  1.00  0.00    -0.416 C  
BRANCH   4   5
HETATM    5  C   UNL     1     -12.267  14.157  70.047  1.00  0.00    -0.357 C  
BRANCH   5   6
HETATM    6  O   UNL     1     -11.115  14.104  69.201  1.00  0.00    -0.251 OA 
BRANCH   6   7
HETATM    7  C   UNL     1     -11.346  14.472  67.915  1.00  0.00    -0.310 C  
HETATM    8  O   UNL     1     -12.266  14.107  67.206  1.00  0.00    -0.402 OA 
BRANCH   7   9
HETATM    9  C   UNL     1     -10.385  15.553  67.609  1.00  0.00    -0.269 C  
HETATM   10  C   UNL     1     -10.792  16.830  67.510  1.00  0.00    -0.216 C  
BRANCH  10  11
HETATM   11  C   UNL     1      -9.868  17.973  67.447  1.00  0.00    -0.309 A  
HETATM   12  C   UNL     1      -8.475  17.836  67.473  1.00  0.00    -0.227 A  
HETATM   13  C   UNL     1      -7.645  18.962  67.480  1.00  0.00    -0.246 A  
HETATM   14  C   UNL     1      -8.186  20.246  67.425  1.00  0.00    -0.338 A  
HETATM   15  C   UNL     1      -9.569  20.400  67.375  1.00  0.00    -0.584 A  
HETATM   16  C   UNL     1     -10.402  19.270  67.383  1.00  0.00    -0.540 A  
BRANCH  14  17
HETATM   17  O   UNL     1      -7.274  21.263  67.489  1.00  0.00    -0.476 OA 
HETATM   18  C   UNL     1      -6.113  21.016  68.272  1.00  0.00    -0.304 C  
ENDBRANCH  14  17
ENDBRANCH  10  11
ENDBRANCH   7   9
ENDBRANCH   6   7
ENDBRANCH   5   6
ENDBRANCH   4   5
ENDBRANCH   3   4
ENDBRANCH   2   3
TORSDOF 8
ENDMDL
MODEL       28
REMARK 921   NORMALIZED FREE ENERGY PREDICTED BY IDOCK:   -4.59 KCAL/MOL
REMARK 922        TOTAL FREE ENERGY PREDICTED BY IDOCK:   -7.40 KCAL/MOL
REMARK 923 INTER-LIGAND FREE ENERGY PREDICTED BY IDOCK:   -7.01 KCAL/MOL
REMARK 924 INTRA-LIGAND FREE ENERGY PREDICTED BY IDOCK:   -0.38 KCAL/MOL
REMARK 927      BINDING AFFINITY PREDICTED BY RF-SCORE:    0.00 PKD
ROOT
HETATM    1  C   UNL     1     -12.224  15.938  74.380  1.00  0.00    -0.656 C  
HETATM    2  C   UNL     1     -13.295  15.924  73.305  1.00  0.00    -0.564 C  
ENDROOT
BRANCH   2   3
HETATM    3  O   UNL     1     -13.756  14.586  73.160  1.00  0.00    -0.536 OA 
BRANCH   3   4
HETATM    4  C   UNL     1     -13.916  14.201  71.793  1.00  0.00    -0.421 C  
BRANCH   4   5
HETATM    5  C   UNL     1     -12.557  13.726  71.302  1.00  0.00    -0.362 C  
BRANCH   5   6
HETATM    6  O   UNL     1     -12.341  13.959  69.907  1.00  0.00    -0.332 OA 
BRANCH   6   7
HETATM    7  C   UNL     1     -11.788  12.913  69.243  1.00  0.00    -0.309 C  
HETATM    8  O   UNL     1     -11.154  12.962  68.203  1.00  0.00    -0.230 OA 
BRANCH   7   9
HETATM    9  C   UNL     1     -11.925  11.735  70.125  1.00  0.00    -0.421 C  
HETATM   10  C   UNL     1     -11.073  10.700  70.033  1.00  0.00    -0.359 C  
BRANCH  10  11
HETATM   11  C   UNL     1     -11.003   9.616  71.026  1.00  0.00    -0.431 A  
HETATM   12  C   UNL     1     -12.131   9.081  71.658  1.00  0.00    -0.422 A  
HETATM   13  C   UNL     1     -12.000   8.098  72.644  1.00  0.00    -0.353 A  
HETATM   14  C   UNL     1     -10.744   7.603  72.995  1.00  0.00    -0.391 A  
HETATM   15  C   UNL     1      -9.613   8.109  72.358  1.00  0.00    -0.335 A  
HETATM   16  C   UNL     1      -9.744   9.105  71.379  1.00  0.00    -0.338 A  
BRANCH  14  17
HETATM   17  O   UNL     1     -10.743   6.684  74.007  1.00  0.00    -0.262 OA 
HETATM   18  C   UNL     1     -10.719   5.318  73.613  1.00  0.00    -0.294 C  
ENDBRANCH  14  17
ENDBRANCH  10  11
ENDBRANCH   7   9
ENDBRANCH   6   7
ENDBRANCH   5   6
ENDBRANCH   4   5
ENDBRANCH   3   4
ENDBRANCH   2   3
TORSDOF 8
ENDMDL
MODEL       29
REMARK 921   NORMALIZED FREE ENERGY PREDICTED BY IDOCK:   -4.59 KCAL/MOL
REMARK 922        TOTAL FREE ENERGY PREDICTED BY IDOCK:   -7.39 KCAL/MOL
REMARK 923 INTER-LIGAND FREE ENERGY PREDICTED BY IDOCK:   -6.62 KCAL/MOL
REMARK 924 INTRA-LIGAND FREE ENERGY PREDICTED BY IDOCK:   -0.77 KCAL/MOL
REMARK 927      BINDING AFFINITY PREDICTED BY RF-SCORE:    0.00 PKD
ROOT
HETATM    1  C   UNL     1     -10.556  19.394  66.067  1.00  0.00    -0.573 C  
HETATM    2  C   UNL     1     -10.980  19.392  67.525  1.00  0.00    -0.299 C  
ENDROOT
BRANCH   2   3
HETATM    3  O   UNL     1      -9.935  19.982  68.288  1.00  0.00    -0.397 OA 
BRANCH   3   4
HETATM    4  C   UNL     1      -8.663  19.901  67.641  1.00  0.00    -0.334 C  
BRANCH   4   5
HETATM    5  C   UNL     1      -7.794  18.976  68.478  1.00  0.00    -0.340 C  
BRANCH   5   6
HETATM    6  O   UNL     1      -7.525  17.720  67.850  1.00  0.00    -0.202 OA 
BRANCH   6   7
HETATM    7  C   UNL     1      -7.612  16.648  68.676  1.00  0.00    -0.214 C  
HETATM    8  O   UNL     1      -6.944  16.438  69.673  1.00  0.00    -0.211 OA 
BRANCH   7   9
HETATM    9  C   UNL     1      -8.808  15.888  68.252  1.00  0.00    -0.179 C  
HETATM   10  C   UNL     1      -9.358  16.085  67.042  1.00  0.00    -0.233 C  
BRANCH  10  11
HETATM   11  C   UNL     1     -10.388  15.206  66.467  1.00  0.00    -0.286 A  
HETATM   12  C   UNL     1     -10.905  14.090  67.135  1.00  0.00    -0.288 A  
HETATM   13  C   UNL     1     -11.833  13.250  66.512  1.00  0.00    -0.450 A  
HETATM   14  C   UNL     1     -12.293  13.525  65.225  1.00  0.00    -0.467 A  
HETATM   15  C   UNL     1     -11.806  14.645  64.555  1.00  0.00    -0.442 A  
HETATM   16  C   UNL     1     -10.863  15.480  65.174  1.00  0.00    -0.452 A  
BRANCH  14  17
HETATM   17  O   UNL     1     -13.159  12.602  64.707  1.00  0.00    -0.852 OA 
HETATM   18  C   UNL     1     -12.736  11.942  63.520  1.00  0.00    -0.405 C  
ENDBRANCH  14  17
ENDBRANCH  10  11
ENDBRANCH   7   9
ENDBRANCH   6   7
ENDBRANCH   5   6
ENDBRANCH   4   5
ENDBRANCH   3   4
ENDBRANCH   2   3
TORSDOF 8
ENDMDL
MODEL       30
REMARK 921   NORMALIZED FREE ENERGY PREDICTED BY IDOCK:   -4.59 KCAL/MOL
REMARK 922        TOTAL FREE ENERGY PREDICTED BY IDOCK:   -7.39 KCAL/MOL
REMARK 923 INTER-LIGAND FREE ENERGY PREDICTED BY IDOCK:   -6.78 KCAL/MOL
REMARK 924 INTRA-LIGAND FREE ENERGY PREDICTED BY IDOCK:   -0.60 KCAL/MOL
REMARK 927      BINDING AFFINITY PREDICTED BY RF-SCORE:    0.00 PKD
ROOT
HETATM    1  C   UNL     1     -13.673  14.854  71.275  1.00  0.00    -0.505 C  
HETATM    2  C   UNL     1     -13.341  13.535  71.950  1.00  0.00    -0.443 C  
ENDROOT
BRANCH   2   3
HETATM    3  O   UNL     1     -12.519  12.783  71.065  1.00  0.00    -0.376 OA 
BRANCH   3   4
HETATM    4  C   UNL     1     -12.666  11.371  71.238  1.00  0.00    -0.393 C  
BRANCH   4   5
HETATM    5  C   UNL     1     -11.958  10.702  70.071  1.00  0.00    -0.329 C  
BRANCH   5   6
HETATM    6  O   UNL     1     -12.243  11.309  68.807  1.00  0.00    -0.532 OA 
BRANCH   6   7
HETATM    7  C   UNL     1     -11.348  11.017  67.830  1.00  0.00    -0.311 C  
HETATM    8  O   UNL     1     -11.058   9.909  67.414  1.00  0.00    -0.234 OA 
BRANCH   7   9
HETATM    9  C   UNL     1     -10.946  12.307  67.230  1.00  0.00    -0.301 C  
HETATM   10  C   UNL     1     -11.623  13.435  67.501  1.00  0.00    -0.382 C  
BRANCH  10  11
HETATM   11  C   UNL     1     -11.142  14.778  67.137  1.00  0.00    -0.333 A  
HETATM   12  C   UNL     1     -10.985  15.814  68.064  1.00  0.00    -0.330 A  
HETATM   13  C   UNL     1     -10.590  17.090  67.650  1.00  0.00    -0.333 A  
HETATM   14  C   UNL     1     -10.308  17.349  66.309  1.00  0.00    -0.330 A  
HETATM   15  C   UNL     1     -10.437  16.322  65.377  1.00  0.00    -0.365 A  
HETATM   16  C   UNL     1     -10.848  15.046  65.790  1.00  0.00    -0.355 A  
BRANCH  14  17
HETATM   17  O   UNL     1      -9.981  18.646  66.024  1.00  0.00    -0.485 OA 
HETATM   18  C   UNL     1     -10.730  19.645  66.705  1.00  0.00    -0.447 C  
ENDBRANCH  14  17
ENDBRANCH  10  11
ENDBRANCH   7   9
ENDBRANCH   6   7
ENDBRANCH   5   6
ENDBRANCH   4   5
ENDBRANCH   3   4
ENDBRANCH   2   3
TORSDOF 8
ENDMDL
MODEL       31
REMARK 921   NORMALIZED FREE ENERGY PREDICTED BY IDOCK:   -4.54 KCAL/MOL
REMARK 922        TOTAL FREE ENERGY PREDICTED BY IDOCK:   -7.31 KCAL/MOL
REMARK 923 INTER-LIGAND FREE ENERGY PREDICTED BY IDOCK:   -6.58 KCAL/MOL
REMARK 924 INTRA-LIGAND FREE ENERGY PREDICTED BY IDOCK:   -0.73 KCAL/MOL
REMARK 927      BINDING AFFINITY PREDICTED BY RF-SCORE:    0.00 PKD
ROOT
HETATM    1  C   UNL     1     -10.941   6.541  68.384  1.00  0.00    -0.358 C  
HETATM    2  C   UNL     1     -11.055   6.052  69.817  1.00  0.00    -0.406 C  
ENDROOT
BRANCH   2   3
HETATM    3  O   UNL     1     -11.938   6.925  70.511  1.00  0.00    -0.355 OA 
BRANCH   3   4
HETATM    4  C   UNL     1     -11.615   7.052  71.898  1.00  0.00    -0.284 C  
BRANCH   4   5
HETATM    5  C   UNL     1     -11.991   8.464  72.316  1.00  0.00    -0.389 C  
BRANCH   5   6
HETATM    6  O   UNL     1     -11.555   9.467  71.395  1.00  0.00    -0.340 OA 
BRANCH   6   7
HETATM    7  C   UNL     1     -12.445  10.473  71.197  1.00  0.00    -0.412 C  
HETATM    8  O   UNL     1     -13.236  10.917  72.010  1.00  0.00    -0.492 OA 
BRANCH   7   9
HETATM    9  C   UNL     1     -12.129  11.060  69.878  1.00  0.00    -0.435 C  
HETATM   10  C   UNL     1     -11.280  10.447  69.035  1.00  0.00    -0.289 C  
BRANCH  10  11
HETATM   11  C   UNL     1     -11.107  10.843  67.628  1.00  0.00    -0.376 A  
HETATM   12  C   UNL     1     -10.314  10.129  66.723  1.00  0.00    -0.285 A  
HETATM   13  C   UNL     1     -10.131  10.590  65.415  1.00  0.00    -0.358 A  
HETATM   14  C   UNL     1     -10.762  11.752  64.973  1.00  0.00    -0.292 A  
HETATM   15  C   UNL     1     -11.573  12.462  65.855  1.00  0.00    -0.449 A  
HETATM   16  C   UNL     1     -11.745  12.008  67.172  1.00  0.00    -0.344 A  
BRANCH  14  17
HETATM   17  O   UNL     1     -10.462  12.125  63.692  1.00  0.00    -0.393 OA 
HETATM   18  C   UNL     1      -9.722  11.186  62.923  1.00  0.00    -0.320 C  
ENDBRANCH  14  17
ENDBRANCH  10  11
ENDBRANCH   7   9
ENDBRANCH   6   7
ENDBRANCH   5   6
ENDBRANCH   4   5
ENDBRANCH   3   4
ENDBRANCH   2   3
TORSDOF 8
ENDMDL
MODEL       32
REMARK 921   NORMALIZED FREE ENERGY PREDICTED BY IDOCK:   -4.50 KCAL/MOL
REMARK 922        TOTAL FREE ENERGY PREDICTED BY IDOCK:   -7.26 KCAL/MOL
REMARK 923 INTER-LIGAND FREE ENERGY PREDICTED BY IDOCK:   -6.57 KCAL/MOL
REMARK 924 INTRA-LIGAND FREE ENERGY PREDICTED BY IDOCK:   -0.70 KCAL/MOL
REMARK 927      BINDING AFFINITY PREDICTED BY RF-SCORE:    0.00 PKD
ROOT
HETATM    1  C   UNL     1     -10.806   6.942  68.301  1.00  0.00    -0.244 C  
HETATM    2  C   UNL     1     -10.935   5.946  69.440  1.00  0.00    -0.350 C  
ENDROOT
BRANCH   2   3
HETATM    3  O   UNL     1     -11.672   6.567  70.486  1.00  0.00    -0.380 OA 
BRANCH   3   4
HETATM    4  C   UNL     1     -10.842   6.998  71.568  1.00  0.00    -0.230 C  
BRANCH   4   5
HETATM    5  C   UNL     1     -11.626   8.047  72.341  1.00  0.00    -0.390 C  
BRANCH   5   6
HETATM    6  O   UNL     1     -11.466   9.372  71.827  1.00  0.00    -0.380 OA 
BRANCH   6   7
HETATM    7  C   UNL     1     -12.630  10.028  71.591  1.00  0.00    -0.427 C  
HETATM    8  O   UNL     1     -13.627  10.021  72.292  1.00  0.00    -0.381 OA 
BRANCH   7   9
HETATM    9  C   UNL     1     -12.387  10.910  70.430  1.00  0.00    -0.436 C  
HETATM   10  C   UNL     1     -11.474  10.589  69.498  1.00  0.00    -0.339 C  
BRANCH  10  11
HETATM   11  C   UNL     1     -11.350  11.288  68.209  1.00  0.00    -0.359 A  
HETATM   12  C   UNL     1     -11.875  12.564  67.975  1.00  0.00    -0.382 A  
HETATM   13  C   UNL     1     -11.788  13.152  66.709  1.00  0.00    -0.444 A  
HETATM   14  C   UNL     1     -11.143  12.496  65.660  1.00  0.00    -0.303 A  
HETATM   15  C   UNL     1     -10.595  11.235  65.883  1.00  0.00    -0.309 A  
HETATM   16  C   UNL     1     -10.696  10.639  67.149  1.00  0.00    -0.327 A  
BRANCH  14  17
HETATM   17  O   UNL     1     -11.170  13.152  64.461  1.00  0.00    -0.324 OA 
HETATM   18  C   UNL     1     -12.073  12.643  63.488  1.00  0.00    -0.561 C  
ENDBRANCH  14  17
ENDBRANCH  10  11
ENDBRANCH   7   9
ENDBRANCH   6   7
ENDBRANCH   5   6
ENDBRANCH   4   5
ENDBRANCH   3   4
ENDBRANCH   2   3
TORSDOF 8
ENDMDL
MODEL       33
REMARK 921   NORMALIZED FREE ENERGY PREDICTED BY IDOCK:   -4.50 KCAL/MOL
REMARK 922        TOTAL FREE ENERGY PREDICTED BY IDOCK:   -7.25 KCAL/MOL
REMARK 923 INTER-LIGAND FREE ENERGY PREDICTED BY IDOCK:   -6.70 KCAL/MOL
REMARK 924 INTRA-LIGAND FREE ENERGY PREDICTED BY IDOCK:   -0.55 KCAL/MOL
REMARK 927      BINDING AFFINITY PREDICTED BY RF-SCORE:    0.00 PKD
ROOT
HETATM    1  C   UNL     1      -9.940  10.477  64.542  1.00  0.00    -0.413 C  
HETATM    2  C   UNL     1      -9.959  11.389  63.329  1.00  0.00    -0.401 C  
ENDROOT
BRANCH   2   3
HETATM    3  O   UNL     1     -10.517  12.637  63.725  1.00  0.00    -0.421 OA 
BRANCH   3   4
HETATM    4  C   UNL     1     -11.945  12.649  63.664  1.00  0.00    -0.535 C  
BRANCH   4   5
HETATM    5  C   UNL     1     -12.438  13.370  64.908  1.00  0.00    -0.396 C  
BRANCH   5   6
HETATM    6  O   UNL     1     -12.167  12.664  66.122  1.00  0.00    -0.568 OA 
BRANCH   6   7
HETATM    7  C   UNL     1     -11.930  13.461  67.194  1.00  0.00    -0.366 C  
HETATM    8  O   UNL     1     -12.111  13.181  68.366  1.00  0.00    -0.318 OA 
BRANCH   7   9
HETATM    9  C   UNL     1     -11.223  14.654  66.682  1.00  0.00    -0.349 C  
HETATM   10  C   UNL     1     -11.006  15.720  67.472  1.00  0.00    -0.293 C  
BRANCH  10  11
HETATM   11  C   UNL     1     -10.110  16.829  67.108  1.00  0.00    -0.282 A  
HETATM   12  C   UNL     1      -8.843  16.639  66.545  1.00  0.00    -0.314 A  
HETATM   13  C   UNL     1      -8.006  17.728  66.283  1.00  0.00    -0.283 A  
HETATM   14  C   UNL     1      -8.429  19.032  66.543  1.00  0.00    -0.314 A  
HETATM   15  C   UNL     1      -9.697  19.239  67.081  1.00  0.00    -0.409 A  
HETATM   16  C   UNL     1     -10.531  18.145  67.358  1.00  0.00    -0.414 A  
BRANCH  14  17
HETATM   17  O   UNL     1      -7.502  20.005  66.292  1.00  0.00    -0.277 OA 
HETATM   18  C   UNL     1      -6.973  20.676  67.429  1.00  0.00    -0.344 C  
ENDBRANCH  14  17
ENDBRANCH  10  11
ENDBRANCH   7   9
ENDBRANCH   6   7
ENDBRANCH   5   6
ENDBRANCH   4   5
ENDBRANCH   3   4
ENDBRANCH   2   3
TORSDOF 8
ENDMDL
MODEL       34
REMARK 921   NORMALIZED FREE ENERGY PREDICTED BY IDOCK:   -4.47 KCAL/MOL
REMARK 922        TOTAL FREE ENERGY PREDICTED BY IDOCK:   -7.21 KCAL/MOL
REMARK 923 INTER-LIGAND FREE ENERGY PREDICTED BY IDOCK:   -6.31 KCAL/MOL
REMARK 924 INTRA-LIGAND FREE ENERGY PREDICTED BY IDOCK:   -0.90 KCAL/MOL
REMARK 927      BINDING AFFINITY PREDICTED BY RF-SCORE:    0.00 PKD
ROOT
HETATM    1  C   UNL     1     -12.508  12.299  70.818  1.00  0.00    -0.356 C  
HETATM    2  C   UNL     1     -13.146  11.349  71.815  1.00  0.00    -0.418 C  
ENDROOT
BRANCH   2   3
HETATM    3  O   UNL     1     -13.293  10.082  71.184  1.00  0.00    -0.380 OA 
BRANCH   3   4
HETATM    4  C   UNL     1     -13.241   8.993  72.109  1.00  0.00    -0.446 C  
BRANCH   4   5
HETATM    5  C   UNL     1     -11.810   8.480  72.113  1.00  0.00    -0.379 C  
BRANCH   5   6
HETATM    6  O   UNL     1     -11.158   8.598  70.845  1.00  0.00    -0.248 OA 
BRANCH   6   7
HETATM    7  C   UNL     1      -9.964   9.242  70.885  1.00  0.00    -0.297 C  
HETATM    8  O   UNL     1      -9.089   9.106  71.721  1.00  0.00    -0.346 OA 
BRANCH   7   9
HETATM    9  C   UNL     1      -9.847   9.987  69.614  1.00  0.00    -0.261 C  
HETATM   10  C   UNL     1     -10.674   9.733  68.586  1.00  0.00    -0.247 C  
BRANCH  10  11
HETATM   11  C   UNL     1     -10.771  10.588  67.392  1.00  0.00    -0.334 A  
HETATM   12  C   UNL     1     -11.472  11.799  67.371  1.00  0.00    -0.375 A  
HETATM   13  C   UNL     1     -11.589  12.538  66.189  1.00  0.00    -0.448 A  
HETATM   14  C   UNL     1     -10.978  12.103  65.013  1.00  0.00    -0.309 A  
HETATM   15  C   UNL     1     -10.257  10.912  65.023  1.00  0.00    -0.367 A  
HETATM   16  C   UNL     1     -10.152  10.163  66.205  1.00  0.00    -0.303 A  
BRANCH  14  17
HETATM   17  O   UNL     1     -11.209  12.885  63.916  1.00  0.00    -0.390 OA 
HETATM   18  C   UNL     1     -12.009  14.042  64.126  1.00  0.00    -0.408 C  
ENDBRANCH  14  17
ENDBRANCH  10  11
ENDBRANCH   7   9
ENDBRANCH   6   7
ENDBRANCH   5   6
ENDBRANCH   4   5
ENDBRANCH   3   4
ENDBRANCH   2   3
TORSDOF 8
ENDMDL
MODEL       35
REMARK 921   NORMALIZED FREE ENERGY PREDICTED BY IDOCK:   -4.47 KCAL/MOL
REMARK 922        TOTAL FREE ENERGY PREDICTED BY IDOCK:   -7.21 KCAL/MOL
REMARK 923 INTER-LIGAND FREE ENERGY PREDICTED BY IDOCK:   -6.41 KCAL/MOL
REMARK 924 INTRA-LIGAND FREE ENERGY PREDICTED BY IDOCK:   -0.79 KCAL/MOL
REMARK 927      BINDING AFFINITY PREDICTED BY RF-SCORE:    0.00 PKD
ROOT
HETATM    1  C   UNL     1     -11.669   7.953  72.413  1.00  0.00    -0.423 C  
HETATM    2  C   UNL     1     -11.807   6.503  71.984  1.00  0.00    -0.329 C  
ENDROOT
BRANCH   2   3
HETATM    3  O   UNL     1     -10.823   6.242  70.991  1.00  0.00    -0.246 OA 
BRANCH   3   4
HETATM    4  C   UNL     1     -11.374   6.160  69.674  1.00  0.00    -0.372 C  
BRANCH   4   5
HETATM    5  C   UNL     1     -10.511   7.031  68.775  1.00  0.00    -0.206 C  
BRANCH   5   6
HETATM    6  O   UNL     1     -10.785   8.429  68.901  1.00  0.00    -0.179 OA 
BRANCH   6   7
HETATM    7  C   UNL     1      -9.700   9.190  69.192  1.00  0.00    -0.163 C  
HETATM    8  O   UNL     1      -8.541   8.949  68.904  1.00  0.00    -0.132 OA 
BRANCH   7   9
HETATM    9  C   UNL     1     -10.215  10.461  69.744  1.00  0.00    -0.228 C  
HETATM   10  C   UNL     1     -11.529  10.740  69.726  1.00  0.00    -0.386 C  
BRANCH  10  11
HETATM   11  C   UNL     1     -12.130  11.862  70.464  1.00  0.00    -0.422 A  
HETATM   12  C   UNL     1     -12.928  11.692  71.602  1.00  0.00    -0.483 A  
HETATM   13  C   UNL     1     -13.530  12.791  72.223  1.00  0.00    -0.591 A  
HETATM   14  C   UNL     1     -13.321  14.084  71.745  1.00  0.00    -0.386 A  
HETATM   15  C   UNL     1     -12.511  14.272  70.627  1.00  0.00    -0.428 A  
HETATM   16  C   UNL     1     -11.918  13.168  69.995  1.00  0.00    -0.391 A  
BRANCH  14  17
HETATM   17  O   UNL     1     -14.005  15.066  72.407  1.00  0.00    -0.453 OA 
HETATM   18  C   UNL     1     -13.228  15.921  73.237  1.00  0.00    -0.595 C  
ENDBRANCH  14  17
ENDBRANCH  10  11
ENDBRANCH   7   9
ENDBRANCH   6   7
ENDBRANCH   5   6
ENDBRANCH   4   5
ENDBRANCH   3   4
ENDBRANCH   2   3
TORSDOF 8
ENDMDL
MODEL       36
REMARK 921   NORMALIZED FREE ENERGY PREDICTED BY IDOCK:   -4.46 KCAL/MOL
REMARK 922        TOTAL FREE ENERGY PREDICTED BY IDOCK:   -7.20 KCAL/MOL
REMARK 923 INTER-LIGAND FREE ENERGY PREDICTED BY IDOCK:   -6.85 KCAL/MOL
REMARK 924 INTRA-LIGAND FREE ENERGY PREDICTED BY IDOCK:   -0.35 KCAL/MOL
REMARK 927      BINDING AFFINITY PREDICTED BY RF-SCORE:    0.00 PKD
ROOT
HETATM    1  C   UNL     1     -12.471   6.802  71.383  1.00  0.00    -0.379 C  
HETATM    2  C   UNL     1     -11.661   7.733  72.268  1.00  0.00    -0.338 C  
ENDROOT
BRANCH   2   3
HETATM    3  O   UNL     1     -12.370   8.961  72.381  1.00  0.00    -0.367 OA 
BRANCH   3   4
HETATM    4  C   UNL     1     -11.924   9.946  71.445  1.00  0.00    -0.404 C  
BRANCH   4   5
HETATM    5  C   UNL     1     -12.937  11.079  71.473  1.00  0.00    -0.448 C  
BRANCH   5   6
HETATM    6  O   UNL     1     -12.477  12.272  70.832  1.00  0.00    -0.371 OA 
BRANCH   6   7
HETATM    7  C   UNL     1     -12.962  13.420  71.369  1.00  0.00    -0.328 C  
HETATM    8  O   UNL     1     -13.678  13.522  72.349  1.00  0.00    -0.543 OA 
BRANCH   7   9
HETATM    9  C   UNL     1     -12.292  14.530  70.660  1.00  0.00    -0.407 C  
HETATM   10  C   UNL     1     -11.650  14.321  69.498  1.00  0.00    -0.353 C  
BRANCH  10  11
HETATM   11  C   UNL     1     -11.173  15.407  68.627  1.00  0.00    -0.312 A  
HETATM   12  C   UNL     1     -11.114  15.301  67.232  1.00  0.00    -0.325 A  
HETATM   13  C   UNL     1     -10.588  16.341  66.459  1.00  0.00    -0.256 A  
HETATM   14  C   UNL     1     -10.143  17.520  67.056  1.00  0.00    -0.323 A  
HETATM   15  C   UNL     1     -10.216  17.649  68.441  1.00  0.00    -0.381 A  
HETATM   16  C   UNL     1     -10.731  16.601  69.218  1.00  0.00    -0.337 A  
BRANCH  14  17
HETATM   17  O   UNL     1      -9.603  18.438  66.198  1.00  0.00    -0.452 OA 
HETATM   18  C   UNL     1     -10.361  19.623  65.990  1.00  0.00    -0.523 C  
ENDBRANCH  14  17
ENDBRANCH  10  11
ENDBRANCH   7   9
ENDBRANCH   6   7
ENDBRANCH   5   6
ENDBRANCH   4   5
ENDBRANCH   3   4
ENDBRANCH   2   3
TORSDOF 8
ENDMDL
MODEL       37
REMARK 921   NORMALIZED FREE ENERGY PREDICTED BY IDOCK:   -4.44 KCAL/MOL
REMARK 922        TOTAL FREE ENERGY PREDICTED BY IDOCK:   -7.17 KCAL/MOL
REMARK 923 INTER-LIGAND FREE ENERGY PREDICTED BY IDOCK:   -6.67 KCAL/MOL
REMARK 924 INTRA-LIGAND FREE ENERGY PREDICTED BY IDOCK:   -0.50 KCAL/MOL
REMARK 927      BINDING AFFINITY PREDICTED BY RF-SCORE:    0.00 PKD
ROOT
HETATM    1  C   UNL     1      -7.096  19.994  67.949  1.00  0.00    -0.319 C  
HETATM    2  C   UNL     1      -8.237  19.178  68.530  1.00  0.00    -0.364 C  
ENDROOT
BRANCH   2   3
HETATM    3  O   UNL     1      -9.253  19.074  67.539  1.00  0.00    -0.284 OA 
BRANCH   3   4
HETATM    4  C   UNL     1      -8.788  18.465  66.332  1.00  0.00    -0.248 C  
BRANCH   4   5
HETATM    5  C   UNL     1      -8.862  16.960  66.535  1.00  0.00    -0.271 C  
BRANCH   5   6
HETATM    6  O   UNL     1      -9.346  16.253  65.390  1.00  0.00    -0.361 OA 
BRANCH   6   7
HETATM    7  C   UNL     1     -10.698  16.210  65.286  1.00  0.00    -0.368 C  
HETATM    8  O   UNL     1     -11.365  16.505  64.309  1.00  0.00    -1.020 OA 
BRANCH   7   9
HETATM    9  C   UNL     1     -11.192  15.544  66.510  1.00  0.00    -0.104 C  
HETATM   10  C   UNL     1     -11.359  14.212  66.552  1.00  0.00    -0.348 C  
BRANCH  10  11
HETATM   11  C   UNL     1     -11.614  13.465  67.794  1.00  0.00    -0.375 A  
HETATM   12  C   UNL     1     -11.585  12.068  67.869  1.00  0.00    -0.405 A  
HETATM   13  C   UNL     1     -11.903  11.409  69.061  1.00  0.00    -0.415 A  
HETATM   14  C   UNL     1     -12.220  12.129  70.212  1.00  0.00    -0.264 A  
HETATM   15  C   UNL     1     -12.231  13.521  70.160  1.00  0.00    -0.400 A  
HETATM   16  C   UNL     1     -11.926  14.182  68.960  1.00  0.00    -0.376 A  
BRANCH  14  17
HETATM   17  O   UNL     1     -12.561  11.370  71.297  1.00  0.00    -0.394 OA 
HETATM   18  C   UNL     1     -13.094  10.081  71.018  1.00  0.00    -0.356 C  
ENDBRANCH  14  17
ENDBRANCH  10  11
ENDBRANCH   7   9
ENDBRANCH   6   7
ENDBRANCH   5   6
ENDBRANCH   4   5
ENDBRANCH   3   4
ENDBRANCH   2   3
TORSDOF 8
ENDMDL
MODEL       38
REMARK 921   NORMALIZED FREE ENERGY PREDICTED BY IDOCK:   -4.44 KCAL/MOL
REMARK 922        TOTAL FREE ENERGY PREDICTED BY IDOCK:   -7.17 KCAL/MOL
REMARK 923 INTER-LIGAND FREE ENERGY PREDICTED BY IDOCK:   -6.75 KCAL/MOL
REMARK 924 INTRA-LIGAND FREE ENERGY PREDICTED BY IDOCK:   -0.42 KCAL/MOL
REMARK 927      BINDING AFFINITY PREDICTED BY RF-SCORE:    0.00 PKD
ROOT
HETATM    1  C   UNL     1     -11.573   7.874  72.588  1.00  0.00    -0.435 C  
HETATM    2  C   UNL     1     -12.255   8.726  71.532  1.00  0.00    -0.327 C  
ENDROOT
BRANCH   2   3
HETATM    3  O   UNL     1     -13.147   9.615  72.194  1.00  0.00    -0.414 OA 
BRANCH   3   4
HETATM    4  C   UNL     1     -13.040  10.960  71.720  1.00  0.00    -0.459 C  
BRANCH   4   5
HETATM    5  C   UNL     1     -12.028  10.954  70.586  1.00  0.00    -0.368 C  
BRANCH   5   6
HETATM    6  O   UNL     1     -12.030  12.158  69.813  1.00  0.00    -0.315 OA 
BRANCH   6   7
HETATM    7  C   UNL     1     -11.886  11.969  68.478  1.00  0.00    -0.311 C  
HETATM    8  O   UNL     1     -12.030  10.923  67.869  1.00  0.00    -0.585 OA 
BRANCH   7   9
HETATM    9  C   UNL     1     -11.721  13.310  67.879  1.00  0.00    -0.395 C  
HETATM   10  C   UNL     1     -11.134  14.305  68.565  1.00  0.00    -0.276 C  
BRANCH  10  11
HETATM   11  C   UNL     1     -10.725  15.580  67.954  1.00  0.00    -0.294 A  
HETATM   12  C   UNL     1     -10.552  16.760  68.687  1.00  0.00    -0.353 A  
HETATM   13  C   UNL     1     -10.228  17.960  68.044  1.00  0.00    -0.381 A  
HETATM   14  C   UNL     1     -10.036  18.000  66.663  1.00  0.00    -0.362 A  
HETATM   15  C   UNL     1     -10.182  16.829  65.923  1.00  0.00    -0.345 A  
HETATM   16  C   UNL     1     -10.521  15.629  66.566  1.00  0.00    -0.303 A  
BRANCH  14  17
HETATM   17  O   UNL     1      -9.775  19.239  66.148  1.00  0.00    -0.359 OA 
HETATM   18  C   UNL     1      -9.800  20.320  67.073  1.00  0.00    -0.467 C  
ENDBRANCH  14  17
ENDBRANCH  10  11
ENDBRANCH   7   9
ENDBRANCH   6   7
ENDBRANCH   5   6
ENDBRANCH   4   5
ENDBRANCH   3   4
ENDBRANCH   2   3
TORSDOF 8
ENDMDL
MODEL       39
REMARK 921   NORMALIZED FREE ENERGY PREDICTED BY IDOCK:   -4.43 KCAL/MOL
REMARK 922        TOTAL FREE ENERGY PREDICTED BY IDOCK:   -7.16 KCAL/MOL
REMARK 923 INTER-LIGAND FREE ENERGY PREDICTED BY IDOCK:   -6.79 KCAL/MOL
REMARK 924 INTRA-LIGAND FREE ENERGY PREDICTED BY IDOCK:   -0.36 KCAL/MOL
REMARK 927      BINDING AFFINITY PREDICTED BY RF-SCORE:    0.00 PKD
ROOT
HETATM    1  C   UNL     1     -11.649   9.676  71.382  1.00  0.00    -0.472 C  
HETATM    2  C   UNL     1     -12.987  10.392  71.342  1.00  0.00    -0.443 C  
ENDROOT
BRANCH   2   3
HETATM    3  O   UNL     1     -12.736  11.788  71.229  1.00  0.00    -0.387 OA 
BRANCH   3   4
HETATM    4  C   UNL     1     -11.922  12.114  70.101  1.00  0.00    -0.314 C  
BRANCH   4   5
HETATM    5  C   UNL     1     -12.066  13.609  69.864  1.00  0.00    -0.341 C  
BRANCH   5   6
HETATM    6  O   UNL     1     -11.056  14.151  69.009  1.00  0.00    -0.247 OA 
BRANCH   6   7
HETATM    7  C   UNL     1     -11.477  14.432  67.750  1.00  0.00    -0.336 C  
HETATM    8  O   UNL     1     -12.340  13.846  67.121  1.00  0.00    -0.372 OA 
BRANCH   7   9
HETATM    9  C   UNL     1     -10.834  15.708  67.368  1.00  0.00    -0.315 C  
HETATM   10  C   UNL     1     -10.857  16.767  68.193  1.00  0.00    -0.353 C  
BRANCH  10  11
HETATM   11  C   UNL     1     -10.043  17.976  67.985  1.00  0.00    -0.370 A  
HETATM   12  C   UNL     1     -10.502  19.098  67.286  1.00  0.00    -0.549 A  
HETATM   13  C   UNL     1      -9.660  20.192  67.060  1.00  0.00    -0.558 A  
HETATM   14  C   UNL     1      -8.357  20.205  67.557  1.00  0.00    -0.332 A  
HETATM   15  C   UNL     1      -7.894  19.105  68.275  1.00  0.00    -0.351 A  
HETATM   16  C   UNL     1      -8.733  18.001  68.490  1.00  0.00    -0.304 A  
BRANCH  14  17
HETATM   17  O   UNL     1      -7.620  21.307  67.225  1.00  0.00    -0.408 OA 
HETATM   18  C   UNL     1      -6.219  21.106  67.089  1.00  0.00    -0.339 C  
ENDBRANCH  14  17
ENDBRANCH  10  11
ENDBRANCH   7   9
ENDBRANCH   6   7
ENDBRANCH   5   6
ENDBRANCH   4   5
ENDBRANCH   3   4
ENDBRANCH   2   3
TORSDOF 8
ENDMDL
MODEL       40
REMARK 921   NORMALIZED FREE ENERGY PREDICTED BY IDOCK:   -4.43 KCAL/MOL
REMARK 922        TOTAL FREE ENERGY PREDICTED BY IDOCK:   -7.15 KCAL/MOL
REMARK 923 INTER-LIGAND FREE ENERGY PREDICTED BY IDOCK:   -6.60 KCAL/MOL
REMARK 924 INTRA-LIGAND FREE ENERGY PREDICTED BY IDOCK:   -0.55 KCAL/MOL
REMARK 927      BINDING AFFINITY PREDICTED BY RF-SCORE:    0.00 PKD
ROOT
HETATM    1  C   UNL     1      -7.226  20.719  67.232  1.00  0.00    -0.415 C  
HETATM    2  C   UNL     1      -6.879  19.614  66.250  1.00  0.00    -0.220 C  
ENDROOT
BRANCH   2   3
HETATM    3  O   UNL     1      -8.094  19.094  65.724  1.00  0.00    -0.452 OA 
BRANCH   3   4
HETATM    4  C   UNL     1      -9.224  19.916  66.026  1.00  0.00    -0.273 C  
BRANCH   4   5
HETATM    5  C   UNL     1     -10.435  19.000  66.098  1.00  0.00    -0.467 C  
BRANCH   5   6
HETATM    6  O   UNL     1     -11.065  18.987  67.382  1.00  0.00    -0.395 OA 
BRANCH   6   7
HETATM    7  C   UNL     1     -10.262  18.580  68.397  1.00  0.00    -0.372 C  
HETATM    8  O   UNL     1      -9.741  19.285  69.244  1.00  0.00    -0.349 OA 
BRANCH   7   9
HETATM    9  C   UNL     1     -10.306  17.103  68.400  1.00  0.00    -0.362 C  
HETATM   10  C   UNL     1     -11.407  16.446  68.801  1.00  0.00    -0.277 C  
BRANCH  10  11
HETATM   11  C   UNL     1     -11.605  15.000  68.606  1.00  0.00    -0.347 A  
HETATM   12  C   UNL     1     -11.744  14.095  69.664  1.00  0.00    -0.372 A  
HETATM   13  C   UNL     1     -11.861  12.723  69.421  1.00  0.00    -0.359 A  
HETATM   14  C   UNL     1     -11.880  12.229  68.117  1.00  0.00    -0.311 A  
HETATM   15  C   UNL     1     -11.766  13.119  67.052  1.00  0.00    -0.431 A  
HETATM   16  C   UNL     1     -11.633  14.494  67.296  1.00  0.00    -0.405 A  
BRANCH  14  17
HETATM   17  O   UNL     1     -11.947  10.867  68.013  1.00  0.00    -0.586 OA 
HETATM   18  C   UNL     1     -11.130  10.128  68.912  1.00  0.00    -0.207 C  
ENDBRANCH  14  17
ENDBRANCH  10  11
ENDBRANCH   7   9
ENDBRANCH   6   7
ENDBRANCH   5   6
ENDBRANCH   4   5
ENDBRANCH   3   4
ENDBRANCH   2   3
TORSDOF 8
ENDMDL
MODEL       41
REMARK 921   NORMALIZED FREE ENERGY PREDICTED BY IDOCK:   -4.41 KCAL/MOL
REMARK 922        TOTAL FREE ENERGY PREDICTED BY IDOCK:   -7.13 KCAL/MOL
REMARK 923 INTER-LIGAND FREE ENERGY PREDICTED BY IDOCK:   -6.67 KCAL/MOL
REMARK 924 INTRA-LIGAND FREE ENERGY PREDICTED BY IDOCK:   -0.46 KCAL/MOL
REMARK 927      BINDING AFFINITY PREDICTED BY RF-SCORE:    0.00 PKD
ROOT
HETATM    1  C   UNL     1      -9.994   4.693  71.354  1.00  0.00    -0.267 C  
HETATM    2  C   UNL     1     -10.227   5.898  70.460  1.00  0.00    -0.211 C  
ENDROOT
BRANCH   2   3
HETATM    3  O   UNL     1     -11.609   6.233  70.524  1.00  0.00    -0.363 OA 
BRANCH   3   4
HETATM    4  C   UNL     1     -12.068   6.435  71.863  1.00  0.00    -0.310 C  
BRANCH   4   5
HETATM    5  C   UNL     1     -11.760   7.878  72.227  1.00  0.00    -0.355 C  
BRANCH   5   6
HETATM    6  O   UNL     1     -12.384   8.831  71.361  1.00  0.00    -0.299 OA 
BRANCH   6   7
HETATM    7  C   UNL     1     -13.339   9.589  71.955  1.00  0.00    -0.452 C  
HETATM    8  O   UNL     1     -14.182   9.211  72.750  1.00  0.00    -0.552 OA 
BRANCH   7   9
HETATM    9  C   UNL     1     -13.034  10.994  71.611  1.00  0.00    -0.561 C  
HETATM   10  C   UNL     1     -12.255  11.293  70.558  1.00  0.00    -0.474 C  
BRANCH  10  11
HETATM   11  C   UNL     1     -12.107  12.655  70.020  1.00  0.00    -0.339 A  
HETATM   12  C   UNL     1     -11.660  12.922  68.720  1.00  0.00    -0.351 A  
HETATM   13  C   UNL     1     -11.473  14.238  68.285  1.00  0.00    -0.334 A  
HETATM   14  C   UNL     1     -11.761  15.314  69.123  1.00  0.00    -0.335 A  
HETATM   15  C   UNL     1     -12.228  15.066  70.411  1.00  0.00    -0.393 A  
HETATM   16  C   UNL     1     -12.402  13.746  70.853  1.00  0.00    -0.456 A  
BRANCH  14  17
HETATM   17  O   UNL     1     -11.487  16.548  68.599  1.00  0.00    -0.313 OA 
HETATM   18  C   UNL     1     -10.160  17.025  68.779  1.00  0.00    -0.307 C  
ENDBRANCH  14  17
ENDBRANCH  10  11
ENDBRANCH   7   9
ENDBRANCH   6   7
ENDBRANCH   5   6
ENDBRANCH   4   5
ENDBRANCH   3   4
ENDBRANCH   2   3
TORSDOF 8
ENDMDL
MODEL       42
REMARK 921   NORMALIZED FREE ENERGY PREDICTED BY IDOCK:   -4.41 KCAL/MOL
REMARK 922        TOTAL FREE ENERGY PREDICTED BY IDOCK:   -7.12 KCAL/MOL
REMARK 923 INTER-LIGAND FREE ENERGY PREDICTED BY IDOCK:   -6.72 KCAL/MOL
REMARK 924 INTRA-LIGAND FREE ENERGY PREDICTED BY IDOCK:   -0.40 KCAL/MOL
REMARK 927      BINDING AFFINITY PREDICTED BY RF-SCORE:    0.00 PKD
ROOT
HETATM    1  C   UNL     1      -9.969   5.150  71.038  1.00  0.00    -0.274 C  
HETATM    2  C   UNL     1     -11.020   5.917  70.257  1.00  0.00    -0.320 C  
ENDROOT
BRANCH   2   3
HETATM    3  O   UNL     1     -10.544   7.244  70.066  1.00  0.00    -0.221 OA 
BRANCH   3   4
HETATM    4  C   UNL     1     -10.028   7.825  71.266  1.00  0.00    -0.175 C  
BRANCH   4   5
HETATM    5  C   UNL     1     -10.977   8.944  71.664  1.00  0.00    -0.345 C  
BRANCH   5   6
HETATM    6  O   UNL     1     -12.010   8.525  72.560  1.00  0.00    -0.389 OA 
BRANCH   6   7
HETATM    7  C   UNL     1     -13.235   9.038  72.285  1.00  0.00    -0.460 C  
HETATM    8  O   UNL     1     -14.298   8.689  72.766  1.00  0.00    -0.520 OA 
BRANCH   7   9
HETATM    9  C   UNL     1     -13.010  10.234  71.445  1.00  0.00    -0.540 C  
HETATM   10  C   UNL     1     -13.249  11.468  71.922  1.00  0.00    -0.479 C  
BRANCH  10  11
HETATM   11  C   UNL     1     -12.825  12.699  71.236  1.00  0.00    -0.344 A  
HETATM   12  C   UNL     1     -13.233  13.977  71.635  1.00  0.00    -0.442 A  
HETATM   13  C   UNL     1     -12.854  15.108  70.904  1.00  0.00    -0.479 A  
HETATM   14  C   UNL     1     -12.032  14.991  69.783  1.00  0.00    -0.328 A  
HETATM   15  C   UNL     1     -11.600  13.728  69.387  1.00  0.00    -0.365 A  
HETATM   16  C   UNL     1     -11.991  12.592  70.112  1.00  0.00    -0.377 A  
BRANCH  14  17
HETATM   17  O   UNL     1     -11.776  16.162  69.126  1.00  0.00    -0.327 OA 
HETATM   18  C   UNL     1     -10.479  16.715  69.313  1.00  0.00    -0.333 C  
ENDBRANCH  14  17
ENDBRANCH  10  11
ENDBRANCH   7   9
ENDBRANCH   6   7
ENDBRANCH   5   6
ENDBRANCH   4   5
ENDBRANCH   3   4
ENDBRANCH   2   3
TORSDOF 8
ENDMDL
MODEL       43
REMARK 921   NORMALIZED FREE ENERGY PREDICTED BY IDOCK:   -4.37 KCAL/MOL
REMARK 922        TOTAL FREE ENERGY PREDICTED BY IDOCK:   -7.06 KCAL/MOL
REMARK 923 INTER-LIGAND FREE ENERGY PREDICTED BY IDOCK:   -6.63 KCAL/MOL
REMARK 924 INTRA-LIGAND FREE ENERGY PREDICTED BY IDOCK:   -0.43 KCAL/MOL
REMARK 927      BINDING AFFINITY PREDICTED BY RF-SCORE:    0.00 PKD
ROOT
HETATM    1  C   UNL     1      -5.541  20.963  64.444  1.00  0.00    -0.273 C  
HETATM    2  C   UNL     1      -5.746  19.462  64.345  1.00  0.00    -0.275 C  
ENDROOT
BRANCH   2   3
HETATM    3  O   UNL     1      -6.768  19.096  65.263  1.00  0.00    -0.381 OA 
BRANCH   3   4
HETATM    4  C   UNL     1      -7.268  20.209  66.008  1.00  0.00    -0.286 C  
BRANCH   4   5
HETATM    5  C   UNL     1      -8.782  20.079  66.043  1.00  0.00    -0.199 C  
BRANCH   5   6
HETATM    6  O   UNL     1      -9.357  20.442  67.301  1.00  0.00    -0.382 OA 
BRANCH   6   7
HETATM    7  C   UNL     1      -9.762  19.391  68.058  1.00  0.00    -0.356 C  
HETATM    8  O   UNL     1      -9.948  19.388  69.262  1.00  0.00    -0.404 OA 
BRANCH   7   9
HETATM    9  C   UNL     1     -10.128  18.312  67.117  1.00  0.00    -0.367 C  
HETATM   10  C   UNL     1     -10.281  17.047  67.542  1.00  0.00    -0.323 C  
BRANCH  10  11
HETATM   11  C   UNL     1     -10.872  15.980  66.719  1.00  0.00    -0.195 A  
HETATM   12  C   UNL     1     -10.873  16.003  65.319  1.00  0.00    -0.376 A  
HETATM   13  C   UNL     1     -11.510  14.995  64.588  1.00  0.00    -0.382 A  
HETATM   14  C   UNL     1     -12.126  13.925  65.236  1.00  0.00    -0.410 A  
HETATM   15  C   UNL     1     -12.113  13.875  66.627  1.00  0.00    -0.485 A  
HETATM   16  C   UNL     1     -11.488  14.894  67.362  1.00  0.00    -0.354 A  
BRANCH  14  17
HETATM   17  O   UNL     1     -12.756  13.033  64.413  1.00  0.00    -0.652 OA 
HETATM   18  C   UNL     1     -11.920  12.291  63.533  1.00  0.00    -0.533 C  
ENDBRANCH  14  17
ENDBRANCH  10  11
ENDBRANCH   7   9
ENDBRANCH   6   7
ENDBRANCH   5   6
ENDBRANCH   4   5
ENDBRANCH   3   4
ENDBRANCH   2   3
TORSDOF 8
ENDMDL
MODEL       44
REMARK 921   NORMALIZED FREE ENERGY PREDICTED BY IDOCK:   -4.36 KCAL/MOL
REMARK 922        TOTAL FREE ENERGY PREDICTED BY IDOCK:   -7.05 KCAL/MOL
REMARK 923 INTER-LIGAND FREE ENERGY PREDICTED BY IDOCK:   -6.61 KCAL/MOL
REMARK 924 INTRA-LIGAND FREE ENERGY PREDICTED BY IDOCK:   -0.45 KCAL/MOL
REMARK 927      BINDING AFFINITY PREDICTED BY RF-SCORE:    0.00 PKD
ROOT
HETATM    1  C   UNL     1      -9.088  10.334  62.682  1.00  0.00    -0.299 C  
HETATM    2  C   UNL     1      -9.797  11.603  63.121  1.00  0.00    -0.382 C  
ENDROOT
BRANCH   2   3
HETATM    3  O   UNL     1     -10.929  11.228  63.896  1.00  0.00    -0.386 OA 
BRANCH   3   4
HETATM    4  C   UNL     1     -10.932  11.823  65.196  1.00  0.00    -0.294 C  
BRANCH   4   5
HETATM    5  C   UNL     1     -12.281  12.500  65.374  1.00  0.00    -0.412 C  
BRANCH   5   6
HETATM    6  O   UNL     1     -12.185  13.865  65.788  1.00  0.00    -0.405 OA 
BRANCH   6   7
HETATM    7  C   UNL     1     -11.911  14.738  64.786  1.00  0.00    -0.423 C  
HETATM    8  O   UNL     1     -12.537  14.882  63.751  1.00  0.00    -0.791 OA 
BRANCH   7   9
HETATM    9  C   UNL     1     -10.830  15.618  65.280  1.00  0.00    -0.420 C  
HETATM   10  C   UNL     1     -11.022  16.941  65.410  1.00  0.00    -0.029 C  
BRANCH  10  11
HETATM   11  C   UNL     1     -10.085  17.832  66.112  1.00  0.00    -0.308 A  
HETATM   12  C   UNL     1     -10.243  19.221  66.169  1.00  0.00    -0.549 A  
HETATM   13  C   UNL     1      -9.284  20.026  66.793  1.00  0.00    -0.494 A  
HETATM   14  C   UNL     1      -8.166  19.459  67.404  1.00  0.00    -0.287 A  
HETATM   15  C   UNL     1      -8.005  18.075  67.377  1.00  0.00    -0.227 A  
HETATM   16  C   UNL     1      -8.960  17.269  66.738  1.00  0.00    -0.269 A  
BRANCH  14  17
HETATM   17  O   UNL     1      -7.277  20.353  67.934  1.00  0.00    -0.299 OA 
HETATM   18  C   UNL     1      -6.548  21.140  67.000  1.00  0.00    -0.335 C  
ENDBRANCH  14  17
ENDBRANCH  10  11
ENDBRANCH   7   9
ENDBRANCH   6   7
ENDBRANCH   5   6
ENDBRANCH   4   5
ENDBRANCH   3   4
ENDBRANCH   2   3
TORSDOF 8
ENDMDL
MODEL       45
REMARK 921   NORMALIZED FREE ENERGY PREDICTED BY IDOCK:   -4.36 KCAL/MOL
REMARK 922        TOTAL FREE ENERGY PREDICTED BY IDOCK:   -7.05 KCAL/MOL
REMARK 923 INTER-LIGAND FREE ENERGY PREDICTED BY IDOCK:   -6.57 KCAL/MOL
REMARK 924 INTRA-LIGAND FREE ENERGY PREDICTED BY IDOCK:   -0.48 KCAL/MOL
REMARK 927      BINDING AFFINITY PREDICTED BY RF-SCORE:    0.00 PKD
ROOT
HETATM    1  C   UNL     1     -11.152   4.367  73.341  1.00  0.00    -0.394 C  
HETATM    2  C   UNL     1     -10.848   5.791  72.914  1.00  0.00    -0.261 C  
ENDROOT
BRANCH   2   3
HETATM    3  O   UNL     1     -11.179   5.918  71.536  1.00  0.00    -0.272 OA 
BRANCH   3   4
HETATM    4  C   UNL     1     -11.220   7.279  71.099  1.00  0.00    -0.259 C  
BRANCH   4   5
HETATM    5  C   UNL     1     -11.350   8.143  72.344  1.00  0.00    -0.391 C  
BRANCH   5   6
HETATM    6  O   UNL     1     -11.710   9.498  72.062  1.00  0.00    -0.331 OA 
BRANCH   6   7
HETATM    7  C   UNL     1     -13.014   9.674  71.729  1.00  0.00    -0.420 C  
HETATM    8  O   UNL     1     -13.986   9.287  72.353  1.00  0.00    -0.460 OA 
BRANCH   7   9
HETATM    9  C   UNL     1     -13.030  10.599  70.575  1.00  0.00    -0.277 C  
HETATM   10  C   UNL     1     -12.069  11.525  70.418  1.00  0.00    -0.471 C  
BRANCH  10  11
HETATM   11  C   UNL     1     -11.891  12.308  69.185  1.00  0.00    -0.355 A  
HETATM   12  C   UNL     1     -11.697  11.725  67.928  1.00  0.00    -0.347 A  
HETATM   13  C   UNL     1     -11.464  12.519  66.800  1.00  0.00    -0.422 A  
HETATM   14  C   UNL     1     -11.455  13.910  66.896  1.00  0.00    -0.351 A  
HETATM   15  C   UNL     1     -11.670  14.506  68.137  1.00  0.00    -0.369 A  
HETATM   16  C   UNL     1     -11.889  13.710  69.271  1.00  0.00    -0.395 A  
BRANCH  14  17
HETATM   17  O   UNL     1     -11.166  14.571  65.735  1.00  0.00    -0.322 OA 
HETATM   18  C   UNL     1     -12.112  14.433  64.682  1.00  0.00    -0.471 C  
ENDBRANCH  14  17
ENDBRANCH  10  11
ENDBRANCH   7   9
ENDBRANCH   6   7
ENDBRANCH   5   6
ENDBRANCH   4   5
ENDBRANCH   3   4
ENDBRANCH   2   3
TORSDOF 8
ENDMDL
MODEL       46
REMARK 921   NORMALIZED FREE ENERGY PREDICTED BY IDOCK:   -4.35 KCAL/MOL
REMARK 922        TOTAL FREE ENERGY PREDICTED BY IDOCK:   -7.04 KCAL/MOL
REMARK 923 INTER-LIGAND FREE ENERGY PREDICTED BY IDOCK:   -6.74 KCAL/MOL
REMARK 924 INTRA-LIGAND FREE ENERGY PREDICTED BY IDOCK:   -0.30 KCAL/MOL
REMARK 927      BINDING AFFINITY PREDICTED BY RF-SCORE:    0.00 PKD
ROOT
HETATM    1  C   UNL     1     -11.860   9.554  71.468  1.00  0.00    -0.478 C  
HETATM    2  C   UNL     1     -12.859  10.688  71.320  1.00  0.00    -0.434 C  
ENDROOT
BRANCH   2   3
HETATM    3  O   UNL     1     -12.231  11.736  70.592  1.00  0.00    -0.371 OA 
BRANCH   3   4
HETATM    4  C   UNL     1     -11.600  11.277  69.394  1.00  0.00    -0.321 C  
BRANCH   4   5
HETATM    5  C   UNL     1     -11.886  12.310  68.315  1.00  0.00    -0.310 C  
BRANCH   5   6
HETATM    6  O   UNL     1     -12.123  11.737  67.026  1.00  0.00    -0.575 OA 
BRANCH   6   7
HETATM    7  C   UNL     1     -12.099  12.628  66.003  1.00  0.00    -0.364 C  
HETATM    8  O   UNL     1     -12.880  12.689  65.070  1.00  0.00    -0.765 OA 
BRANCH   7   9
HETATM    9  C   UNL     1     -11.070  13.633  66.345  1.00  0.00    -0.307 C  
HETATM   10  C   UNL     1     -11.299  14.945  66.167  1.00  0.00    -0.307 C  
BRANCH  10  11
HETATM   11  C   UNL     1     -10.425  16.001  66.703  1.00  0.00    -0.304 A  
HETATM   12  C   UNL     1     -10.750  16.767  67.828  1.00  0.00    -0.321 A  
HETATM   13  C   UNL     1      -9.913  17.805  68.252  1.00  0.00    -0.355 A  
HETATM   14  C   UNL     1      -8.718  18.076  67.585  1.00  0.00    -0.247 A  
HETATM   15  C   UNL     1      -8.370  17.307  66.477  1.00  0.00    -0.312 A  
HETATM   16  C   UNL     1      -9.216  16.275  66.043  1.00  0.00    -0.351 A  
BRANCH  14  17
HETATM   17  O   UNL     1      -8.015  19.146  68.064  1.00  0.00    -0.278 OA 
HETATM   18  C   UNL     1      -8.048  20.325  67.269  1.00  0.00    -0.338 C  
ENDBRANCH  14  17
ENDBRANCH  10  11
ENDBRANCH   7   9
ENDBRANCH   6   7
ENDBRANCH   5   6
ENDBRANCH   4   5
ENDBRANCH   3   4
ENDBRANCH   2   3
TORSDOF 8
ENDMDL
MODEL       47
REMARK 921   NORMALIZED FREE ENERGY PREDICTED BY IDOCK:   -4.33 KCAL/MOL
REMARK 922        TOTAL FREE ENERGY PREDICTED BY IDOCK:   -7.01 KCAL/MOL
REMARK 923 INTER-LIGAND FREE ENERGY PREDICTED BY IDOCK:   -6.40 KCAL/MOL
REMARK 924 INTRA-LIGAND FREE ENERGY PREDICTED BY IDOCK:   -0.62 KCAL/MOL
REMARK 927      BINDING AFFINITY PREDICTED BY RF-SCORE:    0.00 PKD
ROOT
HETATM    1  C   UNL     1      -8.598   8.475  65.262  1.00  0.00    -0.192 C  
HETATM    2  C   UNL     1      -9.221   9.812  64.901  1.00  0.00    -0.257 C  
ENDROOT
BRANCH   2   3
HETATM    3  O   UNL     1      -9.171   9.953  63.487  1.00  0.00    -0.258 OA 
BRANCH   3   4
HETATM    4  C   UNL     1      -9.781  11.162  63.030  1.00  0.00    -0.359 C  
BRANCH   4   5
HETATM    5  C   UNL     1     -10.962  11.441  63.947  1.00  0.00    -0.366 C  
BRANCH   5   6
HETATM    6  O   UNL     1     -11.333  12.821  63.997  1.00  0.00    -0.360 OA 
BRANCH   6   7
HETATM    7  C   UNL     1     -12.097  13.159  65.065  1.00  0.00    -0.415 C  
HETATM    8  O   UNL     1     -12.986  13.991  65.093  1.00  0.00    -0.744 OA 
BRANCH   7   9
HETATM    9  C   UNL     1     -11.784  12.183  66.131  1.00  0.00    -0.384 C  
HETATM   10  C   UNL     1     -11.565  12.586  67.394  1.00  0.00    -0.434 C  
BRANCH  10  11
HETATM   11  C   UNL     1     -11.486  11.664  68.538  1.00  0.00    -0.358 A  
HETATM   12  C   UNL     1     -12.263  11.807  69.693  1.00  0.00    -0.248 A  
HETATM   13  C   UNL     1     -12.098  10.940  70.778  1.00  0.00    -0.469 A  
HETATM   14  C   UNL     1     -11.180   9.892  70.720  1.00  0.00    -0.353 A  
HETATM   15  C   UNL     1     -10.415   9.722  69.568  1.00  0.00    -0.250 A  
HETATM   16  C   UNL     1     -10.571  10.600  68.485  1.00  0.00    -0.229 A  
BRANCH  14  17
HETATM   17  O   UNL     1     -11.075   9.148  71.862  1.00  0.00    -0.364 OA 
HETATM   18  C   UNL     1     -12.104   8.191  72.084  1.00  0.00    -0.357 C  
ENDBRANCH  14  17
ENDBRANCH  10  11
ENDBRANCH   7   9
ENDBRANCH   6   7
ENDBRANCH   5   6
ENDBRANCH   4   5
ENDBRANCH   3   4
ENDBRANCH   2   3
TORSDOF 8
ENDMDL
MODEL       48
REMARK 921   NORMALIZED FREE ENERGY PREDICTED BY IDOCK:   -4.33 KCAL/MOL
REMARK 922        TOTAL FREE ENERGY PREDICTED BY IDOCK:   -7.00 KCAL/MOL
REMARK 923 INTER-LIGAND FREE ENERGY PREDICTED BY IDOCK:   -6.63 KCAL/MOL
REMARK 924 INTRA-LIGAND FREE ENERGY PREDICTED BY IDOCK:   -0.37 KCAL/MOL
REMARK 927      BINDING AFFINITY PREDICTED BY RF-SCORE:    0.00 PKD
ROOT
HETATM    1  C   UNL     1      -9.296   8.111  66.132  1.00  0.00    -0.232 C  
HETATM    2  C   UNL     1      -9.432   9.476  65.479  1.00  0.00    -0.268 C  
ENDROOT
BRANCH   2   3
HETATM    3  O   UNL     1      -8.951   9.375  64.144  1.00  0.00    -0.214 OA 
BRANCH   3   4
HETATM    4  C   UNL     1      -9.456  10.408  63.295  1.00  0.00    -0.323 C  
BRANCH   4   5
HETATM    5  C   UNL     1     -10.420  11.238  64.127  1.00  0.00    -0.369 C  
BRANCH   5   6
HETATM    6  O   UNL     1     -10.774  12.483  63.518  1.00  0.00    -0.435 OA 
BRANCH   6   7
HETATM    7  C   UNL     1     -12.024  12.919  63.816  1.00  0.00    -0.512 C  
HETATM    8  O   UNL     1     -13.068  12.316  63.644  1.00  0.00    -0.780 OA 
BRANCH   7   9
HETATM    9  C   UNL     1     -11.860  14.177  64.575  1.00  0.00    -0.451 C  
HETATM   10  C   UNL     1     -11.398  14.167  65.837  1.00  0.00    -0.323 C  
BRANCH  10  11
HETATM   11  C   UNL     1     -10.986  15.382  66.560  1.00  0.00    -0.271 A  
HETATM   12  C   UNL     1     -11.163  15.550  67.938  1.00  0.00    -0.325 A  
HETATM   13  C   UNL     1     -10.815  16.753  68.561  1.00  0.00    -0.345 A  
HETATM   14  C   UNL     1     -10.252  17.799  67.830  1.00  0.00    -0.361 A  
HETATM   15  C   UNL     1     -10.049  17.638  66.462  1.00  0.00    -0.350 A  
HETATM   16  C   UNL     1     -10.411  16.437  65.834  1.00  0.00    -0.378 A  
BRANCH  14  17
HETATM   17  O   UNL     1     -10.004  18.939  68.543  1.00  0.00    -0.369 OA 
HETATM   18  C   UNL     1      -9.202  19.920  67.898  1.00  0.00    -0.328 C  
ENDBRANCH  14  17
ENDBRANCH  10  11
ENDBRANCH   7   9
ENDBRANCH   6   7
ENDBRANCH   5   6
ENDBRANCH   4   5
ENDBRANCH   3   4
ENDBRANCH   2   3
TORSDOF 8
ENDMDL
MODEL       49
REMARK 921   NORMALIZED FREE ENERGY PREDICTED BY IDOCK:   -4.33 KCAL/MOL
REMARK 922        TOTAL FREE ENERGY PREDICTED BY IDOCK:   -7.00 KCAL/MOL
REMARK 923 INTER-LIGAND FREE ENERGY PREDICTED BY IDOCK:   -6.57 KCAL/MOL
REMARK 924 INTRA-LIGAND FREE ENERGY PREDICTED BY IDOCK:   -0.43 KCAL/MOL
REMARK 927      BINDING AFFINITY PREDICTED BY RF-SCORE:    0.00 PKD
ROOT
HETATM    1  C   UNL     1     -12.320  11.935  63.421  1.00  0.00    -0.577 C  
HETATM    2  C   UNL     1     -11.581  12.269  64.705  1.00  0.00    -0.337 C  
ENDROOT
BRANCH   2   3
HETATM    3  O   UNL     1     -12.544  12.650  65.681  1.00  0.00    -0.611 OA 
BRANCH   3   4
HETATM    4  C   UNL     1     -12.468  14.037  66.020  1.00  0.00    -0.455 C  
BRANCH   4   5
HETATM    5  C   UNL     1     -11.696  14.135  67.326  1.00  0.00    -0.392 C  
BRANCH   5   6
HETATM    6  O   UNL     1     -12.021  13.102  68.260  1.00  0.00    -0.343 OA 
BRANCH   6   7
HETATM    7  C   UNL     1     -12.129  13.522  69.546  1.00  0.00    -0.297 C  
HETATM    8  O   UNL     1     -12.494  14.620  69.927  1.00  0.00    -0.310 OA 
BRANCH   7   9
HETATM    9  C   UNL     1     -11.915  12.331  70.396  1.00  0.00    -0.349 C  
HETATM   10  C   UNL     1     -11.743  11.115  69.850  1.00  0.00    -0.433 C  
BRANCH  10  11
HETATM   11  C   UNL     1     -11.291   9.940  70.612  1.00  0.00    -0.413 A  
HETATM   12  C   UNL     1     -12.136   9.191  71.439  1.00  0.00    -0.409 A  
HETATM   13  C   UNL     1     -11.637   8.125  72.194  1.00  0.00    -0.417 A  
HETATM   14  C   UNL     1     -10.293   7.760  72.111  1.00  0.00    -0.224 A  
HETATM   15  C   UNL     1      -9.444   8.481  71.274  1.00  0.00    -0.265 A  
HETATM   16  C   UNL     1      -9.942   9.560  70.528  1.00  0.00    -0.335 A  
BRANCH  14  17
HETATM   17  O   UNL     1      -9.917   6.736  72.935  1.00  0.00    -0.165 OA 
HETATM   18  C   UNL     1      -9.185   7.103  74.098  1.00  0.00    -0.238 C  
ENDBRANCH  14  17
ENDBRANCH  10  11
ENDBRANCH   7   9
ENDBRANCH   6   7
ENDBRANCH   5   6
ENDBRANCH   4   5
ENDBRANCH   3   4
ENDBRANCH   2   3
TORSDOF 8
ENDMDL
MODEL       50
REMARK 921   NORMALIZED FREE ENERGY PREDICTED BY IDOCK:   -4.33 KCAL/MOL
REMARK 922        TOTAL FREE ENERGY PREDICTED BY IDOCK:   -7.00 KCAL/MOL
REMARK 923 INTER-LIGAND FREE ENERGY PREDICTED BY IDOCK:   -6.63 KCAL/MOL
REMARK 924 INTRA-LIGAND FREE ENERGY PREDICTED BY IDOCK:   -0.37 KCAL/MOL
REMARK 927      BINDING AFFINITY PREDICTED BY RF-SCORE:    0.00 PKD
ROOT
HETATM    1  C   UNL     1      -9.502   2.834  69.136  1.00  0.00    -0.155 C  
HETATM    2  C   UNL     1      -9.597   4.285  69.572  1.00  0.00    -0.204 C  
ENDROOT
BRANCH   2   3
HETATM    3  O   UNL     1     -10.046   5.050  68.459  1.00  0.00    -0.162 OA 
BRANCH   3   4
HETATM    4  C   UNL     1     -10.316   6.412  68.798  1.00  0.00    -0.198 C  
BRANCH   4   5
HETATM    5  C   UNL     1     -11.371   6.399  69.893  1.00  0.00    -0.434 C  
BRANCH   5   6
HETATM    6  O   UNL     1     -11.326   7.547  70.744  1.00  0.00    -0.273 OA 
BRANCH   6   7
HETATM    7  C   UNL     1     -12.508   7.856  71.335  1.00  0.00    -0.309 C  
HETATM    8  O   UNL     1     -13.375   7.074  71.683  1.00  0.00    -0.369 OA 
BRANCH   7   9
HETATM    9  C   UNL     1     -12.452   9.297  71.658  1.00  0.00    -0.448 C  
HETATM   10  C   UNL     1     -12.374  10.221  70.686  1.00  0.00    -0.416 C  
BRANCH  10  11
HETATM   11  C   UNL     1     -12.555  11.662  70.919  1.00  0.00    -0.409 A  
HETATM   12  C   UNL     1     -11.995  12.649  70.100  1.00  0.00    -0.375 A  
HETATM   13  C   UNL     1     -12.143  14.005  70.409  1.00  0.00    -0.426 A  
HETATM   14  C   UNL     1     -12.882  14.406  71.521  1.00  0.00    -0.341 A  
HETATM   15  C   UNL     1     -13.466  13.437  72.334  1.00  0.00    -0.685 A  
HETATM   16  C   UNL     1     -13.305  12.076  72.032  1.00  0.00    -0.447 A  
BRANCH  14  17
HETATM   17  O   UNL     1     -12.910  15.754  71.745  1.00  0.00    -0.438 OA 
HETATM   18  C   UNL     1     -12.059  16.236  72.777  1.00  0.00    -0.540 C  
ENDBRANCH  14  17
ENDBRANCH  10  11
ENDBRANCH   7   9
ENDBRANCH   6   7
ENDBRANCH   5   6
ENDBRANCH   4   5
ENDBRANCH   3   4
ENDBRANCH   2   3
TORSDOF 8
ENDMDL
MODEL       51
REMARK 921   NORMALIZED FREE ENERGY PREDICTED BY IDOCK:   -4.32 KCAL/MOL
REMARK 922        TOTAL FREE ENERGY PREDICTED BY IDOCK:   -7.00 KCAL/MOL
REMARK 923 INTER-LIGAND FREE ENERGY PREDICTED BY IDOCK:   -6.55 KCAL/MOL
REMARK 924 INTRA-LIGAND FREE ENERGY PREDICTED BY IDOCK:   -0.45 KCAL/MOL
REMARK 927      BINDING AFFINITY PREDICTED BY RF-SCORE:    0.00 PKD
ROOT
HETATM    1  C   UNL     1      -6.999   9.189  63.514  1.00  0.00    -0.089 C  
HETATM    2  C   UNL     1      -8.200   8.567  64.204  1.00  0.00    -0.139 C  
ENDROOT
BRANCH   2   3
HETATM    3  O   UNL     1      -9.243   9.534  64.229  1.00  0.00    -0.229 OA 
BRANCH   3   4
HETATM    4  C   UNL     1      -8.850  10.787  63.664  1.00  0.00    -0.135 C  
BRANCH   4   5
HETATM    5  C   UNL     1     -10.124  11.561  63.364  1.00  0.00    -0.420 C  
BRANCH   5   6
HETATM    6  O   UNL     1     -11.031  11.616  64.468  1.00  0.00    -0.308 OA 
BRANCH   6   7
HETATM    7  C   UNL     1     -12.124  12.392  64.259  1.00  0.00    -0.433 C  
HETATM    8  O   UNL     1     -12.910  12.311  63.332  1.00  0.00    -0.754 OA 
BRANCH   7   9
HETATM    9  C   UNL     1     -12.291  13.218  65.474  1.00  0.00    -0.533 C  
HETATM   10  C   UNL     1     -11.820  12.802  66.661  1.00  0.00    -0.462 C  
BRANCH  10  11
HETATM   11  C   UNL     1     -11.738  13.667  67.850  1.00  0.00    -0.395 A  
HETATM   12  C   UNL     1     -11.889  13.190  69.157  1.00  0.00    -0.364 A  
HETATM   13  C   UNL     1     -11.870  14.068  70.245  1.00  0.00    -0.373 A  
HETATM   14  C   UNL     1     -11.664  15.435  70.055  1.00  0.00    -0.326 A  
HETATM   15  C   UNL     1     -11.489  15.922  68.762  1.00  0.00    -0.393 A  
HETATM   16  C   UNL     1     -11.523  15.042  67.669  1.00  0.00    -0.344 A  
BRANCH  14  17
HETATM   17  O   UNL     1     -11.718  16.194  71.191  1.00  0.00    -0.430 OA 
HETATM   18  C   UNL     1     -12.496  15.668  72.260  1.00  0.00    -0.426 C  
ENDBRANCH  14  17
ENDBRANCH  10  11
ENDBRANCH   7   9
ENDBRANCH   6   7
ENDBRANCH   5   6
ENDBRANCH   4   5
ENDBRANCH   3   4
ENDBRANCH   2   3
TORSDOF 8
ENDMDL
MODEL       52
REMARK 921   NORMALIZED FREE ENERGY PREDICTED BY IDOCK:   -4.32 KCAL/MOL
REMARK 922        TOTAL FREE ENERGY PREDICTED BY IDOCK:   -6.99 KCAL/MOL
REMARK 923 INTER-LIGAND FREE ENERGY PREDICTED BY IDOCK:   -6.61 KCAL/MOL
REMARK 924 INTRA-LIGAND FREE ENERGY PREDICTED BY IDOCK:   -0.38 KCAL/MOL
REMARK 927      BINDING AFFINITY PREDICTED BY RF-SCORE:    0.00 PKD
ROOT
HETATM    1  C   UNL     1     -10.580  11.405  65.311  1.00  0.00    -0.336 C  
HETATM    2  C   UNL     1     -11.346  12.497  66.036  1.00  0.00    -0.344 C  
ENDROOT
BRANCH   2   3
HETATM    3  O   UNL     1     -12.019  11.904  67.140  1.00  0.00    -0.611 OA 
BRANCH   3   4
HETATM    4  C   UNL     1     -11.343  12.122  68.381  1.00  0.00    -0.286 C  
BRANCH   4   5
HETATM    5  C   UNL     1     -11.028  13.607  68.462  1.00  0.00    -0.267 C  
BRANCH   5   6
HETATM    6  O   UNL     1     -12.170  14.417  68.756  1.00  0.00    -0.275 OA 
BRANCH   6   7
HETATM    7  C   UNL     1     -11.965  15.346  69.724  1.00  0.00    -0.358 C  
HETATM    8  O   UNL     1     -12.487  15.381  70.824  1.00  0.00    -0.360 OA 
BRANCH   7   9
HETATM    9  C   UNL     1     -10.841  16.189  69.265  1.00  0.00    -0.310 C  
HETATM   10  C   UNL     1     -11.026  17.144  68.338  1.00  0.00    -0.221 C  
BRANCH  10  11
HETATM   11  C   UNL     1     -10.019  18.167  68.014  1.00  0.00    -0.353 A  
HETATM   12  C   UNL     1      -8.784  18.260  68.666  1.00  0.00    -0.290 A  
HETATM   13  C   UNL     1      -7.892  19.295  68.364  1.00  0.00    -0.377 A  
HETATM   14  C   UNL     1      -8.199  20.236  67.382  1.00  0.00    -0.338 A  
HETATM   15  C   UNL     1      -9.414  20.144  66.708  1.00  0.00    -0.533 A  
HETATM   16  C   UNL     1     -10.315  19.114  67.021  1.00  0.00    -0.503 A  
BRANCH  14  17
HETATM   17  O   UNL     1      -7.270  21.226  67.216  1.00  0.00    -0.508 OA 
HETATM   18  C   UNL     1      -6.015  21.021  67.851  1.00  0.00    -0.342 C  
ENDBRANCH  14  17
ENDBRANCH  10  11
ENDBRANCH   7   9
ENDBRANCH   6   7
ENDBRANCH   5   6
ENDBRANCH   4   5
ENDBRANCH   3   4
ENDBRANCH   2   3
TORSDOF 8
ENDMDL
MODEL       53
REMARK 921   NORMALIZED FREE ENERGY PREDICTED BY IDOCK:   -4.31 KCAL/MOL
REMARK 922        TOTAL FREE ENERGY PREDICTED BY IDOCK:   -6.98 KCAL/MOL
REMARK 923 INTER-LIGAND FREE ENERGY PREDICTED BY IDOCK:   -6.42 KCAL/MOL
REMARK 924 INTRA-LIGAND FREE ENERGY PREDICTED BY IDOCK:   -0.56 KCAL/MOL
REMARK 927      BINDING AFFINITY PREDICTED BY RF-SCORE:    0.00 PKD
ROOT
HETATM    1  C   UNL     1     -10.055   5.141  72.188  1.00  0.00    -0.247 C  
HETATM    2  C   UNL     1     -11.426   5.749  72.424  1.00  0.00    -0.288 C  
ENDROOT
BRANCH   2   3
HETATM    3  O   UNL     1     -11.911   6.237  71.179  1.00  0.00    -0.305 OA 
BRANCH   3   4
HETATM    4  C   UNL     1     -13.003   7.147  71.329  1.00  0.00    -0.324 C  
BRANCH   4   5
HETATM    5  C   UNL     1     -12.570   8.201  72.335  1.00  0.00    -0.226 C  
BRANCH   5   6
HETATM    6  O   UNL     1     -12.318   9.481  71.749  1.00  0.00    -0.359 OA 
BRANCH   6   7
HETATM    7  C   UNL     1     -11.084   9.615  71.201  1.00  0.00    -0.374 C  
HETATM    8  O   UNL     1     -10.036   9.180  71.646  1.00  0.00    -0.327 OA 
BRANCH   7   9
HETATM    9  C   UNL     1     -11.282  10.209  69.862  1.00  0.00    -0.343 C  
HETATM   10  C   UNL     1     -11.691  11.482  69.725  1.00  0.00    -0.426 C  
BRANCH  10  11
HETATM   11  C   UNL     1     -11.677  12.205  68.443  1.00  0.00    -0.388 A  
HETATM   12  C   UNL     1     -11.868  13.588  68.341  1.00  0.00    -0.408 A  
HETATM   13  C   UNL     1     -11.914  14.213  67.091  1.00  0.00    -0.460 A  
HETATM   14  C   UNL     1     -11.735  13.478  65.919  1.00  0.00    -0.352 A  
HETATM   15  C   UNL     1     -11.521  12.104  66.005  1.00  0.00    -0.427 A  
HETATM   16  C   UNL     1     -11.489  11.475  67.259  1.00  0.00    -0.338 A  
BRANCH  14  17
HETATM   17  O   UNL     1     -11.852  14.194  64.760  1.00  0.00    -0.373 OA 
HETATM   18  C   UNL     1     -12.109  13.441  63.581  1.00  0.00    -0.450 C  
ENDBRANCH  14  17
ENDBRANCH  10  11
ENDBRANCH   7   9
ENDBRANCH   6   7
ENDBRANCH   5   6
ENDBRANCH   4   5
ENDBRANCH   3   4
ENDBRANCH   2   3
TORSDOF 8
ENDMDL
MODEL       54
REMARK 921   NORMALIZED FREE ENERGY PREDICTED BY IDOCK:   -4.30 KCAL/MOL
REMARK 922        TOTAL FREE ENERGY PREDICTED BY IDOCK:   -6.97 KCAL/MOL
REMARK 923 INTER-LIGAND FREE ENERGY PREDICTED BY IDOCK:   -6.34 KCAL/MOL
REMARK 924 INTRA-LIGAND FREE ENERGY PREDICTED BY IDOCK:   -0.62 KCAL/MOL
REMARK 927      BINDING AFFINITY PREDICTED BY RF-SCORE:    0.00 PKD
ROOT
HETATM    1  C   UNL     1     -11.715   6.932  70.885  1.00  0.00    -0.408 C  
HETATM    2  C   UNL     1     -11.140   6.345  69.608  1.00  0.00    -0.401 C  
ENDROOT
BRANCH   2   3
HETATM    3  O   UNL     1     -10.752   7.423  68.765  1.00  0.00    -0.194 OA 
BRANCH   3   4
HETATM    4  C   UNL     1     -10.835   7.096  67.375  1.00  0.00    -0.276 C  
BRANCH   4   5
HETATM    5  C   UNL     1      -9.965   8.095  66.629  1.00  0.00    -0.269 C  
BRANCH   5   6
HETATM    6  O   UNL     1      -9.920   9.385  67.245  1.00  0.00    -0.171 OA 
BRANCH   6   7
HETATM    7  C   UNL     1     -10.415  10.390  66.479  1.00  0.00    -0.196 C  
HETATM    8  O   UNL     1     -10.404  10.454  65.263  1.00  0.00    -0.284 OA 
BRANCH   7   9
HETATM    9  C   UNL     1     -11.149  11.292  67.393  1.00  0.00    -0.358 C  
HETATM   10  C   UNL     1     -11.489  10.894  68.630  1.00  0.00    -0.380 C  
BRANCH  10  11
HETATM   11  C   UNL     1     -12.000  11.808  69.664  1.00  0.00    -0.378 A  
HETATM   12  C   UNL     1     -11.899  13.201  69.575  1.00  0.00    -0.383 A  
HETATM   13  C   UNL     1     -12.341  14.018  70.620  1.00  0.00    -0.446 A  
HETATM   14  C   UNL     1     -12.926  13.466  71.759  1.00  0.00    -0.342 A  
HETATM   15  C   UNL     1     -13.055  12.082  71.853  1.00  0.00    -0.475 A  
HETATM   16  C   UNL     1     -12.598  11.261  70.811  1.00  0.00    -0.425 A  
BRANCH  14  17
HETATM   17  O   UNL     1     -13.269  14.365  72.730  1.00  0.00    -0.463 OA 
HETATM   18  C   UNL     1     -14.202  15.370  72.352  1.00  0.00    -0.492 C  
ENDBRANCH  14  17
ENDBRANCH  10  11
ENDBRANCH   7   9
ENDBRANCH   6   7
ENDBRANCH   5   6
ENDBRANCH   4   5
ENDBRANCH   3   4
ENDBRANCH   2   3
TORSDOF 8
ENDMDL
MODEL       55
REMARK 921   NORMALIZED FREE ENERGY PREDICTED BY IDOCK:   -4.30 KCAL/MOL
REMARK 922        TOTAL FREE ENERGY PREDICTED BY IDOCK:   -6.96 KCAL/MOL
REMARK 923 INTER-LIGAND FREE ENERGY PREDICTED BY IDOCK:   -6.34 KCAL/MOL
REMARK 924 INTRA-LIGAND FREE ENERGY PREDICTED BY IDOCK:   -0.62 KCAL/MOL
REMARK 927      BINDING AFFINITY PREDICTED BY RF-SCORE:    0.00 PKD
ROOT
HETATM    1  C   UNL     1      -6.871  14.777  67.802  1.00  0.00    -0.195 C  
HETATM    2  C   UNL     1      -8.139  13.954  67.948  1.00  0.00    -0.158 C  
ENDROOT
BRANCH   2   3
HETATM    3  O   UNL     1      -8.791  13.922  66.684  1.00  0.00    -0.191 OA 
BRANCH   3   4
HETATM    4  C   UNL     1      -9.179  15.221  66.229  1.00  0.00    -0.315 C  
BRANCH   4   5
HETATM    5  C   UNL     1     -10.465  15.049  65.435  1.00  0.00    -0.384 C  
BRANCH   5   6
HETATM    6  O   UNL     1     -11.596  14.720  66.245  1.00  0.00    -0.358 OA 
BRANCH   6   7
HETATM    7  C   UNL     1     -12.318  13.661  65.799  1.00  0.00    -0.482 C  
HETATM    8  O   UNL     1     -13.057  13.637  64.830  1.00  0.00    -0.713 OA 
BRANCH   7   9
HETATM    9  C   UNL     1     -11.878  12.491  66.588  1.00  0.00    -0.422 C  
HETATM   10  C   UNL     1     -11.766  12.563  67.925  1.00  0.00    -0.416 C  
BRANCH  10  11
HETATM   11  C   UNL     1     -11.570  11.386  68.788  1.00  0.00    -0.378 A  
HETATM   12  C   UNL     1     -12.080  11.295  70.088  1.00  0.00    -0.448 A  
HETATM   13  C   UNL     1     -11.804  10.181  70.887  1.00  0.00    -0.468 A  
HETATM   14  C   UNL     1     -11.045   9.119  70.394  1.00  0.00    -0.253 A  
HETATM   15  C   UNL     1     -10.550   9.185  69.094  1.00  0.00    -0.224 A  
HETATM   16  C   UNL     1     -10.814  10.309  68.297  1.00  0.00    -0.300 A  
BRANCH  14  17
HETATM   17  O   UNL     1     -10.803   8.114  71.289  1.00  0.00    -0.229 OA 
HETATM   18  C   UNL     1     -11.506   8.190  72.523  1.00  0.00    -0.404 C  
ENDBRANCH  14  17
ENDBRANCH  10  11
ENDBRANCH   7   9
ENDBRANCH   6   7
ENDBRANCH   5   6
ENDBRANCH   4   5
ENDBRANCH   3   4
ENDBRANCH   2   3
TORSDOF 8
ENDMDL
MODEL       56
REMARK 921   NORMALIZED FREE ENERGY PREDICTED BY IDOCK:   -4.29 KCAL/MOL
REMARK 922        TOTAL FREE ENERGY PREDICTED BY IDOCK:   -6.95 KCAL/MOL
REMARK 923 INTER-LIGAND FREE ENERGY PREDICTED BY IDOCK:   -6.27 KCAL/MOL
REMARK 924 INTRA-LIGAND FREE ENERGY PREDICTED BY IDOCK:   -0.69 KCAL/MOL
REMARK 927      BINDING AFFINITY PREDICTED BY RF-SCORE:    0.00 PKD
ROOT
HETATM    1  C   UNL     1     -11.286   9.091  70.464  1.00  0.00    -0.301 C  
HETATM    2  C   UNL     1     -10.247   8.218  69.784  1.00  0.00    -0.204 C  
ENDROOT
BRANCH   2   3
HETATM    3  O   UNL     1      -9.849   8.863  68.580  1.00  0.00    -0.159 OA 
BRANCH   3   4
HETATM    4  C   UNL     1     -10.623   8.453  67.451  1.00  0.00    -0.243 C  
BRANCH   4   5
HETATM    5  C   UNL     1     -10.610   9.606  66.459  1.00  0.00    -0.072 C  
BRANCH   5   6
HETATM    6  O   UNL     1     -10.323  10.872  67.060  1.00  0.00    -0.211 OA 
BRANCH   6   7
HETATM    7  C   UNL     1     -11.336  11.772  66.985  1.00  0.00    -0.321 C  
HETATM    8  O   UNL     1     -12.014  12.027  66.005  1.00  0.00    -0.559 OA 
BRANCH   7   9
HETATM    9  C   UNL     1     -11.591  12.232  68.366  1.00  0.00    -0.377 C  
HETATM   10  C   UNL     1     -11.717  13.540  68.645  1.00  0.00    -0.389 C  
BRANCH  10  11
HETATM   11  C   UNL     1     -12.205  14.051  69.937  1.00  0.00    -0.399 A  
HETATM   12  C   UNL     1     -12.101  15.393  70.319  1.00  0.00    -0.402 A  
HETATM   13  C   UNL     1     -12.520  15.810  71.587  1.00  0.00    -0.525 A  
HETATM   14  C   UNL     1     -13.082  14.904  72.486  1.00  0.00    -0.389 A  
HETATM   15  C   UNL     1     -13.213  13.568  72.112  1.00  0.00    -0.551 A  
HETATM   16  C   UNL     1     -12.780  13.148  70.845  1.00  0.00    -0.313 A  
BRANCH  14  17
HETATM   17  O   UNL     1     -13.403  15.423  73.710  1.00  0.00    -0.344 OA 
HETATM   18  C   UNL     1     -12.442  16.293  74.293  1.00  0.00    -0.506 C  
ENDBRANCH  14  17
ENDBRANCH  10  11
ENDBRANCH   7   9
ENDBRANCH   6   7
ENDBRANCH   5   6
ENDBRANCH   4   5
ENDBRANCH   3   4
ENDBRANCH   2   3
TORSDOF 8
ENDMDL
MODEL       57
REMARK 921   NORMALIZED FREE ENERGY PREDICTED BY IDOCK:   -4.29 KCAL/MOL
REMARK 922        TOTAL FREE ENERGY PREDICTED BY IDOCK:   -6.95 KCAL/MOL
REMARK 923 INTER-LIGAND FREE ENERGY PREDICTED BY IDOCK:   -6.38 KCAL/MOL
REMARK 924 INTRA-LIGAND FREE ENERGY PREDICTED BY IDOCK:   -0.57 KCAL/MOL
REMARK 927      BINDING AFFINITY PREDICTED BY RF-SCORE:    0.00 PKD
ROOT
HETATM    1  C   UNL     1     -11.112  12.252  63.534  1.00  0.00    -0.533 C  
HETATM    2  C   UNL     1     -10.535  12.224  64.938  1.00  0.00    -0.289 C  
ENDROOT
BRANCH   2   3
HETATM    3  O   UNL     1     -10.668  10.901  65.443  1.00  0.00    -0.219 OA 
BRANCH   3   4
HETATM    4  C   UNL     1      -9.423  10.201  65.497  1.00  0.00    -0.230 C  
BRANCH   4   5
HETATM    5  C   UNL     1      -9.698   8.849  66.136  1.00  0.00    -0.268 C  
BRANCH   5   6
HETATM    6  O   UNL     1     -10.299   8.942  67.430  1.00  0.00    -0.232 OA 
BRANCH   6   7
HETATM    7  C   UNL     1      -9.435   9.252  68.430  1.00  0.00    -0.138 C  
HETATM    8  O   UNL     1      -8.307   8.816  68.581  1.00  0.00    -0.125 OA 
BRANCH   7   9
HETATM    9  C   UNL     1     -10.046  10.367  69.182  1.00  0.00    -0.236 C  
HETATM   10  C   UNL     1     -11.380  10.528  69.218  1.00  0.00    -0.325 C  
BRANCH  10  11
HETATM   11  C   UNL     1     -12.061  11.460  70.130  1.00  0.00    -0.439 A  
HETATM   12  C   UNL     1     -12.023  12.850  69.975  1.00  0.00    -0.380 A  
HETATM   13  C   UNL     1     -12.632  13.691  70.912  1.00  0.00    -0.421 A  
HETATM   14  C   UNL     1     -13.322  13.162  72.003  1.00  0.00    -0.493 A  
HETATM   15  C   UNL     1     -13.389  11.780  72.159  1.00  0.00    -0.334 A  
HETATM   16  C   UNL     1     -12.765  10.936  71.227  1.00  0.00    -0.542 A  
BRANCH  14  17
HETATM   17  O   UNL     1     -13.829  14.087  72.874  1.00  0.00    -0.657 OA 
HETATM   18  C   UNL     1     -13.286  15.398  72.781  1.00  0.00    -0.518 C  
ENDBRANCH  14  17
ENDBRANCH  10  11
ENDBRANCH   7   9
ENDBRANCH   6   7
ENDBRANCH   5   6
ENDBRANCH   4   5
ENDBRANCH   3   4
ENDBRANCH   2   3
TORSDOF 8
ENDMDL
MODEL       58
REMARK 921   NORMALIZED FREE ENERGY PREDICTED BY IDOCK:   -4.29 KCAL/MOL
REMARK 922        TOTAL FREE ENERGY PREDICTED BY IDOCK:   -6.94 KCAL/MOL
REMARK 923 INTER-LIGAND FREE ENERGY PREDICTED BY IDOCK:   -6.10 KCAL/MOL
REMARK 924 INTRA-LIGAND FREE ENERGY PREDICTED BY IDOCK:   -0.84 KCAL/MOL
REMARK 927      BINDING AFFINITY PREDICTED BY RF-SCORE:    0.00 PKD
ROOT
HETATM    1  C   UNL     1     -10.866  19.164  67.160  1.00  0.00    -0.507 C  
HETATM    2  C   UNL     1      -9.885  19.975  67.987  1.00  0.00    -0.394 C  
ENDROOT
BRANCH   2   3
HETATM    3  O   UNL     1      -8.596  19.394  67.837  1.00  0.00    -0.297 OA 
BRANCH   3   4
HETATM    4  C   UNL     1      -7.896  19.888  66.693  1.00  0.00    -0.309 C  
BRANCH   4   5
HETATM    5  C   UNL     1      -7.248  18.692  66.015  1.00  0.00    -0.257 C  
BRANCH   5   6
HETATM    6  O   UNL     1      -8.092  17.538  65.965  1.00  0.00    -0.483 OA 
BRANCH   6   7
HETATM    7  C   UNL     1      -7.589  16.447  66.595  1.00  0.00    -0.253 C  
HETATM    8  O   UNL     1      -6.412  16.168  66.745  1.00  0.00    -0.285 OA 
BRANCH   7   9
HETATM    9  C   UNL     1      -8.734  15.769  67.239  1.00  0.00    -0.210 C  
HETATM   10  C   UNL     1      -9.024  15.983  68.534  1.00  0.00    -0.200 C  
BRANCH  10  11
HETATM   11  C   UNL     1     -10.273  15.536  69.170  1.00  0.00    -0.240 A  
HETATM   12  C   UNL     1     -10.941  16.277  70.152  1.00  0.00    -0.335 A  
HETATM   13  C   UNL     1     -12.088  15.771  70.772  1.00  0.00    -0.448 A  
HETATM   14  C   UNL     1     -12.614  14.534  70.400  1.00  0.00    -0.346 A  
HETATM   15  C   UNL     1     -11.974  13.795  69.407  1.00  0.00    -0.397 A  
HETATM   16  C   UNL     1     -10.815  14.296  68.796  1.00  0.00    -0.265 A  
BRANCH  14  17
HETATM   17  O   UNL     1     -13.707  14.128  71.114  1.00  0.00    -0.279 OA 
HETATM   18  C   UNL     1     -14.390  15.140  71.843  1.00  0.00    -0.596 C  
ENDBRANCH  14  17
ENDBRANCH  10  11
ENDBRANCH   7   9
ENDBRANCH   6   7
ENDBRANCH   5   6
ENDBRANCH   4   5
ENDBRANCH   3   4
ENDBRANCH   2   3
TORSDOF 8
ENDMDL
MODEL       59
REMARK 921   NORMALIZED FREE ENERGY PREDICTED BY IDOCK:   -4.28 KCAL/MOL
REMARK 922        TOTAL FREE ENERGY PREDICTED BY IDOCK:   -6.93 KCAL/MOL
REMARK 923 INTER-LIGAND FREE ENERGY PREDICTED BY IDOCK:   -6.50 KCAL/MOL
REMARK 924 INTRA-LIGAND FREE ENERGY PREDICTED BY IDOCK:   -0.43 KCAL/MOL
REMARK 927      BINDING AFFINITY PREDICTED BY RF-SCORE:    0.00 PKD
ROOT
HETATM    1  C   UNL     1     -12.752   8.956  71.526  1.00  0.00    -0.386 C  
HETATM    2  C   UNL     1     -13.146  10.363  71.114  1.00  0.00    -0.383 C  
ENDROOT
BRANCH   2   3
HETATM    3  O   UNL     1     -12.917  11.226  72.222  1.00  0.00    -0.282 OA 
BRANCH   3   4
HETATM    4  C   UNL     1     -13.542  12.503  72.067  1.00  0.00    -0.291 C  
BRANCH   4   5
HETATM    5  C   UNL     1     -12.670  13.316  71.126  1.00  0.00    -0.320 C  
BRANCH   5   6
HETATM    6  O   UNL     1     -12.626  14.709  71.448  1.00  0.00    -0.299 OA 
BRANCH   6   7
HETATM    7  C   UNL     1     -11.992  15.479  70.528  1.00  0.00    -0.371 C  
HETATM    8  O   UNL     1     -11.312  16.466  70.746  1.00  0.00    -0.373 OA 
BRANCH   7   9
HETATM    9  C   UNL     1     -12.116  14.775  69.234  1.00  0.00    -0.296 C  
HETATM   10  C   UNL     1     -11.527  15.256  68.127  1.00  0.00    -0.357 C  
BRANCH  10  11
HETATM   11  C   UNL     1     -11.408  14.493  66.874  1.00  0.00    -0.355 A  
HETATM   12  C   UNL     1     -10.356  14.666  65.968  1.00  0.00    -0.317 A  
HETATM   13  C   UNL     1     -10.330  13.962  64.759  1.00  0.00    -0.419 A  
HETATM   14  C   UNL     1     -11.333  13.046  64.446  1.00  0.00    -0.357 A  
HETATM   15  C   UNL     1     -12.376  12.846  65.347  1.00  0.00    -0.538 A  
HETATM   16  C   UNL     1     -12.410  13.563  66.553  1.00  0.00    -0.382 A  
BRANCH  14  17
HETATM   17  O   UNL     1     -11.222  12.461  63.215  1.00  0.00    -0.441 OA 
HETATM   18  C   UNL     1     -10.226  11.455  63.086  1.00  0.00    -0.334 C  
ENDBRANCH  14  17
ENDBRANCH  10  11
ENDBRANCH   7   9
ENDBRANCH   6   7
ENDBRANCH   5   6
ENDBRANCH   4   5
ENDBRANCH   3   4
ENDBRANCH   2   3
TORSDOF 8
ENDMDL
MODEL       60
REMARK 921   NORMALIZED FREE ENERGY PREDICTED BY IDOCK:   -4.26 KCAL/MOL
REMARK 922        TOTAL FREE ENERGY PREDICTED BY IDOCK:   -6.90 KCAL/MOL
REMARK 923 INTER-LIGAND FREE ENERGY PREDICTED BY IDOCK:   -6.53 KCAL/MOL
REMARK 924 INTRA-LIGAND FREE ENERGY PREDICTED BY IDOCK:   -0.37 KCAL/MOL
REMARK 927      BINDING AFFINITY PREDICTED BY RF-SCORE:    0.00 PKD
ROOT
HETATM    1  C   UNL     1      -7.447  19.710  67.670  1.00  0.00    -0.304 C  
HETATM    2  C   UNL     1      -8.515  18.828  68.290  1.00  0.00    -0.327 C  
ENDROOT
BRANCH   2   3
HETATM    3  O   UNL     1      -9.368  18.371  67.247  1.00  0.00    -0.265 OA 
BRANCH   3   4
HETATM    4  C   UNL     1      -8.705  17.492  66.335  1.00  0.00    -0.242 C  
BRANCH   4   5
HETATM    5  C   UNL     1      -8.966  16.073  66.814  1.00  0.00    -0.246 C  
BRANCH   5   6
HETATM    6  O   UNL     1      -9.295  15.166  65.758  1.00  0.00    -0.310 OA 
BRANCH   6   7
HETATM    7  C   UNL     1     -10.619  14.890  65.647  1.00  0.00    -0.344 C  
HETATM    8  O   UNL     1     -11.189  14.425  64.675  1.00  0.00    -0.377 OA 
BRANCH   7   9
HETATM    9  C   UNL     1     -11.200  15.069  66.995  1.00  0.00    -0.328 C  
HETATM   10  C   UNL     1     -11.645  14.015  67.700  1.00  0.00    -0.385 C  
BRANCH  10  11
HETATM   11  C   UNL     1     -12.008  14.088  69.125  1.00  0.00    -0.400 A  
HETATM   12  C   UNL     1     -12.148  12.959  69.939  1.00  0.00    -0.335 A  
HETATM   13  C   UNL     1     -12.562  13.083  71.269  1.00  0.00    -0.373 A  
HETATM   14  C   UNL     1     -12.811  14.338  71.824  1.00  0.00    -0.348 A  
HETATM   15  C   UNL     1     -12.654  15.474  71.033  1.00  0.00    -0.513 A  
HETATM   16  C   UNL     1     -12.252  15.348  69.695  1.00  0.00    -0.312 A  
BRANCH  14  17
HETATM   17  O   UNL     1     -13.259  14.324  73.116  1.00  0.00    -0.616 OA 
HETATM   18  C   UNL     1     -12.609  15.213  74.016  1.00  0.00    -0.507 C  
ENDBRANCH  14  17
ENDBRANCH  10  11
ENDBRANCH   7   9
ENDBRANCH   6   7
ENDBRANCH   5   6
ENDBRANCH   4   5
ENDBRANCH   3   4
ENDBRANCH   2   3
TORSDOF 8
ENDMDL
MODEL       61
REMARK 921   NORMALIZED FREE ENERGY PREDICTED BY IDOCK:   -4.22 KCAL/MOL
REMARK 922        TOTAL FREE ENERGY PREDICTED BY IDOCK:   -6.84 KCAL/MOL
REMARK 923 INTER-LIGAND FREE ENERGY PREDICTED BY IDOCK:   -6.35 KCAL/MOL
REMARK 924 INTRA-LIGAND FREE ENERGY PREDICTED BY IDOCK:   -0.50 KCAL/MOL
REMARK 927      BINDING AFFINITY PREDICTED BY RF-SCORE:    0.00 PKD
ROOT
HETATM    1  C   UNL     1     -13.501   9.620  72.087  1.00  0.00    -0.516 C  
HETATM    2  C   UNL     1     -12.898  10.866  71.462  1.00  0.00    -0.454 C  
ENDROOT
BRANCH   2   3
HETATM    3  O   UNL     1     -11.659  10.503  70.865  1.00  0.00    -0.338 OA 
BRANCH   3   4
HETATM    4  C   UNL     1     -11.060   9.362  71.482  1.00  0.00    -0.376 C  
BRANCH   4   5
HETATM    5  C   UNL     1     -10.049   8.800  70.496  1.00  0.00    -0.195 C  
BRANCH   5   6
HETATM    6  O   UNL     1     -10.648   8.116  69.392  1.00  0.00    -0.227 OA 
BRANCH   6   7
HETATM    7  C   UNL     1      -9.990   8.266  68.215  1.00  0.00    -0.191 C  
HETATM    8  O   UNL     1      -9.328   7.423  67.636  1.00  0.00    -0.132 OA 
BRANCH   7   9
HETATM    9  C   UNL     1     -10.398   9.578  67.670  1.00  0.00    -0.299 C  
HETATM   10  C   UNL     1     -10.143   9.905  66.392  1.00  0.00    -0.308 C  
BRANCH  10  11
HETATM   11  C   UNL     1     -10.724  11.080  65.724  1.00  0.00    -0.216 A  
HETATM   12  C   UNL     1     -11.511  12.029  66.387  1.00  0.00    -0.417 A  
HETATM   13  C   UNL     1     -12.095  13.089  65.687  1.00  0.00    -0.507 A  
HETATM   14  C   UNL     1     -11.877  13.247  64.319  1.00  0.00    -0.417 A  
HETATM   15  C   UNL     1     -11.077  12.325  63.648  1.00  0.00    -0.537 A  
HETATM   16  C   UNL     1     -10.503  11.252  64.348  1.00  0.00    -0.407 A  
BRANCH  14  17
HETATM   17  O   UNL     1     -12.543  14.292  63.740  1.00  0.00    -0.821 OA 
HETATM   18  C   UNL     1     -12.153  15.593  64.160  1.00  0.00     0.009 C  
ENDBRANCH  14  17
ENDBRANCH  10  11
ENDBRANCH   7   9
ENDBRANCH   6   7
ENDBRANCH   5   6
ENDBRANCH   4   5
ENDBRANCH   3   4
ENDBRANCH   2   3
TORSDOF 8
ENDMDL
MODEL       62
REMARK 921   NORMALIZED FREE ENERGY PREDICTED BY IDOCK:   -4.20 KCAL/MOL
REMARK 922        TOTAL FREE ENERGY PREDICTED BY IDOCK:   -6.82 KCAL/MOL
REMARK 923 INTER-LIGAND FREE ENERGY PREDICTED BY IDOCK:   -6.50 KCAL/MOL
REMARK 924 INTRA-LIGAND FREE ENERGY PREDICTED BY IDOCK:   -0.33 KCAL/MOL
REMARK 927      BINDING AFFINITY PREDICTED BY RF-SCORE:    0.00 PKD
ROOT
HETATM    1  C   UNL     1     -11.070  11.725  63.472  1.00  0.00    -0.503 C  
HETATM    2  C   UNL     1     -11.974  12.944  63.521  1.00  0.00    -0.556 C  
ENDROOT
BRANCH   2   3
HETATM    3  O   UNL     1     -11.970  13.442  64.854  1.00  0.00    -0.347 OA 
BRANCH   3   4
HETATM    4  C   UNL     1     -11.337  12.551  65.776  1.00  0.00    -0.336 C  
BRANCH   4   5
HETATM    5  C   UNL     1     -11.850  12.904  67.162  1.00  0.00    -0.362 C  
BRANCH   5   6
HETATM    6  O   UNL     1     -12.044  11.767  68.007  1.00  0.00    -0.572 OA 
BRANCH   6   7
HETATM    7  C   UNL     1     -11.909  12.021  69.332  1.00  0.00    -0.324 C  
HETATM    8  O   UNL     1     -11.823  13.116  69.860  1.00  0.00    -0.317 OA 
BRANCH   7   9
HETATM    9  C   UNL     1     -12.090  10.730  70.029  1.00  0.00    -0.423 C  
HETATM   10  C   UNL     1     -11.045   9.919  70.263  1.00  0.00    -0.368 C  
BRANCH  10  11
HETATM   11  C   UNL     1     -11.110   8.747  71.151  1.00  0.00    -0.340 A  
HETATM   12  C   UNL     1     -10.235   8.549  72.225  1.00  0.00    -0.395 A  
HETATM   13  C   UNL     1     -10.299   7.382  72.994  1.00  0.00    -0.356 A  
HETATM   14  C   UNL     1     -11.260   6.407  72.730  1.00  0.00    -0.227 A  
HETATM   15  C   UNL     1     -12.153   6.599  71.679  1.00  0.00    -0.404 A  
HETATM   16  C   UNL     1     -12.079   7.763  70.899  1.00  0.00    -0.199 A  
BRANCH  14  17
HETATM   17  O   UNL     1     -11.187   5.292  73.518  1.00  0.00    -0.296 OA 
HETATM   18  C   UNL     1     -10.351   4.243  73.045  1.00  0.00    -0.173 C  
ENDBRANCH  14  17
ENDBRANCH  10  11
ENDBRANCH   7   9
ENDBRANCH   6   7
ENDBRANCH   5   6
ENDBRANCH   4   5
ENDBRANCH   3   4
ENDBRANCH   2   3
TORSDOF 8
ENDMDL
MODEL       63
REMARK 921   NORMALIZED FREE ENERGY PREDICTED BY IDOCK:   -4.20 KCAL/MOL
REMARK 922        TOTAL FREE ENERGY PREDICTED BY IDOCK:   -6.81 KCAL/MOL
REMARK 923 INTER-LIGAND FREE ENERGY PREDICTED BY IDOCK:   -6.33 KCAL/MOL
REMARK 924 INTRA-LIGAND FREE ENERGY PREDICTED BY IDOCK:   -0.49 KCAL/MOL
REMARK 927      BINDING AFFINITY PREDICTED BY RF-SCORE:    0.00 PKD
ROOT
HETATM    1  C   UNL     1     -10.317   9.662  67.030  1.00  0.00    -0.315 C  
HETATM    2  C   UNL     1     -10.232  10.771  65.997  1.00  0.00    -0.251 C  
ENDROOT
BRANCH   2   3
HETATM    3  O   UNL     1      -9.682  10.222  64.806  1.00  0.00    -0.287 OA 
BRANCH   3   4
HETATM    4  C   UNL     1     -10.017  10.981  63.641  1.00  0.00    -0.361 C  
BRANCH   4   5
HETATM    5  C   UNL     1     -11.358  11.643  63.911  1.00  0.00    -0.371 C  
BRANCH   5   6
HETATM    6  O   UNL     1     -11.416  13.008  63.488  1.00  0.00    -0.446 OA 
BRANCH   6   7
HETATM    7  C   UNL     1     -11.954  13.856  64.401  1.00  0.00    -0.450 C  
HETATM    8  O   UNL     1     -13.099  13.850  64.817  1.00  0.00    -0.640 OA 
BRANCH   7   9
HETATM    9  C   UNL     1     -10.834  14.656  64.941  1.00  0.00    -0.436 C  
HETATM   10  C   UNL     1     -10.949  15.985  65.101  1.00  0.00    -0.360 C  
BRANCH  10  11
HETATM   11  C   UNL     1      -9.977  16.800  65.847  1.00  0.00    -0.299 A  
HETATM   12  C   UNL     1     -10.253  18.093  66.307  1.00  0.00    -0.401 A  
HETATM   13  C   UNL     1      -9.267  18.848  66.951  1.00  0.00    -0.322 A  
HETATM   14  C   UNL     1      -7.999  18.316  67.182  1.00  0.00    -0.220 A  
HETATM   15  C   UNL     1      -7.716  17.023  66.750  1.00  0.00    -0.274 A  
HETATM   16  C   UNL     1      -8.700  16.271  66.091  1.00  0.00    -0.353 A  
BRANCH  14  17
HETATM   17  O   UNL     1      -7.110  19.170  67.773  1.00  0.00    -0.227 OA 
HETATM   18  C   UNL     1      -7.075  19.153  69.195  1.00  0.00    -0.314 C  
ENDBRANCH  14  17
ENDBRANCH  10  11
ENDBRANCH   7   9
ENDBRANCH   6   7
ENDBRANCH   5   6
ENDBRANCH   4   5
ENDBRANCH   3   4
ENDBRANCH   2   3
TORSDOF 8
ENDMDL
MODEL       64
REMARK 921   NORMALIZED FREE ENERGY PREDICTED BY IDOCK:   -4.20 KCAL/MOL
REMARK 922        TOTAL FREE ENERGY PREDICTED BY IDOCK:   -6.81 KCAL/MOL
REMARK 923 INTER-LIGAND FREE ENERGY PREDICTED BY IDOCK:   -6.45 KCAL/MOL
REMARK 924 INTRA-LIGAND FREE ENERGY PREDICTED BY IDOCK:   -0.36 KCAL/MOL
REMARK 927      BINDING AFFINITY PREDICTED BY RF-SCORE:    0.00 PKD
ROOT
HETATM    1  C   UNL     1      -9.494  10.427  62.985  1.00  0.00    -0.362 C  
HETATM    2  C   UNL     1     -10.114  11.353  64.017  1.00  0.00    -0.320 C  
ENDROOT
BRANCH   2   3
HETATM    3  O   UNL     1     -10.858  12.348  63.325  1.00  0.00    -0.432 OA 
BRANCH   3   4
HETATM    4  C   UNL     1     -12.159  12.554  63.881  1.00  0.00    -0.498 C  
BRANCH   4   5
HETATM    5  C   UNL     1     -12.268  14.030  64.228  1.00  0.00    -0.418 C  
BRANCH   5   6
HETATM    6  O   UNL     1     -11.255  14.480  65.131  1.00  0.00    -0.332 OA 
BRANCH   6   7
HETATM    7  C   UNL     1     -10.858  15.763  64.937  1.00  0.00    -0.413 C  
HETATM    8  O   UNL     1     -11.396  16.593  64.225  1.00  0.00    -1.116 OA 
BRANCH   7   9
HETATM    9  C   UNL     1      -9.773  16.019  65.907  1.00  0.00    -0.378 C  
HETATM   10  C   UNL     1      -9.175  17.220  65.973  1.00  0.00    -0.121 C  
BRANCH  10  11
HETATM   11  C   UNL     1      -8.266  17.616  67.061  1.00  0.00    -0.239 A  
HETATM   12  C   UNL     1      -7.242  16.792  67.542  1.00  0.00    -0.172 A  
HETATM   13  C   UNL     1      -6.452  17.192  68.625  1.00  0.00    -0.175 A  
HETATM   14  C   UNL     1      -6.643  18.435  69.227  1.00  0.00    -0.244 A  
HETATM   15  C   UNL     1      -7.644  19.276  68.745  1.00  0.00    -0.393 A  
HETATM   16  C   UNL     1      -8.446  18.869  67.668  1.00  0.00    -0.304 A  
BRANCH  14  17
HETATM   17  O   UNL     1      -5.843  18.687  70.307  1.00  0.00    -0.236 OA 
HETATM   18  C   UNL     1      -5.960  19.981  70.885  1.00  0.00    -0.302 C  
ENDBRANCH  14  17
ENDBRANCH  10  11
ENDBRANCH   7   9
ENDBRANCH   6   7
ENDBRANCH   5   6
ENDBRANCH   4   5
ENDBRANCH   3   4
ENDBRANCH   2   3
TORSDOF 8
ENDMDL
MODEL       65
REMARK 921   NORMALIZED FREE ENERGY PREDICTED BY IDOCK:   -4.18 KCAL/MOL
REMARK 922        TOTAL FREE ENERGY PREDICTED BY IDOCK:   -6.79 KCAL/MOL
REMARK 923 INTER-LIGAND FREE ENERGY PREDICTED BY IDOCK:   -6.19 KCAL/MOL
REMARK 924 INTRA-LIGAND FREE ENERGY PREDICTED BY IDOCK:   -0.59 KCAL/MOL
REMARK 927      BINDING AFFINITY PREDICTED BY RF-SCORE:    0.00 PKD
ROOT
HETATM    1  C   UNL     1     -14.176  14.157  72.156  1.00  0.00    -0.638 C  
HETATM    2  C   UNL     1     -13.467  12.815  72.175  1.00  0.00    -0.492 C  
ENDROOT
BRANCH   2   3
HETATM    3  O   UNL     1     -12.597  12.761  71.051  1.00  0.00    -0.363 OA 
BRANCH   3   4
HETATM    4  C   UNL     1     -12.243  14.057  70.562  1.00  0.00    -0.365 C  
BRANCH   4   5
HETATM    5  C   UNL     1     -11.562  13.855  69.218  1.00  0.00    -0.309 C  
BRANCH   5   6
HETATM    6  O   UNL     1     -12.053  12.725  68.492  1.00  0.00    -0.270 OA 
BRANCH   6   7
HETATM    7  C   UNL     1     -11.086  11.934  67.963  1.00  0.00    -0.240 C  
HETATM    8  O   UNL     1     -10.157  12.288  67.260  1.00  0.00    -0.203 OA 
BRANCH   7   9
HETATM    9  C   UNL     1     -11.260  10.597  68.570  1.00  0.00    -0.342 C  
HETATM   10  C   UNL     1     -10.641  10.274  69.718  1.00  0.00    -0.312 C  
BRANCH  10  11
HETATM   11  C   UNL     1     -10.953   9.063  70.495  1.00  0.00    -0.295 A  
HETATM   12  C   UNL     1     -11.275   9.088  71.857  1.00  0.00    -0.438 A  
HETATM   13  C   UNL     1     -11.495   7.900  72.561  1.00  0.00    -0.455 A  
HETATM   14  C   UNL     1     -11.436   6.666  71.915  1.00  0.00    -0.291 A  
HETATM   15  C   UNL     1     -11.140   6.626  70.554  1.00  0.00    -0.359 A  
HETATM   16  C   UNL     1     -10.904   7.817  69.851  1.00  0.00    -0.228 A  
BRANCH  14  17
HETATM   17  O   UNL     1     -11.619   5.578  72.722  1.00  0.00    -0.308 OA 
HETATM   18  C   UNL     1     -10.620   5.354  73.709  1.00  0.00    -0.286 C  
ENDBRANCH  14  17
ENDBRANCH  10  11
ENDBRANCH   7   9
ENDBRANCH   6   7
ENDBRANCH   5   6
ENDBRANCH   4   5
ENDBRANCH   3   4
ENDBRANCH   2   3
TORSDOF 8
ENDMDL
MODEL       66
REMARK 921   NORMALIZED FREE ENERGY PREDICTED BY IDOCK:   -4.15 KCAL/MOL
REMARK 922        TOTAL FREE ENERGY PREDICTED BY IDOCK:   -6.75 KCAL/MOL
REMARK 923 INTER-LIGAND FREE ENERGY PREDICTED BY IDOCK:   -6.39 KCAL/MOL
REMARK 924 INTRA-LIGAND FREE ENERGY PREDICTED BY IDOCK:   -0.36 KCAL/MOL
REMARK 927      BINDING AFFINITY PREDICTED BY RF-SCORE:    0.00 PKD
ROOT
HETATM    1  C   UNL     1      -6.454  19.577  65.125  1.00  0.00    -0.313 C  
HETATM    2  C   UNL     1      -6.677  18.092  65.346  1.00  0.00     0.039 C  
ENDROOT
BRANCH   2   3
HETATM    3  O   UNL     1      -7.921  17.929  66.017  1.00  0.00    -0.477 OA 
BRANCH   3   4
HETATM    4  C   UNL     1      -8.206  16.564  66.331  1.00  0.00    -0.329 C  
BRANCH   4   5
HETATM    5  C   UNL     1      -9.717  16.403  66.292  1.00  0.00    -0.308 C  
BRANCH   5   6
HETATM    6  O   UNL     1     -10.296  16.745  65.030  1.00  0.00    -0.631 OA 
BRANCH   6   7
HETATM    7  C   UNL     1     -11.377  16.000  64.688  1.00  0.00    -0.306 C  
HETATM    8  O   UNL     1     -12.154  16.218  63.775  1.00  0.00    -0.959 OA 
BRANCH   7   9
HETATM    9  C   UNL     1     -11.313  14.768  65.502  1.00  0.00    -0.343 C  
HETATM   10  C   UNL     1     -11.318  13.556  64.922  1.00  0.00    -0.347 C  
BRANCH  10  11
HETATM   11  C   UNL     1     -11.018  12.309  65.644  1.00  0.00    -0.338 A  
HETATM   12  C   UNL     1     -10.305  11.247  65.077  1.00  0.00    -0.359 A  
HETATM   13  C   UNL     1     -10.108  10.058  65.787  1.00  0.00    -0.320 A  
HETATM   14  C   UNL     1     -10.586   9.918  67.090  1.00  0.00    -0.228 A  
HETATM   15  C   UNL     1     -11.277  10.975  67.677  1.00  0.00    -0.373 A  
HETATM   16  C   UNL     1     -11.487  12.162  66.959  1.00  0.00    -0.415 A  
BRANCH  14  17
HETATM   17  O   UNL     1     -10.375   8.692  67.657  1.00  0.00    -0.226 OA 
HETATM   18  C   UNL     1      -9.592   8.677  68.844  1.00  0.00    -0.159 C  
ENDBRANCH  14  17
ENDBRANCH  10  11
ENDBRANCH   7   9
ENDBRANCH   6   7
ENDBRANCH   5   6
ENDBRANCH   4   5
ENDBRANCH   3   4
ENDBRANCH   2   3
TORSDOF 8
ENDMDL
MODEL       67
REMARK 921   NORMALIZED FREE ENERGY PREDICTED BY IDOCK:   -4.14 KCAL/MOL
REMARK 922        TOTAL FREE ENERGY PREDICTED BY IDOCK:   -6.73 KCAL/MOL
REMARK 923 INTER-LIGAND FREE ENERGY PREDICTED BY IDOCK:   -5.96 KCAL/MOL
REMARK 924 INTRA-LIGAND FREE ENERGY PREDICTED BY IDOCK:   -0.77 KCAL/MOL
REMARK 927      BINDING AFFINITY PREDICTED BY RF-SCORE:    0.00 PKD
ROOT
HETATM    1  C   UNL     1     -13.046  11.084  71.586  1.00  0.00    -0.543 C  
HETATM    2  C   UNL     1     -13.424   9.662  71.957  1.00  0.00    -0.428 C  
ENDROOT
BRANCH   2   3
HETATM    3  O   UNL     1     -12.485   8.784  71.349  1.00  0.00    -0.306 OA 
BRANCH   3   4
HETATM    4  C   UNL     1     -11.913   7.856  72.274  1.00  0.00    -0.337 C  
BRANCH   4   5
HETATM    5  C   UNL     1     -10.404   7.940  72.115  1.00  0.00    -0.237 C  
BRANCH   5   6
HETATM    6  O   UNL     1      -9.956   9.178  71.556  1.00  0.00    -0.312 OA 
BRANCH   6   7
HETATM    7  C   UNL     1      -9.037   9.048  70.566  1.00  0.00    -0.221 C  
HETATM    8  O   UNL     1      -8.215   8.157  70.446  1.00  0.00    -0.109 OA 
BRANCH   7   9
HETATM    9  C   UNL     1      -9.359  10.079  69.557  1.00  0.00    -0.247 C  
HETATM   10  C   UNL     1     -10.559  10.104  68.952  1.00  0.00    -0.237 C  
BRANCH  10  11
HETATM   11  C   UNL     1     -11.028  11.228  68.127  1.00  0.00    -0.284 A  
HETATM   12  C   UNL     1     -11.528  12.419  68.666  1.00  0.00    -0.348 A  
HETATM   13  C   UNL     1     -12.025  13.427  67.833  1.00  0.00    -0.360 A  
HETATM   14  C   UNL     1     -12.000  13.284  66.446  1.00  0.00    -0.410 A  
HETATM   15  C   UNL     1     -11.484  12.114  65.894  1.00  0.00    -0.418 A  
HETATM   16  C   UNL     1     -10.999  11.097  66.729  1.00  0.00    -0.309 A  
BRANCH  14  17
HETATM   17  O   UNL     1     -12.560  14.316  65.746  1.00  0.00    -0.454 OA 
HETATM   18  C   UNL     1     -11.769  14.866  64.699  1.00  0.00    -0.404 C  
ENDBRANCH  14  17
ENDBRANCH  10  11
ENDBRANCH   7   9
ENDBRANCH   6   7
ENDBRANCH   5   6
ENDBRANCH   4   5
ENDBRANCH   3   4
ENDBRANCH   2   3
TORSDOF 8
ENDMDL
MODEL       68
REMARK 921   NORMALIZED FREE ENERGY PREDICTED BY IDOCK:   -4.14 KCAL/MOL
REMARK 922        TOTAL FREE ENERGY PREDICTED BY IDOCK:   -6.73 KCAL/MOL
REMARK 923 INTER-LIGAND FREE ENERGY PREDICTED BY IDOCK:   -5.98 KCAL/MOL
REMARK 924 INTRA-LIGAND FREE ENERGY PREDICTED BY IDOCK:   -0.76 KCAL/MOL
REMARK 927      BINDING AFFINITY PREDICTED BY RF-SCORE:    0.00 PKD
ROOT
HETATM    1  C   UNL     1     -10.270   5.477  68.832  1.00  0.00    -0.284 C  
HETATM    2  C   UNL     1     -10.864   5.808  70.189  1.00  0.00    -0.313 C  
ENDROOT
BRANCH   2   3
HETATM    3  O   UNL     1     -11.983   6.661  69.983  1.00  0.00    -0.340 OA 
BRANCH   3   4
HETATM    4  C   UNL     1     -12.611   7.056  71.206  1.00  0.00    -0.373 C  
BRANCH   4   5
HETATM    5  C   UNL     1     -11.597   7.880  71.983  1.00  0.00    -0.308 C  
BRANCH   5   6
HETATM    6  O   UNL     1     -11.263   9.118  71.350  1.00  0.00    -0.292 OA 
BRANCH   6   7
HETATM    7  C   UNL     1      -9.934   9.308  71.153  1.00  0.00    -0.286 C  
HETATM    8  O   UNL     1      -9.026   8.883  71.846  1.00  0.00    -0.331 OA 
BRANCH   7   9
HETATM    9  C   UNL     1      -9.793   9.953  69.831  1.00  0.00    -0.285 C  
HETATM   10  C   UNL     1     -10.544   9.561  68.788  1.00  0.00    -0.240 C  
BRANCH  10  11
HETATM   11  C   UNL     1     -10.628  10.308  67.522  1.00  0.00    -0.320 A  
HETATM   12  C   UNL     1     -11.340  11.505  67.385  1.00  0.00    -0.367 A  
HETATM   13  C   UNL     1     -11.443  12.137  66.141  1.00  0.00    -0.429 A  
HETATM   14  C   UNL     1     -10.809  11.607  65.017  1.00  0.00    -0.288 A  
HETATM   15  C   UNL     1     -10.077  10.428  65.143  1.00  0.00    -0.379 A  
HETATM   16  C   UNL     1      -9.986   9.787  66.387  1.00  0.00    -0.314 A  
BRANCH  14  17
HETATM   17  O   UNL     1     -11.027  12.288  63.852  1.00  0.00    -0.334 OA 
HETATM   18  C   UNL     1     -12.378  12.633  63.571  1.00  0.00    -0.496 C  
ENDBRANCH  14  17
ENDBRANCH  10  11
ENDBRANCH   7   9
ENDBRANCH   6   7
ENDBRANCH   5   6
ENDBRANCH   4   5
ENDBRANCH   3   4
ENDBRANCH   2   3
TORSDOF 8
ENDMDL
MODEL       69
REMARK 921   NORMALIZED FREE ENERGY PREDICTED BY IDOCK:   -4.13 KCAL/MOL
REMARK 922        TOTAL FREE ENERGY PREDICTED BY IDOCK:   -6.71 KCAL/MOL
REMARK 923 INTER-LIGAND FREE ENERGY PREDICTED BY IDOCK:   -6.22 KCAL/MOL
REMARK 924 INTRA-LIGAND FREE ENERGY PREDICTED BY IDOCK:   -0.50 KCAL/MOL
REMARK 927      BINDING AFFINITY PREDICTED BY RF-SCORE:    0.00 PKD
ROOT
HETATM    1  C   UNL     1     -11.001  11.928  63.402  1.00  0.00    -0.470 C  
HETATM    2  C   UNL     1     -12.470  12.290  63.534  1.00  0.00    -0.534 C  
ENDROOT
BRANCH   2   3
HETATM    3  O   UNL     1     -12.587  13.703  63.419  1.00  0.00    -0.799 OA 
BRANCH   3   4
HETATM    4  C   UNL     1     -12.581  14.364  64.687  1.00  0.00    -0.235 C  
BRANCH   4   5
HETATM    5  C   UNL     1     -11.626  15.542  64.571  1.00  0.00    -0.283 C  
BRANCH   5   6
HETATM    6  O   UNL     1     -10.250  15.177  64.712  1.00  0.00    -0.288 OA 
BRANCH   6   7
HETATM    7  C   UNL     1      -9.679  15.580  65.875  1.00  0.00    -0.357 C  
HETATM    8  O   UNL     1      -9.396  16.722  66.192  1.00  0.00    -0.319 OA 
BRANCH   7   9
HETATM    9  C   UNL     1      -9.653  14.398  66.762  1.00  0.00    -0.279 C  
HETATM   10  C   UNL     1     -10.632  14.185  67.657  1.00  0.00    -0.253 C  
BRANCH  10  11
HETATM   11  C   UNL     1     -10.796  12.922  68.396  1.00  0.00    -0.276 A  
HETATM   12  C   UNL     1     -11.892  12.655  69.224  1.00  0.00    -0.358 A  
HETATM   13  C   UNL     1     -11.961  11.465  69.956  1.00  0.00    -0.442 A  
HETATM   14  C   UNL     1     -10.958  10.502  69.849  1.00  0.00    -0.298 A  
HETATM   15  C   UNL     1      -9.872  10.743  69.011  1.00  0.00    -0.208 A  
HETATM   16  C   UNL     1      -9.795  11.943  68.288  1.00  0.00    -0.199 A  
BRANCH  14  17
HETATM   17  O   UNL     1     -11.116   9.407  70.653  1.00  0.00    -0.248 OA 
HETATM   18  C   UNL     1     -12.008   9.558  71.750  1.00  0.00    -0.371 C  
ENDBRANCH  14  17
ENDBRANCH  10  11
ENDBRANCH   7   9
ENDBRANCH   6   7
ENDBRANCH   5   6
ENDBRANCH   4   5
ENDBRANCH   3   4
ENDBRANCH   2   3
TORSDOF 8
ENDMDL
MODEL       70
REMARK 921   NORMALIZED FREE ENERGY PREDICTED BY IDOCK:   -4.11 KCAL/MOL
REMARK 922        TOTAL FREE ENERGY PREDICTED BY IDOCK:   -6.68 KCAL/MOL
REMARK 923 INTER-LIGAND FREE ENERGY PREDICTED BY IDOCK:   -6.00 KCAL/MOL
REMARK 924 INTRA-LIGAND FREE ENERGY PREDICTED BY IDOCK:   -0.68 KCAL/MOL
REMARK 927      BINDING AFFINITY PREDICTED BY RF-SCORE:    0.00 PKD
ROOT
HETATM    1  C   UNL     1     -10.490   7.296  66.835  1.00  0.00    -0.369 C  
HETATM    2  C   UNL     1     -10.551   5.950  67.533  1.00  0.00    -0.273 C  
ENDROOT
BRANCH   2   3
HETATM    3  O   UNL     1     -11.263   6.118  68.753  1.00  0.00    -0.367 OA 
BRANCH   3   4
HETATM    4  C   UNL     1     -10.634   5.463  69.856  1.00  0.00    -0.281 C  
BRANCH   4   5
HETATM    5  C   UNL     1     -10.501   6.491  70.969  1.00  0.00    -0.222 C  
BRANCH   5   6
HETATM    6  O   UNL     1     -11.305   7.657  70.768  1.00  0.00    -0.276 OA 
BRANCH   6   7
HETATM    7  C   UNL     1     -10.850   8.769  71.397  1.00  0.00    -0.289 C  
HETATM    8  O   UNL     1     -10.090   8.809  72.349  1.00  0.00    -0.283 OA 
BRANCH   7   9
HETATM    9  C   UNL     1     -11.287   9.922  70.582  1.00  0.00    -0.413 C  
HETATM   10  C   UNL     1     -10.575  10.324  69.516  1.00  0.00    -0.270 C  
BRANCH  10  11
HETATM   11  C   UNL     1     -11.069  11.298  68.530  1.00  0.00    -0.288 A  
HETATM   12  C   UNL     1     -11.643  12.524  68.885  1.00  0.00    -0.364 A  
HETATM   13  C   UNL     1     -12.159  13.382  67.908  1.00  0.00    -0.289 A  
HETATM   14  C   UNL     1     -12.080  13.051  66.555  1.00  0.00    -0.341 A  
HETATM   15  C   UNL     1     -11.491  11.845  66.184  1.00  0.00    -0.352 A  
HETATM   16  C   UNL     1     -10.987  10.978  67.165  1.00  0.00    -0.344 A  
BRANCH  14  17
HETATM   17  O   UNL     1     -12.665  13.946  65.703  1.00  0.00    -0.521 OA 
HETATM   18  C   UNL     1     -11.832  14.472  64.677  1.00  0.00    -0.453 C  
ENDBRANCH  14  17
ENDBRANCH  10  11
ENDBRANCH   7   9
ENDBRANCH   6   7
ENDBRANCH   5   6
ENDBRANCH   4   5
ENDBRANCH   3   4
ENDBRANCH   2   3
TORSDOF 8
ENDMDL
MODEL       71
REMARK 921   NORMALIZED FREE ENERGY PREDICTED BY IDOCK:   -4.10 KCAL/MOL
REMARK 922        TOTAL FREE ENERGY PREDICTED BY IDOCK:   -6.67 KCAL/MOL
REMARK 923 INTER-LIGAND FREE ENERGY PREDICTED BY IDOCK:   -6.29 KCAL/MOL
REMARK 924 INTRA-LIGAND FREE ENERGY PREDICTED BY IDOCK:   -0.39 KCAL/MOL
REMARK 927      BINDING AFFINITY PREDICTED BY RF-SCORE:    0.00 PKD
ROOT
HETATM    1  C   UNL     1      -6.401  18.484  68.856  1.00  0.00    -0.244 C  
HETATM    2  C   UNL     1      -7.707  18.506  68.083  1.00  0.00    -0.284 C  
ENDROOT
BRANCH   2   3
HETATM    3  O   UNL     1      -8.462  19.628  68.525  1.00  0.00    -0.343 OA 
BRANCH   3   4
HETATM    4  C   UNL     1      -9.868  19.372  68.554  1.00  0.00    -0.427 C  
BRANCH   4   5
HETATM    5  C   UNL     1     -10.193  18.529  67.331  1.00  0.00    -0.373 C  
BRANCH   5   6
HETATM    6  O   UNL     1     -10.771  17.260  67.649  1.00  0.00    -0.359 OA 
BRANCH   6   7
HETATM    7  C   UNL     1     -10.582  16.305  66.705  1.00  0.00    -0.252 C  
HETATM    8  O   UNL     1     -10.308  16.483  65.531  1.00  0.00    -0.509 OA 
BRANCH   7   9
HETATM    9  C   UNL     1     -10.573  15.008  67.415  1.00  0.00    -0.271 C  
HETATM   10  C   UNL     1     -11.524  14.707  68.315  1.00  0.00    -0.337 C  
BRANCH  10  11
HETATM   11  C   UNL     1     -11.713  13.360  68.876  1.00  0.00    -0.369 A  
HETATM   12  C   UNL     1     -12.103  13.128  70.200  1.00  0.00    -0.392 A  
HETATM   13  C   UNL     1     -12.200  11.825  70.699  1.00  0.00    -0.443 A  
HETATM   14  C   UNL     1     -11.946  10.726  69.878  1.00  0.00    -0.342 A  
HETATM   15  C   UNL     1     -11.579  10.939  68.552  1.00  0.00    -0.360 A  
HETATM   16  C   UNL     1     -11.467  12.247  68.055  1.00  0.00    -0.378 A  
BRANCH  14  17
HETATM   17  O   UNL     1     -12.025   9.509  70.496  1.00  0.00    -0.234 OA 
HETATM   18  C   UNL     1     -11.159   9.312  71.607  1.00  0.00    -0.368 C  
ENDBRANCH  14  17
ENDBRANCH  10  11
ENDBRANCH   7   9
ENDBRANCH   6   7
ENDBRANCH   5   6
ENDBRANCH   4   5
ENDBRANCH   3   4
ENDBRANCH   2   3
TORSDOF 8
ENDMDL
MODEL       72
REMARK 921   NORMALIZED FREE ENERGY PREDICTED BY IDOCK:   -4.10 KCAL/MOL
REMARK 922        TOTAL FREE ENERGY PREDICTED BY IDOCK:   -6.67 KCAL/MOL
REMARK 923 INTER-LIGAND FREE ENERGY PREDICTED BY IDOCK:   -6.23 KCAL/MOL
REMARK 924 INTRA-LIGAND FREE ENERGY PREDICTED BY IDOCK:   -0.44 KCAL/MOL
REMARK 927      BINDING AFFINITY PREDICTED BY RF-SCORE:    0.00 PKD
ROOT
HETATM    1  C   UNL     1     -12.026  12.892  63.341  1.00  0.00    -0.612 C  
HETATM    2  C   UNL     1     -11.997  14.177  64.148  1.00  0.00    -0.393 C  
ENDROOT
BRANCH   2   3
HETATM    3  O   UNL     1     -13.072  14.136  65.080  1.00  0.00    -0.728 OA 
BRANCH   3   4
HETATM    4  C   UNL     1     -12.630  13.941  66.425  1.00  0.00    -0.268 C  
BRANCH   4   5
HETATM    5  C   UNL     1     -11.118  14.101  66.426  1.00  0.00    -0.320 C  
BRANCH   5   6
HETATM    6  O   UNL     1     -10.463  13.327  67.436  1.00  0.00    -0.241 OA 
BRANCH   6   7
HETATM    7  C   UNL     1     -10.106  12.079  67.043  1.00  0.00    -0.203 C  
HETATM    8  O   UNL     1      -9.841  11.718  65.910  1.00  0.00    -0.226 OA 
BRANCH   7   9
HETATM    9  C   UNL     1      -9.902  11.292  68.278  1.00  0.00    -0.201 C  
HETATM   10  C   UNL     1     -10.915  11.077  69.134  1.00  0.00    -0.289 C  
BRANCH  10  11
HETATM   11  C   UNL     1     -10.846  10.115  70.246  1.00  0.00    -0.370 A  
HETATM   12  C   UNL     1     -11.979   9.617  70.900  1.00  0.00    -0.391 A  
HETATM   13  C   UNL     1     -11.852   8.757  71.996  1.00  0.00    -0.442 A  
HETATM   14  C   UNL     1     -10.594   8.349  72.440  1.00  0.00    -0.335 A  
HETATM   15  C   UNL     1      -9.458   8.818  71.785  1.00  0.00    -0.363 A  
HETATM   16  C   UNL     1      -9.585   9.692  70.695  1.00  0.00    -0.214 A  
BRANCH  14  17
HETATM   17  O   UNL     1     -10.601   7.550  73.549  1.00  0.00    -0.373 OA 
HETATM   18  C   UNL     1     -10.555   6.148  73.314  1.00  0.00    -0.258 C  
ENDBRANCH  14  17
ENDBRANCH  10  11
ENDBRANCH   7   9
ENDBRANCH   6   7
ENDBRANCH   5   6
ENDBRANCH   4   5
ENDBRANCH   3   4
ENDBRANCH   2   3
TORSDOF 8
ENDMDL
MODEL       73
REMARK 921   NORMALIZED FREE ENERGY PREDICTED BY IDOCK:   -4.10 KCAL/MOL
REMARK 922        TOTAL FREE ENERGY PREDICTED BY IDOCK:   -6.66 KCAL/MOL
REMARK 923 INTER-LIGAND FREE ENERGY PREDICTED BY IDOCK:   -6.09 KCAL/MOL
REMARK 924 INTRA-LIGAND FREE ENERGY PREDICTED BY IDOCK:   -0.57 KCAL/MOL
REMARK 927      BINDING AFFINITY PREDICTED BY RF-SCORE:    0.00 PKD
ROOT
HETATM    1  C   UNL     1      -9.168   5.129  72.992  1.00  0.00    -0.129 C  
HETATM    2  C   UNL     1     -10.438   4.992  73.812  1.00  0.00    -0.257 C  
ENDROOT
BRANCH   2   3
HETATM    3  O   UNL     1     -11.534   5.385  72.996  1.00  0.00    -0.308 OA 
BRANCH   3   4
HETATM    4  C   UNL     1     -11.152   5.641  71.642  1.00  0.00    -0.181 C  
BRANCH   4   5
HETATM    5  C   UNL     1     -12.012   6.792  71.145  1.00  0.00    -0.370 C  
BRANCH   5   6
HETATM    6  O   UNL     1     -12.060   7.899  72.048  1.00  0.00    -0.295 OA 
BRANCH   6   7
HETATM    7  C   UNL     1     -10.954   8.685  72.032  1.00  0.00    -0.362 C  
HETATM    8  O   UNL     1      -9.976   8.585  72.751  1.00  0.00    -0.258 OA 
BRANCH   7   9
HETATM    9  C   UNL     1     -11.075   9.555  70.843  1.00  0.00    -0.406 C  
HETATM   10  C   UNL     1     -11.926  10.595  70.831  1.00  0.00    -0.469 C  
BRANCH  10  11
HETATM   11  C   UNL     1     -11.925  11.633  69.788  1.00  0.00    -0.402 A  
HETATM   12  C   UNL     1     -11.695  11.360  68.435  1.00  0.00    -0.373 A  
HETATM   13  C   UNL     1     -11.637  12.395  67.496  1.00  0.00    -0.431 A  
HETATM   14  C   UNL     1     -11.844  13.720  67.881  1.00  0.00    -0.378 A  
HETATM   15  C   UNL     1     -12.098  14.006  69.221  1.00  0.00    -0.380 A  
HETATM   16  C   UNL     1     -12.141  12.968  70.165  1.00  0.00    -0.377 A  
BRANCH  14  17
HETATM   17  O   UNL     1     -11.712  14.643  66.881  1.00  0.00    -0.375 OA 
HETATM   18  C   UNL     1     -11.580  14.125  65.563  1.00  0.00    -0.337 C  
ENDBRANCH  14  17
ENDBRANCH  10  11
ENDBRANCH   7   9
ENDBRANCH   6   7
ENDBRANCH   5   6
ENDBRANCH   4   5
ENDBRANCH   3   4
ENDBRANCH   2   3
TORSDOF 8
ENDMDL
MODEL       74
REMARK 921   NORMALIZED FREE ENERGY PREDICTED BY IDOCK:   -4.09 KCAL/MOL
REMARK 922        TOTAL FREE ENERGY PREDICTED BY IDOCK:   -6.65 KCAL/MOL
REMARK 923 INTER-LIGAND FREE ENERGY PREDICTED BY IDOCK:   -6.17 KCAL/MOL
REMARK 924 INTRA-LIGAND FREE ENERGY PREDICTED BY IDOCK:   -0.48 KCAL/MOL
REMARK 927      BINDING AFFINITY PREDICTED BY RF-SCORE:    0.00 PKD
ROOT
HETATM    1  C   UNL     1     -13.810  13.495  72.412  1.00  0.00    -0.687 C  
HETATM    2  C   UNL     1     -12.860  12.748  71.493  1.00  0.00    -0.270 C  
ENDROOT
BRANCH   2   3
HETATM    3  O   UNL     1     -12.185  13.705  70.685  1.00  0.00    -0.341 OA 
BRANCH   3   4
HETATM    4  C   UNL     1     -11.777  14.860  71.421  1.00  0.00    -0.332 C  
BRANCH   4   5
HETATM    5  C   UNL     1     -11.518  15.965  70.409  1.00  0.00    -0.378 C  
BRANCH   5   6
HETATM    6  O   UNL     1     -12.031  15.676  69.105  1.00  0.00    -0.368 OA 
BRANCH   6   7
HETATM    7  C   UNL     1     -11.190  15.994  68.089  1.00  0.00    -0.325 C  
HETATM    8  O   UNL     1     -10.725  17.092  67.842  1.00  0.00    -0.368 OA 
BRANCH   7   9
HETATM    9  C   UNL     1     -10.788  14.716  67.463  1.00  0.00    -0.286 C  
HETATM   10  C   UNL     1     -11.312  14.327  66.289  1.00  0.00    -0.347 C  
BRANCH  10  11
HETATM   11  C   UNL     1     -10.788  13.201  65.499  1.00  0.00    -0.299 A  
HETATM   12  C   UNL     1     -10.993  13.070  64.121  1.00  0.00    -0.438 A  
HETATM   13  C   UNL     1     -10.530  11.943  63.434  1.00  0.00    -0.487 A  
HETATM   14  C   UNL     1      -9.822  10.942  64.099  1.00  0.00    -0.314 A  
HETATM   15  C   UNL     1      -9.590  11.069  65.467  1.00  0.00    -0.263 A  
HETATM   16  C   UNL     1     -10.067  12.193  66.159  1.00  0.00    -0.251 A  
BRANCH  14  17
HETATM   17  O   UNL     1      -9.469   9.870  63.328  1.00  0.00    -0.268 OA 
HETATM   18  C   UNL     1      -8.074   9.626  63.194  1.00  0.00    -0.146 C  
ENDBRANCH  14  17
ENDBRANCH  10  11
ENDBRANCH   7   9
ENDBRANCH   6   7
ENDBRANCH   5   6
ENDBRANCH   4   5
ENDBRANCH   3   4
ENDBRANCH   2   3
TORSDOF 8
ENDMDL
MODEL       75
REMARK 921   NORMALIZED FREE ENERGY PREDICTED BY IDOCK:   -4.07 KCAL/MOL
REMARK 922        TOTAL FREE ENERGY PREDICTED BY IDOCK:   -6.63 KCAL/MOL
REMARK 923 INTER-LIGAND FREE ENERGY PREDICTED BY IDOCK:   -6.22 KCAL/MOL
REMARK 924 INTRA-LIGAND FREE ENERGY PREDICTED BY IDOCK:   -0.41 KCAL/MOL
REMARK 927      BINDING AFFINITY PREDICTED BY RF-SCORE:    0.00 PKD
ROOT
HETATM    1  C   UNL     1     -11.983  12.309  63.861  1.00  0.00    -0.582 C  
HETATM    2  C   UNL     1     -10.631  11.635  63.711  1.00  0.00    -0.416 C  
ENDROOT
BRANCH   2   3
HETATM    3  O   UNL     1     -10.488  10.695  64.768  1.00  0.00    -0.325 OA 
BRANCH   3   4
HETATM    4  C   UNL     1      -9.979  11.283  65.967  1.00  0.00    -0.231 C  
BRANCH   4   5
HETATM    5  C   UNL     1     -10.736  10.658  67.128  1.00  0.00    -0.272 C  
BRANCH   5   6
HETATM    6  O   UNL     1     -11.887  11.407  67.528  1.00  0.00    -0.614 OA 
BRANCH   6   7
HETATM    7  C   UNL     1     -11.750  12.057  68.712  1.00  0.00    -0.321 C  
HETATM    8  O   UNL     1     -12.062  11.640  69.813  1.00  0.00    -0.304 OA 
BRANCH   7   9
HETATM    9  C   UNL     1     -10.965  13.278  68.433  1.00  0.00    -0.289 C  
HETATM   10  C   UNL     1     -11.454  14.246  67.639  1.00  0.00    -0.370 C  
BRANCH  10  11
HETATM   11  C   UNL     1     -10.840  15.578  67.512  1.00  0.00    -0.306 A  
HETATM   12  C   UNL     1     -10.883  16.542  68.525  1.00  0.00    -0.349 A  
HETATM   13  C   UNL     1     -10.341  17.816  68.324  1.00  0.00    -0.387 A  
HETATM   14  C   UNL     1      -9.715  18.142  67.121  1.00  0.00    -0.301 A  
HETATM   15  C   UNL     1      -9.644  17.186  66.111  1.00  0.00    -0.242 A  
HETATM   16  C   UNL     1     -10.200  15.913  66.308  1.00  0.00    -0.324 A  
BRANCH  14  17
HETATM   17  O   UNL     1      -9.273  19.433  67.028  1.00  0.00    -0.300 OA 
HETATM   18  C   UNL     1      -9.918  20.379  67.871  1.00  0.00    -0.288 C  
ENDBRANCH  14  17
ENDBRANCH  10  11
ENDBRANCH   7   9
ENDBRANCH   6   7
ENDBRANCH   5   6
ENDBRANCH   4   5
ENDBRANCH   3   4
ENDBRANCH   2   3
TORSDOF 8
ENDMDL
MODEL       76
REMARK 921   NORMALIZED FREE ENERGY PREDICTED BY IDOCK:   -4.07 KCAL/MOL
REMARK 922        TOTAL FREE ENERGY PREDICTED BY IDOCK:   -6.62 KCAL/MOL
REMARK 923 INTER-LIGAND FREE ENERGY PREDICTED BY IDOCK:   -6.12 KCAL/MOL
REMARK 924 INTRA-LIGAND FREE ENERGY PREDICTED BY IDOCK:   -0.50 KCAL/MOL
REMARK 927      BINDING AFFINITY PREDICTED BY RF-SCORE:    0.00 PKD
ROOT
HETATM    1  C   UNL     1      -7.603   7.694  68.672  1.00  0.00    -0.109 C  
HETATM    2  C   UNL     1      -9.011   7.541  69.219  1.00  0.00    -0.136 C  
ENDROOT
BRANCH   2   3
HETATM    3  O   UNL     1      -9.893   7.354  68.119  1.00  0.00    -0.148 OA 
BRANCH   3   4
HETATM    4  C   UNL     1     -11.115   6.712  68.492  1.00  0.00    -0.206 C  
BRANCH   4   5
HETATM    5  C   UNL     1     -10.958   6.260  69.935  1.00  0.00    -0.370 C  
BRANCH   5   6
HETATM    6  O   UNL     1     -11.988   6.746  70.801  1.00  0.00    -0.374 OA 
BRANCH   6   7
HETATM    7  C   UNL     1     -11.537   7.443  71.874  1.00  0.00    -0.272 C  
HETATM    8  O   UNL     1     -11.097   6.981  72.912  1.00  0.00    -0.282 OA 
BRANCH   7   9
HETATM    9  C   UNL     1     -11.491   8.863  71.464  1.00  0.00    -0.391 C  
HETATM   10  C   UNL     1     -12.607   9.610  71.436  1.00  0.00    -0.463 C  
BRANCH  10  11
HETATM   11  C   UNL     1     -12.600  11.072  71.273  1.00  0.00    -0.517 A  
HETATM   12  C   UNL     1     -13.304  11.941  72.114  1.00  0.00    -0.361 A  
HETATM   13  C   UNL     1     -13.318  13.319  71.871  1.00  0.00    -0.540 A  
HETATM   14  C   UNL     1     -12.600  13.861  70.805  1.00  0.00    -0.354 A  
HETATM   15  C   UNL     1     -11.875  13.012  69.972  1.00  0.00    -0.355 A  
HETATM   16  C   UNL     1     -11.874  11.629  70.208  1.00  0.00    -0.414 A  
BRANCH  14  17
HETATM   17  O   UNL     1     -12.734  15.212  70.642  1.00  0.00    -0.361 OA 
HETATM   18  C   UNL     1     -11.884  16.027  71.439  1.00  0.00    -0.470 C  
ENDBRANCH  14  17
ENDBRANCH  10  11
ENDBRANCH   7   9
ENDBRANCH   6   7
ENDBRANCH   5   6
ENDBRANCH   4   5
ENDBRANCH   3   4
ENDBRANCH   2   3
TORSDOF 8
ENDMDL
MODEL       77
REMARK 921   NORMALIZED FREE ENERGY PREDICTED BY IDOCK:   -4.05 KCAL/MOL
REMARK 922        TOTAL FREE ENERGY PREDICTED BY IDOCK:   -6.60 KCAL/MOL
REMARK 923 INTER-LIGAND FREE ENERGY PREDICTED BY IDOCK:   -6.14 KCAL/MOL
REMARK 924 INTRA-LIGAND FREE ENERGY PREDICTED BY IDOCK:   -0.46 KCAL/MOL
REMARK 927      BINDING AFFINITY PREDICTED BY RF-SCORE:    0.00 PKD
ROOT
HETATM    1  C   UNL     1     -14.335  15.319  71.769  1.00  0.00    -0.678 C  
HETATM    2  C   UNL     1     -13.252  15.020  70.748  1.00  0.00    -0.348 C  
ENDROOT
BRANCH   2   3
HETATM    3  O   UNL     1     -12.630  13.793  71.113  1.00  0.00    -0.342 OA 
BRANCH   3   4
HETATM    4  C   UNL     1     -11.990  13.147  70.010  1.00  0.00    -0.321 C  
BRANCH   4   5
HETATM    5  C   UNL     1     -11.997  14.132  68.852  1.00  0.00    -0.341 C  
BRANCH   5   6
HETATM    6  O   UNL     1     -12.036  13.502  67.568  1.00  0.00    -0.361 OA 
BRANCH   6   7
HETATM    7  C   UNL     1     -11.740  14.325  66.530  1.00  0.00    -0.394 C  
HETATM    8  O   UNL     1     -12.353  14.427  65.482  1.00  0.00    -0.392 OA 
BRANCH   7   9
HETATM    9  C   UNL     1     -10.657  15.216  66.996  1.00  0.00    -0.300 C  
HETATM   10  C   UNL     1     -10.178  16.192  66.207  1.00  0.00    -0.333 C  
BRANCH  10  11
HETATM   11  C   UNL     1      -9.280  17.256  66.685  1.00  0.00    -0.275 A  
HETATM   12  C   UNL     1      -9.727  18.372  67.401  1.00  0.00    -0.307 A  
HETATM   13  C   UNL     1      -8.838  19.386  67.772  1.00  0.00    -0.359 A  
HETATM   14  C   UNL     1      -7.480  19.291  67.468  1.00  0.00    -0.235 A  
HETATM   15  C   UNL     1      -7.016  18.175  66.775  1.00  0.00    -0.226 A  
HETATM   16  C   UNL     1      -7.910  17.164  66.391  1.00  0.00    -0.352 A  
BRANCH  14  17
HETATM   17  O   UNL     1      -6.725  20.369  67.838  1.00  0.00    -0.270 OA 
HETATM   18  C   UNL     1      -6.126  21.108  66.780  1.00  0.00    -0.305 C  
ENDBRANCH  14  17
ENDBRANCH  10  11
ENDBRANCH   7   9
ENDBRANCH   6   7
ENDBRANCH   5   6
ENDBRANCH   4   5
ENDBRANCH   3   4
ENDBRANCH   2   3
TORSDOF 8
ENDMDL
MODEL       78
REMARK 921   NORMALIZED FREE ENERGY PREDICTED BY IDOCK:   -4.05 KCAL/MOL
REMARK 922        TOTAL FREE ENERGY PREDICTED BY IDOCK:   -6.60 KCAL/MOL
REMARK 923 INTER-LIGAND FREE ENERGY PREDICTED BY IDOCK:   -6.21 KCAL/MOL
REMARK 924 INTRA-LIGAND FREE ENERGY PREDICTED BY IDOCK:   -0.38 KCAL/MOL
REMARK 927      BINDING AFFINITY PREDICTED BY RF-SCORE:    0.00 PKD
ROOT
HETATM    1  C   UNL     1      -7.262   8.861  63.450  1.00  0.00    -0.093 C  
HETATM    2  C   UNL     1      -7.942   7.948  64.454  1.00  0.00    -0.132 C  
ENDROOT
BRANCH   2   3
HETATM    3  O   UNL     1      -8.751   8.753  65.303  1.00  0.00    -0.182 OA 
BRANCH   3   4
HETATM    4  C   UNL     1      -8.756  10.131  64.920  1.00  0.00    -0.181 C  
BRANCH   4   5
HETATM    5  C   UNL     1     -10.103  10.703  65.330  1.00  0.00    -0.297 C  
BRANCH   5   6
HETATM    6  O   UNL     1     -10.109  11.262  66.646  1.00  0.00    -0.203 OA 
BRANCH   6   7
HETATM    7  C   UNL     1     -10.854  10.572  67.546  1.00  0.00    -0.301 C  
HETATM    8  O   UNL     1     -10.775   9.382  67.799  1.00  0.00    -0.265 OA 
BRANCH   7   9
HETATM    9  C   UNL     1     -11.634  11.574  68.302  1.00  0.00    -0.378 C  
HETATM   10  C   UNL     1     -11.659  11.559  69.645  1.00  0.00    -0.403 C  
BRANCH  10  11
HETATM   11  C   UNL     1     -12.211  12.655  70.458  1.00  0.00    -0.383 A  
HETATM   12  C   UNL     1     -11.942  14.006  70.209  1.00  0.00    -0.409 A  
HETATM   13  C   UNL     1     -12.438  15.002  71.056  1.00  0.00    -0.402 A  
HETATM   14  C   UNL     1     -13.242  14.675  72.148  1.00  0.00    -0.363 A  
HETATM   15  C   UNL     1     -13.538  13.337  72.396  1.00  0.00    -0.694 A  
HETATM   16  C   UNL     1     -13.028  12.336  71.555  1.00  0.00    -0.390 A  
BRANCH  14  17
HETATM   17  O   UNL     1     -13.621  15.732  72.928  1.00  0.00    -0.546 OA 
HETATM   18  C   UNL     1     -12.657  16.196  73.865  1.00  0.00    -0.590 C  
ENDBRANCH  14  17
ENDBRANCH  10  11
ENDBRANCH   7   9
ENDBRANCH   6   7
ENDBRANCH   5   6
ENDBRANCH   4   5
ENDBRANCH   3   4
ENDBRANCH   2   3
TORSDOF 8
ENDMDL
MODEL       79
REMARK 921   NORMALIZED FREE ENERGY PREDICTED BY IDOCK:   -4.04 KCAL/MOL
REMARK 922        TOTAL FREE ENERGY PREDICTED BY IDOCK:   -6.58 KCAL/MOL
REMARK 923 INTER-LIGAND FREE ENERGY PREDICTED BY IDOCK:   -6.09 KCAL/MOL
REMARK 924 INTRA-LIGAND FREE ENERGY PREDICTED BY IDOCK:   -0.49 KCAL/MOL
REMARK 927      BINDING AFFINITY PREDICTED BY RF-SCORE:    0.00 PKD
ROOT
HETATM    1  C   UNL     1     -10.590  19.515  67.729  1.00  0.00    -0.542 C  
HETATM    2  C   UNL     1     -10.543  18.005  67.574  1.00  0.00    -0.388 C  
ENDROOT
BRANCH   2   3
HETATM    3  O   UNL     1      -9.900  17.465  68.721  1.00  0.00    -0.292 OA 
BRANCH   3   4
HETATM    4  C   UNL     1     -10.228  16.091  68.945  1.00  0.00    -0.231 C  
BRANCH   4   5
HETATM    5  C   UNL     1     -11.672  15.901  68.507  1.00  0.00    -0.292 C  
BRANCH   5   6
HETATM    6  O   UNL     1     -12.132  14.553  68.629  1.00  0.00    -0.296 OA 
BRANCH   6   7
HETATM    7  C   UNL     1     -11.994  13.809  67.502  1.00  0.00    -0.376 C  
HETATM    8  O   UNL     1     -12.052  14.207  66.353  1.00  0.00    -0.422 OA 
BRANCH   7   9
HETATM    9  C   UNL     1     -11.557  12.465  67.938  1.00  0.00    -0.415 C  
HETATM   10  C   UNL     1     -11.495  12.149  69.243  1.00  0.00    -0.363 C  
BRANCH  10  11
HETATM   11  C   UNL     1     -11.303  10.775  69.736  1.00  0.00    -0.372 A  
HETATM   12  C   UNL     1     -10.467   9.845  69.109  1.00  0.00    -0.235 A  
HETATM   13  C   UNL     1     -10.376   8.532  69.582  1.00  0.00    -0.218 A  
HETATM   14  C   UNL     1     -11.088   8.130  70.712  1.00  0.00    -0.259 A  
HETATM   15  C   UNL     1     -11.907   9.051  71.362  1.00  0.00    -0.395 A  
HETATM   16  C   UNL     1     -12.010  10.364  70.878  1.00  0.00    -0.478 A  
BRANCH  14  17
HETATM   17  O   UNL     1     -10.955   6.811  71.044  1.00  0.00    -0.238 OA 
HETATM   18  C   UNL     1     -11.239   6.472  72.396  1.00  0.00    -0.275 C  
ENDBRANCH  14  17
ENDBRANCH  10  11
ENDBRANCH   7   9
ENDBRANCH   6   7
ENDBRANCH   5   6
ENDBRANCH   4   5
ENDBRANCH   3   4
ENDBRANCH   2   3
TORSDOF 8
ENDMDL
MODEL       80
REMARK 921   NORMALIZED FREE ENERGY PREDICTED BY IDOCK:   -4.03 KCAL/MOL
REMARK 922        TOTAL FREE ENERGY PREDICTED BY IDOCK:   -6.57 KCAL/MOL
REMARK 923 INTER-LIGAND FREE ENERGY PREDICTED BY IDOCK:   -5.98 KCAL/MOL
REMARK 924 INTRA-LIGAND FREE ENERGY PREDICTED BY IDOCK:   -0.59 KCAL/MOL
REMARK 927      BINDING AFFINITY PREDICTED BY RF-SCORE:    0.00 PKD
ROOT
HETATM    1  C   UNL     1     -10.810  11.921  63.332  1.00  0.00    -0.469 C  
HETATM    2  C   UNL     1     -12.309  11.985  63.559  1.00  0.00    -0.551 C  
ENDROOT
BRANCH   2   3
HETATM    3  O   UNL     1     -12.630  13.295  64.013  1.00  0.00    -0.645 OA 
BRANCH   3   4
HETATM    4  C   UNL     1     -11.538  13.932  64.679  1.00  0.00    -0.385 C  
BRANCH   4   5
HETATM    5  C   UNL     1     -11.764  13.760  66.173  1.00  0.00    -0.370 C  
BRANCH   5   6
HETATM    6  O   UNL     1     -10.796  12.917  66.803  1.00  0.00    -0.262 OA 
BRANCH   6   7
HETATM    7  C   UNL     1     -11.322  11.853  67.461  1.00  0.00    -0.314 C  
HETATM    8  O   UNL     1     -12.260  11.867  68.239  1.00  0.00    -0.447 OA 
BRANCH   7   9
HETATM    9  C   UNL     1     -10.672  10.650  66.900  1.00  0.00    -0.297 C  
HETATM   10  C   UNL     1     -10.590   9.514  67.613  1.00  0.00    -0.329 C  
BRANCH  10  11
HETATM   11  C   UNL     1     -10.179   8.223  67.037  1.00  0.00    -0.380 A  
HETATM   12  C   UNL     1     -10.893   7.035  67.231  1.00  0.00    -0.403 A  
HETATM   13  C   UNL     1     -10.418   5.824  66.717  1.00  0.00    -0.350 A  
HETATM   14  C   UNL     1      -9.241   5.778  65.970  1.00  0.00    -0.141 A  
HETATM   15  C   UNL     1      -8.531   6.956  65.749  1.00  0.00    -0.150 A  
HETATM   16  C   UNL     1      -9.000   8.169  66.277  1.00  0.00    -0.215 A  
BRANCH  14  17
HETATM   17  O   UNL     1      -8.856   4.530  65.568  1.00  0.00    -0.122 OA 
HETATM   18  C   UNL     1      -9.878   3.703  65.025  1.00  0.00    -0.146 C  
ENDBRANCH  14  17
ENDBRANCH  10  11
ENDBRANCH   7   9
ENDBRANCH   6   7
ENDBRANCH   5   6
ENDBRANCH   4   5
ENDBRANCH   3   4
ENDBRANCH   2   3
TORSDOF 8
ENDMDL
MODEL       81
REMARK 921   NORMALIZED FREE ENERGY PREDICTED BY IDOCK:   -4.01 KCAL/MOL
REMARK 922        TOTAL FREE ENERGY PREDICTED BY IDOCK:   -6.53 KCAL/MOL
REMARK 923 INTER-LIGAND FREE ENERGY PREDICTED BY IDOCK:   -5.83 KCAL/MOL
REMARK 924 INTRA-LIGAND FREE ENERGY PREDICTED BY IDOCK:   -0.70 KCAL/MOL
REMARK 927      BINDING AFFINITY PREDICTED BY RF-SCORE:    0.00 PKD
ROOT
HETATM    1  C   UNL     1     -11.902  10.016  71.128  1.00  0.00    -0.481 C  
HETATM    2  C   UNL     1     -11.825   8.878  72.131  1.00  0.00    -0.347 C  
ENDROOT
BRANCH   2   3
HETATM    3  O   UNL     1     -10.994   7.863  71.581  1.00  0.00    -0.230 OA 
BRANCH   3   4
HETATM    4  C   UNL     1     -11.740   6.779  71.022  1.00  0.00    -0.355 C  
BRANCH   4   5
HETATM    5  C   UNL     1     -10.774   5.959  70.182  1.00  0.00    -0.318 C  
BRANCH   5   6
HETATM    6  O   UNL     1     -10.100   6.723  69.179  1.00  0.00    -0.162 OA 
BRANCH   6   7
HETATM    7  C   UNL     1     -10.338   6.314  67.907  1.00  0.00    -0.193 C  
HETATM    8  O   UNL     1     -10.440   5.164  67.517  1.00  0.00    -0.163 OA 
BRANCH   7   9
HETATM    9  C   UNL     1     -10.652   7.530  67.127  1.00  0.00    -0.415 C  
HETATM   10  C   UNL     1     -10.421   8.753  67.632  1.00  0.00    -0.310 C  
BRANCH  10  11
HETATM   11  C   UNL     1     -10.483   9.986  66.832  1.00  0.00    -0.284 A  
HETATM   12  C   UNL     1     -11.077  11.168  67.289  1.00  0.00    -0.366 A  
HETATM   13  C   UNL     1     -11.168  12.290  66.459  1.00  0.00    -0.373 A  
HETATM   14  C   UNL     1     -10.637  12.269  65.170  1.00  0.00    -0.285 A  
HETATM   15  C   UNL     1     -10.022  11.107  64.708  1.00  0.00    -0.339 A  
HETATM   16  C   UNL     1      -9.943   9.977  65.535  1.00  0.00    -0.367 A  
BRANCH  14  17
HETATM   17  O   UNL     1     -10.835  13.408  64.441  1.00  0.00    -0.384 OA 
HETATM   18  C   UNL     1     -12.109  14.025  64.575  1.00  0.00    -0.459 C  
ENDBRANCH  14  17
ENDBRANCH  10  11
ENDBRANCH   7   9
ENDBRANCH   6   7
ENDBRANCH   5   6
ENDBRANCH   4   5
ENDBRANCH   3   4
ENDBRANCH   2   3
TORSDOF 8
ENDMDL
MODEL       82
REMARK 921   NORMALIZED FREE ENERGY PREDICTED BY IDOCK:   -3.99 KCAL/MOL
REMARK 922        TOTAL FREE ENERGY PREDICTED BY IDOCK:   -6.51 KCAL/MOL
REMARK 923 INTER-LIGAND FREE ENERGY PREDICTED BY IDOCK:   -6.10 KCAL/MOL
REMARK 924 INTRA-LIGAND FREE ENERGY PREDICTED BY IDOCK:   -0.41 KCAL/MOL
REMARK 927      BINDING AFFINITY PREDICTED BY RF-SCORE:    0.00 PKD
ROOT
HETATM    1  C   UNL     1      -6.119  10.580  65.681  1.00  0.00    -0.131 C  
HETATM    2  C   UNL     1      -7.461   9.881  65.565  1.00  0.00    -0.126 C  
ENDROOT
BRANCH   2   3
HETATM    3  O   UNL     1      -8.482  10.866  65.680  1.00  0.00    -0.175 OA 
BRANCH   3   4
HETATM    4  C   UNL     1      -9.759  10.393  65.246  1.00  0.00    -0.278 C  
BRANCH   4   5
HETATM    5  C   UNL     1     -10.455  11.556  64.557  1.00  0.00    -0.314 C  
BRANCH   5   6
HETATM    6  O   UNL     1     -10.186  12.823  65.165  1.00  0.00    -0.291 OA 
BRANCH   6   7
HETATM    7  C   UNL     1     -11.292  13.512  65.541  1.00  0.00    -0.296 C  
HETATM    8  O   UNL     1     -12.148  13.975  64.807  1.00  0.00    -0.393 OA 
BRANCH   7   9
HETATM    9  C   UNL     1     -11.367  13.416  67.014  1.00  0.00    -0.346 C  
HETATM   10  C   UNL     1     -11.643  14.497  67.763  1.00  0.00    -0.390 C  
BRANCH  10  11
HETATM   11  C   UNL     1     -11.966  14.429  69.197  1.00  0.00    -0.357 A  
HETATM   12  C   UNL     1     -12.102  13.224  69.896  1.00  0.00    -0.377 A  
HETATM   13  C   UNL     1     -12.479  13.218  71.243  1.00  0.00    -0.351 A  
HETATM   14  C   UNL     1     -12.691  14.413  71.930  1.00  0.00    -0.349 A  
HETATM   15  C   UNL     1     -12.537  15.621  71.255  1.00  0.00    -0.523 A  
HETATM   16  C   UNL     1     -12.174  15.627  69.899  1.00  0.00    -0.317 A  
BRANCH  14  17
HETATM   17  O   UNL     1     -13.104  14.272  73.226  1.00  0.00    -0.583 OA 
HETATM   18  C   UNL     1     -12.588  15.218  74.155  1.00  0.00    -0.504 C  
ENDBRANCH  14  17
ENDBRANCH  10  11
ENDBRANCH   7   9
ENDBRANCH   6   7
ENDBRANCH   5   6
ENDBRANCH   4   5
ENDBRANCH   3   4
ENDBRANCH   2   3
TORSDOF 8
ENDMDL
MODEL       83
REMARK 921   NORMALIZED FREE ENERGY PREDICTED BY IDOCK:   -3.97 KCAL/MOL
REMARK 922        TOTAL FREE ENERGY PREDICTED BY IDOCK:   -6.49 KCAL/MOL
REMARK 923 INTER-LIGAND FREE ENERGY PREDICTED BY IDOCK:   -6.13 KCAL/MOL
REMARK 924 INTRA-LIGAND FREE ENERGY PREDICTED BY IDOCK:   -0.36 KCAL/MOL
REMARK 927      BINDING AFFINITY PREDICTED BY RF-SCORE:    0.00 PKD
ROOT
HETATM    1  C   UNL     1      -6.725  18.260  68.309  1.00  0.00    -0.218 C  
HETATM    2  C   UNL     1      -7.866  18.295  67.308  1.00  0.00    -0.226 C  
ENDROOT
BRANCH   2   3
HETATM    3  O   UNL     1      -8.690  19.412  67.620  1.00  0.00    -0.296 OA 
BRANCH   3   4
HETATM    4  C   UNL     1     -10.085  19.117  67.511  1.00  0.00    -0.376 C  
BRANCH   4   5
HETATM    5  C   UNL     1     -10.288  18.408  66.181  1.00  0.00    -0.407 C  
BRANCH   5   6
HETATM    6  O   UNL     1     -10.780  17.072  66.317  1.00  0.00    -0.223 OA 
BRANCH   6   7
HETATM    7  C   UNL     1     -11.023  16.441  65.141  1.00  0.00    -0.232 C  
HETATM    8  O   UNL     1     -11.383  16.956  64.097  1.00  0.00    -1.208 OA 
BRANCH   7   9
HETATM    9  C   UNL     1     -10.572  15.044  65.313  1.00  0.00    -0.418 C  
HETATM   10  C   UNL     1     -11.037  14.287  66.321  1.00  0.00    -0.323 C  
BRANCH  10  11
HETATM   11  C   UNL     1     -10.820  12.835  66.413  1.00  0.00    -0.294 A  
HETATM   12  C   UNL     1     -11.421  12.029  67.387  1.00  0.00    -0.406 A  
HETATM   13  C   UNL     1     -11.125  10.665  67.469  1.00  0.00    -0.367 A  
HETATM   14  C   UNL     1     -10.252  10.068  66.560  1.00  0.00    -0.224 A  
HETATM   15  C   UNL     1      -9.664  10.852  65.569  1.00  0.00    -0.282 A  
HETATM   16  C   UNL     1      -9.949  12.224  65.496  1.00  0.00    -0.264 A  
BRANCH  14  17
HETATM   17  O   UNL     1     -10.005   8.741  66.776  1.00  0.00    -0.218 OA 
HETATM   18  C   UNL     1     -10.653   8.158  67.900  1.00  0.00    -0.147 C  
ENDBRANCH  14  17
ENDBRANCH  10  11
ENDBRANCH   7   9
ENDBRANCH   6   7
ENDBRANCH   5   6
ENDBRANCH   4   5
ENDBRANCH   3   4
ENDBRANCH   2   3
TORSDOF 8
ENDMDL
MODEL       84
REMARK 921   NORMALIZED FREE ENERGY PREDICTED BY IDOCK:   -3.97 KCAL/MOL
REMARK 922        TOTAL FREE ENERGY PREDICTED BY IDOCK:   -6.47 KCAL/MOL
REMARK 923 INTER-LIGAND FREE ENERGY PREDICTED BY IDOCK:   -6.01 KCAL/MOL
REMARK 924 INTRA-LIGAND FREE ENERGY PREDICTED BY IDOCK:   -0.46 KCAL/MOL
REMARK 927      BINDING AFFINITY PREDICTED BY RF-SCORE:    0.00 PKD
ROOT
HETATM    1  C   UNL     1     -12.598  10.869  71.025  1.00  0.00    -0.517 C  
HETATM    2  C   UNL     1     -12.663   9.575  71.815  1.00  0.00    -0.404 C  
ENDROOT
BRANCH   2   3
HETATM    3  O   UNL     1     -11.987   8.569  71.070  1.00  0.00    -0.284 OA 
BRANCH   3   4
HETATM    4  C   UNL     1     -10.615   8.889  70.827  1.00  0.00    -0.226 C  
BRANCH   4   5
HETATM    5  C   UNL     1     -10.313   8.495  69.390  1.00  0.00    -0.215 C  
BRANCH   5   6
HETATM    6  O   UNL     1     -10.094   9.613  68.525  1.00  0.00    -0.164 OA 
BRANCH   6   7
HETATM    7  C   UNL     1      -9.829   9.282  67.236  1.00  0.00    -0.182 C  
HETATM    8  O   UNL     1      -9.706   8.158  66.781  1.00  0.00    -0.195 OA 
BRANCH   7   9
HETATM    9  C   UNL     1      -9.918  10.534  66.455  1.00  0.00    -0.271 C  
HETATM   10  C   UNL     1     -10.886  11.433  66.700  1.00  0.00    -0.339 C  
BRANCH  10  11
HETATM   11  C   UNL     1     -10.893  12.792  66.134  1.00  0.00    -0.303 A  
HETATM   12  C   UNL     1      -9.829  13.689  66.279  1.00  0.00    -0.310 A  
HETATM   13  C   UNL     1      -9.919  14.992  65.778  1.00  0.00    -0.376 A  
HETATM   14  C   UNL     1     -11.056  15.415  65.091  1.00  0.00    -0.394 A  
HETATM   15  C   UNL     1     -12.115  14.527  64.918  1.00  0.00    -0.421 A  
HETATM   16  C   UNL     1     -12.031  13.224  65.434  1.00  0.00    -0.432 A  
BRANCH  14  17
HETATM   17  O   UNL     1     -11.043  16.724  64.696  1.00  0.00    -0.844 OA 
HETATM   18  C   UNL     1     -10.551  17.660  65.646  1.00  0.00    -0.135 C  
ENDBRANCH  14  17
ENDBRANCH  10  11
ENDBRANCH   7   9
ENDBRANCH   6   7
ENDBRANCH   5   6
ENDBRANCH   4   5
ENDBRANCH   3   4
ENDBRANCH   2   3
TORSDOF 8
ENDMDL
MODEL       85
REMARK 921   NORMALIZED FREE ENERGY PREDICTED BY IDOCK:   -3.96 KCAL/MOL
REMARK 922        TOTAL FREE ENERGY PREDICTED BY IDOCK:   -6.46 KCAL/MOL
REMARK 923 INTER-LIGAND FREE ENERGY PREDICTED BY IDOCK:   -5.73 KCAL/MOL
REMARK 924 INTRA-LIGAND FREE ENERGY PREDICTED BY IDOCK:   -0.74 KCAL/MOL
REMARK 927      BINDING AFFINITY PREDICTED BY RF-SCORE:    0.00 PKD
ROOT
HETATM    1  C   UNL     1     -12.550   9.561  71.465  1.00  0.00    -0.462 C  
HETATM    2  C   UNL     1     -13.070   8.142  71.611  1.00  0.00    -0.335 C  
ENDROOT
BRANCH   2   3
HETATM    3  O   UNL     1     -12.249   7.290  70.822  1.00  0.00    -0.296 OA 
BRANCH   3   4
HETATM    4  C   UNL     1     -10.855   7.467  71.084  1.00  0.00    -0.242 C  
BRANCH   4   5
HETATM    5  C   UNL     1     -10.113   7.124  69.802  1.00  0.00    -0.195 C  
BRANCH   5   6
HETATM    6  O   UNL     1      -9.751   8.270  69.028  1.00  0.00    -0.162 OA 
BRANCH   6   7
HETATM    7  C   UNL     1     -10.380   8.361  67.830  1.00  0.00    -0.235 C  
HETATM    8  O   UNL     1     -10.872   7.446  67.193  1.00  0.00    -0.331 OA 
BRANCH   7   9
HETATM    9  C   UNL     1     -10.533   9.803  67.544  1.00  0.00    -0.309 C  
HETATM   10  C   UNL     1     -11.495  10.527  68.140  1.00  0.00    -0.255 C  
BRANCH  10  11
HETATM   11  C   UNL     1     -11.555  11.996  68.089  1.00  0.00    -0.403 A  
HETATM   12  C   UNL     1     -11.645  12.719  66.893  1.00  0.00    -0.428 A  
HETATM   13  C   UNL     1     -11.629  14.117  66.900  1.00  0.00    -0.410 A  
HETATM   14  C   UNL     1     -11.560  14.824  68.100  1.00  0.00    -0.332 A  
HETATM   15  C   UNL     1     -11.493  14.120  69.300  1.00  0.00    -0.337 A  
HETATM   16  C   UNL     1     -11.494  12.717  69.292  1.00  0.00    -0.354 A  
BRANCH  14  17
HETATM   17  O   UNL     1     -11.500  16.184  67.971  1.00  0.00    -0.289 OA 
HETATM   18  C   UNL     1     -10.626  16.861  68.866  1.00  0.00    -0.353 C  
ENDBRANCH  14  17
ENDBRANCH  10  11
ENDBRANCH   7   9
ENDBRANCH   6   7
ENDBRANCH   5   6
ENDBRANCH   4   5
ENDBRANCH   3   4
ENDBRANCH   2   3
TORSDOF 8
ENDMDL
MODEL       86
REMARK 921   NORMALIZED FREE ENERGY PREDICTED BY IDOCK:   -3.92 KCAL/MOL
REMARK 922        TOTAL FREE ENERGY PREDICTED BY IDOCK:   -6.41 KCAL/MOL
REMARK 923 INTER-LIGAND FREE ENERGY PREDICTED BY IDOCK:   -5.94 KCAL/MOL
REMARK 924 INTRA-LIGAND FREE ENERGY PREDICTED BY IDOCK:   -0.47 KCAL/MOL
REMARK 927      BINDING AFFINITY PREDICTED BY RF-SCORE:    0.00 PKD
ROOT
HETATM    1  C   UNL     1      -9.911   4.677  70.296  1.00  0.00    -0.314 C  
HETATM    2  C   UNL     1     -10.803   5.863  69.975  1.00  0.00    -0.351 C  
ENDROOT
BRANCH   2   3
HETATM    3  O   UNL     1      -9.977   6.920  69.503  1.00  0.00    -0.161 OA 
BRANCH   3   4
HETATM    4  C   UNL     1      -9.203   7.524  70.543  1.00  0.00    -0.157 C  
BRANCH   4   5
HETATM    5  C   UNL     1      -9.585   8.995  70.586  1.00  0.00    -0.237 C  
BRANCH   5   6
HETATM    6  O   UNL     1     -10.537   9.308  71.606  1.00  0.00    -0.349 OA 
BRANCH   6   7
HETATM    7  C   UNL     1     -11.651   9.940  71.159  1.00  0.00    -0.389 C  
HETATM    8  O   UNL     1     -12.700  10.087  71.762  1.00  0.00    -0.383 OA 
BRANCH   7   9
HETATM    9  C   UNL     1     -11.281  10.592  69.884  1.00  0.00    -0.374 C  
HETATM   10  C   UNL     1     -12.153  11.379  69.232  1.00  0.00    -0.356 C  
BRANCH  10  11
HETATM   11  C   UNL     1     -11.779  12.241  68.100  1.00  0.00    -0.408 A  
HETATM   12  C   UNL     1     -11.267  11.745  66.895  1.00  0.00    -0.387 A  
HETATM   13  C   UNL     1     -10.863  12.615  65.878  1.00  0.00    -0.300 A  
HETATM   14  C   UNL     1     -10.995  13.996  66.026  1.00  0.00    -0.298 A  
HETATM   15  C   UNL     1     -11.524  14.504  67.209  1.00  0.00    -0.381 A  
HETATM   16  C   UNL     1     -11.916  13.632  68.236  1.00  0.00    -0.385 A  
BRANCH  14  17
HETATM   17  O   UNL     1     -10.518  14.740  64.983  1.00  0.00    -0.397 OA 
HETATM   18  C   UNL     1     -11.357  15.796  64.530  1.00  0.00    -0.316 C  
ENDBRANCH  14  17
ENDBRANCH  10  11
ENDBRANCH   7   9
ENDBRANCH   6   7
ENDBRANCH   5   6
ENDBRANCH   4   5
ENDBRANCH   3   4
ENDBRANCH   2   3
TORSDOF 8
ENDMDL
MODEL       87
REMARK 921   NORMALIZED FREE ENERGY PREDICTED BY IDOCK:   -3.92 KCAL/MOL
REMARK 922        TOTAL FREE ENERGY PREDICTED BY IDOCK:   -6.40 KCAL/MOL
REMARK 923 INTER-LIGAND FREE ENERGY PREDICTED BY IDOCK:   -6.02 KCAL/MOL
REMARK 924 INTRA-LIGAND FREE ENERGY PREDICTED BY IDOCK:   -0.39 KCAL/MOL
REMARK 927      BINDING AFFINITY PREDICTED BY RF-SCORE:    0.00 PKD
ROOT
HETATM    1  C   UNL     1     -12.549  15.979  73.991  1.00  0.00    -0.733 C  
HETATM    2  C   UNL     1     -11.825  15.345  72.817  1.00  0.00    -0.457 C  
ENDROOT
BRANCH   2   3
HETATM    3  O   UNL     1     -12.288  15.969  71.625  1.00  0.00    -0.455 OA 
BRANCH   3   4
HETATM    4  C   UNL     1     -11.309  15.968  70.584  1.00  0.00    -0.399 C  
BRANCH   4   5
HETATM    5  C   UNL     1     -11.796  15.002  69.515  1.00  0.00    -0.330 C  
BRANCH   5   6
HETATM    6  O   UNL     1     -11.722  15.533  68.190  1.00  0.00    -0.342 OA 
BRANCH   6   7
HETATM    7  C   UNL     1     -10.746  14.989  67.420  1.00  0.00    -0.289 C  
HETATM    8  O   UNL     1      -9.846  15.585  66.854  1.00  0.00    -0.230 OA 
BRANCH   7   9
HETATM    9  C   UNL     1     -10.863  13.523  67.567  1.00  0.00    -0.276 C  
HETATM   10  C   UNL     1     -10.511  12.699  66.566  1.00  0.00    -0.264 C  
BRANCH  10  11
HETATM   11  C   UNL     1     -10.375  11.242  66.725  1.00  0.00    -0.278 A  
HETATM   12  C   UNL     1     -10.858  10.543  67.837  1.00  0.00    -0.333 A  
HETATM   13  C   UNL     1     -10.640   9.168  67.968  1.00  0.00    -0.253 A  
HETATM   14  C   UNL     1      -9.969   8.455  66.975  1.00  0.00    -0.253 A  
HETATM   15  C   UNL     1      -9.503   9.131  65.850  1.00  0.00    -0.326 A  
HETATM   16  C   UNL     1      -9.708  10.514  65.726  1.00  0.00    -0.277 A  
BRANCH  14  17
HETATM   17  O   UNL     1      -9.775   7.128  67.243  1.00  0.00    -0.140 OA 
HETATM   18  C   UNL     1     -10.900   6.279  67.053  1.00  0.00    -0.383 C  
ENDBRANCH  14  17
ENDBRANCH  10  11
ENDBRANCH   7   9
ENDBRANCH   6   7
ENDBRANCH   5   6
ENDBRANCH   4   5
ENDBRANCH   3   4
ENDBRANCH   2   3
TORSDOF 8
ENDMDL
MODEL       88
REMARK 921   NORMALIZED FREE ENERGY PREDICTED BY IDOCK:   -3.91 KCAL/MOL
REMARK 922        TOTAL FREE ENERGY PREDICTED BY IDOCK:   -6.40 KCAL/MOL
REMARK 923 INTER-LIGAND FREE ENERGY PREDICTED BY IDOCK:   -6.29 KCAL/MOL
REMARK 924 INTRA-LIGAND FREE ENERGY PREDICTED BY IDOCK:   -0.11 KCAL/MOL
REMARK 927      BINDING AFFINITY PREDICTED BY RF-SCORE:    0.00 PKD
ROOT
HETATM    1  C   UNL     1      -9.150   4.038  71.556  1.00  0.00    -0.174 C  
HETATM    2  C   UNL     1      -9.466   5.466  71.149  1.00  0.00    -0.156 C  
ENDROOT
BRANCH   2   3
HETATM    3  O   UNL     1      -9.618   6.238  72.333  1.00  0.00    -0.152 OA 
BRANCH   3   4
HETATM    4  C   UNL     1     -10.858   5.991  73.001  1.00  0.00    -0.260 C  
BRANCH   4   5
HETATM    5  C   UNL     1     -11.945   5.999  71.938  1.00  0.00    -0.122 C  
BRANCH   5   6
HETATM    6  O   UNL     1     -12.054   7.244  71.243  1.00  0.00    -0.307 OA 
BRANCH   6   7
HETATM    7  C   UNL     1     -13.250   7.868  71.392  1.00  0.00    -0.245 C  
HETATM    8  O   UNL     1     -14.351   7.347  71.379  1.00  0.00    -0.445 OA 
BRANCH   7   9
HETATM    9  C   UNL     1     -12.951   9.264  71.774  1.00  0.00    -0.471 C  
HETATM   10  C   UNL     1     -12.941  10.245  70.856  1.00  0.00    -0.456 C  
BRANCH  10  11
HETATM   11  C   UNL     1     -12.889  11.675  71.197  1.00  0.00    -0.392 A  
HETATM   12  C   UNL     1     -13.523  12.219  72.320  1.00  0.00    -0.365 A  
HETATM   13  C   UNL     1     -13.498  13.597  72.558  1.00  0.00    -0.675 A  
HETATM   14  C   UNL     1     -12.810  14.457  71.701  1.00  0.00    -0.343 A  
HETATM   15  C   UNL     1     -12.155  13.928  70.592  1.00  0.00    -0.417 A  
HETATM   16  C   UNL     1     -12.192  12.547  70.345  1.00  0.00    -0.368 A  
BRANCH  14  17
HETATM   17  O   UNL     1     -12.903  15.785  72.013  1.00  0.00    -0.417 OA 
HETATM   18  C   UNL     1     -12.708  16.123  73.380  1.00  0.00    -0.527 C  
ENDBRANCH  14  17
ENDBRANCH  10  11
ENDBRANCH   7   9
ENDBRANCH   6   7
ENDBRANCH   5   6
ENDBRANCH   4   5
ENDBRANCH   3   4
ENDBRANCH   2   3
TORSDOF 8
ENDMDL
MODEL       89
REMARK 921   NORMALIZED FREE ENERGY PREDICTED BY IDOCK:   -3.88 KCAL/MOL
REMARK 922        TOTAL FREE ENERGY PREDICTED BY IDOCK:   -6.35 KCAL/MOL
REMARK 923 INTER-LIGAND FREE ENERGY PREDICTED BY IDOCK:   -5.94 KCAL/MOL
REMARK 924 INTRA-LIGAND FREE ENERGY PREDICTED BY IDOCK:   -0.41 KCAL/MOL
REMARK 927      BINDING AFFINITY PREDICTED BY RF-SCORE:    0.00 PKD
ROOT
HETATM    1  C   UNL     1      -6.897  19.603  65.440  1.00  0.00    -0.303 C  
HETATM    2  C   UNL     1      -6.968  19.844  66.937  1.00  0.00    -0.213 C  
ENDROOT
BRANCH   2   3
HETATM    3  O   UNL     1      -8.236  19.393  67.396  1.00  0.00    -0.276 OA 
BRANCH   3   4
HETATM    4  C   UNL     1      -9.294  19.689  66.480  1.00  0.00    -0.384 C  
BRANCH   4   5
HETATM    5  C   UNL     1     -10.129  18.426  66.341  1.00  0.00    -0.403 C  
BRANCH   5   6
HETATM    6  O   UNL     1     -11.016  18.204  67.441  1.00  0.00    -0.312 OA 
BRANCH   6   7
HETATM    7  C   UNL     1     -10.687  17.144  68.221  1.00  0.00    -0.363 C  
HETATM    8  O   UNL     1     -10.770  17.078  69.435  1.00  0.00    -0.322 OA 
BRANCH   7   9
HETATM    9  C   UNL     1     -10.404  16.019  67.305  1.00  0.00    -0.295 C  
HETATM   10  C   UNL     1     -11.282  15.014  67.153  1.00  0.00    -0.336 C  
BRANCH  10  11
HETATM   11  C   UNL     1     -11.178  13.998  66.094  1.00  0.00    -0.318 A  
HETATM   12  C   UNL     1     -10.440  12.817  66.234  1.00  0.00    -0.273 A  
HETATM   13  C   UNL     1     -10.320  11.918  65.168  1.00  0.00    -0.318 A  
HETATM   14  C   UNL     1     -10.962  12.161  63.954  1.00  0.00    -0.402 A  
HETATM   15  C   UNL     1     -11.719  13.321  63.807  1.00  0.00    -0.475 A  
HETATM   16  C   UNL     1     -11.828  14.230  64.871  1.00  0.00    -0.414 A  
BRANCH  14  17
HETATM   17  O   UNL     1     -10.725  11.236  62.977  1.00  0.00    -0.201 OA 
HETATM   18  C   UNL     1      -9.488  10.540  63.058  1.00  0.00    -0.335 C  
ENDBRANCH  14  17
ENDBRANCH  10  11
ENDBRANCH   7   9
ENDBRANCH   6   7
ENDBRANCH   5   6
ENDBRANCH   4   5
ENDBRANCH   3   4
ENDBRANCH   2   3
TORSDOF 8
ENDMDL
MODEL       90
REMARK 921   NORMALIZED FREE ENERGY PREDICTED BY IDOCK:   -3.88 KCAL/MOL
REMARK 922        TOTAL FREE ENERGY PREDICTED BY IDOCK:   -6.35 KCAL/MOL
REMARK 923 INTER-LIGAND FREE ENERGY PREDICTED BY IDOCK:   -6.02 KCAL/MOL
REMARK 924 INTRA-LIGAND FREE ENERGY PREDICTED BY IDOCK:   -0.33 KCAL/MOL
REMARK 927      BINDING AFFINITY PREDICTED BY RF-SCORE:    0.00 PKD
ROOT
HETATM    1  C   UNL     1      -9.346   3.300  66.529  1.00  0.00    -0.145 C  
HETATM    2  C   UNL     1      -9.456   4.634  65.812  1.00  0.00    -0.173 C  
ENDROOT
BRANCH   2   3
HETATM    3  O   UNL     1     -10.367   5.451  66.538  1.00  0.00    -0.223 OA 
BRANCH   3   4
HETATM    4  C   UNL     1     -10.054   5.524  67.932  1.00  0.00    -0.176 C  
BRANCH   4   5
HETATM    5  C   UNL     1     -11.041   6.495  68.560  1.00  0.00    -0.265 C  
BRANCH   5   6
HETATM    6  O   UNL     1     -10.414   7.605  69.209  1.00  0.00    -0.215 OA 
BRANCH   6   7
HETATM    7  C   UNL     1     -10.981   7.958  70.389  1.00  0.00    -0.249 C  
HETATM    8  O   UNL     1     -11.133   7.248  71.368  1.00  0.00    -0.239 OA 
BRANCH   7   9
HETATM    9  C   UNL     1     -11.194   9.420  70.332  1.00  0.00    -0.309 C  
HETATM   10  C   UNL     1     -12.334   9.970  70.782  1.00  0.00    -0.396 C  
BRANCH  10  11
HETATM   11  C   UNL     1     -12.515  11.418  70.976  1.00  0.00    -0.486 A  
HETATM   12  C   UNL     1     -13.249  11.964  72.035  1.00  0.00    -0.461 A  
HETATM   13  C   UNL     1     -13.446  13.346  72.131  1.00  0.00    -0.646 A  
HETATM   14  C   UNL     1     -12.885  14.213  71.194  1.00  0.00    -0.360 A  
HETATM   15  C   UNL     1     -12.132  13.687  70.147  1.00  0.00    -0.431 A  
HETATM   16  C   UNL     1     -11.947  12.300  70.042  1.00  0.00    -0.379 A  
BRANCH  14  17
HETATM   17  O   UNL     1     -13.192  15.534  71.368  1.00  0.00    -0.467 OA 
HETATM   18  C   UNL     1     -12.603  16.171  72.495  1.00  0.00    -0.398 C  
ENDBRANCH  14  17
ENDBRANCH  10  11
ENDBRANCH   7   9
ENDBRANCH   6   7
ENDBRANCH   5   6
ENDBRANCH   4   5
ENDBRANCH   3   4
ENDBRANCH   2   3
TORSDOF 8
ENDMDL
MODEL       91
REMARK 921   NORMALIZED FREE ENERGY PREDICTED BY IDOCK:   -3.83 KCAL/MOL
REMARK 922        TOTAL FREE ENERGY PREDICTED BY IDOCK:   -6.28 KCAL/MOL
REMARK 923 INTER-LIGAND FREE ENERGY PREDICTED BY IDOCK:   -5.77 KCAL/MOL
REMARK 924 INTRA-LIGAND FREE ENERGY PREDICTED BY IDOCK:   -0.51 KCAL/MOL
REMARK 927      BINDING AFFINITY PREDICTED BY RF-SCORE:    0.00 PKD
ROOT
HETATM    1  C   UNL     1      -7.843   7.815  68.018  1.00  0.00    -0.124 C  
HETATM    2  C   UNL     1      -8.983   8.390  67.196  1.00  0.00    -0.137 C  
ENDROOT
BRANCH   2   3
HETATM    3  O   UNL     1      -8.554   8.465  65.842  1.00  0.00    -0.140 OA 
BRANCH   3   4
HETATM    4  C   UNL     1      -8.397   9.810  65.384  1.00  0.00    -0.139 C  
BRANCH   4   5
HETATM    5  C   UNL     1      -9.332   9.990  64.199  1.00  0.00    -0.280 C  
BRANCH   5   6
HETATM    6  O   UNL     1     -10.647  10.414  64.568  1.00  0.00    -0.149 OA 
BRANCH   6   7
HETATM    7  C   UNL     1     -10.894  11.730  64.351  1.00  0.00    -0.334 C  
HETATM    8  O   UNL     1     -10.764  12.334  63.301  1.00  0.00    -0.427 OA 
BRANCH   7   9
HETATM    9  C   UNL     1     -11.544  12.242  65.577  1.00  0.00    -0.422 C  
HETATM   10  C   UNL     1     -11.217  11.757  66.786  1.00  0.00    -0.388 C  
BRANCH  10  11
HETATM   11  C   UNL     1     -11.640  12.377  68.051  1.00  0.00    -0.403 A  
HETATM   12  C   UNL     1     -11.798  13.759  68.213  1.00  0.00    -0.413 A  
HETATM   13  C   UNL     1     -12.136  14.299  69.458  1.00  0.00    -0.376 A  
HETATM   14  C   UNL     1     -12.360  13.471  70.557  1.00  0.00    -0.342 A  
HETATM   15  C   UNL     1     -12.230  12.092  70.407  1.00  0.00    -0.378 A  
HETATM   16  C   UNL     1     -11.876  11.551  69.162  1.00  0.00    -0.406 A  
BRANCH  14  17
HETATM   17  O   UNL     1     -12.634  14.122  71.728  1.00  0.00    -0.332 OA 
HETATM   18  C   UNL     1     -13.891  13.833  72.327  1.00  0.00    -0.580 C  
ENDBRANCH  14  17
ENDBRANCH  10  11
ENDBRANCH   7   9
ENDBRANCH   6   7
ENDBRANCH   5   6
ENDBRANCH   4   5
ENDBRANCH   3   4
ENDBRANCH   2   3
TORSDOF 8
ENDMDL
MODEL       92
REMARK 921   NORMALIZED FREE ENERGY PREDICTED BY IDOCK:   -3.80 KCAL/MOL
REMARK 922        TOTAL FREE ENERGY PREDICTED BY IDOCK:   -6.24 KCAL/MOL
REMARK 923 INTER-LIGAND FREE ENERGY PREDICTED BY IDOCK:   -5.43 KCAL/MOL
REMARK 924 INTRA-LIGAND FREE ENERGY PREDICTED BY IDOCK:   -0.81 KCAL/MOL
REMARK 927      BINDING AFFINITY PREDICTED BY RF-SCORE:    0.00 PKD
ROOT
HETATM    1  C   UNL     1     -12.414  12.970  64.988  1.00  0.00    -0.534 C  
HETATM    2  C   UNL     1     -11.548  12.125  65.906  1.00  0.00    -0.364 C  
ENDROOT
BRANCH   2   3
HETATM    3  O   UNL     1     -12.015  12.303  67.238  1.00  0.00    -0.546 OA 
BRANCH   3   4
HETATM    4  C   UNL     1     -11.756  11.170  68.071  1.00  0.00    -0.212 C  
BRANCH   4   5
HETATM    5  C   UNL     1     -10.382  10.641  67.690  1.00  0.00    -0.209 C  
BRANCH   5   6
HETATM    6  O   UNL     1      -9.326  11.155  68.506  1.00  0.00    -0.178 OA 
BRANCH   6   7
HETATM    7  C   UNL     1      -8.388  11.864  67.829  1.00  0.00    -0.149 C  
HETATM    8  O   UNL     1      -7.546  11.420  67.069  1.00  0.00    -0.136 OA 
BRANCH   7   9
HETATM    9  C   UNL     1      -8.714  13.292  68.031  1.00  0.00    -0.186 C  
HETATM   10  C   UNL     1      -8.640  14.168  67.015  1.00  0.00    -0.204 C  
BRANCH  10  11
HETATM   11  C   UNL     1      -9.173  15.538  67.085  1.00  0.00    -0.228 A  
HETATM   12  C   UNL     1      -9.108  16.329  68.238  1.00  0.00    -0.197 A  
HETATM   13  C   UNL     1      -9.693  17.599  68.267  1.00  0.00    -0.315 A  
HETATM   14  C   UNL     1     -10.323  18.121  67.138  1.00  0.00    -0.379 A  
HETATM   15  C   UNL     1     -10.376  17.355  65.975  1.00  0.00    -0.309 A  
HETATM   16  C   UNL     1      -9.802  16.075  65.950  1.00  0.00    -0.380 A  
BRANCH  14  17
HETATM   17  O   UNL     1     -10.899  19.349  67.309  1.00  0.00    -0.484 OA 
HETATM   18  C   UNL     1     -10.006  20.448  67.435  1.00  0.00    -0.416 C  
ENDBRANCH  14  17
ENDBRANCH  10  11
ENDBRANCH   7   9
ENDBRANCH   6   7
ENDBRANCH   5   6
ENDBRANCH   4   5
ENDBRANCH   3   4
ENDBRANCH   2   3
TORSDOF 8
ENDMDL
MODEL       93
REMARK 921   NORMALIZED FREE ENERGY PREDICTED BY IDOCK:   -3.79 KCAL/MOL
REMARK 922        TOTAL FREE ENERGY PREDICTED BY IDOCK:   -6.22 KCAL/MOL
REMARK 923 INTER-LIGAND FREE ENERGY PREDICTED BY IDOCK:   -5.68 KCAL/MOL
REMARK 924 INTRA-LIGAND FREE ENERGY PREDICTED BY IDOCK:   -0.54 KCAL/MOL
REMARK 927      BINDING AFFINITY PREDICTED BY RF-SCORE:    0.00 PKD
ROOT
HETATM    1  C   UNL     1     -13.047   9.932  71.762  1.00  0.00    -0.553 C  
HETATM    2  C   UNL     1     -11.989   8.903  72.120  1.00  0.00    -0.349 C  
ENDROOT
BRANCH   2   3
HETATM    3  O   UNL     1     -10.841   9.155  71.319  1.00  0.00    -0.275 OA 
BRANCH   3   4
HETATM    4  C   UNL     1     -10.877   8.464  70.068  1.00  0.00    -0.225 C  
BRANCH   4   5
HETATM    5  C   UNL     1     -10.208   9.365  69.042  1.00  0.00    -0.205 C  
BRANCH   5   6
HETATM    6  O   UNL     1     -10.315  10.758  69.349  1.00  0.00    -0.218 OA 
BRANCH   6   7
HETATM    7  C   UNL     1     -11.207  11.435  68.583  1.00  0.00    -0.243 C  
HETATM    8  O   UNL     1     -12.387  11.170  68.430  1.00  0.00    -0.556 OA 
BRANCH   7   9
HETATM    9  C   UNL     1     -10.526  12.668  68.136  1.00  0.00    -0.239 C  
HETATM   10  C   UNL     1     -11.200  13.635  67.492  1.00  0.00    -0.316 C  
BRANCH  10  11
HETATM   11  C   UNL     1     -10.649  14.975  67.234  1.00  0.00    -0.279 A  
HETATM   12  C   UNL     1      -9.684  15.231  66.253  1.00  0.00    -0.325 A  
HETATM   13  C   UNL     1      -9.145  16.513  66.098  1.00  0.00    -0.342 A  
HETATM   14  C   UNL     1      -9.584  17.572  66.893  1.00  0.00    -0.278 A  
HETATM   15  C   UNL     1     -10.560  17.338  67.858  1.00  0.00    -0.384 A  
HETATM   16  C   UNL     1     -11.090  16.049  68.024  1.00  0.00    -0.334 A  
BRANCH  14  17
HETATM   17  O   UNL     1      -8.944  18.761  66.679  1.00  0.00    -0.295 OA 
HETATM   18  C   UNL     1      -7.551  18.684  66.401  1.00  0.00    -0.259 C  
ENDBRANCH  14  17
ENDBRANCH  10  11
ENDBRANCH   7   9
ENDBRANCH   6   7
ENDBRANCH   5   6
ENDBRANCH   4   5
ENDBRANCH   3   4
ENDBRANCH   2   3
TORSDOF 8
ENDMDL
MODEL       94
REMARK 921   NORMALIZED FREE ENERGY PREDICTED BY IDOCK:   -3.77 KCAL/MOL
REMARK 922        TOTAL FREE ENERGY PREDICTED BY IDOCK:   -6.18 KCAL/MOL
REMARK 923 INTER-LIGAND FREE ENERGY PREDICTED BY IDOCK:   -5.45 KCAL/MOL
REMARK 924 INTRA-LIGAND FREE ENERGY PREDICTED BY IDOCK:   -0.73 KCAL/MOL
REMARK 927      BINDING AFFINITY PREDICTED BY RF-SCORE:    0.00 PKD
ROOT
HETATM    1  C   UNL     1     -10.839  19.362  66.900  1.00  0.00    -0.509 C  
HETATM    2  C   UNL     1      -9.330  19.193  66.873  1.00  0.00    -0.319 C  
ENDROOT
BRANCH   2   3
HETATM    3  O   UNL     1      -8.740  20.470  67.085  1.00  0.00    -0.336 OA 
BRANCH   3   4
HETATM    4  C   UNL     1      -7.348  20.391  67.398  1.00  0.00    -0.318 C  
BRANCH   4   5
HETATM    5  C   UNL     1      -7.222  19.563  68.667  1.00  0.00    -0.339 C  
BRANCH   5   6
HETATM    6  O   UNL     1      -6.011  18.805  68.735  1.00  0.00    -0.204 OA 
BRANCH   6   7
HETATM    7  C   UNL     1      -6.131  17.611  69.369  1.00  0.00    -0.242 C  
HETATM    8  O   UNL     1      -5.661  17.308  70.451  1.00  0.00    -0.227 OA 
BRANCH   7   9
HETATM    9  C   UNL     1      -7.108  16.820  68.591  1.00  0.00    -0.195 C  
HETATM   10  C   UNL     1      -8.104  16.157  69.203  1.00  0.00    -0.230 C  
BRANCH  10  11
HETATM   11  C   UNL     1      -9.239  15.555  68.486  1.00  0.00    -0.197 A  
HETATM   12  C   UNL     1      -9.106  14.884  67.265  1.00  0.00    -0.211 A  
HETATM   13  C   UNL     1     -10.230  14.390  66.594  1.00  0.00    -0.277 A  
HETATM   14  C   UNL     1     -11.504  14.524  67.144  1.00  0.00    -0.368 A  
HETATM   15  C   UNL     1     -11.651  15.169  68.369  1.00  0.00    -0.356 A  
HETATM   16  C   UNL     1     -10.526  15.677  69.036  1.00  0.00    -0.229 A  
BRANCH  14  17
HETATM   17  O   UNL     1     -12.524  14.047  66.368  1.00  0.00    -0.452 OA 
HETATM   18  C   UNL     1     -12.311  14.080  64.962  1.00  0.00    -0.441 C  
ENDBRANCH  14  17
ENDBRANCH  10  11
ENDBRANCH   7   9
ENDBRANCH   6   7
ENDBRANCH   5   6
ENDBRANCH   4   5
ENDBRANCH   3   4
ENDBRANCH   2   3
TORSDOF 8
ENDMDL
MODEL       95
REMARK 921   NORMALIZED FREE ENERGY PREDICTED BY IDOCK:   -3.73 KCAL/MOL
REMARK 922        TOTAL FREE ENERGY PREDICTED BY IDOCK:   -6.13 KCAL/MOL
REMARK 923 INTER-LIGAND FREE ENERGY PREDICTED BY IDOCK:   -5.85 KCAL/MOL
REMARK 924 INTRA-LIGAND FREE ENERGY PREDICTED BY IDOCK:   -0.28 KCAL/MOL
REMARK 927      BINDING AFFINITY PREDICTED BY RF-SCORE:    0.00 PKD
ROOT
HETATM    1  C   UNL     1      -8.678   4.250  64.744  1.00  0.00    -0.135 C  
HETATM    2  C   UNL     1      -8.192   5.662  65.020  1.00  0.00    -0.137 C  
ENDROOT
BRANCH   2   3
HETATM    3  O   UNL     1      -9.119   6.281  65.903  1.00  0.00    -0.145 OA 
BRANCH   3   4
HETATM    4  C   UNL     1      -8.753   7.622  66.238  1.00  0.00    -0.152 C  
BRANCH   4   5
HETATM    5  C   UNL     1      -9.883   8.197  67.077  1.00  0.00    -0.232 C  
BRANCH   5   6
HETATM    6  O   UNL     1     -10.501   9.347  66.493  1.00  0.00    -0.215 OA 
BRANCH   6   7
HETATM    7  C   UNL     1      -9.954  10.530  66.870  1.00  0.00    -0.200 C  
HETATM    8  O   UNL     1      -8.914  11.017  66.462  1.00  0.00    -0.162 OA 
BRANCH   7   9
HETATM    9  C   UNL     1     -10.961  11.207  67.714  1.00  0.00    -0.315 C  
HETATM   10  C   UNL     1     -11.053  10.940  69.028  1.00  0.00    -0.302 C  
BRANCH  10  11
HETATM   11  C   UNL     1     -11.858  11.741  69.964  1.00  0.00    -0.422 A  
HETATM   12  C   UNL     1     -11.959  13.134  69.891  1.00  0.00    -0.387 A  
HETATM   13  C   UNL     1     -12.684  13.850  70.849  1.00  0.00    -0.410 A  
HETATM   14  C   UNL     1     -13.351  13.189  71.880  1.00  0.00    -0.455 A  
HETATM   15  C   UNL     1     -13.279  11.800  71.953  1.00  0.00    -0.468 A  
HETATM   16  C   UNL     1     -12.540  11.083  71.000  1.00  0.00    -0.512 A  
BRANCH  14  17
HETATM   17  O   UNL     1     -13.980  14.002  72.781  1.00  0.00    -0.669 OA 
HETATM   18  C   UNL     1     -13.586  15.368  72.774  1.00  0.00    -0.531 C  
ENDBRANCH  14  17
ENDBRANCH  10  11
ENDBRANCH   7   9
ENDBRANCH   6   7
ENDBRANCH   5   6
ENDBRANCH   4   5
ENDBRANCH   3   4
ENDBRANCH   2   3
TORSDOF 8
ENDMDL
MODEL       96
REMARK 921   NORMALIZED FREE ENERGY PREDICTED BY IDOCK:   -3.72 KCAL/MOL
REMARK 922        TOTAL FREE ENERGY PREDICTED BY IDOCK:   -6.11 KCAL/MOL
REMARK 923 INTER-LIGAND FREE ENERGY PREDICTED BY IDOCK:   -5.77 KCAL/MOL
REMARK 924 INTRA-LIGAND FREE ENERGY PREDICTED BY IDOCK:   -0.34 KCAL/MOL
REMARK 927      BINDING AFFINITY PREDICTED BY RF-SCORE:    0.00 PKD
ROOT
HETATM    1  C   UNL     1      -7.027  19.926  65.359  1.00  0.00    -0.323 C  
HETATM    2  C   UNL     1      -6.443  20.412  66.673  1.00  0.00    -0.223 C  
ENDROOT
BRANCH   2   3
HETATM    3  O   UNL     1      -7.517  20.611  67.585  1.00  0.00    -0.301 OA 
BRANCH   3   4
HETATM    4  C   UNL     1      -8.799  20.520  66.959  1.00  0.00    -0.242 C  
BRANCH   4   5
HETATM    5  C   UNL     1      -9.529  19.353  67.603  1.00  0.00    -0.313 C  
BRANCH   5   6
HETATM    6  O   UNL     1      -8.864  18.831  68.757  1.00  0.00    -0.327 OA 
BRANCH   6   7
HETATM    7  C   UNL     1      -8.162  17.692  68.534  1.00  0.00    -0.292 C  
HETATM    8  O   UNL     1      -7.137  17.345  69.094  1.00  0.00    -0.245 OA 
BRANCH   7   9
HETATM    9  C   UNL     1      -8.986  16.862  67.630  1.00  0.00    -0.219 C  
HETATM   10  C   UNL     1      -9.016  15.525  67.756  1.00  0.00    -0.173 C  
BRANCH  10  11
HETATM   11  C   UNL     1      -9.985  14.665  67.058  1.00  0.00    -0.246 A  
HETATM   12  C   UNL     1      -9.611  13.671  66.146  1.00  0.00    -0.226 A  
HETATM   13  C   UNL     1     -10.578  12.930  65.460  1.00  0.00    -0.298 A  
HETATM   14  C   UNL     1     -11.936  13.139  65.694  1.00  0.00    -0.415 A  
HETATM   15  C   UNL     1     -12.325  14.109  66.616  1.00  0.00    -0.375 A  
HETATM   16  C   UNL     1     -11.355  14.863  67.294  1.00  0.00    -0.355 A  
BRANCH  14  17
HETATM   17  O   UNL     1     -12.781  12.389  64.925  1.00  0.00    -0.620 OA 
HETATM   18  C   UNL     1     -12.398  12.207  63.567  1.00  0.00    -0.574 C  
ENDBRANCH  14  17
ENDBRANCH  10  11
ENDBRANCH   7   9
ENDBRANCH   6   7
ENDBRANCH   5   6
ENDBRANCH   4   5
ENDBRANCH   3   4
ENDBRANCH   2   3
TORSDOF 8
ENDMDL
MODEL       97
REMARK 921   NORMALIZED FREE ENERGY PREDICTED BY IDOCK:   -3.72 KCAL/MOL
REMARK 922        TOTAL FREE ENERGY PREDICTED BY IDOCK:   -6.11 KCAL/MOL
REMARK 923 INTER-LIGAND FREE ENERGY PREDICTED BY IDOCK:   -5.68 KCAL/MOL
REMARK 924 INTRA-LIGAND FREE ENERGY PREDICTED BY IDOCK:   -0.42 KCAL/MOL
REMARK 927      BINDING AFFINITY PREDICTED BY RF-SCORE:    0.00 PKD
ROOT
HETATM    1  C   UNL     1     -10.041  11.053  65.230  1.00  0.00    -0.332 C  
HETATM    2  C   UNL     1     -10.901  12.277  65.488  1.00  0.00    -0.282 C  
ENDROOT
BRANCH   2   3
HETATM    3  O   UNL     1     -11.886  11.927  66.453  1.00  0.00    -0.561 OA 
BRANCH   3   4
HETATM    4  C   UNL     1     -11.712  12.612  67.696  1.00  0.00    -0.361 C  
BRANCH   4   5
HETATM    5  C   UNL     1     -11.826  11.572  68.798  1.00  0.00    -0.330 C  
BRANCH   5   6
HETATM    6  O   UNL     1     -11.869  12.135  70.112  1.00  0.00    -0.333 OA 
BRANCH   6   7
HETATM    7  C   UNL     1     -12.317  11.288  71.072  1.00  0.00    -0.366 C  
HETATM    8  O   UNL     1     -13.175  11.518  71.906  1.00  0.00    -0.485 OA 
BRANCH   7   9
HETATM    9  C   UNL     1     -11.712   9.970  70.784  1.00  0.00    -0.437 C  
HETATM   10  C   UNL     1     -11.408   9.118  71.778  1.00  0.00    -0.451 C  
BRANCH  10  11
HETATM   11  C   UNL     1     -11.032   7.713  71.555  1.00  0.00    -0.263 A  
HETATM   12  C   UNL     1     -11.060   7.102  70.296  1.00  0.00    -0.303 A  
HETATM   13  C   UNL     1     -10.758   5.744  70.153  1.00  0.00    -0.390 A  
HETATM   14  C   UNL     1     -10.387   4.976  71.256  1.00  0.00    -0.185 A  
HETATM   15  C   UNL     1     -10.332   5.574  72.513  1.00  0.00    -0.246 A  
HETATM   16  C   UNL     1     -10.649   6.933  72.658  1.00  0.00    -0.262 A  
BRANCH  14  17
HETATM   17  O   UNL     1     -10.167   3.652  70.995  1.00  0.00     0.015 OA 
HETATM   18  C   UNL     1      -9.618   3.347  69.719  1.00  0.00    -0.110 C  
ENDBRANCH  14  17
ENDBRANCH  10  11
ENDBRANCH   7   9
ENDBRANCH   6   7
ENDBRANCH   5   6
ENDBRANCH   4   5
ENDBRANCH   3   4
ENDBRANCH   2   3
TORSDOF 8
ENDMDL
MODEL       98
REMARK 921   NORMALIZED FREE ENERGY PREDICTED BY IDOCK:   -3.67 KCAL/MOL
REMARK 922        TOTAL FREE ENERGY PREDICTED BY IDOCK:   -6.04 KCAL/MOL
REMARK 923 INTER-LIGAND FREE ENERGY PREDICTED BY IDOCK:   -5.71 KCAL/MOL
REMARK 924 INTRA-LIGAND FREE ENERGY PREDICTED BY IDOCK:   -0.33 KCAL/MOL
REMARK 927      BINDING AFFINITY PREDICTED BY RF-SCORE:    0.00 PKD
ROOT
HETATM    1  C   UNL     1      -9.101   6.516  74.284  1.00  0.00    -0.198 C  
HETATM    2  C   UNL     1     -10.234   7.285  73.628  1.00  0.00    -0.346 C  
ENDROOT
BRANCH   2   3
HETATM    3  O   UNL     1     -10.314   6.877  72.268  1.00  0.00    -0.193 OA 
BRANCH   3   4
HETATM    4  C   UNL     1     -11.488   7.362  71.613  1.00  0.00    -0.263 C  
BRANCH   4   5
HETATM    5  C   UNL     1     -11.026   8.235  70.457  1.00  0.00    -0.242 C  
BRANCH   5   6
HETATM    6  O   UNL     1     -10.789   9.595  70.828  1.00  0.00    -0.282 OA 
BRANCH   6   7
HETATM    7  C   UNL     1     -11.895  10.381  70.817  1.00  0.00    -0.368 C  
HETATM    8  O   UNL     1     -12.713  10.503  71.711  1.00  0.00    -0.420 OA 
BRANCH   7   9
HETATM    9  C   UNL     1     -11.808  11.212  69.597  1.00  0.00    -0.419 C  
HETATM   10  C   UNL     1     -12.002  12.540  69.650  1.00  0.00    -0.339 C  
BRANCH  10  11
HETATM   11  C   UNL     1     -11.697  13.450  68.535  1.00  0.00    -0.392 A  
HETATM   12  C   UNL     1     -11.784  13.071  67.190  1.00  0.00    -0.439 A  
HETATM   13  C   UNL     1     -11.416  13.957  66.173  1.00  0.00    -0.351 A  
HETATM   14  C   UNL     1     -10.990  15.251  66.473  1.00  0.00    -0.295 A  
HETATM   15  C   UNL     1     -10.921  15.651  67.805  1.00  0.00    -0.316 A  
HETATM   16  C   UNL     1     -11.276  14.757  68.827  1.00  0.00    -0.286 A  
BRANCH  14  17
HETATM   17  O   UNL     1     -10.610  16.002  65.395  1.00  0.00    -0.386 OA 
HETATM   18  C   UNL     1     -11.369  15.820  64.206  1.00  0.00    -0.179 C  
ENDBRANCH  14  17
ENDBRANCH  10  11
ENDBRANCH   7   9
ENDBRANCH   6   7
ENDBRANCH   5   6
ENDBRANCH   4   5
ENDBRANCH   3   4
ENDBRANCH   2   3
TORSDOF 8
ENDMDL
MODEL       99
REMARK 921   NORMALIZED FREE ENERGY PREDICTED BY IDOCK:   -3.66 KCAL/MOL
REMARK 922        TOTAL FREE ENERGY PREDICTED BY IDOCK:   -6.02 KCAL/MOL
REMARK 923 INTER-LIGAND FREE ENERGY PREDICTED BY IDOCK:   -5.64 KCAL/MOL
REMARK 924 INTRA-LIGAND FREE ENERGY PREDICTED BY IDOCK:   -0.38 KCAL/MOL
REMARK 927      BINDING AFFINITY PREDICTED BY RF-SCORE:    0.00 PKD
ROOT
HETATM    1  C   UNL     1      -7.267   8.978  62.545  1.00  0.00    -0.098 C  
HETATM    2  C   UNL     1      -8.351   9.178  63.590  1.00  0.00    -0.187 C  
ENDROOT
BRANCH   2   3
HETATM    3  O   UNL     1      -8.520  10.577  63.786  1.00  0.00    -0.171 OA 
BRANCH   3   4
HETATM    4  C   UNL     1      -9.314  11.186  62.765  1.00  0.00    -0.351 C  
BRANCH   4   5
HETATM    5  C   UNL     1     -10.493  11.854  63.455  1.00  0.00    -0.459 C  
BRANCH   5   6
HETATM    6  O   UNL     1     -10.363  11.912  64.878  1.00  0.00    -0.265 OA 
BRANCH   6   7
HETATM    7  C   UNL     1     -11.287  12.690  65.495  1.00  0.00    -0.321 C  
HETATM    8  O   UNL     1     -12.393  12.348  65.875  1.00  0.00    -0.638 OA 
BRANCH   7   9
HETATM    9  C   UNL     1     -10.620  13.974  65.799  1.00  0.00    -0.303 C  
HETATM   10  C   UNL     1     -11.247  14.928  66.508  1.00  0.00    -0.335 C  
BRANCH  10  11
HETATM   11  C   UNL     1     -10.568  16.117  67.047  1.00  0.00    -0.292 A  
HETATM   12  C   UNL     1      -9.622  16.853  66.325  1.00  0.00    -0.300 A  
HETATM   13  C   UNL     1      -8.957  17.934  66.913  1.00  0.00    -0.265 A  
HETATM   14  C   UNL     1      -9.249  18.326  68.219  1.00  0.00    -0.309 A  
HETATM   15  C   UNL     1     -10.206  17.618  68.943  1.00  0.00    -0.354 A  
HETATM   16  C   UNL     1     -10.862  16.524  68.358  1.00  0.00    -0.348 A  
BRANCH  14  17
HETATM   17  O   UNL     1      -8.497  19.363  68.696  1.00  0.00    -0.356 OA 
HETATM   18  C   UNL     1      -7.126  19.368  68.319  1.00  0.00    -0.284 C  
ENDBRANCH  14  17
ENDBRANCH  10  11
ENDBRANCH   7   9
ENDBRANCH   6   7
ENDBRANCH   5   6
ENDBRANCH   4   5
ENDBRANCH   3   4
ENDBRANCH   2   3
TORSDOF 8
ENDMDL
MODEL      100
REMARK 921   NORMALIZED FREE ENERGY PREDICTED BY IDOCK:   -3.65 KCAL/MOL
REMARK 922        TOTAL FREE ENERGY PREDICTED BY IDOCK:   -6.02 KCAL/MOL
REMARK 923 INTER-LIGAND FREE ENERGY PREDICTED BY IDOCK:   -5.35 KCAL/MOL
REMARK 924 INTRA-LIGAND FREE ENERGY PREDICTED BY IDOCK:   -0.66 KCAL/MOL
REMARK 927      BINDING AFFINITY PREDICTED BY RF-SCORE:    0.00 PKD
ROOT
HETATM    1  C   UNL     1     -10.581   8.311  71.378  1.00  0.00    -0.279 C  
HETATM    2  C   UNL     1     -12.025   7.964  71.060  1.00  0.00    -0.252 C  
ENDROOT
BRANCH   2   3
HETATM    3  O   UNL     1     -12.043   6.682  70.442  1.00  0.00    -0.374 OA 
BRANCH   3   4
HETATM    4  C   UNL     1     -10.734   6.142  70.250  1.00  0.00    -0.291 C  
BRANCH   4   5
HETATM    5  C   UNL     1     -10.732   5.448  68.897  1.00  0.00    -0.058 C  
BRANCH   5   6
HETATM    6  O   UNL     1     -11.256   6.258  67.840  1.00  0.00    -0.323 OA 
BRANCH   6   7
HETATM    7  C   UNL     1     -10.322   6.978  67.169  1.00  0.00    -0.281 C  
HETATM    8  O   UNL     1      -9.504   6.552  66.374  1.00  0.00    -0.164 OA 
BRANCH   7   9
HETATM    9  C   UNL     1     -10.621   8.402  67.433  1.00  0.00    -0.313 C  
HETATM   10  C   UNL     1     -10.204   9.362  66.591  1.00  0.00    -0.319 C  
BRANCH  10  11
HETATM   11  C   UNL     1     -10.665  10.758  66.661  1.00  0.00    -0.268 A  
HETATM   12  C   UNL     1     -10.441  11.692  65.643  1.00  0.00    -0.314 A  
HETATM   13  C   UNL     1     -10.841  13.024  65.793  1.00  0.00    -0.292 A  
HETATM   14  C   UNL     1     -11.505  13.443  66.945  1.00  0.00    -0.342 A  
HETATM   15  C   UNL     1     -11.756  12.521  67.958  1.00  0.00    -0.410 A  
HETATM   16  C   UNL     1     -11.341  11.188  67.814  1.00  0.00    -0.364 A  
BRANCH  14  17
HETATM   17  O   UNL     1     -11.797  14.778  66.993  1.00  0.00    -0.362 OA 
HETATM   18  C   UNL     1     -11.624  15.413  68.254  1.00  0.00    -0.348 C  
ENDBRANCH  14  17
ENDBRANCH  10  11
ENDBRANCH   7   9
ENDBRANCH   6   7
ENDBRANCH   5   6
ENDBRANCH   4   5
ENDBRANCH   3   4
ENDBRANCH   2   3
TORSDOF 8
ENDMDL
MODEL      101
REMARK 921   NORMALIZED FREE ENERGY PREDICTED BY IDOCK:   -3.65 KCAL/MOL
REMARK 922        TOTAL FREE ENERGY PREDICTED BY IDOCK:   -6.01 KCAL/MOL
REMARK 923 INTER-LIGAND FREE ENERGY PREDICTED BY IDOCK:   -5.55 KCAL/MOL
REMARK 924 INTRA-LIGAND FREE ENERGY PREDICTED BY IDOCK:   -0.46 KCAL/MOL
REMARK 927      BINDING AFFINITY PREDICTED BY RF-SCORE:    0.00 PKD
ROOT
HETATM    1  C   UNL     1     -10.961   6.416  67.506  1.00  0.00    -0.454 C  
HETATM    2  C   UNL     1     -10.508   7.729  66.894  1.00  0.00    -0.317 C  
ENDROOT
BRANCH   2   3
HETATM    3  O   UNL     1     -10.440   8.698  67.933  1.00  0.00    -0.228 OA 
BRANCH   3   4
HETATM    4  C   UNL     1     -10.613  10.035  67.456  1.00  0.00    -0.280 C  
BRANCH   4   5
HETATM    5  C   UNL     1      -9.987  10.099  66.072  1.00  0.00    -0.256 C  
BRANCH   5   6
HETATM    6  O   UNL     1      -9.645  11.426  65.662  1.00  0.00    -0.219 OA 
BRANCH   6   7
HETATM    7  C   UNL     1     -10.606  12.056  64.941  1.00  0.00    -0.291 C  
HETATM    8  O   UNL     1     -11.389  11.542  64.162  1.00  0.00    -0.342 OA 
BRANCH   7   9
HETATM    9  C   UNL     1     -10.655  13.449  65.434  1.00  0.00    -0.310 C  
HETATM   10  C   UNL     1      -9.804  13.876  66.382  1.00  0.00    -0.304 C  
BRANCH  10  11
HETATM   11  C   UNL     1      -9.637  15.293  66.743  1.00  0.00    -0.257 A  
HETATM   12  C   UNL     1      -8.677  16.126  66.157  1.00  0.00    -0.358 A  
HETATM   13  C   UNL     1      -8.518  17.447  66.588  1.00  0.00    -0.291 A  
HETATM   14  C   UNL     1      -9.335  17.975  67.587  1.00  0.00    -0.259 A  
HETATM   15  C   UNL     1     -10.310  17.165  68.165  1.00  0.00    -0.350 A  
HETATM   16  C   UNL     1     -10.461  15.836  67.742  1.00  0.00    -0.283 A  
BRANCH  14  17
HETATM   17  O   UNL     1      -9.046  19.259  67.956  1.00  0.00    -0.300 OA 
HETATM   18  C   UNL     1      -9.720  20.285  67.237  1.00  0.00    -0.450 C  
ENDBRANCH  14  17
ENDBRANCH  10  11
ENDBRANCH   7   9
ENDBRANCH   6   7
ENDBRANCH   5   6
ENDBRANCH   4   5
ENDBRANCH   3   4
ENDBRANCH   2   3
TORSDOF 8
ENDMDL
MODEL      102
REMARK 921   NORMALIZED FREE ENERGY PREDICTED BY IDOCK:   -3.62 KCAL/MOL
REMARK 922        TOTAL FREE ENERGY PREDICTED BY IDOCK:   -5.97 KCAL/MOL
REMARK 923 INTER-LIGAND FREE ENERGY PREDICTED BY IDOCK:   -5.61 KCAL/MOL
REMARK 924 INTRA-LIGAND FREE ENERGY PREDICTED BY IDOCK:   -0.36 KCAL/MOL
REMARK 927      BINDING AFFINITY PREDICTED BY RF-SCORE:    0.00 PKD
ROOT
HETATM    1  C   UNL     1      -8.181   5.227  65.691  1.00  0.00    -0.121 C  
HETATM    2  C   UNL     1      -9.611   4.755  65.497  1.00  0.00    -0.161 C  
ENDROOT
BRANCH   2   3
HETATM    3  O   UNL     1     -10.432   5.445  66.432  1.00  0.00    -0.254 OA 
BRANCH   3   4
HETATM    4  C   UNL     1      -9.734   6.485  67.120  1.00  0.00    -0.143 C  
BRANCH   4   5
HETATM    5  C   UNL     1     -10.712   7.634  67.302  1.00  0.00    -0.274 C  
BRANCH   5   6
HETATM    6  O   UNL     1     -10.079   8.881  67.601  1.00  0.00    -0.189 OA 
BRANCH   6   7
HETATM    7  C   UNL     1     -10.179   9.812  66.619  1.00  0.00    -0.226 C  
HETATM    8  O   UNL     1      -9.882   9.670  65.446  1.00  0.00    -0.315 OA 
BRANCH   7   9
HETATM    9  C   UNL     1     -10.906  10.960  67.201  1.00  0.00    -0.337 C  
HETATM   10  C   UNL     1     -11.213  10.992  68.508  1.00  0.00    -0.329 C  
BRANCH  10  11
HETATM   11  C   UNL     1     -11.715  12.193  69.195  1.00  0.00    -0.384 A  
HETATM   12  C   UNL     1     -11.728  13.463  68.607  1.00  0.00    -0.384 A  
HETATM   13  C   UNL     1     -12.153  14.582  69.331  1.00  0.00    -0.328 A  
HETATM   14  C   UNL     1     -12.607  14.452  70.643  1.00  0.00    -0.357 A  
HETATM   15  C   UNL     1     -12.622  13.191  71.235  1.00  0.00    -0.382 A  
HETATM   16  C   UNL     1     -12.182  12.071  70.513  1.00  0.00    -0.414 A  
BRANCH  14  17
HETATM   17  O   UNL     1     -12.946  15.625  71.259  1.00  0.00    -0.474 OA 
HETATM   18  C   UNL     1     -11.950  16.205  72.093  1.00  0.00    -0.537 C  
ENDBRANCH  14  17
ENDBRANCH  10  11
ENDBRANCH   7   9
ENDBRANCH   6   7
ENDBRANCH   5   6
ENDBRANCH   4   5
ENDBRANCH   3   4
ENDBRANCH   2   3
TORSDOF 8
ENDMDL
MODEL      103
REMARK 921   NORMALIZED FREE ENERGY PREDICTED BY IDOCK:   -3.61 KCAL/MOL
REMARK 922        TOTAL FREE ENERGY PREDICTED BY IDOCK:   -5.95 KCAL/MOL
REMARK 923 INTER-LIGAND FREE ENERGY PREDICTED BY IDOCK:   -5.59 KCAL/MOL
REMARK 924 INTRA-LIGAND FREE ENERGY PREDICTED BY IDOCK:   -0.36 KCAL/MOL
REMARK 927      BINDING AFFINITY PREDICTED BY RF-SCORE:    0.00 PKD
ROOT
HETATM    1  C   UNL     1     -10.105  18.224  68.408  1.00  0.00    -0.412 C  
HETATM    2  C   UNL     1     -10.074  18.396  66.900  1.00  0.00    -0.367 C  
ENDROOT
BRANCH   2   3
HETATM    3  O   UNL     1     -10.523  17.182  66.309  1.00  0.00    -0.319 OA 
BRANCH   3   4
HETATM    4  C   UNL     1     -10.520  16.086  67.227  1.00  0.00    -0.308 C  
BRANCH   4   5
HETATM    5  C   UNL     1     -11.051  14.875  66.477  1.00  0.00    -0.341 C  
BRANCH   5   6
HETATM    6  O   UNL     1     -12.231  14.315  67.058  1.00  0.00    -0.424 OA 
BRANCH   6   7
HETATM    7  C   UNL     1     -12.027  13.669  68.233  1.00  0.00    -0.350 C  
HETATM    8  O   UNL     1     -12.229  14.107  69.352  1.00  0.00    -0.331 OA 
BRANCH   7   9
HETATM    9  C   UNL     1     -11.707  12.266  67.891  1.00  0.00    -0.410 C  
HETATM   10  C   UNL     1     -10.959  11.509  68.711  1.00  0.00    -0.271 C  
BRANCH  10  11
HETATM   11  C   UNL     1     -10.803  10.054  68.554  1.00  0.00    -0.270 A  
HETATM   12  C   UNL     1     -10.593   9.434  67.317  1.00  0.00    -0.314 A  
HETATM   13  C   UNL     1     -10.521   8.041  67.218  1.00  0.00    -0.384 A  
HETATM   14  C   UNL     1     -10.620   7.239  68.355  1.00  0.00    -0.170 A  
HETATM   15  C   UNL     1     -10.806   7.842  69.597  1.00  0.00    -0.177 A  
HETATM   16  C   UNL     1     -10.894   9.239  69.694  1.00  0.00    -0.228 A  
BRANCH  14  17
HETATM   17  O   UNL     1     -10.586   5.892  68.122  1.00  0.00    -0.214 OA 
HETATM   18  C   UNL     1     -10.529   5.494  66.757  1.00  0.00    -0.296 C  
ENDBRANCH  14  17
ENDBRANCH  10  11
ENDBRANCH   7   9
ENDBRANCH   6   7
ENDBRANCH   5   6
ENDBRANCH   4   5
ENDBRANCH   3   4
ENDBRANCH   2   3
TORSDOF 8
ENDMDL
MODEL      104
REMARK 921   NORMALIZED FREE ENERGY PREDICTED BY IDOCK:   -3.60 KCAL/MOL
REMARK 922        TOTAL FREE ENERGY PREDICTED BY IDOCK:   -5.94 KCAL/MOL
REMARK 923 INTER-LIGAND FREE ENERGY PREDICTED BY IDOCK:   -5.52 KCAL/MOL
REMARK 924 INTRA-LIGAND FREE ENERGY PREDICTED BY IDOCK:   -0.42 KCAL/MOL
REMARK 927      BINDING AFFINITY PREDICTED BY RF-SCORE:    0.00 PKD
ROOT
HETATM    1  C   UNL     1      -9.787   5.537  66.927  1.00  0.00    -0.181 C  
HETATM    2  C   UNL     1     -10.933   6.450  67.323  1.00  0.00    -0.392 C  
ENDROOT
BRANCH   2   3
HETATM    3  O   UNL     1     -10.722   7.714  66.706  1.00  0.00    -0.318 OA 
BRANCH   3   4
HETATM    4  C   UNL     1      -9.560   8.384  67.201  1.00  0.00    -0.179 C  
BRANCH   4   5
HETATM    5  C   UNL     1      -9.850   9.876  67.151  1.00  0.00    -0.186 C  
BRANCH   5   6
HETATM    6  O   UNL     1     -11.246  10.184  67.093  1.00  0.00    -0.179 OA 
BRANCH   6   7
HETATM    7  C   UNL     1     -11.668  11.057  68.042  1.00  0.00    -0.179 C  
HETATM    8  O   UNL     1     -12.336  10.797  69.028  1.00  0.00    -0.422 OA 
BRANCH   7   9
HETATM    9  C   UNL     1     -10.993  12.342  67.761  1.00  0.00    -0.274 C  
HETATM   10  C   UNL     1     -11.682  13.395  67.290  1.00  0.00    -0.424 C  
BRANCH  10  11
HETATM   11  C   UNL     1     -11.132  14.758  67.216  1.00  0.00    -0.334 A  
HETATM   12  C   UNL     1     -11.224  15.680  68.265  1.00  0.00    -0.353 A  
HETATM   13  C   UNL     1     -10.743  16.985  68.114  1.00  0.00    -0.374 A  
HETATM   14  C   UNL     1     -10.127  17.385  66.928  1.00  0.00    -0.314 A  
HETATM   15  C   UNL     1     -10.007  16.472  65.884  1.00  0.00    -0.342 A  
HETATM   16  C   UNL     1     -10.503  15.168  66.030  1.00  0.00    -0.330 A  
BRANCH  14  17
HETATM   17  O   UNL     1      -9.746  18.698  66.886  1.00  0.00    -0.291 OA 
HETATM   18  C   UNL     1     -10.378  19.564  67.821  1.00  0.00    -0.452 C  
ENDBRANCH  14  17
ENDBRANCH  10  11
ENDBRANCH   7   9
ENDBRANCH   6   7
ENDBRANCH   5   6
ENDBRANCH   4   5
ENDBRANCH   3   4
ENDBRANCH   2   3
TORSDOF 8
ENDMDL
MODEL      105
REMARK 921   NORMALIZED FREE ENERGY PREDICTED BY IDOCK:   -3.60 KCAL/MOL
REMARK 922        TOTAL FREE ENERGY PREDICTED BY IDOCK:   -5.94 KCAL/MOL
REMARK 923 INTER-LIGAND FREE ENERGY PREDICTED BY IDOCK:   -5.36 KCAL/MOL
REMARK 924 INTRA-LIGAND FREE ENERGY PREDICTED BY IDOCK:   -0.58 KCAL/MOL
REMARK 927      BINDING AFFINITY PREDICTED BY RF-SCORE:    0.00 PKD
ROOT
HETATM    1  C   UNL     1     -13.216  15.213  70.911  1.00  0.00    -0.488 C  
HETATM    2  C   UNL     1     -13.469  13.885  71.602  1.00  0.00    -0.352 C  
ENDROOT
BRANCH   2   3
HETATM    3  O   UNL     1     -12.350  13.041  71.359  1.00  0.00    -0.227 OA 
BRANCH   3   4
HETATM    4  C   UNL     1     -12.716  11.795  70.762  1.00  0.00    -0.167 C  
BRANCH   4   5
HETATM    5  C   UNL     1     -11.870  11.635  69.509  1.00  0.00    -0.348 C  
BRANCH   5   6
HETATM    6  O   UNL     1     -12.044  12.695  68.564  1.00  0.00    -0.263 OA 
BRANCH   6   7
HETATM    7  C   UNL     1     -11.163  12.677  67.532  1.00  0.00    -0.288 C  
HETATM    8  O   UNL     1     -10.715  11.692  66.972  1.00  0.00    -0.229 OA 
BRANCH   7   9
HETATM    9  C   UNL     1     -11.010  14.079  67.087  1.00  0.00    -0.303 C  
HETATM   10  C   UNL     1     -10.372  14.980  67.852  1.00  0.00    -0.241 C  
BRANCH  10  11
HETATM   11  C   UNL     1      -9.977  16.315  67.374  1.00  0.00    -0.249 A  
HETATM   12  C   UNL     1      -8.850  16.541  66.575  1.00  0.00    -0.317 A  
HETATM   13  C   UNL     1      -8.484  17.839  66.207  1.00  0.00    -0.225 A  
HETATM   14  C   UNL     1      -9.252  18.935  66.597  1.00  0.00    -0.330 A  
HETATM   15  C   UNL     1     -10.390  18.726  67.374  1.00  0.00    -0.472 A  
HETATM   16  C   UNL     1     -10.749  17.424  67.755  1.00  0.00    -0.332 A  
BRANCH  14  17
HETATM   17  O   UNL     1      -8.761  20.154  66.218  1.00  0.00    -0.303 OA 
HETATM   18  C   UNL     1      -7.898  20.798  67.146  1.00  0.00    -0.228 C  
ENDBRANCH  14  17
ENDBRANCH  10  11
ENDBRANCH   7   9
ENDBRANCH   6   7
ENDBRANCH   5   6
ENDBRANCH   4   5
ENDBRANCH   3   4
ENDBRANCH   2   3
TORSDOF 8
ENDMDL
MODEL      106
REMARK 921   NORMALIZED FREE ENERGY PREDICTED BY IDOCK:   -3.59 KCAL/MOL
REMARK 922        TOTAL FREE ENERGY PREDICTED BY IDOCK:   -5.92 KCAL/MOL
REMARK 923 INTER-LIGAND FREE ENERGY PREDICTED BY IDOCK:   -5.41 KCAL/MOL
REMARK 924 INTRA-LIGAND FREE ENERGY PREDICTED BY IDOCK:   -0.52 KCAL/MOL
REMARK 927      BINDING AFFINITY PREDICTED BY RF-SCORE:    0.00 PKD
ROOT
HETATM    1  C   UNL     1     -10.064  12.530  68.297  1.00  0.00    -0.228 C  
HETATM    2  C   UNL     1     -11.443  12.105  68.769  1.00  0.00    -0.307 C  
ENDROOT
BRANCH   2   3
HETATM    3  O   UNL     1     -12.040  13.211  69.435  1.00  0.00    -0.292 OA 
BRANCH   3   4
HETATM    4  C   UNL     1     -12.353  12.930  70.801  1.00  0.00    -0.299 C  
BRANCH   4   5
HETATM    5  C   UNL     1     -12.495  11.421  70.926  1.00  0.00    -0.379 C  
BRANCH   5   6
HETATM    6  O   UNL     1     -13.200  11.008  72.099  1.00  0.00    -0.481 OA 
BRANCH   6   7
HETATM    7  C   UNL     1     -13.442   9.675  72.170  1.00  0.00    -0.429 C  
HETATM    8  O   UNL     1     -14.405   9.134  72.682  1.00  0.00    -0.561 OA 
BRANCH   7   9
HETATM    9  C   UNL     1     -12.417   9.018  71.330  1.00  0.00    -0.378 C  
HETATM   10  C   UNL     1     -12.203   7.694  71.411  1.00  0.00    -0.351 C  
BRANCH  10  11
HETATM   11  C   UNL     1     -11.380   6.945  70.448  1.00  0.00    -0.376 A  
HETATM   12  C   UNL     1     -10.909   5.649  70.687  1.00  0.00    -0.304 A  
HETATM   13  C   UNL     1     -10.073   5.011  69.766  1.00  0.00    -0.337 A  
HETATM   14  C   UNL     1      -9.720   5.637  68.570  1.00  0.00    -0.136 A  
HETATM   15  C   UNL     1     -10.199   6.917  68.307  1.00  0.00    -0.201 A  
HETATM   16  C   UNL     1     -11.026   7.564  69.238  1.00  0.00    -0.057 A  
BRANCH  14  17
HETATM   17  O   UNL     1      -8.858   4.931  67.778  1.00  0.00    -0.103 OA 
HETATM   18  C   UNL     1      -9.423   4.320  66.625  1.00  0.00    -0.187 C  
ENDBRANCH  14  17
ENDBRANCH  10  11
ENDBRANCH   7   9
ENDBRANCH   6   7
ENDBRANCH   5   6
ENDBRANCH   4   5
ENDBRANCH   3   4
ENDBRANCH   2   3
TORSDOF 8
ENDMDL
MODEL      107
REMARK 921   NORMALIZED FREE ENERGY PREDICTED BY IDOCK:   -3.59 KCAL/MOL
REMARK 922        TOTAL FREE ENERGY PREDICTED BY IDOCK:   -5.92 KCAL/MOL
REMARK 923 INTER-LIGAND FREE ENERGY PREDICTED BY IDOCK:   -5.74 KCAL/MOL
REMARK 924 INTRA-LIGAND FREE ENERGY PREDICTED BY IDOCK:   -0.18 KCAL/MOL
REMARK 927      BINDING AFFINITY PREDICTED BY RF-SCORE:    0.00 PKD
ROOT
HETATM    1  C   UNL     1      -7.415  20.015  66.413  1.00  0.00    -0.313 C  
HETATM    2  C   UNL     1      -7.538  18.566  65.977  1.00  0.00    -0.197 C  
ENDROOT
BRANCH   2   3
HETATM    3  O   UNL     1      -8.569  17.960  66.747  1.00  0.00    -0.238 OA 
BRANCH   3   4
HETATM    4  C   UNL     1      -9.005  16.712  66.203  1.00  0.00    -0.286 C  
BRANCH   4   5
HETATM    5  C   UNL     1     -10.493  16.842  65.922  1.00  0.00    -0.285 C  
BRANCH   5   6
HETATM    6  O   UNL     1     -10.852  16.507  64.579  1.00  0.00    -0.802 OA 
BRANCH   6   7
HETATM    7  C   UNL     1     -11.595  15.377  64.462  1.00  0.00    -0.296 C  
HETATM    8  O   UNL     1     -12.743  15.297  64.064  1.00  0.00    -0.710 OA 
BRANCH   7   9
HETATM    9  C   UNL     1     -10.679  14.245  64.714  1.00  0.00    -0.435 C  
HETATM   10  C   UNL     1     -11.096  12.975  64.577  1.00  0.00    -0.378 C  
BRANCH  10  11
HETATM   11  C   UNL     1     -10.188  11.817  64.578  1.00  0.00    -0.327 A  
HETATM   12  C   UNL     1      -9.551  11.343  65.730  1.00  0.00    -0.260 A  
HETATM   13  C   UNL     1      -8.643  10.281  65.660  1.00  0.00    -0.170 A  
HETATM   14  C   UNL     1      -8.380   9.647  64.446  1.00  0.00    -0.168 A  
HETATM   15  C   UNL     1      -9.023  10.092  63.294  1.00  0.00    -0.262 A  
HETATM   16  C   UNL     1      -9.923  11.167  63.362  1.00  0.00    -0.430 A  
BRANCH  14  17
HETATM   17  O   UNL     1      -7.437   8.658  64.499  1.00  0.00    -0.099 OA 
HETATM   18  C   UNL     1      -6.853   8.280  63.259  1.00  0.00    -0.085 C  
ENDBRANCH  14  17
ENDBRANCH  10  11
ENDBRANCH   7   9
ENDBRANCH   6   7
ENDBRANCH   5   6
ENDBRANCH   4   5
ENDBRANCH   3   4
ENDBRANCH   2   3
TORSDOF 8
ENDMDL
MODEL      108
REMARK 921   NORMALIZED FREE ENERGY PREDICTED BY IDOCK:   -3.58 KCAL/MOL
REMARK 922        TOTAL FREE ENERGY PREDICTED BY IDOCK:   -5.91 KCAL/MOL
REMARK 923 INTER-LIGAND FREE ENERGY PREDICTED BY IDOCK:   -5.52 KCAL/MOL
REMARK 924 INTRA-LIGAND FREE ENERGY PREDICTED BY IDOCK:   -0.39 KCAL/MOL
REMARK 927      BINDING AFFINITY PREDICTED BY RF-SCORE:    0.00 PKD
ROOT
HETATM    1  C   UNL     1      -5.448  20.475  66.021  1.00  0.00    -0.214 C  
HETATM    2  C   UNL     1      -5.881  19.758  67.288  1.00  0.00    -0.176 C  
ENDROOT
BRANCH   2   3
HETATM    3  O   UNL     1      -7.148  20.275  67.675  1.00  0.00    -0.263 OA 
BRANCH   3   4
HETATM    4  C   UNL     1      -7.890  19.367  68.492  1.00  0.00    -0.354 C  
BRANCH   4   5
HETATM    5  C   UNL     1      -9.215  19.116  67.791  1.00  0.00    -0.298 C  
BRANCH   5   6
HETATM    6  O   UNL     1      -9.103  18.267  66.646  1.00  0.00    -0.274 OA 
BRANCH   6   7
HETATM    7  C   UNL     1     -10.290  17.851  66.137  1.00  0.00    -0.352 C  
HETATM    8  O   UNL     1     -10.873  18.315  65.173  1.00  0.00    -0.656 OA 
BRANCH   7   9
HETATM    9  C   UNL     1     -10.638  16.603  66.848  1.00  0.00    -0.229 C  
HETATM   10  C   UNL     1     -10.864  15.463  66.173  1.00  0.00    -0.313 C  
BRANCH  10  11
HETATM   11  C   UNL     1     -10.977  14.146  66.819  1.00  0.00    -0.300 A  
HETATM   12  C   UNL     1     -11.155  12.955  66.107  1.00  0.00    -0.314 A  
HETATM   13  C   UNL     1     -11.325  11.739  66.777  1.00  0.00    -0.385 A  
HETATM   14  C   UNL     1     -11.284  11.681  68.170  1.00  0.00    -0.263 A  
HETATM   15  C   UNL     1     -11.084  12.854  68.893  1.00  0.00    -0.301 A  
HETATM   16  C   UNL     1     -10.929  14.076  68.221  1.00  0.00    -0.272 A  
BRANCH  14  17
HETATM   17  O   UNL     1     -11.515  10.445  68.706  1.00  0.00    -0.241 OA 
HETATM   18  C   UNL     1     -11.315  10.323  70.109  1.00  0.00    -0.316 C  
ENDBRANCH  14  17
ENDBRANCH  10  11
ENDBRANCH   7   9
ENDBRANCH   6   7
ENDBRANCH   5   6
ENDBRANCH   4   5
ENDBRANCH   3   4
ENDBRANCH   2   3
TORSDOF 8
ENDMDL
MODEL      109
REMARK 921   NORMALIZED FREE ENERGY PREDICTED BY IDOCK:   -3.56 KCAL/MOL
REMARK 922        TOTAL FREE ENERGY PREDICTED BY IDOCK:   -5.88 KCAL/MOL
REMARK 923 INTER-LIGAND FREE ENERGY PREDICTED BY IDOCK:   -5.46 KCAL/MOL
REMARK 924 INTRA-LIGAND FREE ENERGY PREDICTED BY IDOCK:   -0.42 KCAL/MOL
REMARK 927      BINDING AFFINITY PREDICTED BY RF-SCORE:    0.00 PKD
ROOT
HETATM    1  C   UNL     1     -10.318  19.707  68.036  1.00  0.00    -0.579 C  
HETATM    2  C   UNL     1     -10.305  18.231  67.680  1.00  0.00    -0.396 C  
ENDROOT
BRANCH   2   3
HETATM    3  O   UNL     1      -9.659  17.530  68.736  1.00  0.00    -0.291 OA 
BRANCH   3   4
HETATM    4  C   UNL     1      -9.957  16.132  68.735  1.00  0.00    -0.231 C  
BRANCH   4   5
HETATM    5  C   UNL     1     -11.458  15.995  68.540  1.00  0.00    -0.357 C  
BRANCH   5   6
HETATM    6  O   UNL     1     -11.919  14.642  68.584  1.00  0.00    -0.315 OA 
BRANCH   6   7
HETATM    7  C   UNL     1     -11.913  14.008  67.385  1.00  0.00    -0.404 C  
HETATM    8  O   UNL     1     -12.104  14.511  66.292  1.00  0.00    -0.377 OA 
BRANCH   7   9
HETATM    9  C   UNL     1     -11.431  12.633  67.639  1.00  0.00    -0.390 C  
HETATM   10  C   UNL     1     -11.388  11.723  66.652  1.00  0.00    -0.381 C  
BRANCH  10  11
HETATM   11  C   UNL     1     -10.703  10.426  66.775  1.00  0.00    -0.235 A  
HETATM   12  C   UNL     1      -9.923   9.871  65.754  1.00  0.00    -0.347 A  
HETATM   13  C   UNL     1      -9.352   8.603  65.899  1.00  0.00    -0.262 A  
HETATM   14  C   UNL     1      -9.516   7.877  67.079  1.00  0.00    -0.174 A  
HETATM   15  C   UNL     1     -10.271   8.425  68.114  1.00  0.00    -0.253 A  
HETATM   16  C   UNL     1     -10.856   9.692  67.962  1.00  0.00    -0.250 A  
BRANCH  14  17
HETATM   17  O   UNL     1      -8.953   6.631  67.078  1.00  0.00    -0.114 OA 
HETATM   18  C   UNL     1      -7.803   6.464  66.258  1.00  0.00    -0.101 C  
ENDBRANCH  14  17
ENDBRANCH  10  11
ENDBRANCH   7   9
ENDBRANCH   6   7
ENDBRANCH   5   6
ENDBRANCH   4   5
ENDBRANCH   3   4
ENDBRANCH   2   3
TORSDOF 8
ENDMDL
MODEL      110
REMARK 921   NORMALIZED FREE ENERGY PREDICTED BY IDOCK:   -3.55 KCAL/MOL
REMARK 922        TOTAL FREE ENERGY PREDICTED BY IDOCK:   -5.86 KCAL/MOL
REMARK 923 INTER-LIGAND FREE ENERGY PREDICTED BY IDOCK:   -5.44 KCAL/MOL
REMARK 924 INTRA-LIGAND FREE ENERGY PREDICTED BY IDOCK:   -0.42 KCAL/MOL
REMARK 927      BINDING AFFINITY PREDICTED BY RF-SCORE:    0.00 PKD
ROOT
HETATM    1  C   UNL     1      -6.511  12.119  67.411  1.00  0.00    -0.149 C  
HETATM    2  C   UNL     1      -7.305  10.965  66.826  1.00  0.00    -0.134 C  
ENDROOT
BRANCH   2   3
HETATM    3  O   UNL     1      -8.571  11.465  66.415  1.00  0.00    -0.175 OA 
BRANCH   3   4
HETATM    4  C   UNL     1      -9.210  12.251  67.424  1.00  0.00    -0.182 C  
BRANCH   4   5
HETATM    5  C   UNL     1      -9.820  13.458  66.729  1.00  0.00    -0.265 C  
BRANCH   5   6
HETATM    6  O   UNL     1     -11.224  13.602  66.964  1.00  0.00    -0.298 OA 
BRANCH   6   7
HETATM    7  C   UNL     1     -11.551  14.611  67.809  1.00  0.00    -0.359 C  
HETATM    8  O   UNL     1     -12.269  14.537  68.791  1.00  0.00    -0.251 OA 
BRANCH   7   9
HETATM    9  C   UNL     1     -10.710  15.766  67.430  1.00  0.00    -0.317 C  
HETATM   10  C   UNL     1     -10.871  16.961  68.022  1.00  0.00    -0.338 C  
BRANCH  10  11
HETATM   11  C   UNL     1      -9.923  18.077  67.868  1.00  0.00    -0.335 A  
HETATM   12  C   UNL     1     -10.309  19.362  67.471  1.00  0.00    -0.556 A  
HETATM   13  C   UNL     1      -9.355  20.366  67.275  1.00  0.00    -0.547 A  
HETATM   14  C   UNL     1      -8.002  20.120  67.507  1.00  0.00    -0.317 A  
HETATM   15  C   UNL     1      -7.604  18.852  67.925  1.00  0.00    -0.283 A  
HETATM   16  C   UNL     1      -8.560  17.841  68.107  1.00  0.00    -0.262 A  
BRANCH  14  17
HETATM   17  O   UNL     1      -7.166  21.166  67.231  1.00  0.00    -0.441 OA 
HETATM   18  C   UNL     1      -6.288  20.992  66.125  1.00  0.00    -0.233 C  
ENDBRANCH  14  17
ENDBRANCH  10  11
ENDBRANCH   7   9
ENDBRANCH   6   7
ENDBRANCH   5   6
ENDBRANCH   4   5
ENDBRANCH   3   4
ENDBRANCH   2   3
TORSDOF 8
ENDMDL
MODEL      111
REMARK 921   NORMALIZED FREE ENERGY PREDICTED BY IDOCK:   -3.52 KCAL/MOL
REMARK 922        TOTAL FREE ENERGY PREDICTED BY IDOCK:   -5.82 KCAL/MOL
REMARK 923 INTER-LIGAND FREE ENERGY PREDICTED BY IDOCK:   -5.35 KCAL/MOL
REMARK 924 INTRA-LIGAND FREE ENERGY PREDICTED BY IDOCK:   -0.47 KCAL/MOL
REMARK 927      BINDING AFFINITY PREDICTED BY RF-SCORE:    0.00 PKD
ROOT
HETATM    1  C   UNL     1      -5.925   9.778  63.646  1.00  0.00    -0.111 C  
HETATM    2  C   UNL     1      -6.277  10.079  65.092  1.00  0.00    -0.109 C  
ENDROOT
BRANCH   2   3
HETATM    3  O   UNL     1      -6.827   8.899  65.665  1.00  0.00    -0.074 OA 
BRANCH   3   4
HETATM    4  C   UNL     1      -6.630   8.827  67.079  1.00  0.00    -0.062 C  
BRANCH   4   5
HETATM    5  C   UNL     1      -7.997   8.976  67.728  1.00  0.00    -0.101 C  
BRANCH   5   6
HETATM    6  O   UNL     1      -8.536  10.297  67.627  1.00  0.00    -0.118 OA 
BRANCH   6   7
HETATM    7  C   UNL     1      -9.750  10.363  67.025  1.00  0.00    -0.178 C  
HETATM    8  O   UNL     1     -10.138   9.689  66.087  1.00  0.00    -0.277 OA 
BRANCH   7   9
HETATM    9  C   UNL     1     -10.580  11.264  67.853  1.00  0.00    -0.231 C  
HETATM   10  C   UNL     1     -11.369  10.777  68.825  1.00  0.00    -0.352 C  
BRANCH  10  11
HETATM   11  C   UNL     1     -12.030  11.622  69.834  1.00  0.00    -0.414 A  
HETATM   12  C   UNL     1     -12.078  13.018  69.752  1.00  0.00    -0.325 A  
HETATM   13  C   UNL     1     -12.660  13.774  70.774  1.00  0.00    -0.410 A  
HETATM   14  C   UNL     1     -13.238  13.153  71.881  1.00  0.00    -0.431 A  
HETATM   15  C   UNL     1     -13.218  11.763  71.966  1.00  0.00    -0.460 A  
HETATM   16  C   UNL     1     -12.621  11.004  70.948  1.00  0.00    -0.488 A  
BRANCH  14  17
HETATM   17  O   UNL     1     -13.727  14.002  72.835  1.00  0.00    -0.677 OA 
HETATM   18  C   UNL     1     -13.660  15.390  72.532  1.00  0.00    -0.533 C  
ENDBRANCH  14  17
ENDBRANCH  10  11
ENDBRANCH   7   9
ENDBRANCH   6   7
ENDBRANCH   5   6
ENDBRANCH   4   5
ENDBRANCH   3   4
ENDBRANCH   2   3
TORSDOF 8
ENDMDL
MODEL      112
REMARK 921   NORMALIZED FREE ENERGY PREDICTED BY IDOCK:   -3.52 KCAL/MOL
REMARK 922        TOTAL FREE ENERGY PREDICTED BY IDOCK:   -5.81 KCAL/MOL
REMARK 923 INTER-LIGAND FREE ENERGY PREDICTED BY IDOCK:   -5.35 KCAL/MOL
REMARK 924 INTRA-LIGAND FREE ENERGY PREDICTED BY IDOCK:   -0.47 KCAL/MOL
REMARK 927      BINDING AFFINITY PREDICTED BY RF-SCORE:    0.00 PKD
ROOT
HETATM    1  C   UNL     1     -11.880  14.375  67.610  1.00  0.00    -0.412 C  
HETATM    2  C   UNL     1     -12.381  13.791  66.301  1.00  0.00    -0.433 C  
ENDROOT
BRANCH   2   3
HETATM    3  O   UNL     1     -11.250  13.384  65.540  1.00  0.00    -0.288 OA 
BRANCH   3   4
HETATM    4  C   UNL     1     -10.047  13.350  66.312  1.00  0.00    -0.299 C  
BRANCH   4   5
HETATM    5  C   UNL     1      -9.568  11.907  66.327  1.00  0.00    -0.229 C  
BRANCH   5   6
HETATM    6  O   UNL     1      -9.908  11.180  65.144  1.00  0.00    -0.230 OA 
BRANCH   6   7
HETATM    7  C   UNL     1      -9.691   9.843  65.224  1.00  0.00    -0.313 C  
HETATM    8  O   UNL     1      -9.053   9.159  64.443  1.00  0.00    -0.143 OA 
BRANCH   7   9
HETATM    9  C   UNL     1     -10.202   9.413  66.543  1.00  0.00    -0.308 C  
HETATM   10  C   UNL     1     -10.259   8.112  66.870  1.00  0.00    -0.387 C  
BRANCH  10  11
HETATM   11  C   UNL     1     -10.525   7.629  68.235  1.00  0.00    -0.219 A  
HETATM   12  C   UNL     1     -10.614   8.478  69.345  1.00  0.00    -0.203 A  
HETATM   13  C   UNL     1     -10.801   7.957  70.629  1.00  0.00    -0.238 A  
HETATM   14  C   UNL     1     -10.940   6.584  70.829  1.00  0.00    -0.276 A  
HETATM   15  C   UNL     1     -10.878   5.728  69.732  1.00  0.00    -0.419 A  
HETATM   16  C   UNL     1     -10.675   6.249  68.445  1.00  0.00    -0.356 A  
BRANCH  14  17
HETATM   17  O   UNL     1     -11.066   6.197  72.135  1.00  0.00    -0.247 OA 
HETATM   18  C   UNL     1     -10.662   7.148  73.112  1.00  0.00    -0.346 C  
ENDBRANCH  14  17
ENDBRANCH  10  11
ENDBRANCH   7   9
ENDBRANCH   6   7
ENDBRANCH   5   6
ENDBRANCH   4   5
ENDBRANCH   3   4
ENDBRANCH   2   3
TORSDOF 8
ENDMDL
MODEL      113
REMARK 921   NORMALIZED FREE ENERGY PREDICTED BY IDOCK:   -3.51 KCAL/MOL
REMARK 922        TOTAL FREE ENERGY PREDICTED BY IDOCK:   -5.81 KCAL/MOL
REMARK 923 INTER-LIGAND FREE ENERGY PREDICTED BY IDOCK:   -5.33 KCAL/MOL
REMARK 924 INTRA-LIGAND FREE ENERGY PREDICTED BY IDOCK:   -0.48 KCAL/MOL
REMARK 927      BINDING AFFINITY PREDICTED BY RF-SCORE:    0.00 PKD
ROOT
HETATM    1  C   UNL     1      -6.426  12.750  67.613  1.00  0.00    -0.152 C  
HETATM    2  C   UNL     1      -7.622  11.956  67.119  1.00  0.00    -0.154 C  
ENDROOT
BRANCH   2   3
HETATM    3  O   UNL     1      -8.594  12.876  66.637  1.00  0.00    -0.121 OA 
BRANCH   3   4
HETATM    4  C   UNL     1      -8.584  14.115  67.351  1.00  0.00    -0.210 C  
BRANCH   4   5
HETATM    5  C   UNL     1      -9.982  14.703  67.243  1.00  0.00    -0.235 C  
BRANCH   5   6
HETATM    6  O   UNL     1     -10.779  14.497  68.412  1.00  0.00    -0.233 OA 
BRANCH   6   7
HETATM    7  C   UNL     1     -11.695  13.502  68.300  1.00  0.00    -0.359 C  
HETATM    8  O   UNL     1     -12.531  13.375  67.423  1.00  0.00    -0.166 OA 
BRANCH   7   9
HETATM    9  C   UNL     1     -11.351  12.498  69.329  1.00  0.00    -0.307 C  
HETATM   10  C   UNL     1     -12.299  11.717  69.875  1.00  0.00    -0.200 C  
BRANCH  10  11
HETATM   11  C   UNL     1     -12.001  10.547  70.717  1.00  0.00    -0.472 A  
HETATM   12  C   UNL     1     -10.805   9.825  70.629  1.00  0.00    -0.396 A  
HETATM   13  C   UNL     1     -10.604   8.679  71.407  1.00  0.00    -0.334 A  
HETATM   14  C   UNL     1     -11.574   8.252  72.313  1.00  0.00    -0.383 A  
HETATM   15  C   UNL     1     -12.760   8.974  72.429  1.00  0.00    -0.433 A  
HETATM   16  C   UNL     1     -12.968  10.115  71.638  1.00  0.00    -0.561 A  
BRANCH  14  17
HETATM   17  O   UNL     1     -11.280   7.093  72.975  1.00  0.00    -0.294 OA 
HETATM   18  C   UNL     1     -10.228   7.164  73.928  1.00  0.00    -0.315 C  
ENDBRANCH  14  17
ENDBRANCH  10  11
ENDBRANCH   7   9
ENDBRANCH   6   7
ENDBRANCH   5   6
ENDBRANCH   4   5
ENDBRANCH   3   4
ENDBRANCH   2   3
TORSDOF 8
ENDMDL
MODEL      114
REMARK 921   NORMALIZED FREE ENERGY PREDICTED BY IDOCK:   -3.51 KCAL/MOL
REMARK 922        TOTAL FREE ENERGY PREDICTED BY IDOCK:   -5.80 KCAL/MOL
REMARK 923 INTER-LIGAND FREE ENERGY PREDICTED BY IDOCK:   -5.35 KCAL/MOL
REMARK 924 INTRA-LIGAND FREE ENERGY PREDICTED BY IDOCK:   -0.45 KCAL/MOL
REMARK 927      BINDING AFFINITY PREDICTED BY RF-SCORE:    0.00 PKD
ROOT
HETATM    1  C   UNL     1     -10.684  11.844  63.562  1.00  0.00    -0.504 C  
HETATM    2  C   UNL     1     -12.111  12.361  63.602  1.00  0.00    -0.556 C  
ENDROOT
BRANCH   2   3
HETATM    3  O   UNL     1     -12.078  13.712  64.048  1.00  0.00    -0.453 OA 
BRANCH   3   4
HETATM    4  C   UNL     1     -10.886  14.026  64.773  1.00  0.00    -0.419 C  
BRANCH   4   5
HETATM    5  C   UNL     1     -11.312  14.458  66.167  1.00  0.00    -0.350 C  
BRANCH   5   6
HETATM    6  O   UNL     1     -10.702  13.696  67.212  1.00  0.00    -0.275 OA 
BRANCH   6   7
HETATM    7  C   UNL     1     -11.554  13.308  68.194  1.00  0.00    -0.338 C  
HETATM    8  O   UNL     1     -12.407  13.992  68.732  1.00  0.00    -0.287 OA 
BRANCH   7   9
HETATM    9  C   UNL     1     -11.387  11.847  68.343  1.00  0.00    -0.331 C  
HETATM   10  C   UNL     1     -10.196  11.318  68.672  1.00  0.00    -0.214 C  
BRANCH  10  11
HETATM   11  C   UNL     1     -10.014   9.913  69.068  1.00  0.00    -0.193 A  
HETATM   12  C   UNL     1      -9.406   9.526  70.268  1.00  0.00    -0.305 A  
HETATM   13  C   UNL     1      -9.198   8.175  70.561  1.00  0.00    -0.157 A  
HETATM   14  C   UNL     1      -9.623   7.180  69.681  1.00  0.00    -0.154 A  
HETATM   15  C   UNL     1     -10.250   7.548  68.492  1.00  0.00    -0.216 A  
HETATM   16  C   UNL     1     -10.446   8.904  68.191  1.00  0.00    -0.254 A  
BRANCH  14  17
HETATM   17  O   UNL     1      -9.315   5.902  70.056  1.00  0.00    -0.145 OA 
HETATM   18  C   UNL     1     -10.062   4.867  69.429  1.00  0.00    -0.200 C  
ENDBRANCH  14  17
ENDBRANCH  10  11
ENDBRANCH   7   9
ENDBRANCH   6   7
ENDBRANCH   5   6
ENDBRANCH   4   5
ENDBRANCH   3   4
ENDBRANCH   2   3
TORSDOF 8
ENDMDL
MODEL      115
REMARK 921   NORMALIZED FREE ENERGY PREDICTED BY IDOCK:   -3.49 KCAL/MOL
REMARK 922        TOTAL FREE ENERGY PREDICTED BY IDOCK:   -5.77 KCAL/MOL
REMARK 923 INTER-LIGAND FREE ENERGY PREDICTED BY IDOCK:   -5.45 KCAL/MOL
REMARK 924 INTRA-LIGAND FREE ENERGY PREDICTED BY IDOCK:   -0.32 KCAL/MOL
REMARK 927      BINDING AFFINITY PREDICTED BY RF-SCORE:    0.00 PKD
ROOT
HETATM    1  C   UNL     1      -9.683   3.543  73.072  1.00  0.00    -0.174 C  
HETATM    2  C   UNL     1     -10.009   4.427  71.881  1.00  0.00    -0.189 C  
ENDROOT
BRANCH   2   3
HETATM    3  O   UNL     1     -10.354   5.717  72.372  1.00  0.00    -0.189 OA 
BRANCH   3   4
HETATM    4  C   UNL     1     -11.543   6.238  71.772  1.00  0.00    -0.304 C  
BRANCH   4   5
HETATM    5  C   UNL     1     -11.122   6.967  70.506  1.00  0.00    -0.288 C  
BRANCH   5   6
HETATM    6  O   UNL     1     -11.529   8.337  70.475  1.00  0.00    -0.257 OA 
BRANCH   6   7
HETATM    7  C   UNL     1     -10.569   9.217  70.856  1.00  0.00    -0.296 C  
HETATM    8  O   UNL     1      -9.887   9.162  71.863  1.00  0.00    -0.289 OA 
BRANCH   7   9
HETATM    9  C   UNL     1     -10.371  10.140  69.718  1.00  0.00    -0.297 C  
HETATM   10  C   UNL     1     -10.931   9.893  68.522  1.00  0.00    -0.226 C  
BRANCH  10  11
HETATM   11  C   UNL     1     -10.975  10.876  67.428  1.00  0.00    -0.353 A  
HETATM   12  C   UNL     1     -11.774  12.025  67.461  1.00  0.00    -0.351 A  
HETATM   13  C   UNL     1     -11.828  12.890  66.362  1.00  0.00    -0.478 A  
HETATM   14  C   UNL     1     -11.059  12.646  65.224  1.00  0.00    -0.295 A  
HETATM   15  C   UNL     1     -10.242  11.519  65.185  1.00  0.00    -0.322 A  
HETATM   16  C   UNL     1     -10.199  10.644  66.281  1.00  0.00    -0.304 A  
BRANCH  14  17
HETATM   17  O   UNL     1     -11.239  13.535  64.201  1.00  0.00    -0.379 OA 
HETATM   18  C   UNL     1     -12.179  14.577  64.433  1.00  0.00    -0.458 C  
ENDBRANCH  14  17
ENDBRANCH  10  11
ENDBRANCH   7   9
ENDBRANCH   6   7
ENDBRANCH   5   6
ENDBRANCH   4   5
ENDBRANCH   3   4
ENDBRANCH   2   3
TORSDOF 8
ENDMDL
MODEL      116
REMARK 921   NORMALIZED FREE ENERGY PREDICTED BY IDOCK:   -3.49 KCAL/MOL
REMARK 922        TOTAL FREE ENERGY PREDICTED BY IDOCK:   -5.77 KCAL/MOL
REMARK 923 INTER-LIGAND FREE ENERGY PREDICTED BY IDOCK:   -5.06 KCAL/MOL
REMARK 924 INTRA-LIGAND FREE ENERGY PREDICTED BY IDOCK:   -0.71 KCAL/MOL
REMARK 927      BINDING AFFINITY PREDICTED BY RF-SCORE:    0.00 PKD
ROOT
HETATM    1  C   UNL     1     -12.340  12.633  65.022  1.00  0.00    -0.561 C  
HETATM    2  C   UNL     1     -12.291  13.997  64.357  1.00  0.00    -0.367 C  
ENDROOT
BRANCH   2   3
HETATM    3  O   UNL     1     -10.979  14.522  64.526  1.00  0.00    -0.347 OA 
BRANCH   3   4
HETATM    4  C   UNL     1     -10.976  15.828  65.107  1.00  0.00    -0.382 C  
BRANCH   4   5
HETATM    5  C   UNL     1      -9.837  15.866  66.113  1.00  0.00    -0.317 C  
BRANCH   5   6
HETATM    6  O   UNL     1      -9.817  14.742  66.996  1.00  0.00    -0.232 OA 
BRANCH   6   7
HETATM    7  C   UNL     1      -8.579  14.254  67.257  1.00  0.00    -0.215 C  
HETATM    8  O   UNL     1      -7.522  14.850  67.149  1.00  0.00    -0.195 OA 
BRANCH   7   9
HETATM    9  C   UNL     1      -8.773  12.931  67.889  1.00  0.00    -0.186 C  
HETATM   10  C   UNL     1     -10.006  12.435  68.087  1.00  0.00    -0.215 C  
BRANCH  10  11
HETATM   11  C   UNL     1     -10.266  11.042  68.484  1.00  0.00    -0.203 A  
HETATM   12  C   UNL     1     -10.787  10.686  69.733  1.00  0.00    -0.317 A  
HETATM   13  C   UNL     1     -10.949   9.341  70.083  1.00  0.00    -0.278 A  
HETATM   14  C   UNL     1     -10.630   8.326  69.181  1.00  0.00    -0.165 A  
HETATM   15  C   UNL     1     -10.132   8.665  67.925  1.00  0.00    -0.254 A  
HETATM   16  C   UNL     1      -9.956  10.014  67.580  1.00  0.00    -0.232 A  
BRANCH  14  17
HETATM   17  O   UNL     1     -10.784   7.054  69.659  1.00  0.00    -0.226 OA 
HETATM   18  C   UNL     1     -11.845   6.858  70.587  1.00  0.00    -0.368 C  
ENDBRANCH  14  17
ENDBRANCH  10  11
ENDBRANCH   7   9
ENDBRANCH   6   7
ENDBRANCH   5   6
ENDBRANCH   4   5
ENDBRANCH   3   4
ENDBRANCH   2   3
TORSDOF 8
ENDMDL
MODEL      117
REMARK 921   NORMALIZED FREE ENERGY PREDICTED BY IDOCK:   -3.47 KCAL/MOL
REMARK 922        TOTAL FREE ENERGY PREDICTED BY IDOCK:   -5.75 KCAL/MOL
REMARK 923 INTER-LIGAND FREE ENERGY PREDICTED BY IDOCK:   -5.47 KCAL/MOL
REMARK 924 INTRA-LIGAND FREE ENERGY PREDICTED BY IDOCK:   -0.28 KCAL/MOL
REMARK 927      BINDING AFFINITY PREDICTED BY RF-SCORE:    0.00 PKD
ROOT
HETATM    1  C   UNL     1      -5.382  20.491  66.076  1.00  0.00    -0.211 C  
HETATM    2  C   UNL     1      -5.677  19.407  67.097  1.00  0.00    -0.174 C  
ENDROOT
BRANCH   2   3
HETATM    3  O   UNL     1      -6.436  19.988  68.150  1.00  0.00    -0.245 OA 
BRANCH   3   4
HETATM    4  C   UNL     1      -7.128  19.015  68.937  1.00  0.00    -0.328 C  
BRANCH   4   5
HETATM    5  C   UNL     1      -8.611  19.181  68.648  1.00  0.00    -0.361 C  
BRANCH   5   6
HETATM    6  O   UNL     1      -8.902  19.398  67.264  1.00  0.00    -0.285 OA 
BRANCH   6   7
HETATM    7  C   UNL     1     -10.126  18.961  66.873  1.00  0.00    -0.364 C  
HETATM    8  O   UNL     1     -11.165  19.597  66.881  1.00  0.00    -0.299 OA 
BRANCH   7   9
HETATM    9  C   UNL     1      -9.918  17.638  66.246  1.00  0.00    -0.324 C  
HETATM   10  C   UNL     1     -10.176  16.506  66.921  1.00  0.00    -0.296 C  
BRANCH  10  11
HETATM   11  C   UNL     1     -10.222  15.177  66.290  1.00  0.00    -0.300 A  
HETATM   12  C   UNL     1     -10.749  14.953  65.013  1.00  0.00    -0.451 A  
HETATM   13  C   UNL     1     -10.830  13.658  64.491  1.00  0.00    -0.416 A  
HETATM   14  C   UNL     1     -10.354  12.565  65.215  1.00  0.00    -0.287 A  
HETATM   15  C   UNL     1      -9.805  12.775  66.478  1.00  0.00    -0.258 A  
HETATM   16  C   UNL     1      -9.738  14.072  67.008  1.00  0.00    -0.256 A  
BRANCH  14  17
HETATM   17  O   UNL     1     -10.536  11.349  64.618  1.00  0.00    -0.290 OA 
HETATM   18  C   UNL     1      -9.819  10.259  65.184  1.00  0.00    -0.321 C  
ENDBRANCH  14  17
ENDBRANCH  10  11
ENDBRANCH   7   9
ENDBRANCH   6   7
ENDBRANCH   5   6
ENDBRANCH   4   5
ENDBRANCH   3   4
ENDBRANCH   2   3
TORSDOF 8
ENDMDL
MODEL      118
REMARK 921   NORMALIZED FREE ENERGY PREDICTED BY IDOCK:   -3.46 KCAL/MOL
REMARK 922        TOTAL FREE ENERGY PREDICTED BY IDOCK:   -5.73 KCAL/MOL
REMARK 923 INTER-LIGAND FREE ENERGY PREDICTED BY IDOCK:   -5.26 KCAL/MOL
REMARK 924 INTRA-LIGAND FREE ENERGY PREDICTED BY IDOCK:   -0.47 KCAL/MOL
REMARK 927      BINDING AFFINITY PREDICTED BY RF-SCORE:    0.00 PKD
ROOT
HETATM    1  C   UNL     1      -6.351   9.059  63.233  1.00  0.00    -0.090 C  
HETATM    2  C   UNL     1      -7.859   9.174  63.368  1.00  0.00    -0.132 C  
ENDROOT
BRANCH   2   3
HETATM    3  O   UNL     1      -8.203  10.553  63.315  1.00  0.00    -0.159 OA 
BRANCH   3   4
HETATM    4  C   UNL     1      -9.357  10.805  62.510  1.00  0.00    -0.278 C  
BRANCH   4   5
HETATM    5  C   UNL     1     -10.140  11.917  63.189  1.00  0.00    -0.306 C  
BRANCH   5   6
HETATM    6  O   UNL     1     -11.190  11.441  64.035  1.00  0.00    -0.368 OA 
BRANCH   6   7
HETATM    7  C   UNL     1     -10.956  11.596  65.362  1.00  0.00    -0.270 C  
HETATM    8  O   UNL     1     -10.493  10.765  66.124  1.00  0.00    -0.249 OA 
BRANCH   7   9
HETATM    9  C   UNL     1     -11.179  13.026  65.664  1.00  0.00    -0.310 C  
HETATM   10  C   UNL     1     -10.578  13.612  66.714  1.00  0.00    -0.273 C  
BRANCH  10  11
HETATM   11  C   UNL     1     -10.563  15.067  66.931  1.00  0.00    -0.297 A  
HETATM   12  C   UNL     1     -10.789  15.658  68.179  1.00  0.00    -0.301 A  
HETATM   13  C   UNL     1     -10.831  17.050  68.314  1.00  0.00    -0.341 A  
HETATM   14  C   UNL     1     -10.612  17.880  67.215  1.00  0.00    -0.332 A  
HETATM   15  C   UNL     1     -10.363  17.307  65.970  1.00  0.00    -0.312 A  
HETATM   16  C   UNL     1     -10.336  15.911  65.832  1.00  0.00    -0.383 A  
BRANCH  14  17
HETATM   17  O   UNL     1     -10.730  19.219  67.466  1.00  0.00    -0.463 OA 
HETATM   18  C   UNL     1      -9.576  20.009  67.208  1.00  0.00    -0.397 C  
ENDBRANCH  14  17
ENDBRANCH  10  11
ENDBRANCH   7   9
ENDBRANCH   6   7
ENDBRANCH   5   6
ENDBRANCH   4   5
ENDBRANCH   3   4
ENDBRANCH   2   3
TORSDOF 8
ENDMDL
MODEL      119
REMARK 921   NORMALIZED FREE ENERGY PREDICTED BY IDOCK:   -3.45 KCAL/MOL
REMARK 922        TOTAL FREE ENERGY PREDICTED BY IDOCK:   -5.72 KCAL/MOL
REMARK 923 INTER-LIGAND FREE ENERGY PREDICTED BY IDOCK:   -5.19 KCAL/MOL
REMARK 924 INTRA-LIGAND FREE ENERGY PREDICTED BY IDOCK:   -0.53 KCAL/MOL
REMARK 927      BINDING AFFINITY PREDICTED BY RF-SCORE:    0.00 PKD
ROOT
HETATM    1  C   UNL     1      -7.440   8.056  71.035  1.00  0.00    -0.071 C  
HETATM    2  C   UNL     1      -8.045   8.280  72.410  1.00  0.00    -0.147 C  
ENDROOT
BRANCH   2   3
HETATM    3  O   UNL     1      -8.897   7.179  72.701  1.00  0.00    -0.122 OA 
BRANCH   3   4
HETATM    4  C   UNL     1      -9.943   7.516  73.615  1.00  0.00    -0.291 C  
BRANCH   4   5
HETATM    5  C   UNL     1     -11.254   7.408  72.853  1.00  0.00    -0.319 C  
BRANCH   5   6
HETATM    6  O   UNL     1     -11.530   8.544  72.028  1.00  0.00    -0.312 OA 
BRANCH   6   7
HETATM    7  C   UNL     1     -11.161   8.399  70.731  1.00  0.00    -0.258 C  
HETATM    8  O   UNL     1     -11.027   7.351  70.123  1.00  0.00    -0.253 OA 
BRANCH   7   9
HETATM    9  C   UNL     1     -11.150   9.755  70.143  1.00  0.00    -0.335 C  
HETATM   10  C   UNL     1     -11.002   9.933  68.819  1.00  0.00    -0.217 C  
BRANCH  10  11
HETATM   11  C   UNL     1     -11.220  11.223  68.145  1.00  0.00    -0.351 A  
HETATM   12  C   UNL     1     -11.166  11.380  66.755  1.00  0.00    -0.319 A  
HETATM   13  C   UNL     1     -11.313  12.643  66.172  1.00  0.00    -0.375 A  
HETATM   14  C   UNL     1     -11.554  13.769  66.960  1.00  0.00    -0.365 A  
HETATM   15  C   UNL     1     -11.634  13.625  68.343  1.00  0.00    -0.377 A  
HETATM   16  C   UNL     1     -11.472  12.360  68.929  1.00  0.00    -0.355 A  
BRANCH  14  17
HETATM   17  O   UNL     1     -11.628  14.951  66.277  1.00  0.00    -0.328 OA 
HETATM   18  C   UNL     1     -11.648  14.855  64.858  1.00  0.00    -0.395 C  
ENDBRANCH  14  17
ENDBRANCH  10  11
ENDBRANCH   7   9
ENDBRANCH   6   7
ENDBRANCH   5   6
ENDBRANCH   4   5
ENDBRANCH   3   4
ENDBRANCH   2   3
TORSDOF 8
ENDMDL
MODEL      120
REMARK 921   NORMALIZED FREE ENERGY PREDICTED BY IDOCK:   -3.45 KCAL/MOL
REMARK 922        TOTAL FREE ENERGY PREDICTED BY IDOCK:   -5.71 KCAL/MOL
REMARK 923 INTER-LIGAND FREE ENERGY PREDICTED BY IDOCK:   -5.18 KCAL/MOL
REMARK 924 INTRA-LIGAND FREE ENERGY PREDICTED BY IDOCK:   -0.53 KCAL/MOL
REMARK 927      BINDING AFFINITY PREDICTED BY RF-SCORE:    0.00 PKD
ROOT
HETATM    1  C   UNL     1      -8.367  10.693  65.757  1.00  0.00    -0.162 C  
HETATM    2  C   UNL     1      -9.368  11.637  66.401  1.00  0.00    -0.213 C  
ENDROOT
BRANCH   2   3
HETATM    3  O   UNL     1      -9.933  12.445  65.377  1.00  0.00    -0.267 OA 
BRANCH   3   4
HETATM    4  C   UNL     1     -11.268  12.060  65.041  1.00  0.00    -0.320 C  
BRANCH   4   5
HETATM    5  C   UNL     1     -12.203  13.041  65.730  1.00  0.00    -0.453 C  
BRANCH   5   6
HETATM    6  O   UNL     1     -11.555  14.242  66.158  1.00  0.00    -0.349 OA 
BRANCH   6   7
HETATM    7  C   UNL     1     -11.551  14.429  67.502  1.00  0.00    -0.373 C  
HETATM    8  O   UNL     1     -12.271  13.881  68.318  1.00  0.00    -0.332 OA 
BRANCH   7   9
HETATM    9  C   UNL     1     -10.373  15.270  67.805  1.00  0.00    -0.244 C  
HETATM   10  C   UNL     1      -9.700  15.894  66.824  1.00  0.00    -0.252 C  
BRANCH  10  11
HETATM   11  C   UNL     1      -8.679  16.926  67.070  1.00  0.00    -0.230 A  
HETATM   12  C   UNL     1      -7.593  17.149  66.216  1.00  0.00    -0.352 A  
HETATM   13  C   UNL     1      -6.616  18.097  66.535  1.00  0.00    -0.239 A  
HETATM   14  C   UNL     1      -6.720  18.867  67.693  1.00  0.00    -0.208 A  
HETATM   15  C   UNL     1      -7.807  18.673  68.542  1.00  0.00    -0.355 A  
HETATM   16  C   UNL     1      -8.780  17.711  68.230  1.00  0.00    -0.276 A  
BRANCH  14  17
HETATM   17  O   UNL     1      -5.676  19.721  67.919  1.00  0.00    -0.195 OA 
HETATM   18  C   UNL     1      -5.871  20.695  68.937  1.00  0.00    -0.357 C  
ENDBRANCH  14  17
ENDBRANCH  10  11
ENDBRANCH   7   9
ENDBRANCH   6   7
ENDBRANCH   5   6
ENDBRANCH   4   5
ENDBRANCH   3   4
ENDBRANCH   2   3
TORSDOF 8
ENDMDL
MODEL      121
REMARK 921   NORMALIZED FREE ENERGY PREDICTED BY IDOCK:   -3.44 KCAL/MOL
REMARK 922        TOTAL FREE ENERGY PREDICTED BY IDOCK:   -5.70 KCAL/MOL
REMARK 923 INTER-LIGAND FREE ENERGY PREDICTED BY IDOCK:   -5.39 KCAL/MOL
REMARK 924 INTRA-LIGAND FREE ENERGY PREDICTED BY IDOCK:   -0.31 KCAL/MOL
REMARK 927      BINDING AFFINITY PREDICTED BY RF-SCORE:    0.00 PKD
ROOT
HETATM    1  C   UNL     1      -9.294  16.455  66.004  1.00  0.00    -0.335 C  
HETATM    2  C   UNL     1     -10.062  15.170  65.752  1.00  0.00    -0.346 C  
ENDROOT
BRANCH   2   3
HETATM    3  O   UNL     1     -10.296  14.544  67.008  1.00  0.00    -0.260 OA 
BRANCH   3   4
HETATM    4  C   UNL     1     -11.673  14.571  67.391  1.00  0.00    -0.400 C  
BRANCH   4   5
HETATM    5  C   UNL     1     -11.715  14.869  68.881  1.00  0.00    -0.315 C  
BRANCH   5   6
HETATM    6  O   UNL     1     -12.706  14.117  69.586  1.00  0.00    -0.169 OA 
BRANCH   6   7
HETATM    7  C   UNL     1     -12.328  13.712  70.825  1.00  0.00    -0.371 C  
HETATM    8  O   UNL     1     -12.250  14.403  71.826  1.00  0.00    -0.339 OA 
BRANCH   7   9
HETATM    9  C   UNL     1     -12.227  12.238  70.773  1.00  0.00    -0.354 C  
HETATM   10  C   UNL     1     -11.562  11.627  69.778  1.00  0.00    -0.389 C  
BRANCH  10  11
HETATM   11  C   UNL     1     -11.219  10.196  69.791  1.00  0.00    -0.325 A  
HETATM   12  C   UNL     1     -10.685   9.525  68.685  1.00  0.00    -0.218 A  
HETATM   13  C   UNL     1     -10.443   8.148  68.732  1.00  0.00    -0.198 A  
HETATM   14  C   UNL     1     -10.693   7.419  69.895  1.00  0.00    -0.243 A  
HETATM   15  C   UNL     1     -11.203   8.077  71.012  1.00  0.00    -0.287 A  
HETATM   16  C   UNL     1     -11.460   9.455  70.960  1.00  0.00    -0.403 A  
BRANCH  14  17
HETATM   17  O   UNL     1     -10.463   6.075  69.798  1.00  0.00    -0.206 OA 
HETATM   18  C   UNL     1     -10.382   5.363  71.027  1.00  0.00    -0.236 C  
ENDBRANCH  14  17
ENDBRANCH  10  11
ENDBRANCH   7   9
ENDBRANCH   6   7
ENDBRANCH   5   6
ENDBRANCH   4   5
ENDBRANCH   3   4
ENDBRANCH   2   3
TORSDOF 8
ENDMDL
MODEL      122
REMARK 921   NORMALIZED FREE ENERGY PREDICTED BY IDOCK:   -3.41 KCAL/MOL
REMARK 922        TOTAL FREE ENERGY PREDICTED BY IDOCK:   -5.65 KCAL/MOL
REMARK 923 INTER-LIGAND FREE ENERGY PREDICTED BY IDOCK:   -5.28 KCAL/MOL
REMARK 924 INTRA-LIGAND FREE ENERGY PREDICTED BY IDOCK:   -0.37 KCAL/MOL
REMARK 927      BINDING AFFINITY PREDICTED BY RF-SCORE:    0.00 PKD
ROOT
HETATM    1  C   UNL     1      -8.466  17.937  66.839  1.00  0.00    -0.260 C  
HETATM    2  C   UNL     1      -9.724  17.136  66.557  1.00  0.00    -0.287 C  
ENDROOT
BRANCH   2   3
HETATM    3  O   UNL     1      -9.892  16.194  67.609  1.00  0.00    -0.232 OA 
BRANCH   3   4
HETATM    4  C   UNL     1     -11.253  16.073  68.031  1.00  0.00    -0.303 C  
BRANCH   4   5
HETATM    5  C   UNL     1     -11.666  14.629  67.792  1.00  0.00    -0.359 C  
BRANCH   5   6
HETATM    6  O   UNL     1     -11.185  14.095  66.556  1.00  0.00    -0.315 OA 
BRANCH   6   7
HETATM    7  C   UNL     1     -12.100  13.370  65.864  1.00  0.00    -0.439 C  
HETATM    8  O   UNL     1     -13.109  13.791  65.326  1.00  0.00    -0.756 OA 
BRANCH   7   9
HETATM    9  C   UNL     1     -11.535  12.012  65.716  1.00  0.00    -0.377 C  
HETATM   10  C   UNL     1     -10.411  11.806  65.008  1.00  0.00    -0.325 C  
BRANCH  10  11
HETATM   11  C   UNL     1      -9.668  10.535  65.018  1.00  0.00    -0.351 A  
HETATM   12  C   UNL     1      -8.767  10.166  64.013  1.00  0.00    -0.224 A  
HETATM   13  C   UNL     1      -8.140   8.916  64.039  1.00  0.00    -0.161 A  
HETATM   14  C   UNL     1      -8.371   8.024  65.086  1.00  0.00    -0.130 A  
HETATM   15  C   UNL     1      -9.247   8.386  66.106  1.00  0.00    -0.263 A  
HETATM   16  C   UNL     1      -9.887   9.634  66.072  1.00  0.00    -0.345 A  
BRANCH  14  17
HETATM   17  O   UNL     1      -7.739   6.816  64.970  1.00  0.00    -0.093 OA 
HETATM   18  C   UNL     1      -8.578   5.688  64.754  1.00  0.00    -0.061 C  
ENDBRANCH  14  17
ENDBRANCH  10  11
ENDBRANCH   7   9
ENDBRANCH   6   7
ENDBRANCH   5   6
ENDBRANCH   4   5
ENDBRANCH   3   4
ENDBRANCH   2   3
TORSDOF 8
ENDMDL
MODEL      123
REMARK 921   NORMALIZED FREE ENERGY PREDICTED BY IDOCK:   -3.40 KCAL/MOL
REMARK 922        TOTAL FREE ENERGY PREDICTED BY IDOCK:   -5.65 KCAL/MOL
REMARK 923 INTER-LIGAND FREE ENERGY PREDICTED BY IDOCK:   -5.43 KCAL/MOL
REMARK 924 INTRA-LIGAND FREE ENERGY PREDICTED BY IDOCK:   -0.21 KCAL/MOL
REMARK 927      BINDING AFFINITY PREDICTED BY RF-SCORE:    0.00 PKD
ROOT
HETATM    1  C   UNL     1      -5.213  11.269  66.546  1.00  0.00    -0.127 C  
HETATM    2  C   UNL     1      -6.694  11.184  66.867  1.00  0.00    -0.128 C  
ENDROOT
BRANCH   2   3
HETATM    3  O   UNL     1      -7.218  10.027  66.226  1.00  0.00    -0.098 OA 
BRANCH   3   4
HETATM    4  C   UNL     1      -8.340   9.471  66.917  1.00  0.00    -0.116 C  
BRANCH   4   5
HETATM    5  C   UNL     1      -9.587   9.902  66.163  1.00  0.00    -0.218 C  
BRANCH   5   6
HETATM    6  O   UNL     1      -9.368  11.008  65.282  1.00  0.00    -0.205 OA 
BRANCH   6   7
HETATM    7  C   UNL     1     -10.494  11.676  64.928  1.00  0.00    -0.288 C  
HETATM    8  O   UNL     1     -11.297  11.350  64.071  1.00  0.00    -0.353 OA 
BRANCH   7   9
HETATM    9  C   UNL     1     -10.667  12.762  65.916  1.00  0.00    -0.294 C  
HETATM   10  C   UNL     1     -11.673  12.731  66.807  1.00  0.00    -0.459 C  
BRANCH  10  11
HETATM   11  C   UNL     1     -11.764  13.642  67.959  1.00  0.00    -0.387 A  
HETATM   12  C   UNL     1     -11.589  15.027  67.858  1.00  0.00    -0.350 A  
HETATM   13  C   UNL     1     -11.619  15.837  68.998  1.00  0.00    -0.406 A  
HETATM   14  C   UNL     1     -11.860  15.287  70.257  1.00  0.00    -0.318 A  
HETATM   15  C   UNL     1     -12.059  13.914  70.371  1.00  0.00    -0.421 A  
HETATM   16  C   UNL     1     -12.014  13.099  69.230  1.00  0.00    -0.344 A  
BRANCH  14  17
HETATM   17  O   UNL     1     -11.813  16.174  71.296  1.00  0.00    -0.436 OA 
HETATM   18  C   UNL     1     -11.891  15.615  72.601  1.00  0.00    -0.485 C  
ENDBRANCH  14  17
ENDBRANCH  10  11
ENDBRANCH   7   9
ENDBRANCH   6   7
ENDBRANCH   5   6
ENDBRANCH   4   5
ENDBRANCH   3   4
ENDBRANCH   2   3
TORSDOF 8
ENDMDL
MODEL      124
REMARK 921   NORMALIZED FREE ENERGY PREDICTED BY IDOCK:   -3.40 KCAL/MOL
REMARK 922        TOTAL FREE ENERGY PREDICTED BY IDOCK:   -5.64 KCAL/MOL
REMARK 923 INTER-LIGAND FREE ENERGY PREDICTED BY IDOCK:   -4.81 KCAL/MOL
REMARK 924 INTRA-LIGAND FREE ENERGY PREDICTED BY IDOCK:   -0.83 KCAL/MOL
REMARK 927      BINDING AFFINITY PREDICTED BY RF-SCORE:    0.00 PKD
ROOT
HETATM    1  C   UNL     1     -10.472  18.058  66.169  1.00  0.00    -0.336 C  
HETATM    2  C   UNL     1     -10.523  18.749  67.520  1.00  0.00    -0.435 C  
ENDROOT
BRANCH   2   3
HETATM    3  O   UNL     1      -9.455  19.687  67.576  1.00  0.00    -0.308 OA 
BRANCH   3   4
HETATM    4  C   UNL     1      -8.697  19.589  68.784  1.00  0.00    -0.300 C  
BRANCH   4   5
HETATM    5  C   UNL     1      -7.232  19.733  68.403  1.00  0.00    -0.317 C  
BRANCH   5   6
HETATM    6  O   UNL     1      -6.737  18.646  67.617  1.00  0.00    -0.201 OA 
BRANCH   6   7
HETATM    7  C   UNL     1      -6.261  17.601  68.340  1.00  0.00    -0.177 C  
HETATM    8  O   UNL     1      -5.379  17.636  69.180  1.00  0.00    -0.170 OA 
BRANCH   7   9
HETATM    9  C   UNL     1      -7.153  16.456  68.060  1.00  0.00    -0.146 C  
HETATM   10  C   UNL     1      -7.936  15.939  69.022  1.00  0.00    -0.222 C  
BRANCH  10  11
HETATM   11  C   UNL     1      -9.011  14.969  68.760  1.00  0.00    -0.196 A  
HETATM   12  C   UNL     1     -10.330  15.151  69.190  1.00  0.00    -0.249 A  
HETATM   13  C   UNL     1     -11.296  14.163  68.972  1.00  0.00    -0.310 A  
HETATM   14  C   UNL     1     -10.975  12.991  68.289  1.00  0.00    -0.260 A  
HETATM   15  C   UNL     1      -9.672  12.805  67.834  1.00  0.00    -0.217 A  
HETATM   16  C   UNL     1      -8.700  13.789  68.066  1.00  0.00    -0.181 A  
BRANCH  14  17
HETATM   17  O   UNL     1     -11.992  12.082  68.185  1.00  0.00    -0.465 OA 
HETATM   18  C   UNL     1     -11.955  10.992  69.098  1.00  0.00    -0.324 C  
ENDBRANCH  14  17
ENDBRANCH  10  11
ENDBRANCH   7   9
ENDBRANCH   6   7
ENDBRANCH   5   6
ENDBRANCH   4   5
ENDBRANCH   3   4
ENDBRANCH   2   3
TORSDOF 8
ENDMDL
MODEL      125
REMARK 921   NORMALIZED FREE ENERGY PREDICTED BY IDOCK:   -3.38 KCAL/MOL
REMARK 922        TOTAL FREE ENERGY PREDICTED BY IDOCK:   -5.61 KCAL/MOL
REMARK 923 INTER-LIGAND FREE ENERGY PREDICTED BY IDOCK:   -5.07 KCAL/MOL
REMARK 924 INTRA-LIGAND FREE ENERGY PREDICTED BY IDOCK:   -0.54 KCAL/MOL
REMARK 927      BINDING AFFINITY PREDICTED BY RF-SCORE:    0.00 PKD
ROOT
HETATM    1  C   UNL     1     -12.243  14.453  64.555  1.00  0.00    -0.483 C  
HETATM    2  C   UNL     1     -11.024  15.257  64.969  1.00  0.00    -0.437 C  
ENDROOT
BRANCH   2   3
HETATM    3  O   UNL     1     -10.887  15.155  66.381  1.00  0.00    -0.319 OA 
BRANCH   3   4
HETATM    4  C   UNL     1      -9.745  14.389  66.773  1.00  0.00    -0.270 C  
BRANCH   4   5
HETATM    5  C   UNL     1     -10.217  13.381  67.807  1.00  0.00    -0.235 C  
BRANCH   5   6
HETATM    6  O   UNL     1     -11.381  12.652  67.405  1.00  0.00    -0.276 OA 
BRANCH   6   7
HETATM    7  C   UNL     1     -11.119  11.509  66.723  1.00  0.00    -0.302 C  
HETATM    8  O   UNL     1     -10.690  11.419  65.586  1.00  0.00    -0.264 OA 
BRANCH   7   9
HETATM    9  C   UNL     1     -11.262  10.401  67.691  1.00  0.00    -0.287 C  
HETATM   10  C   UNL     1     -10.541   9.274  67.562  1.00  0.00    -0.329 C  
BRANCH  10  11
HETATM   11  C   UNL     1     -10.455   8.242  68.607  1.00  0.00    -0.199 A  
HETATM   12  C   UNL     1     -10.408   6.871  68.330  1.00  0.00    -0.220 A  
HETATM   13  C   UNL     1     -10.395   5.932  69.366  1.00  0.00    -0.313 A  
HETATM   14  C   UNL     1     -10.392   6.341  70.699  1.00  0.00    -0.203 A  
HETATM   15  C   UNL     1     -10.415   7.702  70.992  1.00  0.00    -0.218 A  
HETATM   16  C   UNL     1     -10.443   8.644  69.953  1.00  0.00    -0.221 A  
BRANCH  14  17
HETATM   17  O   UNL     1     -10.430   5.328  71.617  1.00  0.00    -0.217 OA 
HETATM   18  C   UNL     1     -11.002   5.648  72.880  1.00  0.00    -0.282 C  
ENDBRANCH  14  17
ENDBRANCH  10  11
ENDBRANCH   7   9
ENDBRANCH   6   7
ENDBRANCH   5   6
ENDBRANCH   4   5
ENDBRANCH   3   4
ENDBRANCH   2   3
TORSDOF 8
ENDMDL
MODEL      126
REMARK 921   NORMALIZED FREE ENERGY PREDICTED BY IDOCK:   -3.31 KCAL/MOL
REMARK 922        TOTAL FREE ENERGY PREDICTED BY IDOCK:   -5.51 KCAL/MOL
REMARK 923 INTER-LIGAND FREE ENERGY PREDICTED BY IDOCK:   -5.14 KCAL/MOL
REMARK 924 INTRA-LIGAND FREE ENERGY PREDICTED BY IDOCK:   -0.37 KCAL/MOL
REMARK 927      BINDING AFFINITY PREDICTED BY RF-SCORE:    0.00 PKD
ROOT
HETATM    1  C   UNL     1      -9.904   3.958  62.776  1.00  0.00    -0.146 C  
HETATM    2  C   UNL     1      -9.992   4.064  64.288  1.00  0.00    -0.173 C  
ENDROOT
BRANCH   2   3
HETATM    3  O   UNL     1      -8.710   3.763  64.826  1.00  0.00    -0.110 OA 
BRANCH   3   4
HETATM    4  C   UNL     1      -8.753   3.461  66.222  1.00  0.00    -0.126 C  
BRANCH   4   5
HETATM    5  C   UNL     1      -9.822   4.350  66.838  1.00  0.00    -0.207 C  
BRANCH   5   6
HETATM    6  O   UNL     1      -9.360   5.102  67.963  1.00  0.00    -0.113 OA 
BRANCH   6   7
HETATM    7  C   UNL     1     -10.027   4.853  69.118  1.00  0.00    -0.182 C  
HETATM    8  O   UNL     1      -9.895   3.882  69.843  1.00  0.00    -0.199 OA 
BRANCH   7   9
HETATM    9  C   UNL     1     -10.795   6.076  69.432  1.00  0.00    -0.433 C  
HETATM   10  C   UNL     1     -11.237   6.314  70.678  1.00  0.00    -0.401 C  
BRANCH  10  11
HETATM   11  C   UNL     1     -11.791   7.607  71.110  1.00  0.00    -0.314 A  
HETATM   12  C   UNL     1     -12.997   7.730  71.810  1.00  0.00    -0.351 A  
HETATM   13  C   UNL     1     -13.510   8.989  72.135  1.00  0.00    -0.514 A  
HETATM   14  C   UNL     1     -12.814  10.151  71.801  1.00  0.00    -0.452 A  
HETATM   15  C   UNL     1     -11.602  10.045  71.124  1.00  0.00    -0.460 A  
HETATM   16  C   UNL     1     -11.094   8.782  70.785  1.00  0.00    -0.306 A  
BRANCH  14  17
HETATM   17  O   UNL     1     -13.445  11.320  72.127  1.00  0.00    -0.390 OA 
HETATM   18  C   UNL     1     -12.813  12.516  71.688  1.00  0.00    -0.263 C  
ENDBRANCH  14  17
ENDBRANCH  10  11
ENDBRANCH   7   9
ENDBRANCH   6   7
ENDBRANCH   5   6
ENDBRANCH   4   5
ENDBRANCH   3   4
ENDBRANCH   2   3
TORSDOF 8
ENDMDL
MODEL      127
REMARK 921   NORMALIZED FREE ENERGY PREDICTED BY IDOCK:   -3.30 KCAL/MOL
REMARK 922        TOTAL FREE ENERGY PREDICTED BY IDOCK:   -5.49 KCAL/MOL
REMARK 923 INTER-LIGAND FREE ENERGY PREDICTED BY IDOCK:   -5.13 KCAL/MOL
REMARK 924 INTRA-LIGAND FREE ENERGY PREDICTED BY IDOCK:   -0.36 KCAL/MOL
REMARK 927      BINDING AFFINITY PREDICTED BY RF-SCORE:    0.00 PKD
ROOT
HETATM    1  C   UNL     1     -12.841   9.224  72.286  1.00  0.00    -0.459 C  
HETATM    2  C   UNL     1     -12.149   9.536  70.971  1.00  0.00    -0.318 C  
ENDROOT
BRANCH   2   3
HETATM    3  O   UNL     1     -10.778   9.177  71.098  1.00  0.00    -0.256 OA 
BRANCH   3   4
HETATM    4  C   UNL     1      -9.958   9.756  70.081  1.00  0.00    -0.263 C  
BRANCH   4   5
HETATM    5  C   UNL     1     -10.185   8.949  68.812  1.00  0.00    -0.206 C  
BRANCH   5   6
HETATM    6  O   UNL     1     -11.012   9.615  67.853  1.00  0.00    -0.243 OA 
BRANCH   6   7
HETATM    7  C   UNL     1     -10.330  10.349  66.938  1.00  0.00    -0.240 C  
HETATM    8  O   UNL     1      -9.688   9.924  65.994  1.00  0.00    -0.209 OA 
BRANCH   7   9
HETATM    9  C   UNL     1     -10.685  11.762  67.185  1.00  0.00    -0.283 C  
HETATM   10  C   UNL     1      -9.740  12.668  67.488  1.00  0.00    -0.196 C  
BRANCH  10  11
HETATM   11  C   UNL     1      -9.984  14.119  67.510  1.00  0.00    -0.236 A  
HETATM   12  C   UNL     1     -10.347  14.819  68.667  1.00  0.00    -0.245 A  
HETATM   13  C   UNL     1     -10.634  16.186  68.615  1.00  0.00    -0.283 A  
HETATM   14  C   UNL     1     -10.530  16.892  67.417  1.00  0.00    -0.310 A  
HETATM   15  C   UNL     1     -10.148  16.215  66.261  1.00  0.00    -0.337 A  
HETATM   16  C   UNL     1      -9.874  14.840  66.310  1.00  0.00    -0.316 A  
BRANCH  14  17
HETATM   17  O   UNL     1     -10.886  18.211  67.486  1.00  0.00    -0.389 OA 
HETATM   18  C   UNL     1      -9.931  19.145  66.999  1.00  0.00    -0.347 C  
ENDBRANCH  14  17
ENDBRANCH  10  11
ENDBRANCH   7   9
ENDBRANCH   6   7
ENDBRANCH   5   6
ENDBRANCH   4   5
ENDBRANCH   3   4
ENDBRANCH   2   3
TORSDOF 8
ENDMDL
MODEL      128
REMARK 921   NORMALIZED FREE ENERGY PREDICTED BY IDOCK:   -3.29 KCAL/MOL
REMARK 922        TOTAL FREE ENERGY PREDICTED BY IDOCK:   -5.49 KCAL/MOL
REMARK 923 INTER-LIGAND FREE ENERGY PREDICTED BY IDOCK:   -4.92 KCAL/MOL
REMARK 924 INTRA-LIGAND FREE ENERGY PREDICTED BY IDOCK:   -0.57 KCAL/MOL
REMARK 927      BINDING AFFINITY PREDICTED BY RF-SCORE:    0.00 PKD
ROOT
HETATM    1  C   UNL     1     -10.378  14.730  68.561  1.00  0.00    -0.237 C  
HETATM    2  C   UNL     1     -11.834  14.660  68.986  1.00  0.00    -0.310 C  
ENDROOT
BRANCH   2   3
HETATM    3  O   UNL     1     -11.967  15.360  70.217  1.00  0.00    -0.304 OA 
BRANCH   3   4
HETATM    4  C   UNL     1     -12.108  14.485  71.339  1.00  0.00    -0.354 C  
BRANCH   4   5
HETATM    5  C   UNL     1     -12.850  13.251  70.852  1.00  0.00    -0.181 C  
BRANCH   5   6
HETATM    6  O   UNL     1     -13.166  12.326  71.896  1.00  0.00    -0.473 OA 
BRANCH   6   7
HETATM    7  C   UNL     1     -12.846  11.036  71.619  1.00  0.00    -0.435 C  
HETATM    8  O   UNL     1     -13.361  10.039  72.092  1.00  0.00    -0.444 OA 
BRANCH   7   9
HETATM    9  C   UNL     1     -11.896  11.073  70.487  1.00  0.00    -0.464 C  
HETATM   10  C   UNL     1     -11.269   9.958  70.076  1.00  0.00    -0.327 C  
BRANCH  10  11
HETATM   11  C   UNL     1     -10.504   9.874  68.821  1.00  0.00    -0.234 A  
HETATM   12  C   UNL     1     -10.878   9.055  67.749  1.00  0.00    -0.125 A  
HETATM   13  C   UNL     1     -10.077   8.962  66.607  1.00  0.00    -0.357 A  
HETATM   14  C   UNL     1      -8.905   9.711  66.495  1.00  0.00    -0.142 A  
HETATM   15  C   UNL     1      -8.531  10.548  67.543  1.00  0.00    -0.118 A  
HETATM   16  C   UNL     1      -9.328  10.630  68.695  1.00  0.00    -0.177 A  
BRANCH  14  17
HETATM   17  O   UNL     1      -8.184   9.493  65.354  1.00  0.00    -0.119 OA 
HETATM   18  C   UNL     1      -7.825   8.143  65.086  1.00  0.00    -0.118 C  
ENDBRANCH  14  17
ENDBRANCH  10  11
ENDBRANCH   7   9
ENDBRANCH   6   7
ENDBRANCH   5   6
ENDBRANCH   4   5
ENDBRANCH   3   4
ENDBRANCH   2   3
TORSDOF 8
ENDMDL
MODEL      129
REMARK 921   NORMALIZED FREE ENERGY PREDICTED BY IDOCK:   -3.29 KCAL/MOL
REMARK 922        TOTAL FREE ENERGY PREDICTED BY IDOCK:   -5.49 KCAL/MOL
REMARK 923 INTER-LIGAND FREE ENERGY PREDICTED BY IDOCK:   -5.02 KCAL/MOL
REMARK 924 INTRA-LIGAND FREE ENERGY PREDICTED BY IDOCK:   -0.47 KCAL/MOL
REMARK 927      BINDING AFFINITY PREDICTED BY RF-SCORE:    0.00 PKD
ROOT
HETATM    1  C   UNL     1     -10.025  12.528  68.325  1.00  0.00    -0.229 C  
HETATM    2  C   UNL     1     -11.419  12.045  68.683  1.00  0.00    -0.297 C  
ENDROOT
BRANCH   2   3
HETATM    3  O   UNL     1     -12.123  13.132  69.272  1.00  0.00    -0.289 OA 
BRANCH   3   4
HETATM    4  C   UNL     1     -12.337  12.958  70.674  1.00  0.00    -0.302 C  
BRANCH   4   5
HETATM    5  C   UNL     1     -12.426  11.462  70.930  1.00  0.00    -0.379 C  
BRANCH   5   6
HETATM    6  O   UNL     1     -13.279  11.120  72.025  1.00  0.00    -0.493 OA 
BRANCH   6   7
HETATM    7  C   UNL     1     -13.390   9.787  72.255  1.00  0.00    -0.379 C  
HETATM    8  O   UNL     1     -14.410   9.173  72.515  1.00  0.00    -0.529 OA 
BRANCH   7   9
HETATM    9  C   UNL     1     -12.075   9.195  71.931  1.00  0.00    -0.448 C  
HETATM   10  C   UNL     1     -11.712   8.003  72.434  1.00  0.00    -0.444 C  
BRANCH  10  11
HETATM   11  C   UNL     1     -10.535   7.251  71.970  1.00  0.00    -0.228 A  
HETATM   12  C   UNL     1     -10.610   6.203  71.045  1.00  0.00    -0.301 A  
HETATM   13  C   UNL     1      -9.468   5.478  70.691  1.00  0.00    -0.209 A  
HETATM   14  C   UNL     1      -8.222   5.805  71.224  1.00  0.00    -0.122 A  
HETATM   15  C   UNL     1      -8.126   6.861  72.128  1.00  0.00    -0.098 A  
HETATM   16  C   UNL     1      -9.274   7.579  72.494  1.00  0.00    -0.192 A  
BRANCH  14  17
HETATM   17  O   UNL     1      -7.193   4.990  70.840  1.00  0.00    -0.056 OA 
HETATM   18  C   UNL     1      -5.887   5.546  70.926  1.00  0.00    -0.024 C  
ENDBRANCH  14  17
ENDBRANCH  10  11
ENDBRANCH   7   9
ENDBRANCH   6   7
ENDBRANCH   5   6
ENDBRANCH   4   5
ENDBRANCH   3   4
ENDBRANCH   2   3
TORSDOF 8
ENDMDL
MODEL      130
REMARK 921   NORMALIZED FREE ENERGY PREDICTED BY IDOCK:   -3.20 KCAL/MOL
REMARK 922        TOTAL FREE ENERGY PREDICTED BY IDOCK:   -5.35 KCAL/MOL
REMARK 923 INTER-LIGAND FREE ENERGY PREDICTED BY IDOCK:   -4.97 KCAL/MOL
REMARK 924 INTRA-LIGAND FREE ENERGY PREDICTED BY IDOCK:   -0.38 KCAL/MOL
REMARK 927      BINDING AFFINITY PREDICTED BY RF-SCORE:    0.00 PKD
ROOT
HETATM    1  C   UNL     1      -8.942  16.936  68.234  1.00  0.00    -0.235 C  
HETATM    2  C   UNL     1     -10.329  17.100  68.827  1.00  0.00    -0.353 C  
ENDROOT
BRANCH   2   3
HETATM    3  O   UNL     1     -11.271  16.587  67.893  1.00  0.00    -0.280 OA 
BRANCH   3   4
HETATM    4  C   UNL     1     -10.804  15.412  67.224  1.00  0.00    -0.316 C  
BRANCH   4   5
HETATM    5  C   UNL     1     -11.993  14.474  67.090  1.00  0.00    -0.345 C  
BRANCH   5   6
HETATM    6  O   UNL     1     -12.355  14.202  65.734  1.00  0.00    -0.438 OA 
BRANCH   6   7
HETATM    7  C   UNL     1     -11.693  13.158  65.174  1.00  0.00    -0.336 C  
HETATM    8  O   UNL     1     -11.181  13.127  64.069  1.00  0.00    -0.382 OA 
BRANCH   7   9
HETATM    9  C   UNL     1     -11.534  12.143  66.237  1.00  0.00    -0.433 C  
HETATM   10  C   UNL     1     -10.772  11.053  66.043  1.00  0.00    -0.242 C  
BRANCH  10  11
HETATM   11  C   UNL     1     -10.380  10.134  67.123  1.00  0.00    -0.295 A  
HETATM   12  C   UNL     1      -9.302   9.248  67.023  1.00  0.00    -0.183 A  
HETATM   13  C   UNL     1      -9.017   8.348  68.055  1.00  0.00    -0.138 A  
HETATM   14  C   UNL     1      -9.779   8.340  69.224  1.00  0.00    -0.177 A  
HETATM   15  C   UNL     1     -10.841   9.232  69.349  1.00  0.00    -0.184 A  
HETATM   16  C   UNL     1     -11.136  10.124  68.307  1.00  0.00    -0.285 A  
BRANCH  14  17
HETATM   17  O   UNL     1      -9.433   7.381  70.135  1.00  0.00    -0.165 OA 
HETATM   18  C   UNL     1      -9.960   7.543  71.446  1.00  0.00    -0.185 C  
ENDBRANCH  14  17
ENDBRANCH  10  11
ENDBRANCH   7   9
ENDBRANCH   6   7
ENDBRANCH   5   6
ENDBRANCH   4   5
ENDBRANCH   3   4
ENDBRANCH   2   3
TORSDOF 8
ENDMDL
MODEL      131
REMARK 921   NORMALIZED FREE ENERGY PREDICTED BY IDOCK:   -3.20 KCAL/MOL
REMARK 922        TOTAL FREE ENERGY PREDICTED BY IDOCK:   -5.34 KCAL/MOL
REMARK 923 INTER-LIGAND FREE ENERGY PREDICTED BY IDOCK:   -5.00 KCAL/MOL
REMARK 924 INTRA-LIGAND FREE ENERGY PREDICTED BY IDOCK:   -0.34 KCAL/MOL
REMARK 927      BINDING AFFINITY PREDICTED BY RF-SCORE:    0.00 PKD
ROOT
HETATM    1  C   UNL     1      -9.150   4.398  72.801  1.00  0.00    -0.135 C  
HETATM    2  C   UNL     1      -9.136   5.709  72.036  1.00  0.00    -0.137 C  
ENDROOT
BRANCH   2   3
HETATM    3  O   UNL     1     -10.464   6.220  72.015  1.00  0.00    -0.201 OA 
BRANCH   3   4
HETATM    4  C   UNL     1     -11.225   5.736  70.905  1.00  0.00    -0.130 C  
BRANCH   4   5
HETATM    5  C   UNL     1     -11.064   6.746  69.780  1.00  0.00    -0.316 C  
BRANCH   5   6
HETATM    6  O   UNL     1     -10.005   6.426  68.873  1.00  0.00    -0.140 OA 
BRANCH   6   7
HETATM    7  C   UNL     1     -10.365   6.435  67.565  1.00  0.00    -0.196 C  
HETATM    8  O   UNL     1     -10.560   5.465  66.855  1.00  0.00    -0.264 OA 
BRANCH   7   9
HETATM    9  C   UNL     1     -10.671   7.841  67.223  1.00  0.00    -0.326 C  
HETATM   10  C   UNL     1      -9.799   8.587  66.525  1.00  0.00    -0.342 C  
BRANCH  10  11
HETATM   11  C   UNL     1     -10.134   9.899  65.949  1.00  0.00    -0.316 A  
HETATM   12  C   UNL     1      -9.861  10.246  64.621  1.00  0.00    -0.396 A  
HETATM   13  C   UNL     1     -10.139  11.532  64.146  1.00  0.00    -0.354 A  
HETATM   14  C   UNL     1     -10.728  12.487  64.975  1.00  0.00    -0.294 A  
HETATM   15  C   UNL     1     -11.027  12.150  66.293  1.00  0.00    -0.332 A  
HETATM   16  C   UNL     1     -10.734  10.864  66.773  1.00  0.00    -0.309 A  
BRANCH  14  17
HETATM   17  O   UNL     1     -10.901  13.719  64.409  1.00  0.00    -0.395 OA 
HETATM   18  C   UNL     1     -10.512  14.834  65.203  1.00  0.00    -0.418 C  
ENDBRANCH  14  17
ENDBRANCH  10  11
ENDBRANCH   7   9
ENDBRANCH   6   7
ENDBRANCH   5   6
ENDBRANCH   4   5
ENDBRANCH   3   4
ENDBRANCH   2   3
TORSDOF 8
ENDMDL
MODEL      132
REMARK 921   NORMALIZED FREE ENERGY PREDICTED BY IDOCK:   -3.18 KCAL/MOL
REMARK 922        TOTAL FREE ENERGY PREDICTED BY IDOCK:   -5.32 KCAL/MOL
REMARK 923 INTER-LIGAND FREE ENERGY PREDICTED BY IDOCK:   -4.76 KCAL/MOL
REMARK 924 INTRA-LIGAND FREE ENERGY PREDICTED BY IDOCK:   -0.56 KCAL/MOL
REMARK 927      BINDING AFFINITY PREDICTED BY RF-SCORE:    0.00 PKD
ROOT
HETATM    1  C   UNL     1      -8.107   9.200  62.998  1.00  0.00    -0.162 C  
HETATM    2  C   UNL     1      -9.235   9.723  63.868  1.00  0.00    -0.198 C  
ENDROOT
BRANCH   2   3
HETATM    3  O   UNL     1      -9.367  11.119  63.625  1.00  0.00    -0.223 OA 
BRANCH   3   4
HETATM    4  C   UNL     1     -10.730  11.535  63.513  1.00  0.00    -0.414 C  
BRANCH   4   5
HETATM    5  C   UNL     1     -10.955  12.612  64.562  1.00  0.00    -0.332 C  
BRANCH   5   6
HETATM    6  O   UNL     1     -11.480  12.109  65.794  1.00  0.00    -0.347 OA 
BRANCH   6   7
HETATM    7  C   UNL     1     -10.617  12.174  66.839  1.00  0.00    -0.229 C  
HETATM    8  O   UNL     1      -9.912  13.119  67.146  1.00  0.00    -0.230 OA 
BRANCH   7   9
HETATM    9  C   UNL     1     -10.847  10.959  67.649  1.00  0.00    -0.317 C  
HETATM   10  C   UNL     1     -10.486   9.747  67.194  1.00  0.00    -0.316 C  
BRANCH  10  11
HETATM   11  C   UNL     1     -10.464   8.539  68.034  1.00  0.00    -0.249 A  
HETATM   12  C   UNL     1     -10.580   7.243  67.516  1.00  0.00    -0.344 A  
HETATM   13  C   UNL     1     -10.623   6.135  68.368  1.00  0.00    -0.324 A  
HETATM   14  C   UNL     1     -10.514   6.292  69.749  1.00  0.00    -0.232 A  
HETATM   15  C   UNL     1     -10.374   7.572  70.278  1.00  0.00    -0.215 A  
HETATM   16  C   UNL     1     -10.347   8.686  69.425  1.00  0.00    -0.221 A  
BRANCH  14  17
HETATM   17  O   UNL     1     -10.621   5.138  70.475  1.00  0.00    -0.242 OA 
HETATM   18  C   UNL     1      -9.554   4.862  71.375  1.00  0.00    -0.166 C  
ENDBRANCH  14  17
ENDBRANCH  10  11
ENDBRANCH   7   9
ENDBRANCH   6   7
ENDBRANCH   5   6
ENDBRANCH   4   5
ENDBRANCH   3   4
ENDBRANCH   2   3
TORSDOF 8
ENDMDL
MODEL      133
REMARK 921   NORMALIZED FREE ENERGY PREDICTED BY IDOCK:   -3.18 KCAL/MOL
REMARK 922        TOTAL FREE ENERGY PREDICTED BY IDOCK:   -5.32 KCAL/MOL
REMARK 923 INTER-LIGAND FREE ENERGY PREDICTED BY IDOCK:   -4.96 KCAL/MOL
REMARK 924 INTRA-LIGAND FREE ENERGY PREDICTED BY IDOCK:   -0.36 KCAL/MOL
REMARK 927      BINDING AFFINITY PREDICTED BY RF-SCORE:    0.00 PKD
ROOT
HETATM    1  C   UNL     1      -8.382   6.308  64.994  1.00  0.00    -0.099 C  
HETATM    2  C   UNL     1      -8.877   6.844  66.326  1.00  0.00    -0.148 C  
ENDROOT
BRANCH   2   3
HETATM    3  O   UNL     1      -8.490   8.209  66.422  1.00  0.00    -0.119 OA 
BRANCH   3   4
HETATM    4  C   UNL     1      -9.481   9.103  65.912  1.00  0.00    -0.259 C  
BRANCH   4   5
HETATM    5  C   UNL     1     -10.265   9.628  67.104  1.00  0.00    -0.243 C  
BRANCH   5   6
HETATM    6  O   UNL     1     -10.694  10.984  66.952  1.00  0.00    -0.253 OA 
BRANCH   6   7
HETATM    7  C   UNL     1     -11.437  11.457  67.985  1.00  0.00    -0.307 C  
HETATM    8  O   UNL     1     -12.148  10.807  68.730  1.00  0.00    -0.451 OA 
BRANCH   7   9
HETATM    9  C   UNL     1     -11.059  12.876  68.159  1.00  0.00    -0.282 C  
HETATM   10  C   UNL     1     -10.465  13.559  67.165  1.00  0.00    -0.256 C  
BRANCH  10  11
HETATM   11  C   UNL     1     -10.282  15.019  67.182  1.00  0.00    -0.249 A  
HETATM   12  C   UNL     1      -9.468  15.700  66.270  1.00  0.00    -0.351 A  
HETATM   13  C   UNL     1      -9.276  17.082  66.375  1.00  0.00    -0.298 A  
HETATM   14  C   UNL     1      -9.920  17.817  67.370  1.00  0.00    -0.323 A  
HETATM   15  C   UNL     1     -10.752  17.158  68.271  1.00  0.00    -0.363 A  
HETATM   16  C   UNL     1     -10.933  15.770  68.174  1.00  0.00    -0.330 A  
BRANCH  14  17
HETATM   17  O   UNL     1      -9.611  19.149  67.399  1.00  0.00    -0.302 OA 
HETATM   18  C   UNL     1      -9.538  19.747  68.687  1.00  0.00    -0.322 C  
ENDBRANCH  14  17
ENDBRANCH  10  11
ENDBRANCH   7   9
ENDBRANCH   6   7
ENDBRANCH   5   6
ENDBRANCH   4   5
ENDBRANCH   3   4
ENDBRANCH   2   3
TORSDOF 8
ENDMDL
MODEL      134
REMARK 921   NORMALIZED FREE ENERGY PREDICTED BY IDOCK:   -3.18 KCAL/MOL
REMARK 922        TOTAL FREE ENERGY PREDICTED BY IDOCK:   -5.32 KCAL/MOL
REMARK 923 INTER-LIGAND FREE ENERGY PREDICTED BY IDOCK:   -4.91 KCAL/MOL
REMARK 924 INTRA-LIGAND FREE ENERGY PREDICTED BY IDOCK:   -0.41 KCAL/MOL
REMARK 927      BINDING AFFINITY PREDICTED BY RF-SCORE:    0.00 PKD
ROOT
HETATM    1  C   UNL     1      -6.394  10.089  63.389  1.00  0.00    -0.136 C  
HETATM    2  C   UNL     1      -7.516   9.552  64.260  1.00  0.00    -0.119 C  
ENDROOT
BRANCH   2   3
HETATM    3  O   UNL     1      -8.551  10.527  64.294  1.00  0.00    -0.179 OA 
BRANCH   3   4
HETATM    4  C   UNL     1      -9.766  10.024  64.855  1.00  0.00    -0.307 C  
BRANCH   4   5
HETATM    5  C   UNL     1      -9.718  10.305  66.349  1.00  0.00    -0.201 C  
BRANCH   5   6
HETATM    6  O   UNL     1     -10.729   9.619  67.092  1.00  0.00    -0.250 OA 
BRANCH   6   7
HETATM    7  C   UNL     1     -11.101  10.239  68.240  1.00  0.00    -0.254 C  
HETATM    8  O   UNL     1     -11.145   9.748  69.354  1.00  0.00    -0.227 OA 
BRANCH   7   9
HETATM    9  C   UNL     1     -11.245  11.674  67.914  1.00  0.00    -0.334 C  
HETATM   10  C   UNL     1     -11.316  12.599  68.886  1.00  0.00    -0.345 C  
BRANCH  10  11
HETATM   11  C   UNL     1     -11.219  14.046  68.637  1.00  0.00    -0.294 A  
HETATM   12  C   UNL     1     -10.966  14.592  67.373  1.00  0.00    -0.306 A  
HETATM   13  C   UNL     1     -10.816  15.973  67.207  1.00  0.00    -0.255 A  
HETATM   14  C   UNL     1     -10.951  16.840  68.291  1.00  0.00    -0.327 A  
HETATM   15  C   UNL     1     -11.225  16.314  69.551  1.00  0.00    -0.308 A  
HETATM   16  C   UNL     1     -11.361  14.928  69.720  1.00  0.00    -0.314 A  
BRANCH  14  17
HETATM   17  O   UNL     1     -10.731  18.160  68.010  1.00  0.00    -0.374 OA 
HETATM   18  C   UNL     1      -9.926  18.874  68.940  1.00  0.00    -0.378 C  
ENDBRANCH  14  17
ENDBRANCH  10  11
ENDBRANCH   7   9
ENDBRANCH   6   7
ENDBRANCH   5   6
ENDBRANCH   4   5
ENDBRANCH   3   4
ENDBRANCH   2   3
TORSDOF 8
ENDMDL
MODEL      135
REMARK 921   NORMALIZED FREE ENERGY PREDICTED BY IDOCK:   -3.18 KCAL/MOL
REMARK 922        TOTAL FREE ENERGY PREDICTED BY IDOCK:   -5.32 KCAL/MOL
REMARK 923 INTER-LIGAND FREE ENERGY PREDICTED BY IDOCK:   -4.98 KCAL/MOL
REMARK 924 INTRA-LIGAND FREE ENERGY PREDICTED BY IDOCK:   -0.34 KCAL/MOL
REMARK 927      BINDING AFFINITY PREDICTED BY RF-SCORE:    0.00 PKD
ROOT
HETATM    1  C   UNL     1      -5.257   9.517  62.672  1.00  0.00    -0.082 C  
HETATM    2  C   UNL     1      -6.020   8.899  63.829  1.00  0.00    -0.072 C  
ENDROOT
BRANCH   2   3
HETATM    3  O   UNL     1      -6.652   9.949  64.551  1.00  0.00    -0.111 OA 
BRANCH   3   4
HETATM    4  C   UNL     1      -8.034  10.096  64.218  1.00  0.00    -0.155 C  
BRANCH   4   5
HETATM    5  C   UNL     1      -8.786   8.987  64.936  1.00  0.00    -0.148 C  
BRANCH   5   6
HETATM    6  O   UNL     1      -9.976   9.435  65.592  1.00  0.00    -0.304 OA 
BRANCH   6   7
HETATM    7  C   UNL     1     -10.035   9.135  66.914  1.00  0.00    -0.238 C  
HETATM    8  O   UNL     1      -9.421   8.255  67.491  1.00  0.00    -0.144 OA 
BRANCH   7   9
HETATM    9  C   UNL     1     -10.828  10.207  67.552  1.00  0.00    -0.349 C  
HETATM   10  C   UNL     1     -11.010  10.232  68.883  1.00  0.00    -0.279 C  
BRANCH  10  11
HETATM   11  C   UNL     1     -11.577  11.384  69.603  1.00  0.00    -0.399 A  
HETATM   12  C   UNL     1     -12.322  11.260  70.781  1.00  0.00    -0.495 A  
HETATM   13  C   UNL     1     -12.896  12.384  71.385  1.00  0.00    -0.360 A  
HETATM   14  C   UNL     1     -12.707  13.657  70.848  1.00  0.00    -0.310 A  
HETATM   15  C   UNL     1     -11.949  13.799  69.688  1.00  0.00    -0.399 A  
HETATM   16  C   UNL     1     -11.386  12.670  69.074  1.00  0.00    -0.345 A  
BRANCH  14  17
HETATM   17  O   UNL     1     -13.360  14.665  71.500  1.00  0.00    -0.327 OA 
HETATM   18  C   UNL     1     -12.569  15.786  71.875  1.00  0.00    -0.457 C  
ENDBRANCH  14  17
ENDBRANCH  10  11
ENDBRANCH   7   9
ENDBRANCH   6   7
ENDBRANCH   5   6
ENDBRANCH   4   5
ENDBRANCH   3   4
ENDBRANCH   2   3
TORSDOF 8
ENDMDL
MODEL      136
REMARK 921   NORMALIZED FREE ENERGY PREDICTED BY IDOCK:   -3.18 KCAL/MOL
REMARK 922        TOTAL FREE ENERGY PREDICTED BY IDOCK:   -5.31 KCAL/MOL
REMARK 923 INTER-LIGAND FREE ENERGY PREDICTED BY IDOCK:   -4.64 KCAL/MOL
REMARK 924 INTRA-LIGAND FREE ENERGY PREDICTED BY IDOCK:   -0.68 KCAL/MOL
REMARK 927      BINDING AFFINITY PREDICTED BY RF-SCORE:    0.00 PKD
ROOT
HETATM    1  C   UNL     1     -10.092   9.599  70.155  1.00  0.00    -0.311 C  
HETATM    2  C   UNL     1     -10.316   8.292  69.416  1.00  0.00    -0.222 C  
ENDROOT
BRANCH   2   3
HETATM    3  O   UNL     1     -10.736   8.601  68.092  1.00  0.00    -0.167 OA 
BRANCH   3   4
HETATM    4  C   UNL     1     -10.639   7.483  67.206  1.00  0.00    -0.324 C  
BRANCH   4   5
HETATM    5  C   UNL     1      -9.343   7.642  66.427  1.00  0.00    -0.172 C  
BRANCH   5   6
HETATM    6  O   UNL     1      -8.809   8.968  66.473  1.00  0.00    -0.127 OA 
BRANCH   6   7
HETATM    7  C   UNL     1      -8.810   9.616  65.280  1.00  0.00    -0.171 C  
HETATM    8  O   UNL     1      -8.768   9.107  64.174  1.00  0.00    -0.198 OA 
BRANCH   7   9
HETATM    9  C   UNL     1      -9.077  11.039  65.576  1.00  0.00    -0.225 C  
HETATM   10  C   UNL     1     -10.224  11.419  66.163  1.00  0.00    -0.282 C  
BRANCH  10  11
HETATM   11  C   UNL     1     -10.453  12.771  66.698  1.00  0.00    -0.270 A  
HETATM   12  C   UNL     1     -10.844  13.017  68.019  1.00  0.00    -0.261 A  
HETATM   13  C   UNL     1     -11.114  14.318  68.455  1.00  0.00    -0.276 A  
HETATM   14  C   UNL     1     -10.964  15.404  67.594  1.00  0.00    -0.315 A  
HETATM   15  C   UNL     1     -10.552  15.179  66.282  1.00  0.00    -0.312 A  
HETATM   16  C   UNL     1     -10.296  13.872  65.841  1.00  0.00    -0.318 A  
BRANCH  14  17
HETATM   17  O   UNL     1     -11.307  16.617  68.123  1.00  0.00    -0.289 OA 
HETATM   18  C   UNL     1     -10.508  17.724  67.724  1.00  0.00    -0.397 C  
ENDBRANCH  14  17
ENDBRANCH  10  11
ENDBRANCH   7   9
ENDBRANCH   6   7
ENDBRANCH   5   6
ENDBRANCH   4   5
ENDBRANCH   3   4
ENDBRANCH   2   3
TORSDOF 8
ENDMDL
MODEL      137
REMARK 921   NORMALIZED FREE ENERGY PREDICTED BY IDOCK:   -3.15 KCAL/MOL
REMARK 922        TOTAL FREE ENERGY PREDICTED BY IDOCK:   -5.28 KCAL/MOL
REMARK 923 INTER-LIGAND FREE ENERGY PREDICTED BY IDOCK:   -4.88 KCAL/MOL
REMARK 924 INTRA-LIGAND FREE ENERGY PREDICTED BY IDOCK:   -0.40 KCAL/MOL
REMARK 927      BINDING AFFINITY PREDICTED BY RF-SCORE:    0.00 PKD
ROOT
HETATM    1  C   UNL     1      -5.542  20.481  66.051  1.00  0.00    -0.219 C  
HETATM    2  C   UNL     1      -5.616  19.236  66.918  1.00  0.00    -0.166 C  
ENDROOT
BRANCH   2   3
HETATM    3  O   UNL     1      -6.742  19.365  67.777  1.00  0.00    -0.219 OA 
BRANCH   3   4
HETATM    4  C   UNL     1      -7.149  18.118  68.346  1.00  0.00    -0.252 C  
BRANCH   4   5
HETATM    5  C   UNL     1      -8.534  17.809  67.799  1.00  0.00    -0.236 C  
BRANCH   5   6
HETATM    6  O   UNL     1      -8.523  17.353  66.443  1.00  0.00    -0.250 OA 
BRANCH   6   7
HETATM    7  C   UNL     1      -9.713  16.871  66.004  1.00  0.00    -0.233 C  
HETATM    8  O   UNL     1     -10.049  16.703  64.845  1.00  0.00    -0.245 OA 
BRANCH   7   9
HETATM    9  C   UNL     1     -10.442  16.399  67.200  1.00  0.00    -0.297 C  
HETATM   10  C   UNL     1     -10.888  15.134  67.282  1.00  0.00    -0.316 C  
BRANCH  10  11
HETATM   11  C   UNL     1     -11.403  14.534  68.524  1.00  0.00    -0.309 A  
HETATM   12  C   UNL     1     -11.267  13.176  68.833  1.00  0.00    -0.324 A  
HETATM   13  C   UNL     1     -11.836  12.647  69.996  1.00  0.00    -0.358 A  
HETATM   14  C   UNL     1     -12.521  13.468  70.892  1.00  0.00    -0.369 A  
HETATM   15  C   UNL     1     -12.644  14.826  70.610  1.00  0.00    -0.414 A  
HETATM   16  C   UNL     1     -12.086  15.354  69.436  1.00  0.00    -0.308 A  
BRANCH  14  17
HETATM   17  O   UNL     1     -13.074  12.823  71.963  1.00  0.00    -0.405 OA 
HETATM   18  C   UNL     1     -13.764  13.642  72.900  1.00  0.00     0.042 C  
ENDBRANCH  14  17
ENDBRANCH  10  11
ENDBRANCH   7   9
ENDBRANCH   6   7
ENDBRANCH   5   6
ENDBRANCH   4   5
ENDBRANCH   3   4
ENDBRANCH   2   3
TORSDOF 8
ENDMDL
MODEL      138
REMARK 921   NORMALIZED FREE ENERGY PREDICTED BY IDOCK:   -3.15 KCAL/MOL
REMARK 922        TOTAL FREE ENERGY PREDICTED BY IDOCK:   -5.28 KCAL/MOL
REMARK 923 INTER-LIGAND FREE ENERGY PREDICTED BY IDOCK:   -4.99 KCAL/MOL
REMARK 924 INTRA-LIGAND FREE ENERGY PREDICTED BY IDOCK:   -0.28 KCAL/MOL
REMARK 927      BINDING AFFINITY PREDICTED BY RF-SCORE:    0.00 PKD
ROOT
HETATM    1  C   UNL     1     -12.224  13.736  63.864  1.00  0.00    -0.402 C  
HETATM    2  C   UNL     1     -12.169  12.354  64.490  1.00  0.00    -0.431 C  
ENDROOT
BRANCH   2   3
HETATM    3  O   UNL     1     -12.477  12.485  65.873  1.00  0.00    -0.596 OA 
BRANCH   3   4
HETATM    4  C   UNL     1     -11.423  12.022  66.721  1.00  0.00    -0.345 C  
BRANCH   4   5
HETATM    5  C   UNL     1     -10.188  12.843  66.386  1.00  0.00    -0.267 C  
BRANCH   5   6
HETATM    6  O   UNL     1      -8.979  12.080  66.382  1.00  0.00    -0.203 OA 
BRANCH   6   7
HETATM    7  C   UNL     1      -8.026  12.532  67.236  1.00  0.00    -0.173 C  
HETATM    8  O   UNL     1      -7.021  11.941  67.589  1.00  0.00    -0.093 OA 
BRANCH   7   9
HETATM    9  C   UNL     1      -8.337  13.954  67.495  1.00  0.00    -0.202 C  
HETATM   10  C   UNL     1      -7.365  14.882  67.508  1.00  0.00    -0.229 C  
BRANCH  10  11
HETATM   11  C   UNL     1      -7.626  16.330  67.520  1.00  0.00    -0.170 A  
HETATM   12  C   UNL     1      -8.450  16.969  66.586  1.00  0.00    -0.283 A  
HETATM   13  C   UNL     1      -8.608  18.358  66.604  1.00  0.00    -0.289 A  
HETATM   14  C   UNL     1      -7.977  19.136  67.574  1.00  0.00    -0.257 A  
HETATM   15  C   UNL     1      -7.171  18.513  68.525  1.00  0.00    -0.306 A  
HETATM   16  C   UNL     1      -7.001  17.120  68.498  1.00  0.00    -0.201 A  
BRANCH  14  17
HETATM   17  O   UNL     1      -8.168  20.484  67.454  1.00  0.00    -0.335 OA 
HETATM   18  C   UNL     1      -9.482  20.902  67.104  1.00  0.00    -0.209 C  
ENDBRANCH  14  17
ENDBRANCH  10  11
ENDBRANCH   7   9
ENDBRANCH   6   7
ENDBRANCH   5   6
ENDBRANCH   4   5
ENDBRANCH   3   4
ENDBRANCH   2   3
TORSDOF 8
ENDMDL
MODEL      139
REMARK 921   NORMALIZED FREE ENERGY PREDICTED BY IDOCK:   -3.14 KCAL/MOL
REMARK 922        TOTAL FREE ENERGY PREDICTED BY IDOCK:   -5.26 KCAL/MOL
REMARK 923 INTER-LIGAND FREE ENERGY PREDICTED BY IDOCK:   -4.84 KCAL/MOL
REMARK 924 INTRA-LIGAND FREE ENERGY PREDICTED BY IDOCK:   -0.42 KCAL/MOL
REMARK 927      BINDING AFFINITY PREDICTED BY RF-SCORE:    0.00 PKD
ROOT
HETATM    1  C   UNL     1      -8.687   4.379  63.206  1.00  0.00    -0.121 C  
HETATM    2  C   UNL     1      -8.159   3.293  64.127  1.00  0.00    -0.082 C  
ENDROOT
BRANCH   2   3
HETATM    3  O   UNL     1      -9.184   2.969  65.058  1.00  0.00    -0.142 OA 
BRANCH   3   4
HETATM    4  C   UNL     1      -9.959   4.106  65.446  1.00  0.00    -0.205 C  
BRANCH   4   5
HETATM    5  C   UNL     1      -9.910   4.184  66.964  1.00  0.00    -0.151 C  
BRANCH   5   6
HETATM    6  O   UNL     1      -9.476   5.454  67.457  1.00  0.00    -0.115 OA 
BRANCH   6   7
HETATM    7  C   UNL     1     -10.442   6.173  68.083  1.00  0.00    -0.230 C  
HETATM    8  O   UNL     1     -10.865   5.998  69.212  1.00  0.00    -0.292 OA 
BRANCH   7   9
HETATM    9  C   UNL     1     -10.737   7.329  67.211  1.00  0.00    -0.391 C  
HETATM   10  C   UNL     1     -10.482   8.584  67.619  1.00  0.00    -0.308 C  
BRANCH  10  11
HETATM   11  C   UNL     1     -10.525   9.752  66.725  1.00  0.00    -0.259 A  
HETATM   12  C   UNL     1     -11.176  10.946  67.053  1.00  0.00    -0.211 A  
HETATM   13  C   UNL     1     -11.243  12.000  66.136  1.00  0.00    -0.394 A  
HETATM   14  C   UNL     1     -10.631  11.899  64.887  1.00  0.00    -0.287 A  
HETATM   15  C   UNL     1      -9.959  10.725  64.554  1.00  0.00    -0.395 A  
HETATM   16  C   UNL     1      -9.904   9.662  65.468  1.00  0.00    -0.352 A  
BRANCH  14  17
HETATM   17  O   UNL     1     -10.811  12.975  64.063  1.00  0.00    -0.395 OA 
HETATM   18  C   UNL     1     -12.129  13.170  63.566  1.00  0.00    -0.514 C  
ENDBRANCH  14  17
ENDBRANCH  10  11
ENDBRANCH   7   9
ENDBRANCH   6   7
ENDBRANCH   5   6
ENDBRANCH   4   5
ENDBRANCH   3   4
ENDBRANCH   2   3
TORSDOF 8
ENDMDL
MODEL      140
REMARK 921   NORMALIZED FREE ENERGY PREDICTED BY IDOCK:   -3.12 KCAL/MOL
REMARK 922        TOTAL FREE ENERGY PREDICTED BY IDOCK:   -5.23 KCAL/MOL
REMARK 923 INTER-LIGAND FREE ENERGY PREDICTED BY IDOCK:   -4.85 KCAL/MOL
REMARK 924 INTRA-LIGAND FREE ENERGY PREDICTED BY IDOCK:   -0.38 KCAL/MOL
REMARK 927      BINDING AFFINITY PREDICTED BY RF-SCORE:    0.00 PKD
ROOT
HETATM    1  C   UNL     1     -13.294   9.448  71.623  1.00  0.00    -0.477 C  
HETATM    2  C   UNL     1     -12.904  10.404  70.510  1.00  0.00    -0.254 C  
ENDROOT
BRANCH   2   3
HETATM    3  O   UNL     1     -11.514  10.242  70.257  1.00  0.00    -0.271 OA 
BRANCH   3   4
HETATM    4  C   UNL     1     -10.926  11.390  69.640  1.00  0.00    -0.110 C  
BRANCH   4   5
HETATM    5  C   UNL     1     -11.918  11.897  68.606  1.00  0.00    -0.233 C  
BRANCH   5   6
HETATM    6  O   UNL     1     -12.215  13.290  68.736  1.00  0.00    -0.278 OA 
BRANCH   6   7
HETATM    7  C   UNL     1     -11.800  14.052  67.693  1.00  0.00    -0.395 C  
HETATM    8  O   UNL     1     -12.314  14.123  66.590  1.00  0.00    -0.455 OA 
BRANCH   7   9
HETATM    9  C   UNL     1     -10.731  14.931  68.213  1.00  0.00    -0.249 C  
HETATM   10  C   UNL     1      -9.714  15.321  67.427  1.00  0.00    -0.208 C  
BRANCH  10  11
HETATM   11  C   UNL     1      -8.756  16.374  67.802  1.00  0.00    -0.182 A  
HETATM   12  C   UNL     1      -9.146  17.640  68.253  1.00  0.00    -0.276 A  
HETATM   13  C   UNL     1      -8.193  18.625  68.530  1.00  0.00    -0.370 A  
HETATM   14  C   UNL     1      -6.831  18.357  68.398  1.00  0.00    -0.241 A  
HETATM   15  C   UNL     1      -6.426  17.095  67.972  1.00  0.00    -0.151 A  
HETATM   16  C   UNL     1      -7.382  16.111  67.680  1.00  0.00    -0.164 A  
BRANCH  14  17
HETATM   17  O   UNL     1      -6.004  19.417  68.648  1.00  0.00    -0.218 OA 
HETATM   18  C   UNL     1      -5.959  19.873  69.995  1.00  0.00    -0.321 C  
ENDBRANCH  14  17
ENDBRANCH  10  11
ENDBRANCH   7   9
ENDBRANCH   6   7
ENDBRANCH   5   6
ENDBRANCH   4   5
ENDBRANCH   3   4
ENDBRANCH   2   3
TORSDOF 8
ENDMDL
MODEL      141
REMARK 921   NORMALIZED FREE ENERGY PREDICTED BY IDOCK:   -3.10 KCAL/MOL
REMARK 922        TOTAL FREE ENERGY PREDICTED BY IDOCK:   -5.21 KCAL/MOL
REMARK 923 INTER-LIGAND FREE ENERGY PREDICTED BY IDOCK:   -4.79 KCAL/MOL
REMARK 924 INTRA-LIGAND FREE ENERGY PREDICTED BY IDOCK:   -0.41 KCAL/MOL
REMARK 927      BINDING AFFINITY PREDICTED BY RF-SCORE:    0.00 PKD
ROOT
HETATM    1  C   UNL     1      -9.391   6.426  67.619  1.00  0.00    -0.117 C  
HETATM    2  C   UNL     1     -10.682   7.075  68.086  1.00  0.00    -0.188 C  
ENDROOT
BRANCH   2   3
HETATM    3  O   UNL     1     -10.345   8.196  68.894  1.00  0.00    -0.211 OA 
BRANCH   3   4
HETATM    4  C   UNL     1     -10.700   9.441  68.288  1.00  0.00    -0.171 C  
BRANCH   4   5
HETATM    5  C   UNL     1      -9.423  10.256  68.160  1.00  0.00    -0.147 C  
BRANCH   5   6
HETATM    6  O   UNL     1      -8.804  10.149  66.875  1.00  0.00    -0.132 OA 
BRANCH   6   7
HETATM    7  C   UNL     1      -9.498  10.736  65.867  1.00  0.00    -0.197 C  
HETATM    8  O   UNL     1     -10.193  10.177  65.037  1.00  0.00    -0.309 OA 
BRANCH   7   9
HETATM    9  C   UNL     1      -9.414  12.194  66.094  1.00  0.00    -0.231 C  
HETATM   10  C   UNL     1     -10.526  12.945  66.182  1.00  0.00    -0.283 C  
BRANCH  10  11
HETATM   11  C   UNL     1     -10.526  14.343  66.640  1.00  0.00    -0.274 A  
HETATM   12  C   UNL     1     -11.092  14.753  67.853  1.00  0.00    -0.301 A  
HETATM   13  C   UNL     1     -11.124  16.106  68.206  1.00  0.00    -0.348 A  
HETATM   14  C   UNL     1     -10.561  17.074  67.374  1.00  0.00    -0.289 A  
HETATM   15  C   UNL     1      -9.974  16.680  66.174  1.00  0.00    -0.356 A  
HETATM   16  C   UNL     1      -9.954  15.324  65.813  1.00  0.00    -0.391 A  
BRANCH  14  17
HETATM   17  O   UNL     1     -10.702  18.363  67.805  1.00  0.00    -0.414 OA 
HETATM   18  C   UNL     1     -10.311  19.378  66.888  1.00  0.00    -0.437 C  
ENDBRANCH  14  17
ENDBRANCH  10  11
ENDBRANCH   7   9
ENDBRANCH   6   7
ENDBRANCH   5   6
ENDBRANCH   4   5
ENDBRANCH   3   4
ENDBRANCH   2   3
TORSDOF 8
ENDMDL
MODEL      142
REMARK 921   NORMALIZED FREE ENERGY PREDICTED BY IDOCK:   -3.10 KCAL/MOL
REMARK 922        TOTAL FREE ENERGY PREDICTED BY IDOCK:   -5.20 KCAL/MOL
REMARK 923 INTER-LIGAND FREE ENERGY PREDICTED BY IDOCK:   -4.73 KCAL/MOL
REMARK 924 INTRA-LIGAND FREE ENERGY PREDICTED BY IDOCK:   -0.47 KCAL/MOL
REMARK 927      BINDING AFFINITY PREDICTED BY RF-SCORE:    0.00 PKD
ROOT
HETATM    1  C   UNL     1      -7.830   7.525  71.630  1.00  0.00    -0.086 C  
HETATM    2  C   UNL     1      -8.182   7.028  73.021  1.00  0.00    -0.105 C  
ENDROOT
BRANCH   2   3
HETATM    3  O   UNL     1      -8.703   5.710  72.899  1.00  0.00    -0.122 OA 
BRANCH   3   4
HETATM    4  C   UNL     1      -9.990   5.566  73.503  1.00  0.00    -0.178 C  
BRANCH   4   5
HETATM    5  C   UNL     1     -11.024   5.825  72.419  1.00  0.00    -0.259 C  
BRANCH   5   6
HETATM    6  O   UNL     1     -11.639   7.113  72.513  1.00  0.00    -0.275 OA 
BRANCH   6   7
HETATM    7  C   UNL     1     -12.118   7.594  71.338  1.00  0.00    -0.316 C  
HETATM    8  O   UNL     1     -12.566   6.942  70.411  1.00  0.00    -0.136 OA 
BRANCH   7   9
HETATM    9  C   UNL     1     -12.181   9.064  71.480  1.00  0.00    -0.403 C  
HETATM   10  C   UNL     1     -11.826   9.872  70.467  1.00  0.00    -0.350 C  
BRANCH  10  11
HETATM   11  C   UNL     1     -12.088  11.320  70.454  1.00  0.00    -0.474 A  
HETATM   12  C   UNL     1     -11.978  12.109  69.303  1.00  0.00    -0.318 A  
HETATM   13  C   UNL     1     -12.172  13.492  69.363  1.00  0.00    -0.278 A  
HETATM   14  C   UNL     1     -12.516  14.113  70.564  1.00  0.00    -0.361 A  
HETATM   15  C   UNL     1     -12.651  13.339  71.714  1.00  0.00    -0.195 A  
HETATM   16  C   UNL     1     -12.442  11.952  71.657  1.00  0.00    -0.100 A  
BRANCH  14  17
HETATM   17  O   UNL     1     -12.627  15.474  70.504  1.00  0.00    -0.418 OA 
HETATM   18  C   UNL     1     -11.420  16.210  70.660  1.00  0.00    -0.361 C  
ENDBRANCH  14  17
ENDBRANCH  10  11
ENDBRANCH   7   9
ENDBRANCH   6   7
ENDBRANCH   5   6
ENDBRANCH   4   5
ENDBRANCH   3   4
ENDBRANCH   2   3
TORSDOF 8
ENDMDL
MODEL      143
REMARK 921   NORMALIZED FREE ENERGY PREDICTED BY IDOCK:   -3.10 KCAL/MOL
REMARK 922        TOTAL FREE ENERGY PREDICTED BY IDOCK:   -5.20 KCAL/MOL
REMARK 923 INTER-LIGAND FREE ENERGY PREDICTED BY IDOCK:   -4.67 KCAL/MOL
REMARK 924 INTRA-LIGAND FREE ENERGY PREDICTED BY IDOCK:   -0.52 KCAL/MOL
REMARK 927      BINDING AFFINITY PREDICTED BY RF-SCORE:    0.00 PKD
ROOT
HETATM    1  C   UNL     1     -14.016  13.542  72.125  1.00  0.00    -0.575 C  
HETATM    2  C   UNL     1     -13.405  12.190  71.799  1.00  0.00    -0.242 C  
ENDROOT
BRANCH   2   3
HETATM    3  O   UNL     1     -12.586  12.344  70.646  1.00  0.00    -0.256 OA 
BRANCH   3   4
HETATM    4  C   UNL     1     -12.094  13.677  70.490  1.00  0.00    -0.339 C  
BRANCH   4   5
HETATM    5  C   UNL     1     -11.614  13.810  69.054  1.00  0.00    -0.313 C  
BRANCH   5   6
HETATM    6  O   UNL     1     -12.150  12.815  68.178  1.00  0.00    -0.288 OA 
BRANCH   6   7
HETATM    7  C   UNL     1     -11.342  12.487  67.139  1.00  0.00    -0.324 C  
HETATM    8  O   UNL     1     -11.162  13.134  66.122  1.00  0.00    -0.287 OA 
BRANCH   7   9
HETATM    9  C   UNL     1     -10.570  11.301  67.565  1.00  0.00    -0.257 C  
HETATM   10  C   UNL     1     -11.152  10.093  67.652  1.00  0.00    -0.275 C  
BRANCH  10  11
HETATM   11  C   UNL     1     -10.400   8.841  67.834  1.00  0.00    -0.281 A  
HETATM   12  C   UNL     1     -10.620   7.695  67.061  1.00  0.00    -0.406 A  
HETATM   13  C   UNL     1      -9.923   6.511  67.324  1.00  0.00    -0.189 A  
HETATM   14  C   UNL     1      -8.967   6.456  68.337  1.00  0.00    -0.120 A  
HETATM   15  C   UNL     1      -8.719   7.595  69.100  1.00  0.00    -0.139 A  
HETATM   16  C   UNL     1      -9.429   8.778  68.846  1.00  0.00    -0.145 A  
BRANCH  14  17
HETATM   17  O   UNL     1      -8.393   5.230  68.528  1.00  0.00    -0.090 OA 
HETATM   18  C   UNL     1      -9.286   4.149  68.768  1.00  0.00    -0.146 C  
ENDBRANCH  14  17
ENDBRANCH  10  11
ENDBRANCH   7   9
ENDBRANCH   6   7
ENDBRANCH   5   6
ENDBRANCH   4   5
ENDBRANCH   3   4
ENDBRANCH   2   3
TORSDOF 8
ENDMDL
MODEL      144
REMARK 921   NORMALIZED FREE ENERGY PREDICTED BY IDOCK:   -3.09 KCAL/MOL
REMARK 922        TOTAL FREE ENERGY PREDICTED BY IDOCK:   -5.19 KCAL/MOL
REMARK 923 INTER-LIGAND FREE ENERGY PREDICTED BY IDOCK:   -4.88 KCAL/MOL
REMARK 924 INTRA-LIGAND FREE ENERGY PREDICTED BY IDOCK:   -0.32 KCAL/MOL
REMARK 927      BINDING AFFINITY PREDICTED BY RF-SCORE:    0.00 PKD
ROOT
HETATM    1  C   UNL     1     -12.793  14.039  71.474  1.00  0.00    -0.440 C  
HETATM    2  C   UNL     1     -13.656  12.955  72.093  1.00  0.00    -0.495 C  
ENDROOT
BRANCH   2   3
HETATM    3  O   UNL     1     -12.917  11.739  72.074  1.00  0.00    -0.408 OA 
BRANCH   3   4
HETATM    4  C   UNL     1     -13.079  11.012  70.854  1.00  0.00    -0.112 C  
BRANCH   4   5
HETATM    5  C   UNL     1     -11.732  11.018  70.149  1.00  0.00    -0.356 C  
BRANCH   5   6
HETATM    6  O   UNL     1     -10.776  10.131  70.738  1.00  0.00    -0.282 OA 
BRANCH   6   7
HETATM    7  C   UNL     1     -10.245   9.226  69.878  1.00  0.00    -0.214 C  
HETATM    8  O   UNL     1      -9.891   9.431  68.730  1.00  0.00    -0.156 OA 
BRANCH   7   9
HETATM    9  C   UNL     1      -9.991   8.000  70.663  1.00  0.00    -0.198 C  
HETATM   10  C   UNL     1     -10.997   7.180  71.008  1.00  0.00    -0.277 C  
BRANCH  10  11
HETATM   11  C   UNL     1     -10.792   5.837  71.574  1.00  0.00    -0.316 A  
HETATM   12  C   UNL     1     -11.255   5.458  72.839  1.00  0.00    -0.372 A  
HETATM   13  C   UNL     1     -10.972   4.189  73.355  1.00  0.00    -0.350 A  
HETATM   14  C   UNL     1     -10.252   3.259  72.605  1.00  0.00    -0.156 A  
HETATM   15  C   UNL     1      -9.804   3.612  71.334  1.00  0.00    -0.219 A  
HETATM   16  C   UNL     1     -10.076   4.891  70.823  1.00  0.00    -0.303 A  
BRANCH  14  17
HETATM   17  O   UNL     1      -9.997   2.075  73.238  1.00  0.00    -0.093 OA 
HETATM   18  C   UNL     1     -10.861   1.741  74.317  1.00  0.00    -0.131 C  
ENDBRANCH  14  17
ENDBRANCH  10  11
ENDBRANCH   7   9
ENDBRANCH   6   7
ENDBRANCH   5   6
ENDBRANCH   4   5
ENDBRANCH   3   4
ENDBRANCH   2   3
TORSDOF 8
ENDMDL
MODEL      145
REMARK 921   NORMALIZED FREE ENERGY PREDICTED BY IDOCK:   -3.08 KCAL/MOL
REMARK 922        TOTAL FREE ENERGY PREDICTED BY IDOCK:   -5.17 KCAL/MOL
REMARK 923 INTER-LIGAND FREE ENERGY PREDICTED BY IDOCK:   -4.82 KCAL/MOL
REMARK 924 INTRA-LIGAND FREE ENERGY PREDICTED BY IDOCK:   -0.35 KCAL/MOL
REMARK 927      BINDING AFFINITY PREDICTED BY RF-SCORE:    0.00 PKD
ROOT
HETATM    1  C   UNL     1      -9.878  16.839  67.341  1.00  0.00    -0.252 C  
HETATM    2  C   UNL     1     -11.012  15.865  67.608  1.00  0.00    -0.298 C  
ENDROOT
BRANCH   2   3
HETATM    3  O   UNL     1     -10.916  14.808  66.662  1.00  0.00    -0.314 OA 
BRANCH   3   4
HETATM    4  C   UNL     1     -12.029  13.912  66.718  1.00  0.00    -0.438 C  
BRANCH   4   5
HETATM    5  C   UNL     1     -11.733  12.901  67.814  1.00  0.00    -0.362 C  
BRANCH   5   6
HETATM    6  O   UNL     1     -11.845  11.542  67.383  1.00  0.00    -0.607 OA 
BRANCH   6   7
HETATM    7  C   UNL     1     -10.674  10.857  67.375  1.00  0.00    -0.257 C  
HETATM    8  O   UNL     1      -9.738  11.020  66.612  1.00  0.00    -0.188 OA 
BRANCH   7   9
HETATM    9  C   UNL     1     -10.670  10.019  68.592  1.00  0.00    -0.256 C  
HETATM   10  C   UNL     1     -11.098   8.745  68.555  1.00  0.00     0.239 C  
BRANCH  10  11
HETATM   11  C   UNL     1     -10.900   7.791  69.657  1.00  0.00    -0.185 A  
HETATM   12  C   UNL     1     -10.871   8.170  71.004  1.00  0.00    -0.265 A  
HETATM   13  C   UNL     1     -10.611   7.229  72.006  1.00  0.00    -0.236 A  
HETATM   14  C   UNL     1     -10.411   5.886  71.689  1.00  0.00    -0.219 A  
HETATM   15  C   UNL     1     -10.460   5.488  70.355  1.00  0.00    -0.356 A  
HETATM   16  C   UNL     1     -10.706   6.435  69.348  1.00  0.00    -0.347 A  
BRANCH  14  17
HETATM   17  O   UNL     1     -10.115   5.076  72.750  1.00  0.00    -0.162 OA 
HETATM   18  C   UNL     1     -11.225   4.505  73.432  1.00  0.00    -0.315 C  
ENDBRANCH  14  17
ENDBRANCH  10  11
ENDBRANCH   7   9
ENDBRANCH   6   7
ENDBRANCH   5   6
ENDBRANCH   4   5
ENDBRANCH   3   4
ENDBRANCH   2   3
TORSDOF 8
ENDMDL
MODEL      146
REMARK 921   NORMALIZED FREE ENERGY PREDICTED BY IDOCK:   -3.08 KCAL/MOL
REMARK 922        TOTAL FREE ENERGY PREDICTED BY IDOCK:   -5.17 KCAL/MOL
REMARK 923 INTER-LIGAND FREE ENERGY PREDICTED BY IDOCK:   -4.73 KCAL/MOL
REMARK 924 INTRA-LIGAND FREE ENERGY PREDICTED BY IDOCK:   -0.44 KCAL/MOL
REMARK 927      BINDING AFFINITY PREDICTED BY RF-SCORE:    0.00 PKD
ROOT
HETATM    1  C   UNL     1     -11.487   7.979  72.147  1.00  0.00    -0.393 C  
HETATM    2  C   UNL     1     -11.537   8.310  70.666  1.00  0.00    -0.191 C  
ENDROOT
BRANCH   2   3
HETATM    3  O   UNL     1     -10.353   7.802  70.061  1.00  0.00    -0.210 OA 
BRANCH   3   4
HETATM    4  C   UNL     1     -10.475   7.655  68.644  1.00  0.00    -0.177 C  
BRANCH   4   5
HETATM    5  C   UNL     1     -10.645   9.050  68.064  1.00  0.00    -0.186 C  
BRANCH   5   6
HETATM    6  O   UNL     1      -9.405   9.719  67.815  1.00  0.00    -0.134 OA 
BRANCH   6   7
HETATM    7  C   UNL     1      -9.024  10.578  68.793  1.00  0.00    -0.166 C  
HETATM    8  O   UNL     1      -8.333  10.321  69.763  1.00  0.00    -0.165 OA 
BRANCH   7   9
HETATM    9  C   UNL     1      -9.437  11.927  68.351  1.00  0.00    -0.189 C  
HETATM   10  C   UNL     1      -8.693  12.626  67.477  1.00  0.00    -0.184 C  
BRANCH  10  11
HETATM   11  C   UNL     1      -9.158  13.856  66.817  1.00  0.00    -0.238 A  
HETATM   12  C   UNL     1      -8.364  15.001  66.682  1.00  0.00    -0.115 A  
HETATM   13  C   UNL     1      -8.882  16.166  66.106  1.00  0.00    -0.367 A  
HETATM   14  C   UNL     1     -10.189  16.202  65.621  1.00  0.00    -0.364 A  
HETATM   15  C   UNL     1     -10.984  15.063  65.727  1.00  0.00    -0.351 A  
HETATM   16  C   UNL     1     -10.470  13.899  66.318  1.00  0.00    -0.287 A  
BRANCH  14  17
HETATM   17  O   UNL     1     -10.592  17.412  65.129  1.00  0.00    -0.681 OA 
HETATM   18  C   UNL     1     -10.566  18.501  66.043  1.00  0.00    -0.331 C  
ENDBRANCH  14  17
ENDBRANCH  10  11
ENDBRANCH   7   9
ENDBRANCH   6   7
ENDBRANCH   5   6
ENDBRANCH   4   5
ENDBRANCH   3   4
ENDBRANCH   2   3
TORSDOF 8
ENDMDL
MODEL      147
REMARK 921   NORMALIZED FREE ENERGY PREDICTED BY IDOCK:   -3.07 KCAL/MOL
REMARK 922        TOTAL FREE ENERGY PREDICTED BY IDOCK:   -5.16 KCAL/MOL
REMARK 923 INTER-LIGAND FREE ENERGY PREDICTED BY IDOCK:   -4.56 KCAL/MOL
REMARK 924 INTRA-LIGAND FREE ENERGY PREDICTED BY IDOCK:   -0.60 KCAL/MOL
REMARK 927      BINDING AFFINITY PREDICTED BY RF-SCORE:    0.00 PKD
ROOT
HETATM    1  C   UNL     1     -12.777  12.011  63.461  1.00  0.00    -0.567 C  
HETATM    2  C   UNL     1     -12.077  13.018  64.357  1.00  0.00    -0.411 C  
ENDROOT
BRANCH   2   3
HETATM    3  O   UNL     1     -12.507  12.791  65.694  1.00  0.00    -0.586 OA 
BRANCH   3   4
HETATM    4  C   UNL     1     -11.441  12.390  66.558  1.00  0.00    -0.371 C  
BRANCH   4   5
HETATM    5  C   UNL     1     -10.144  12.600  65.793  1.00  0.00    -0.271 C  
BRANCH   5   6
HETATM    6  O   UNL     1      -9.161  11.593  66.048  1.00  0.00    -0.214 OA 
BRANCH   6   7
HETATM    7  C   UNL     1      -9.401  10.406  65.437  1.00  0.00    -0.204 C  
HETATM    8  O   UNL     1      -9.662  10.231  64.260  1.00  0.00    -0.304 OA 
BRANCH   7   9
HETATM    9  C   UNL     1      -9.085   9.353  66.425  1.00  0.00    -0.199 C  
HETATM   10  C   UNL     1      -9.488   9.463  67.703  1.00  0.00    -0.154 C  
BRANCH  10  11
HETATM   11  C   UNL     1      -9.420   8.358  68.672  1.00  0.00    -0.147 A  
HETATM   12  C   UNL     1     -10.368   7.330  68.732  1.00  0.00    -0.209 A  
HETATM   13  C   UNL     1     -10.291   6.343  69.719  1.00  0.00    -0.246 A  
HETATM   14  C   UNL     1      -9.247   6.338  70.644  1.00  0.00    -0.158 A  
HETATM   15  C   UNL     1      -8.281   7.340  70.583  1.00  0.00    -0.116 A  
HETATM   16  C   UNL     1      -8.367   8.340  69.602  1.00  0.00    -0.123 A  
BRANCH  14  17
HETATM   17  O   UNL     1      -9.311   5.352  71.588  1.00  0.00    -0.144 OA 
HETATM   18  C   UNL     1      -9.980   4.157  71.203  1.00  0.00    -0.140 C  
ENDBRANCH  14  17
ENDBRANCH  10  11
ENDBRANCH   7   9
ENDBRANCH   6   7
ENDBRANCH   5   6
ENDBRANCH   4   5
ENDBRANCH   3   4
ENDBRANCH   2   3
TORSDOF 8
ENDMDL
MODEL      148
REMARK 921   NORMALIZED FREE ENERGY PREDICTED BY IDOCK:   -3.07 KCAL/MOL
REMARK 922        TOTAL FREE ENERGY PREDICTED BY IDOCK:   -5.16 KCAL/MOL
REMARK 923 INTER-LIGAND FREE ENERGY PREDICTED BY IDOCK:   -4.87 KCAL/MOL
REMARK 924 INTRA-LIGAND FREE ENERGY PREDICTED BY IDOCK:   -0.29 KCAL/MOL
REMARK 927      BINDING AFFINITY PREDICTED BY RF-SCORE:    0.00 PKD
ROOT
HETATM    1  C   UNL     1      -7.794   8.160  70.058  1.00  0.00    -0.103 C  
HETATM    2  C   UNL     1      -7.831   8.446  71.548  1.00  0.00    -0.120 C  
ENDROOT
BRANCH   2   3
HETATM    3  O   UNL     1      -8.730   7.524  72.152  1.00  0.00    -0.111 OA 
BRANCH   3   4
HETATM    4  C   UNL     1      -9.794   8.170  72.856  1.00  0.00    -0.268 C  
BRANCH   4   5
HETATM    5  C   UNL     1     -10.893   8.451  71.844  1.00  0.00    -0.302 C  
BRANCH   5   6
HETATM    6  O   UNL     1     -10.806   9.752  71.255  1.00  0.00    -0.334 OA 
BRANCH   6   7
HETATM    7  C   UNL     1     -11.951  10.178  70.664  1.00  0.00    -0.332 C  
HETATM    8  O   UNL     1     -13.091   9.933  71.019  1.00  0.00    -0.367 OA 
BRANCH   7   9
HETATM    9  C   UNL     1     -11.551  11.158  69.632  1.00  0.00    -0.398 C  
HETATM   10  C   UNL     1     -12.261  12.281  69.435  1.00  0.00    -0.120 C  
BRANCH  10  11
HETATM   11  C   UNL     1     -11.792  13.401  68.603  1.00  0.00    -0.397 A  
HETATM   12  C   UNL     1     -11.977  14.745  68.950  1.00  0.00    -0.298 A  
HETATM   13  C   UNL     1     -11.572  15.769  68.088  1.00  0.00    -0.259 A  
HETATM   14  C   UNL     1     -10.942  15.475  66.879  1.00  0.00    -0.268 A  
HETATM   15  C   UNL     1     -10.730  14.144  66.529  1.00  0.00    -0.289 A  
HETATM   16  C   UNL     1     -11.149  13.116  67.387  1.00  0.00    -0.301 A  
BRANCH  14  17
HETATM   17  O   UNL     1     -10.641  16.560  66.103  1.00  0.00    -0.303 OA 
HETATM   18  C   UNL     1      -9.729  17.497  66.661  1.00  0.00    -0.299 C  
ENDBRANCH  14  17
ENDBRANCH  10  11
ENDBRANCH   7   9
ENDBRANCH   6   7
ENDBRANCH   5   6
ENDBRANCH   4   5
ENDBRANCH   3   4
ENDBRANCH   2   3
TORSDOF 8
ENDMDL
MODEL      149
REMARK 921   NORMALIZED FREE ENERGY PREDICTED BY IDOCK:   -3.05 KCAL/MOL
REMARK 922        TOTAL FREE ENERGY PREDICTED BY IDOCK:   -5.12 KCAL/MOL
REMARK 923 INTER-LIGAND FREE ENERGY PREDICTED BY IDOCK:   -4.58 KCAL/MOL
REMARK 924 INTRA-LIGAND FREE ENERGY PREDICTED BY IDOCK:   -0.55 KCAL/MOL
REMARK 927      BINDING AFFINITY PREDICTED BY RF-SCORE:    0.00 PKD
ROOT
HETATM    1  C   UNL     1     -11.524   8.412  70.884  1.00  0.00    -0.295 C  
HETATM    2  C   UNL     1     -10.301   7.662  70.388  1.00  0.00    -0.214 C  
ENDROOT
BRANCH   2   3
HETATM    3  O   UNL     1      -9.737   8.401  69.312  1.00  0.00    -0.172 OA 
BRANCH   3   4
HETATM    4  C   UNL     1     -10.265   8.016  68.040  1.00  0.00    -0.210 C  
BRANCH   4   5
HETATM    5  C   UNL     1     -10.440   9.288  67.226  1.00  0.00    -0.264 C  
BRANCH   5   6
HETATM    6  O   UNL     1     -10.257  10.484  67.989  1.00  0.00    -0.157 OA 
BRANCH   6   7
HETATM    7  C   UNL     1     -11.379  11.231  68.139  1.00  0.00    -0.303 C  
HETATM    8  O   UNL     1     -12.465  10.847  68.538  1.00  0.00    -0.375 OA 
BRANCH   7   9
HETATM    9  C   UNL     1     -10.979  12.638  67.921  1.00  0.00    -0.262 C  
HETATM   10  C   UNL     1     -11.243  13.581  68.841  1.00  0.00    -0.316 C  
BRANCH  10  11
HETATM   11  C   UNL     1     -10.669  14.935  68.802  1.00  0.00    -0.252 A  
HETATM   12  C   UNL     1     -11.135  15.989  69.597  1.00  0.00    -0.331 A  
HETATM   13  C   UNL     1     -10.597  17.274  69.468  1.00  0.00     0.006 A  
HETATM   14  C   UNL     1      -9.561  17.526  68.570  1.00  0.00    -0.305 A  
HETATM   15  C   UNL     1      -9.071  16.484  67.787  1.00  0.00    -0.204 A  
HETATM   16  C   UNL     1      -9.620  15.198  67.906  1.00  0.00    -0.203 A  
BRANCH  14  17
HETATM   17  O   UNL     1      -9.158  18.831  68.500  1.00  0.00    -0.324 OA 
HETATM   18  C   UNL     1      -9.994  19.707  67.754  1.00  0.00    -0.394 C  
ENDBRANCH  14  17
ENDBRANCH  10  11
ENDBRANCH   7   9
ENDBRANCH   6   7
ENDBRANCH   5   6
ENDBRANCH   4   5
ENDBRANCH   3   4
ENDBRANCH   2   3
TORSDOF 8
ENDMDL
MODEL      150
REMARK 921   NORMALIZED FREE ENERGY PREDICTED BY IDOCK:   -3.05 KCAL/MOL
REMARK 922        TOTAL FREE ENERGY PREDICTED BY IDOCK:   -5.12 KCAL/MOL
REMARK 923 INTER-LIGAND FREE ENERGY PREDICTED BY IDOCK:   -4.76 KCAL/MOL
REMARK 924 INTRA-LIGAND FREE ENERGY PREDICTED BY IDOCK:   -0.37 KCAL/MOL
REMARK 927      BINDING AFFINITY PREDICTED BY RF-SCORE:    0.00 PKD
ROOT
HETATM    1  C   UNL     1      -9.338   3.970  65.668  1.00  0.00    -0.160 C  
HETATM    2  C   UNL     1     -10.492   4.793  66.210  1.00  0.00    -0.269 C  
ENDROOT
BRANCH   2   3
HETATM    3  O   UNL     1      -9.956   5.784  67.078  1.00  0.00    -0.136 OA 
BRANCH   3   4
HETATM    4  C   UNL     1     -10.933   6.324  67.972  1.00  0.00    -0.327 C  
BRANCH   4   5
HETATM    5  C   UNL     1     -10.234   7.380  68.813  1.00  0.00    -0.191 C  
BRANCH   5   6
HETATM    6  O   UNL     1     -10.597   8.719  68.466  1.00  0.00    -0.200 OA 
BRANCH   6   7
HETATM    7  C   UNL     1     -10.919   9.505  69.524  1.00  0.00    -0.195 C  
HETATM    8  O   UNL     1     -10.894   9.191  70.701  1.00  0.00    -0.230 OA 
BRANCH   7   9
HETATM    9  C   UNL     1     -11.110  10.870  68.990  1.00  0.00    -0.302 C  
HETATM   10  C   UNL     1     -10.171  11.448  68.223  1.00  0.00    -0.204 C  
BRANCH  10  11
HETATM   11  C   UNL     1     -10.393  12.692  67.468  1.00  0.00    -0.220 A  
HETATM   12  C   UNL     1      -9.372  13.377  66.800  1.00  0.00    -0.260 A  
HETATM   13  C   UNL     1      -9.628  14.592  66.156  1.00  0.00    -0.325 A  
HETATM   14  C   UNL     1     -10.914  15.130  66.133  1.00  0.00    -0.331 A  
HETATM   15  C   UNL     1     -11.946  14.449  66.774  1.00  0.00    -0.423 A  
HETATM   16  C   UNL     1     -11.687  13.238  67.433  1.00  0.00    -0.419 A  
BRANCH  14  17
HETATM   17  O   UNL     1     -11.024  16.346  65.517  1.00  0.00    -0.239 OA 
HETATM   18  C   UNL     1     -10.342  17.428  66.138  1.00  0.00    -0.327 C  
ENDBRANCH  14  17
ENDBRANCH  10  11
ENDBRANCH   7   9
ENDBRANCH   6   7
ENDBRANCH   5   6
ENDBRANCH   4   5
ENDBRANCH   3   4
ENDBRANCH   2   3
TORSDOF 8
ENDMDL
MODEL      151
REMARK 921   NORMALIZED FREE ENERGY PREDICTED BY IDOCK:   -3.04 KCAL/MOL
REMARK 922        TOTAL FREE ENERGY PREDICTED BY IDOCK:   -5.12 KCAL/MOL
REMARK 923 INTER-LIGAND FREE ENERGY PREDICTED BY IDOCK:   -4.72 KCAL/MOL
REMARK 924 INTRA-LIGAND FREE ENERGY PREDICTED BY IDOCK:   -0.41 KCAL/MOL
REMARK 927      BINDING AFFINITY PREDICTED BY RF-SCORE:    0.00 PKD
ROOT
HETATM    1  C   UNL     1      -9.324   2.992  72.710  1.00  0.00    -0.135 C  
HETATM    2  C   UNL     1     -10.397   3.242  73.754  1.00  0.00    -0.155 C  
ENDROOT
BRANCH   2   3
HETATM    3  O   UNL     1     -11.106   4.418  73.383  1.00  0.00    -0.260 OA 
BRANCH   3   4
HETATM    4  C   UNL     1     -10.239   5.504  73.045  1.00  0.00    -0.188 C  
BRANCH   4   5
HETATM    5  C   UNL     1     -11.026   6.438  72.140  1.00  0.00    -0.251 C  
BRANCH   5   6
HETATM    6  O   UNL     1     -10.980   7.806  72.554  1.00  0.00    -0.280 OA 
BRANCH   6   7
HETATM    7  C   UNL     1      -9.843   8.459  72.208  1.00  0.00    -0.313 C  
HETATM    8  O   UNL     1      -8.911   8.740  72.941  1.00  0.00    -0.362 OA 
BRANCH   7   9
HETATM    9  C   UNL     1      -9.861   8.583  70.735  1.00  0.00    -0.220 C  
HETATM   10  C   UNL     1     -10.654   9.482  70.128  1.00  0.00    -0.298 C  
BRANCH  10  11
HETATM   11  C   UNL     1     -10.548   9.822  68.700  1.00  0.00    -0.249 A  
HETATM   12  C   UNL     1     -10.955  11.053  68.173  1.00  0.00    -0.301 A  
HETATM   13  C   UNL     1     -10.895  11.297  66.797  1.00  0.00    -0.334 A  
HETATM   14  C   UNL     1     -10.395  10.333  65.923  1.00  0.00    -0.171 A  
HETATM   15  C   UNL     1      -9.964   9.111  66.434  1.00  0.00    -0.358 A  
HETATM   16  C   UNL     1     -10.038   8.861  67.813  1.00  0.00    -0.263 A  
BRANCH  14  17
HETATM   17  O   UNL     1     -10.436  10.671  64.599  1.00  0.00    -0.336 OA 
HETATM   18  C   UNL     1      -9.191  10.670  63.912  1.00  0.00    -0.243 C  
ENDBRANCH  14  17
ENDBRANCH  10  11
ENDBRANCH   7   9
ENDBRANCH   6   7
ENDBRANCH   5   6
ENDBRANCH   4   5
ENDBRANCH   3   4
ENDBRANCH   2   3
TORSDOF 8
ENDMDL
MODEL      152
REMARK 921   NORMALIZED FREE ENERGY PREDICTED BY IDOCK:   -3.01 KCAL/MOL
REMARK 922        TOTAL FREE ENERGY PREDICTED BY IDOCK:   -5.07 KCAL/MOL
REMARK 923 INTER-LIGAND FREE ENERGY PREDICTED BY IDOCK:   -4.57 KCAL/MOL
REMARK 924 INTRA-LIGAND FREE ENERGY PREDICTED BY IDOCK:   -0.50 KCAL/MOL
REMARK 927      BINDING AFFINITY PREDICTED BY RF-SCORE:    0.00 PKD
ROOT
HETATM    1  C   UNL     1     -12.548  15.760  74.306  1.00  0.00    -0.734 C  
HETATM    2  C   UNL     1     -11.964  15.387  72.955  1.00  0.00    -0.448 C  
ENDROOT
BRANCH   2   3
HETATM    3  O   UNL     1     -12.664  14.247  72.472  1.00  0.00    -0.334 OA 
BRANCH   3   4
HETATM    4  C   UNL     1     -13.341  14.494  71.238  1.00  0.00    -0.365 C  
BRANCH   4   5
HETATM    5  C   UNL     1     -12.499  13.871  70.135  1.00  0.00    -0.292 C  
BRANCH   5   6
HETATM    6  O   UNL     1     -12.020  14.820  69.178  1.00  0.00    -0.303 OA 
BRANCH   6   7
HETATM    7  C   UNL     1     -10.674  14.986  69.177  1.00  0.00    -0.249 C  
HETATM    8  O   UNL     1     -10.018  15.634  69.973  1.00  0.00    -0.290 OA 
BRANCH   7   9
HETATM    9  C   UNL     1     -10.138  14.066  68.151  1.00  0.00    -0.244 C  
HETATM   10  C   UNL     1      -8.997  13.388  68.360  1.00  0.00    -0.136 C  
BRANCH  10  11
HETATM   11  C   UNL     1      -8.537  12.289  67.495  1.00  0.00    -0.174 A  
HETATM   12  C   UNL     1      -9.409  11.394  66.864  1.00  0.00    -0.191 A  
HETATM   13  C   UNL     1      -8.913  10.326  66.108  1.00  0.00    -0.174 A  
HETATM   14  C   UNL     1      -7.540  10.150  65.938  1.00  0.00    -0.128 A  
HETATM   15  C   UNL     1      -6.660  11.046  66.541  1.00  0.00    -0.132 A  
HETATM   16  C   UNL     1      -7.157  12.108  67.311  1.00  0.00    -0.144 A  
BRANCH  14  17
HETATM   17  O   UNL     1      -7.181   9.042  65.222  1.00  0.00    -0.086 OA 
HETATM   18  C   UNL     1      -8.245   8.304  64.634  1.00  0.00    -0.142 C  
ENDBRANCH  14  17
ENDBRANCH  10  11
ENDBRANCH   7   9
ENDBRANCH   6   7
ENDBRANCH   5   6
ENDBRANCH   4   5
ENDBRANCH   3   4
ENDBRANCH   2   3
TORSDOF 8
ENDMDL
MODEL      153
REMARK 921   NORMALIZED FREE ENERGY PREDICTED BY IDOCK:   -2.99 KCAL/MOL
REMARK 922        TOTAL FREE ENERGY PREDICTED BY IDOCK:   -5.05 KCAL/MOL
REMARK 923 INTER-LIGAND FREE ENERGY PREDICTED BY IDOCK:   -4.72 KCAL/MOL
REMARK 924 INTRA-LIGAND FREE ENERGY PREDICTED BY IDOCK:   -0.33 KCAL/MOL
REMARK 927      BINDING AFFINITY PREDICTED BY RF-SCORE:    0.00 PKD
ROOT
HETATM    1  C   UNL     1      -5.514   9.979  62.670  1.00  0.00    -0.097 C  
HETATM    2  C   UNL     1      -6.278   9.152  63.688  1.00  0.00    -0.089 C  
ENDROOT
BRANCH   2   3
HETATM    3  O   UNL     1      -7.471   9.852  64.019  1.00  0.00    -0.127 OA 
BRANCH   3   4
HETATM    4  C   UNL     1      -8.542   8.979  64.384  1.00  0.00    -0.150 C  
BRANCH   4   5
HETATM    5  C   UNL     1      -8.230   8.446  65.773  1.00  0.00    -0.131 C  
BRANCH   5   6
HETATM    6  O   UNL     1      -9.346   7.815  66.407  1.00  0.00    -0.182 OA 
BRANCH   6   7
HETATM    7  C   UNL     1      -9.258   7.745  67.759  1.00  0.00    -0.136 C  
HETATM    8  O   UNL     1      -8.438   7.117  68.405  1.00  0.00    -0.124 OA 
BRANCH   7   9
HETATM    9  C   UNL     1     -10.217   8.735  68.294  1.00  0.00    -0.240 C  
HETATM   10  C   UNL     1     -10.734   8.599  69.527  1.00  0.00    -0.189 C  
BRANCH  10  11
HETATM   11  C   UNL     1     -11.496   9.658  70.208  1.00  0.00    -0.288 A  
HETATM   12  C   UNL     1     -11.336  11.020  69.927  1.00  0.00    -0.364 A  
HETATM   13  C   UNL     1     -12.039  11.987  70.654  1.00  0.00    -0.369 A  
HETATM   14  C   UNL     1     -12.941  11.614  71.650  1.00  0.00    -0.378 A  
HETATM   15  C   UNL     1     -13.129  10.262  71.925  1.00  0.00    -0.568 A  
HETATM   16  C   UNL     1     -12.414   9.292  71.206  1.00  0.00    -0.389 A  
BRANCH  14  17
HETATM   17  O   UNL     1     -13.526  12.652  72.322  1.00  0.00    -0.561 OA 
HETATM   18  C   UNL     1     -13.646  13.874  71.605  1.00  0.00    -0.336 C  
ENDBRANCH  14  17
ENDBRANCH  10  11
ENDBRANCH   7   9
ENDBRANCH   6   7
ENDBRANCH   5   6
ENDBRANCH   4   5
ENDBRANCH   3   4
ENDBRANCH   2   3
TORSDOF 8
ENDMDL
MODEL      154
REMARK 921   NORMALIZED FREE ENERGY PREDICTED BY IDOCK:   -2.99 KCAL/MOL
REMARK 922        TOTAL FREE ENERGY PREDICTED BY IDOCK:   -5.04 KCAL/MOL
REMARK 923 INTER-LIGAND FREE ENERGY PREDICTED BY IDOCK:   -4.57 KCAL/MOL
REMARK 924 INTRA-LIGAND FREE ENERGY PREDICTED BY IDOCK:   -0.46 KCAL/MOL
REMARK 927      BINDING AFFINITY PREDICTED BY RF-SCORE:    0.00 PKD
ROOT
HETATM    1  C   UNL     1      -7.385   7.087  71.941  1.00  0.00    -0.086 C  
HETATM    2  C   UNL     1      -8.645   7.875  72.249  1.00  0.00    -0.145 C  
ENDROOT
BRANCH   2   3
HETATM    3  O   UNL     1      -9.765   7.051  71.947  1.00  0.00    -0.158 OA 
BRANCH   3   4
HETATM    4  C   UNL     1     -10.947   7.804  71.665  1.00  0.00    -0.235 C  
BRANCH   4   5
HETATM    5  C   UNL     1     -10.783   8.383  70.269  1.00  0.00    -0.234 C  
BRANCH   5   6
HETATM    6  O   UNL     1     -10.574   7.391  69.260  1.00  0.00    -0.218 OA 
BRANCH   6   7
HETATM    7  C   UNL     1     -10.683   7.852  67.988  1.00  0.00    -0.054 C  
HETATM    8  O   UNL     1     -11.008   7.211  67.005  1.00  0.00    -0.369 OA 
BRANCH   7   9
HETATM    9  C   UNL     1     -10.530   9.321  68.059  1.00  0.00    -0.275 C  
HETATM   10  C   UNL     1     -10.819  10.097  67.002  1.00  0.00    -0.221 C  
BRANCH  10  11
HETATM   11  C   UNL     1     -10.920  11.564  67.075  1.00  0.00    -0.347 A  
HETATM   12  C   UNL     1     -10.303  12.325  68.074  1.00  0.00    -0.220 A  
HETATM   13  C   UNL     1     -10.489  13.710  68.134  1.00  0.00    -0.250 A  
HETATM   14  C   UNL     1     -11.264  14.368  67.179  1.00  0.00    -0.328 A  
HETATM   15  C   UNL     1     -11.865  13.627  66.165  1.00  0.00    -0.424 A  
HETATM   16  C   UNL     1     -11.691  12.236  66.113  1.00  0.00    -0.440 A  
BRANCH  14  17
HETATM   17  O   UNL     1     -11.411  15.713  67.377  1.00  0.00    -0.281 OA 
HETATM   18  C   UNL     1     -10.236  16.501  67.231  1.00  0.00    -0.287 C  
ENDBRANCH  14  17
ENDBRANCH  10  11
ENDBRANCH   7   9
ENDBRANCH   6   7
ENDBRANCH   5   6
ENDBRANCH   4   5
ENDBRANCH   3   4
ENDBRANCH   2   3
TORSDOF 8
ENDMDL
MODEL      155
REMARK 921   NORMALIZED FREE ENERGY PREDICTED BY IDOCK:   -2.99 KCAL/MOL
REMARK 922        TOTAL FREE ENERGY PREDICTED BY IDOCK:   -5.04 KCAL/MOL
REMARK 923 INTER-LIGAND FREE ENERGY PREDICTED BY IDOCK:   -4.69 KCAL/MOL
REMARK 924 INTRA-LIGAND FREE ENERGY PREDICTED BY IDOCK:   -0.35 KCAL/MOL
REMARK 927      BINDING AFFINITY PREDICTED BY RF-SCORE:    0.00 PKD
ROOT
HETATM    1  C   UNL     1      -6.034  11.719  66.938  1.00  0.00    -0.140 C  
HETATM    2  C   UNL     1      -6.700  10.679  66.055  1.00  0.00    -0.128 C  
ENDROOT
BRANCH   2   3
HETATM    3  O   UNL     1      -8.106  10.764  66.257  1.00  0.00    -0.149 OA 
BRANCH   3   4
HETATM    4  C   UNL     1      -8.551   9.997  67.378  1.00  0.00    -0.125 C  
BRANCH   4   5
HETATM    5  C   UNL     1      -8.820  10.975  68.510  1.00  0.00    -0.159 C  
BRANCH   5   6
HETATM    6  O   UNL     1     -10.207  11.108  68.832  1.00  0.00    -0.198 OA 
BRANCH   6   7
HETATM    7  C   UNL     1     -10.911  11.890  67.975  1.00  0.00    -0.216 C  
HETATM    8  O   UNL     1     -11.956  11.606  67.419  1.00  0.00    -0.621 OA 
BRANCH   7   9
HETATM    9  C   UNL     1     -10.274  13.224  68.006  1.00  0.00    -0.240 C  
HETATM   10  C   UNL     1     -10.272  14.013  66.918  1.00  0.00    -0.260 C  
BRANCH  10  11
HETATM   11  C   UNL     1      -9.875  15.430  66.944  1.00  0.00    -0.251 A  
HETATM   12  C   UNL     1     -10.721  16.455  67.380  1.00  0.00    -0.278 A  
HETATM   13  C   UNL     1     -10.315  17.792  67.319  1.00  0.00    -0.364 A  
HETATM   14  C   UNL     1      -9.044  18.131  66.856  1.00  0.00    -0.274 A  
HETATM   15  C   UNL     1      -8.181  17.120  66.440  1.00  0.00    -0.327 A  
HETATM   16  C   UNL     1      -8.594  15.780  66.488  1.00  0.00    -0.343 A  
BRANCH  14  17
HETATM   17  O   UNL     1      -8.786  19.473  66.797  1.00  0.00    -0.290 OA 
HETATM   18  C   UNL     1      -7.595  19.852  66.118  1.00  0.00    -0.324 C  
ENDBRANCH  14  17
ENDBRANCH  10  11
ENDBRANCH   7   9
ENDBRANCH   6   7
ENDBRANCH   5   6
ENDBRANCH   4   5
ENDBRANCH   3   4
ENDBRANCH   2   3
TORSDOF 8
ENDMDL
MODEL      156
REMARK 921   NORMALIZED FREE ENERGY PREDICTED BY IDOCK:   -2.99 KCAL/MOL
REMARK 922        TOTAL FREE ENERGY PREDICTED BY IDOCK:   -5.03 KCAL/MOL
REMARK 923 INTER-LIGAND FREE ENERGY PREDICTED BY IDOCK:   -4.81 KCAL/MOL
REMARK 924 INTRA-LIGAND FREE ENERGY PREDICTED BY IDOCK:   -0.22 KCAL/MOL
REMARK 927      BINDING AFFINITY PREDICTED BY RF-SCORE:    0.00 PKD
ROOT
HETATM    1  C   UNL     1     -10.725  19.363  66.797  1.00  0.00    -0.550 C  
HETATM    2  C   UNL     1      -9.514  18.596  66.297  1.00  0.00    -0.260 C  
ENDROOT
BRANCH   2   3
HETATM    3  O   UNL     1      -8.644  19.520  65.654  1.00  0.00    -0.346 OA 
BRANCH   3   4
HETATM    4  C   UNL     1      -7.332  19.531  66.221  1.00  0.00    -0.268 C  
BRANCH   4   5
HETATM    5  C   UNL     1      -7.475  19.143  67.684  1.00  0.00    -0.237 C  
BRANCH   5   6
HETATM    6  O   UNL     1      -6.285  18.580  68.244  1.00  0.00    -0.200 OA 
BRANCH   6   7
HETATM    7  C   UNL     1      -6.484  17.447  68.963  1.00  0.00    -0.226 C  
HETATM    8  O   UNL     1      -6.018  17.185  70.058  1.00  0.00    -0.237 OA 
BRANCH   7   9
HETATM    9  C   UNL     1      -7.534  16.682  68.258  1.00  0.00    -0.182 C  
HETATM   10  C   UNL     1      -7.313  15.421  67.849  1.00  0.00    -0.155 C  
BRANCH  10  11
HETATM   11  C   UNL     1      -8.377  14.528  67.361  1.00  0.00    -0.217 A  
HETATM   12  C   UNL     1      -8.416  13.157  67.643  1.00  0.00    -0.194 A  
HETATM   13  C   UNL     1      -9.413  12.343  67.096  1.00  0.00    -0.198 A  
HETATM   14  C   UNL     1     -10.412  12.885  66.288  1.00  0.00    -0.270 A  
HETATM   15  C   UNL     1     -10.401  14.251  66.017  1.00  0.00    -0.318 A  
HETATM   16  C   UNL     1      -9.392  15.065  66.554  1.00  0.00    -0.309 A  
BRANCH  14  17
HETATM   17  O   UNL     1     -11.298  11.979  65.774  1.00  0.00    -0.330 OA 
HETATM   18  C   UNL     1     -11.134  11.652  64.400  1.00  0.00    -0.317 C  
ENDBRANCH  14  17
ENDBRANCH  10  11
ENDBRANCH   7   9
ENDBRANCH   6   7
ENDBRANCH   5   6
ENDBRANCH   4   5
ENDBRANCH   3   4
ENDBRANCH   2   3
TORSDOF 8
ENDMDL
MODEL      157
REMARK 921   NORMALIZED FREE ENERGY PREDICTED BY IDOCK:   -2.98 KCAL/MOL
REMARK 922        TOTAL FREE ENERGY PREDICTED BY IDOCK:   -5.02 KCAL/MOL
REMARK 923 INTER-LIGAND FREE ENERGY PREDICTED BY IDOCK:   -4.55 KCAL/MOL
REMARK 924 INTRA-LIGAND FREE ENERGY PREDICTED BY IDOCK:   -0.47 KCAL/MOL
REMARK 927      BINDING AFFINITY PREDICTED BY RF-SCORE:    0.00 PKD
ROOT
HETATM    1  C   UNL     1      -8.599   7.016  68.195  1.00  0.00    -0.128 C  
HETATM    2  C   UNL     1      -9.692   7.439  69.160  1.00  0.00    -0.165 C  
ENDROOT
BRANCH   2   3
HETATM    3  O   UNL     1      -9.327   8.696  69.716  1.00  0.00    -0.161 OA 
BRANCH   3   4
HETATM    4  C   UNL     1     -10.118   9.775  69.212  1.00  0.00    -0.198 C  
BRANCH   4   5
HETATM    5  C   UNL     1      -9.156  10.819  68.669  1.00  0.00    -0.173 C  
BRANCH   5   6
HETATM    6  O   UNL     1      -8.858  10.653  67.280  1.00  0.00    -0.136 OA 
BRANCH   6   7
HETATM    7  C   UNL     1      -9.679  11.339  66.445  1.00  0.00    -0.209 C  
HETATM    8  O   UNL     1     -10.637  10.895  65.836  1.00  0.00    -0.241 OA 
BRANCH   7   9
HETATM    9  C   UNL     1      -9.313  12.765  66.573  1.00  0.00    -0.221 C  
HETATM   10  C   UNL     1     -10.197  13.734  66.282  1.00  0.00    -0.298 C  
BRANCH  10  11
HETATM   11  C   UNL     1      -9.984  15.152  66.612  1.00  0.00    -0.261 A  
HETATM   12  C   UNL     1      -8.921  15.907  66.103  1.00  0.00    -0.376 A  
HETATM   13  C   UNL     1      -8.728  17.233  66.505  1.00  0.00    -0.293 A  
HETATM   14  C   UNL     1      -9.612  17.844  67.394  1.00  0.00    -0.271 A  
HETATM   15  C   UNL     1     -10.689  17.114  67.891  1.00  0.00    -0.355 A  
HETATM   16  C   UNL     1     -10.874  15.779  67.499  1.00  0.00    -0.315 A  
BRANCH  14  17
HETATM   17  O   UNL     1      -9.287  19.124  67.748  1.00  0.00    -0.294 OA 
HETATM   18  C   UNL     1     -10.031  19.686  68.822  1.00  0.00    -0.451 C  
ENDBRANCH  14  17
ENDBRANCH  10  11
ENDBRANCH   7   9
ENDBRANCH   6   7
ENDBRANCH   5   6
ENDBRANCH   4   5
ENDBRANCH   3   4
ENDBRANCH   2   3
TORSDOF 8
ENDMDL
MODEL      158
REMARK 921   NORMALIZED FREE ENERGY PREDICTED BY IDOCK:   -2.97 KCAL/MOL
REMARK 922        TOTAL FREE ENERGY PREDICTED BY IDOCK:   -5.01 KCAL/MOL
REMARK 923 INTER-LIGAND FREE ENERGY PREDICTED BY IDOCK:   -4.57 KCAL/MOL
REMARK 924 INTRA-LIGAND FREE ENERGY PREDICTED BY IDOCK:   -0.44 KCAL/MOL
REMARK 927      BINDING AFFINITY PREDICTED BY RF-SCORE:    0.00 PKD
ROOT
HETATM    1  C   UNL     1      -5.717   6.605  64.167  1.00  0.00    -0.031 C  
HETATM    2  C   UNL     1      -6.304   6.265  65.525  1.00  0.00    -0.038 C  
ENDROOT
BRANCH   2   3
HETATM    3  O   UNL     1      -6.566   7.484  66.210  1.00  0.00    -0.047 OA 
BRANCH   3   4
HETATM    4  C   UNL     1      -6.610   8.612  65.333  1.00  0.00    -0.067 C  
BRANCH   4   5
HETATM    5  C   UNL     1      -7.818   9.442  65.735  1.00  0.00    -0.099 C  
BRANCH   5   6
HETATM    6  O   UNL     1      -8.513   8.925  66.872  1.00  0.00    -0.111 OA 
BRANCH   6   7
HETATM    7  C   UNL     1      -9.850   8.776  66.694  1.00  0.00    -0.265 C  
HETATM    8  O   UNL     1     -10.448   7.735  66.488  1.00  0.00    -0.227 OA 
BRANCH   7   9
HETATM    9  C   UNL     1     -10.463  10.087  66.999  1.00  0.00    -0.302 C  
HETATM   10  C   UNL     1     -11.099  10.298  68.164  1.00  0.00    -0.324 C  
BRANCH  10  11
HETATM   11  C   UNL     1     -11.517  11.629  68.630  1.00  0.00    -0.349 A  
HETATM   12  C   UNL     1     -11.535  12.760  67.806  1.00  0.00    -0.376 A  
HETATM   13  C   UNL     1     -11.876  14.015  68.321  1.00  0.00    -0.406 A  
HETATM   14  C   UNL     1     -12.242  14.162  69.659  1.00  0.00    -0.326 A  
HETATM   15  C   UNL     1     -12.252  13.042  70.487  1.00  0.00    -0.392 A  
HETATM   16  C   UNL     1     -11.895  11.785  69.974  1.00  0.00    -0.422 A  
BRANCH  14  17
HETATM   17  O   UNL     1     -12.503  15.445  70.052  1.00  0.00    -0.345 OA 
HETATM   18  C   UNL     1     -13.168  15.595  71.301  1.00  0.00    -0.443 C  
ENDBRANCH  14  17
ENDBRANCH  10  11
ENDBRANCH   7   9
ENDBRANCH   6   7
ENDBRANCH   5   6
ENDBRANCH   4   5
ENDBRANCH   3   4
ENDBRANCH   2   3
TORSDOF 8
ENDMDL
MODEL      159
REMARK 921   NORMALIZED FREE ENERGY PREDICTED BY IDOCK:   -2.96 KCAL/MOL
REMARK 922        TOTAL FREE ENERGY PREDICTED BY IDOCK:   -4.99 KCAL/MOL
REMARK 923 INTER-LIGAND FREE ENERGY PREDICTED BY IDOCK:   -4.49 KCAL/MOL
REMARK 924 INTRA-LIGAND FREE ENERGY PREDICTED BY IDOCK:   -0.50 KCAL/MOL
REMARK 927      BINDING AFFINITY PREDICTED BY RF-SCORE:    0.00 PKD
ROOT
HETATM    1  C   UNL     1      -7.611   9.533  66.814  1.00  0.00    -0.098 C  
HETATM    2  C   UNL     1      -8.805  10.358  66.370  1.00  0.00    -0.147 C  
ENDROOT
BRANCH   2   3
HETATM    3  O   UNL     1      -9.977   9.768  66.920  1.00  0.00    -0.189 OA 
BRANCH   3   4
HETATM    4  C   UNL     1     -11.016  10.720  67.159  1.00  0.00    -0.260 C  
BRANCH   4   5
HETATM    5  C   UNL     1     -10.506  11.681  68.221  1.00  0.00    -0.204 C  
BRANCH   5   6
HETATM    6  O   UNL     1     -10.415  11.097  69.523  1.00  0.00    -0.164 OA 
BRANCH   6   7
HETATM    7  C   UNL     1     -11.611  10.867  70.120  1.00  0.00    -0.338 C  
HETATM    8  O   UNL     1     -12.588  11.595  70.102  1.00  0.00    -0.154 OA 
BRANCH   7   9
HETATM    9  C   UNL     1     -11.570   9.477  70.622  1.00  0.00    -0.350 C  
HETATM   10  C   UNL     1     -10.554   9.051  71.392  1.00  0.00    -0.393 C  
BRANCH  10  11
HETATM   11  C   UNL     1     -10.568   7.770  72.117  1.00  0.00    -0.295 A  
HETATM   12  C   UNL     1     -11.152   6.606  71.605  1.00  0.00    -0.290 A  
HETATM   13  C   UNL     1     -11.196   5.434  72.367  1.00  0.00    -0.272 A  
HETATM   14  C   UNL     1     -10.626   5.388  73.639  1.00  0.00    -0.279 A  
HETATM   15  C   UNL     1     -10.020   6.532  74.153  1.00  0.00    -0.344 A  
HETATM   16  C   UNL     1      -9.989   7.712  73.395  1.00  0.00    -0.373 A  
BRANCH  14  17
HETATM   17  O   UNL     1     -10.779   4.202  74.302  1.00  0.00    -0.237 OA 
HETATM   18  C   UNL     1      -9.752   3.237  74.106  1.00  0.00    -0.101 C  
ENDBRANCH  14  17
ENDBRANCH  10  11
ENDBRANCH   7   9
ENDBRANCH   6   7
ENDBRANCH   5   6
ENDBRANCH   4   5
ENDBRANCH   3   4
ENDBRANCH   2   3
TORSDOF 8
ENDMDL
MODEL      160
REMARK 921   NORMALIZED FREE ENERGY PREDICTED BY IDOCK:   -2.95 KCAL/MOL
REMARK 922        TOTAL FREE ENERGY PREDICTED BY IDOCK:   -4.98 KCAL/MOL
REMARK 923 INTER-LIGAND FREE ENERGY PREDICTED BY IDOCK:   -4.62 KCAL/MOL
REMARK 924 INTRA-LIGAND FREE ENERGY PREDICTED BY IDOCK:   -0.37 KCAL/MOL
REMARK 927      BINDING AFFINITY PREDICTED BY RF-SCORE:    0.00 PKD
ROOT
HETATM    1  C   UNL     1      -6.890   6.681  62.813  1.00  0.00    -0.043 C  
HETATM    2  C   UNL     1      -7.791   6.461  64.015  1.00  0.00    -0.111 C  
ENDROOT
BRANCH   2   3
HETATM    3  O   UNL     1      -7.920   7.700  64.702  1.00  0.00    -0.134 OA 
BRANCH   3   4
HETATM    4  C   UNL     1      -8.057   8.812  63.815  1.00  0.00    -0.165 C  
BRANCH   4   5
HETATM    5  C   UNL     1      -9.146   9.706  64.386  1.00  0.00    -0.229 C  
BRANCH   5   6
HETATM    6  O   UNL     1      -9.032   9.916  65.796  1.00  0.00    -0.143 OA 
BRANCH   6   7
HETATM    7  C   UNL     1     -10.097  10.540  66.359  1.00  0.00    -0.228 C  
HETATM    8  O   UNL     1     -10.877  10.067  67.166  1.00  0.00    -0.243 OA 
BRANCH   7   9
HETATM    9  C   UNL     1     -10.009  11.961  65.962  1.00  0.00    -0.258 C  
HETATM   10  C   UNL     1     -10.897  12.861  66.416  1.00  0.00    -0.293 C  
BRANCH  10  11
HETATM   11  C   UNL     1     -10.732  14.315  66.258  1.00  0.00    -0.297 A  
HETATM   12  C   UNL     1     -11.135  15.013  65.114  1.00  0.00    -0.408 A  
HETATM   13  C   UNL     1     -10.891  16.385  64.990  1.00  0.00    -0.289 A  
HETATM   14  C   UNL     1     -10.273  17.095  66.019  1.00  0.00    -0.321 A  
HETATM   15  C   UNL     1      -9.886  16.419  67.174  1.00  0.00    -0.249 A  
HETATM   16  C   UNL     1     -10.118  15.040  67.292  1.00  0.00    -0.235 A  
BRANCH  14  17
HETATM   17  O   UNL     1     -10.044  18.417  65.757  1.00  0.00    -0.553 OA 
HETATM   18  C   UNL     1     -10.769  19.349  66.551  1.00  0.00    -0.418 C  
ENDBRANCH  14  17
ENDBRANCH  10  11
ENDBRANCH   7   9
ENDBRANCH   6   7
ENDBRANCH   5   6
ENDBRANCH   4   5
ENDBRANCH   3   4
ENDBRANCH   2   3
TORSDOF 8
ENDMDL
MODEL      161
REMARK 921   NORMALIZED FREE ENERGY PREDICTED BY IDOCK:   -2.95 KCAL/MOL
REMARK 922        TOTAL FREE ENERGY PREDICTED BY IDOCK:   -4.98 KCAL/MOL
REMARK 923 INTER-LIGAND FREE ENERGY PREDICTED BY IDOCK:   -4.53 KCAL/MOL
REMARK 924 INTRA-LIGAND FREE ENERGY PREDICTED BY IDOCK:   -0.45 KCAL/MOL
REMARK 927      BINDING AFFINITY PREDICTED BY RF-SCORE:    0.00 PKD
ROOT
HETATM    1  C   UNL     1      -6.650  17.258  68.628  1.00  0.00    -0.186 C  
HETATM    2  C   UNL     1      -8.019  16.691  68.297  1.00  0.00    -0.192 C  
ENDROOT
BRANCH   2   3
HETATM    3  O   UNL     1      -8.939  17.773  68.228  1.00  0.00    -0.263 OA 
BRANCH   3   4
HETATM    4  C   UNL     1     -10.302  17.341  68.221  1.00  0.00    -0.361 C  
BRANCH   4   5
HETATM    5  C   UNL     1     -10.543  16.648  66.890  1.00  0.00    -0.229 C  
BRANCH   5   6
HETATM    6  O   UNL     1     -10.981  15.293  67.023  1.00  0.00    -0.322 OA 
BRANCH   6   7
HETATM    7  C   UNL     1     -10.382  14.423  66.172  1.00  0.00    -0.298 C  
HETATM    8  O   UNL     1     -10.041  14.643  65.023  1.00  0.00    -0.384 OA 
BRANCH   7   9
HETATM    9  C   UNL     1     -10.038  13.226  66.969  1.00  0.00    -0.242 C  
HETATM   10  C   UNL     1     -10.962  12.612  67.727  1.00  0.00    -0.266 C  
BRANCH  10  11
HETATM   11  C   UNL     1     -10.756  11.295  68.349  1.00  0.00    -0.238 A  
HETATM   12  C   UNL     1     -10.713  11.099  69.734  1.00  0.00    -0.069 A  
HETATM   13  C   UNL     1     -10.446   9.834  70.270  1.00  0.00    -0.345 A  
HETATM   14  C   UNL     1     -10.252   8.733  69.436  1.00  0.00    -0.210 A  
HETATM   15  C   UNL     1     -10.315   8.907  68.056  1.00  0.00    -0.271 A  
HETATM   16  C   UNL     1     -10.568  10.178  67.518  1.00  0.00    -0.327 A  
BRANCH  14  17
HETATM   17  O   UNL     1      -9.948   7.565  70.078  1.00  0.00    -0.183 OA 
HETATM   18  C   UNL     1      -8.571   7.339  70.351  1.00  0.00    -0.144 C  
ENDBRANCH  14  17
ENDBRANCH  10  11
ENDBRANCH   7   9
ENDBRANCH   6   7
ENDBRANCH   5   6
ENDBRANCH   4   5
ENDBRANCH   3   4
ENDBRANCH   2   3
TORSDOF 8
ENDMDL
MODEL      162
REMARK 921   NORMALIZED FREE ENERGY PREDICTED BY IDOCK:   -2.92 KCAL/MOL
REMARK 922        TOTAL FREE ENERGY PREDICTED BY IDOCK:   -4.94 KCAL/MOL
REMARK 923 INTER-LIGAND FREE ENERGY PREDICTED BY IDOCK:   -4.53 KCAL/MOL
REMARK 924 INTRA-LIGAND FREE ENERGY PREDICTED BY IDOCK:   -0.41 KCAL/MOL
REMARK 927      BINDING AFFINITY PREDICTED BY RF-SCORE:    0.00 PKD
ROOT
HETATM    1  C   UNL     1      -7.404   8.968  70.477  1.00  0.00    -0.086 C  
HETATM    2  C   UNL     1      -8.795   8.676  69.942  1.00  0.00    -0.144 C  
ENDROOT
BRANCH   2   3
HETATM    3  O   UNL     1      -9.319   9.881  69.398  1.00  0.00    -0.187 OA 
BRANCH   3   4
HETATM    4  C   UNL     1     -10.748   9.915  69.402  1.00  0.00    -0.232 C  
BRANCH   4   5
HETATM    5  C   UNL     1     -11.168  11.143  68.612  1.00  0.00    -0.255 C  
BRANCH   5   6
HETATM    6  O   UNL     1     -10.611  11.193  67.295  1.00  0.00    -0.213 OA 
BRANCH   6   7
HETATM    7  C   UNL     1     -11.162  12.133  66.487  1.00  0.00    -0.328 C  
HETATM    8  O   UNL     1     -12.337  12.232  66.178  1.00  0.00    -0.588 OA 
BRANCH   7   9
HETATM    9  C   UNL     1     -10.104  13.130  66.220  1.00  0.00    -0.285 C  
HETATM   10  C   UNL     1     -10.089  14.311  66.860  1.00  0.00    -0.264 C  
BRANCH  10  11
HETATM   11  C   UNL     1      -8.948  15.240  66.823  1.00  0.00    -0.291 A  
HETATM   12  C   UNL     1      -8.981  16.467  66.150  1.00  0.00    -0.367 A  
HETATM   13  C   UNL     1      -7.844  17.279  66.090  1.00  0.00    -0.305 A  
HETATM   14  C   UNL     1      -6.663  16.903  66.730  1.00  0.00    -0.227 A  
HETATM   15  C   UNL     1      -6.622  15.696  67.424  1.00  0.00    -0.194 A  
HETATM   16  C   UNL     1      -7.758  14.873  67.471  1.00  0.00    -0.214 A  
BRANCH  14  17
HETATM   17  O   UNL     1      -5.609  17.756  66.555  1.00  0.00    -0.145 OA 
HETATM   18  C   UNL     1      -5.607  18.509  65.348  1.00  0.00    -0.204 C  
ENDBRANCH  14  17
ENDBRANCH  10  11
ENDBRANCH   7   9
ENDBRANCH   6   7
ENDBRANCH   5   6
ENDBRANCH   4   5
ENDBRANCH   3   4
ENDBRANCH   2   3
TORSDOF 8
ENDMDL
MODEL      163
REMARK 921   NORMALIZED FREE ENERGY PREDICTED BY IDOCK:   -2.92 KCAL/MOL
REMARK 922        TOTAL FREE ENERGY PREDICTED BY IDOCK:   -4.93 KCAL/MOL
REMARK 923 INTER-LIGAND FREE ENERGY PREDICTED BY IDOCK:   -4.54 KCAL/MOL
REMARK 924 INTRA-LIGAND FREE ENERGY PREDICTED BY IDOCK:   -0.39 KCAL/MOL
REMARK 927      BINDING AFFINITY PREDICTED BY RF-SCORE:    0.00 PKD
ROOT
HETATM    1  C   UNL     1      -8.479   2.156  66.461  1.00  0.00    -0.101 C  
HETATM    2  C   UNL     1      -8.668   3.662  66.489  1.00  0.00    -0.121 C  
ENDROOT
BRANCH   2   3
HETATM    3  O   UNL     1      -9.773   3.951  67.337  1.00  0.00    -0.198 OA 
BRANCH   3   4
HETATM    4  C   UNL     1      -9.398   4.695  68.499  1.00  0.00    -0.138 C  
BRANCH   4   5
HETATM    5  C   UNL     1      -9.262   6.148  68.074  1.00  0.00    -0.116 C  
BRANCH   5   6
HETATM    6  O   UNL     1      -8.993   7.038  69.161  1.00  0.00    -0.135 OA 
BRANCH   6   7
HETATM    7  C   UNL     1     -10.082   7.366  69.901  1.00  0.00    -0.195 C  
HETATM    8  O   UNL     1     -10.356   6.960  71.016  1.00  0.00    -0.204 OA 
BRANCH   7   9
HETATM    9  C   UNL     1     -10.763   8.463  69.180  1.00  0.00    -0.123 C  
HETATM   10  C   UNL     1     -10.728   9.722  69.647  1.00  0.00    -0.264 C  
BRANCH  10  11
HETATM   11  C   UNL     1     -11.172  10.889  68.869  1.00  0.00    -0.327 A  
HETATM   12  C   UNL     1     -11.143  10.934  67.470  1.00  0.00    -0.375 A  
HETATM   13  C   UNL     1     -11.514  12.095  66.784  1.00  0.00    -0.418 A  
HETATM   14  C   UNL     1     -11.955  13.223  67.476  1.00  0.00    -0.324 A  
HETATM   15  C   UNL     1     -12.012  13.186  68.867  1.00  0.00    -0.317 A  
HETATM   16  C   UNL     1     -11.627  12.026  69.556  1.00  0.00    -0.389 A  
BRANCH  14  17
HETATM   17  O   UNL     1     -12.239  14.309  66.696  1.00  0.00    -0.449 OA 
HETATM   18  C   UNL     1     -11.574  14.371  65.441  1.00  0.00    -0.347 C  
ENDBRANCH  14  17
ENDBRANCH  10  11
ENDBRANCH   7   9
ENDBRANCH   6   7
ENDBRANCH   5   6
ENDBRANCH   4   5
ENDBRANCH   3   4
ENDBRANCH   2   3
TORSDOF 8
ENDMDL
MODEL      164
REMARK 921   NORMALIZED FREE ENERGY PREDICTED BY IDOCK:   -2.92 KCAL/MOL
REMARK 922        TOTAL FREE ENERGY PREDICTED BY IDOCK:   -4.93 KCAL/MOL
REMARK 923 INTER-LIGAND FREE ENERGY PREDICTED BY IDOCK:   -4.55 KCAL/MOL
REMARK 924 INTRA-LIGAND FREE ENERGY PREDICTED BY IDOCK:   -0.38 KCAL/MOL
REMARK 927      BINDING AFFINITY PREDICTED BY RF-SCORE:    0.00 PKD
ROOT
HETATM    1  C   UNL     1      -5.256  10.557  62.922  1.00  0.00    -0.151 C  
HETATM    2  C   UNL     1      -6.064   9.578  63.754  1.00  0.00    -0.096 C  
ENDROOT
BRANCH   2   3
HETATM    3  O   UNL     1      -7.431   9.966  63.686  1.00  0.00    -0.127 OA 
BRANCH   3   4
HETATM    4  C   UNL     1      -8.320   8.942  64.138  1.00  0.00    -0.163 C  
BRANCH   4   5
HETATM    5  C   UNL     1      -8.456   9.101  65.644  1.00  0.00    -0.139 C  
BRANCH   5   6
HETATM    6  O   UNL     1      -9.266   8.092  66.253  1.00  0.00    -0.177 OA 
BRANCH   6   7
HETATM    7  C   UNL     1     -10.055   8.540  67.262  1.00  0.00    -0.251 C  
HETATM    8  O   UNL     1     -10.506   7.883  68.184  1.00  0.00    -0.207 OA 
BRANCH   7   9
HETATM    9  C   UNL     1     -10.096  10.013  67.141  1.00  0.00    -0.265 C  
HETATM   10  C   UNL     1     -11.223  10.697  67.402  1.00  0.00    -0.280 C  
BRANCH  10  11
HETATM   11  C   UNL     1     -11.270  12.162  67.534  1.00  0.00    -0.357 A  
HETATM   12  C   UNL     1     -11.910  12.995  66.610  1.00  0.00    -0.455 A  
HETATM   13  C   UNL     1     -11.865  14.386  66.749  1.00  0.00    -0.431 A  
HETATM   14  C   UNL     1     -11.213  14.973  67.833  1.00  0.00    -0.323 A  
HETATM   15  C   UNL     1     -10.591  14.157  68.775  1.00  0.00    -0.258 A  
HETATM   16  C   UNL     1     -10.624  12.762  68.627  1.00  0.00    -0.256 A  
BRANCH  14  17
HETATM   17  O   UNL     1     -11.196  16.340  67.829  1.00  0.00    -0.278 OA 
HETATM   18  C   UNL     1     -10.638  16.963  68.980  1.00  0.00    -0.338 C  
ENDBRANCH  14  17
ENDBRANCH  10  11
ENDBRANCH   7   9
ENDBRANCH   6   7
ENDBRANCH   5   6
ENDBRANCH   4   5
ENDBRANCH   3   4
ENDBRANCH   2   3
TORSDOF 8
ENDMDL
MODEL      165
REMARK 921   NORMALIZED FREE ENERGY PREDICTED BY IDOCK:   -2.89 KCAL/MOL
REMARK 922        TOTAL FREE ENERGY PREDICTED BY IDOCK:   -4.90 KCAL/MOL
REMARK 923 INTER-LIGAND FREE ENERGY PREDICTED BY IDOCK:   -4.41 KCAL/MOL
REMARK 924 INTRA-LIGAND FREE ENERGY PREDICTED BY IDOCK:   -0.49 KCAL/MOL
REMARK 927      BINDING AFFINITY PREDICTED BY RF-SCORE:    0.00 PKD
ROOT
HETATM    1  C   UNL     1      -8.177   4.652  64.043  1.00  0.00    -0.114 C  
HETATM    2  C   UNL     1      -9.303   3.635  63.982  1.00  0.00    -0.136 C  
ENDROOT
BRANCH   2   3
HETATM    3  O   UNL     1     -10.364   4.104  64.804  1.00  0.00    -0.229 OA 
BRANCH   3   4
HETATM    4  C   UNL     1     -10.024   4.116  66.193  1.00  0.00    -0.173 C  
BRANCH   4   5
HETATM    5  C   UNL     1     -10.673   5.350  66.800  1.00  0.00    -0.211 C  
BRANCH   5   6
HETATM    6  O   UNL     1      -9.870   5.983  67.799  1.00  0.00    -0.112 OA 
BRANCH   6   7
HETATM    7  C   UNL     1      -9.040   6.947  67.325  1.00  0.00    -0.124 C  
HETATM    8  O   UNL     1      -7.916   6.789  66.883  1.00  0.00    -0.106 OA 
BRANCH   7   9
HETATM    9  C   UNL     1      -9.836   8.191  67.260  1.00  0.00    -0.259 C  
HETATM   10  C   UNL     1      -9.304   9.326  66.778  1.00  0.00    -0.202 C  
BRANCH  10  11
HETATM   11  C   UNL     1     -10.098  10.525  66.463  1.00  0.00    -0.280 A  
HETATM   12  C   UNL     1      -9.945  11.258  65.281  1.00  0.00    -0.301 A  
HETATM   13  C   UNL     1     -10.679  12.429  65.065  1.00  0.00    -0.329 A  
HETATM   14  C   UNL     1     -11.606  12.873  66.007  1.00  0.00    -0.375 A  
HETATM   15  C   UNL     1     -11.787  12.142  67.179  1.00  0.00    -0.292 A  
HETATM   16  C   UNL     1     -11.040  10.975  67.402  1.00  0.00    -0.370 A  
BRANCH  14  17
HETATM   17  O   UNL     1     -12.221  14.056  65.704  1.00  0.00    -0.394 OA 
HETATM   18  C   UNL     1     -11.771  14.712  64.525  1.00  0.00    -0.401 C  
ENDBRANCH  14  17
ENDBRANCH  10  11
ENDBRANCH   7   9
ENDBRANCH   6   7
ENDBRANCH   5   6
ENDBRANCH   4   5
ENDBRANCH   3   4
ENDBRANCH   2   3
TORSDOF 8
ENDMDL
MODEL      166
REMARK 921   NORMALIZED FREE ENERGY PREDICTED BY IDOCK:   -2.88 KCAL/MOL
REMARK 922        TOTAL FREE ENERGY PREDICTED BY IDOCK:   -4.88 KCAL/MOL
REMARK 923 INTER-LIGAND FREE ENERGY PREDICTED BY IDOCK:   -4.39 KCAL/MOL
REMARK 924 INTRA-LIGAND FREE ENERGY PREDICTED BY IDOCK:   -0.49 KCAL/MOL
REMARK 927      BINDING AFFINITY PREDICTED BY RF-SCORE:    0.00 PKD
ROOT
HETATM    1  C   UNL     1     -12.845  12.020  63.545  1.00  0.00    -0.472 C  
HETATM    2  C   UNL     1     -12.104  12.940  64.498  1.00  0.00    -0.413 C  
ENDROOT
BRANCH   2   3
HETATM    3  O   UNL     1     -12.427  12.549  65.827  1.00  0.00    -0.626 OA 
BRANCH   3   4
HETATM    4  C   UNL     1     -11.301  12.030  66.540  1.00  0.00    -0.354 C  
BRANCH   4   5
HETATM    5  C   UNL     1     -10.065  12.350  65.715  1.00  0.00    -0.253 C  
BRANCH   5   6
HETATM    6  O   UNL     1      -9.100  11.294  65.700  1.00  0.00    -0.209 OA 
BRANCH   6   7
HETATM    7  C   UNL     1      -9.446  10.227  64.936  1.00  0.00    -0.279 C  
HETATM    8  O   UNL     1      -9.985  10.256  63.844  1.00  0.00    -0.278 OA 
BRANCH   7   9
HETATM    9  C   UNL     1      -8.863   9.036  65.589  1.00  0.00    -0.224 C  
HETATM   10  C   UNL     1      -9.594   8.278  66.423  1.00  0.00    -0.300 C  
BRANCH  10  11
HETATM   11  C   UNL     1      -9.159   6.961  66.914  1.00  0.00    -0.152 A  
HETATM   12  C   UNL     1      -9.269   5.787  66.160  1.00  0.00    -0.169 A  
HETATM   13  C   UNL     1      -8.902   4.551  66.703  1.00  0.00    -0.112 A  
HETATM   14  C   UNL     1      -8.385   4.465  67.995  1.00  0.00    -0.094 A  
HETATM   15  C   UNL     1      -8.248   5.627  68.751  1.00  0.00    -0.103 A  
HETATM   16  C   UNL     1      -8.629   6.865  68.211  1.00  0.00    -0.125 A  
BRANCH  14  17
HETATM   17  O   UNL     1      -8.113   3.197  68.429  1.00  0.00    -0.064 OA 
HETATM   18  C   UNL     1      -9.238   2.395  68.766  1.00  0.00    -0.163 C  
ENDBRANCH  14  17
ENDBRANCH  10  11
ENDBRANCH   7   9
ENDBRANCH   6   7
ENDBRANCH   5   6
ENDBRANCH   4   5
ENDBRANCH   3   4
ENDBRANCH   2   3
TORSDOF 8
ENDMDL
MODEL      167
REMARK 921   NORMALIZED FREE ENERGY PREDICTED BY IDOCK:   -2.87 KCAL/MOL
REMARK 922        TOTAL FREE ENERGY PREDICTED BY IDOCK:   -4.86 KCAL/MOL
REMARK 923 INTER-LIGAND FREE ENERGY PREDICTED BY IDOCK:   -4.70 KCAL/MOL
REMARK 924 INTRA-LIGAND FREE ENERGY PREDICTED BY IDOCK:   -0.16 KCAL/MOL
REMARK 927      BINDING AFFINITY PREDICTED BY RF-SCORE:    0.00 PKD
ROOT
HETATM    1  C   UNL     1     -10.385  15.494  68.211  1.00  0.00    -0.235 C  
HETATM    2  C   UNL     1     -11.522  16.240  68.886  1.00  0.00    -0.282 C  
ENDROOT
BRANCH   2   3
HETATM    3  O   UNL     1     -11.015  16.837  70.073  1.00  0.00    -0.275 OA 
BRANCH   3   4
HETATM    4  C   UNL     1     -11.193  16.012  71.227  1.00  0.00    -0.220 C  
BRANCH   4   5
HETATM    5  C   UNL     1     -12.688  15.790  71.390  1.00  0.00    -0.447 C  
BRANCH   5   6
HETATM    6  O   UNL     1     -13.020  14.910  72.467  1.00  0.00    -0.331 OA 
BRANCH   6   7
HETATM    7  C   UNL     1     -13.378  13.659  72.081  1.00  0.00    -0.494 C  
HETATM    8  O   UNL     1     -14.382  13.053  72.410  1.00  0.00    -0.458 OA 
BRANCH   7   9
HETATM    9  C   UNL     1     -12.421  13.256  71.027  1.00  0.00    -0.422 C  
HETATM   10  C   UNL     1     -12.132  11.961  70.816  1.00  0.00    -0.325 C  
BRANCH  10  11
HETATM   11  C   UNL     1     -11.385  11.477  69.644  1.00  0.00    -0.329 A  
HETATM   12  C   UNL     1     -11.695  10.288  68.975  1.00  0.00    -0.083 A  
HETATM   13  C   UNL     1     -10.908   9.842  67.908  1.00  0.00    -0.298 A  
HETATM   14  C   UNL     1      -9.818  10.590  67.464  1.00  0.00    -0.168 A  
HETATM   15  C   UNL     1      -9.510  11.788  68.106  1.00  0.00    -0.193 A  
HETATM   16  C   UNL     1     -10.291  12.228  69.185  1.00  0.00     0.110 A  
BRANCH  14  17
HETATM   17  O   UNL     1      -9.099  10.023  66.450  1.00  0.00    -0.145 OA 
HETATM   18  C   UNL     1      -9.763   9.015  65.698  1.00  0.00    -0.108 C  
ENDBRANCH  14  17
ENDBRANCH  10  11
ENDBRANCH   7   9
ENDBRANCH   6   7
ENDBRANCH   5   6
ENDBRANCH   4   5
ENDBRANCH   3   4
ENDBRANCH   2   3
TORSDOF 8
ENDMDL
MODEL      168
REMARK 921   NORMALIZED FREE ENERGY PREDICTED BY IDOCK:   -2.86 KCAL/MOL
REMARK 922        TOTAL FREE ENERGY PREDICTED BY IDOCK:   -4.85 KCAL/MOL
REMARK 923 INTER-LIGAND FREE ENERGY PREDICTED BY IDOCK:   -4.39 KCAL/MOL
REMARK 924 INTRA-LIGAND FREE ENERGY PREDICTED BY IDOCK:   -0.46 KCAL/MOL
REMARK 927      BINDING AFFINITY PREDICTED BY RF-SCORE:    0.00 PKD
ROOT
HETATM    1  C   UNL     1     -13.939  13.676  72.637  1.00  0.00    -0.406 C  
HETATM    2  C   UNL     1     -13.046  12.824  71.753  1.00  0.00    -0.356 C  
ENDROOT
BRANCH   2   3
HETATM    3  O   UNL     1     -12.493  13.664  70.747  1.00  0.00    -0.343 OA 
BRANCH   3   4
HETATM    4  C   UNL     1     -12.190  14.977  71.226  1.00  0.00    -0.320 C  
BRANCH   4   5
HETATM    5  C   UNL     1     -11.745  15.798  70.027  1.00  0.00    -0.355 C  
BRANCH   5   6
HETATM    6  O   UNL     1     -12.021  15.171  68.771  1.00  0.00    -0.314 OA 
BRANCH   6   7
HETATM    7  C   UNL     1     -10.971  15.151  67.911  1.00  0.00    -0.302 C  
HETATM    8  O   UNL     1     -10.497  16.104  67.317  1.00  0.00    -0.300 OA 
BRANCH   7   9
HETATM    9  C   UNL     1     -10.389  13.795  67.990  1.00  0.00    -0.246 C  
HETATM   10  C   UNL     1     -10.165  13.074  66.879  1.00  0.00    -0.244 C  
BRANCH  10  11
HETATM   11  C   UNL     1      -9.376  11.831  66.863  1.00  0.00    -0.197 A  
HETATM   12  C   UNL     1      -8.151  11.692  67.525  1.00  0.00    -0.144 A  
HETATM   13  C   UNL     1      -7.412  10.510  67.419  1.00  0.00    -0.094 A  
HETATM   14  C   UNL     1      -7.895   9.430  66.681  1.00  0.00    -0.104 A  
HETATM   15  C   UNL     1      -9.124   9.544  66.035  1.00  0.00    -0.220 A  
HETATM   16  C   UNL     1      -9.859  10.736  66.129  1.00  0.00    -0.269 A  
BRANCH  14  17
HETATM   17  O   UNL     1      -7.057   8.352  66.612  1.00  0.00    -0.071 OA 
HETATM   18  C   UNL     1      -7.553   7.135  67.157  1.00  0.00    -0.103 C  
ENDBRANCH  14  17
ENDBRANCH  10  11
ENDBRANCH   7   9
ENDBRANCH   6   7
ENDBRANCH   5   6
ENDBRANCH   4   5
ENDBRANCH   3   4
ENDBRANCH   2   3
TORSDOF 8
ENDMDL
MODEL      169
REMARK 921   NORMALIZED FREE ENERGY PREDICTED BY IDOCK:   -2.86 KCAL/MOL
REMARK 922        TOTAL FREE ENERGY PREDICTED BY IDOCK:   -4.85 KCAL/MOL
REMARK 923 INTER-LIGAND FREE ENERGY PREDICTED BY IDOCK:   -4.39 KCAL/MOL
REMARK 924 INTRA-LIGAND FREE ENERGY PREDICTED BY IDOCK:   -0.45 KCAL/MOL
REMARK 927      BINDING AFFINITY PREDICTED BY RF-SCORE:    0.00 PKD
ROOT
HETATM    1  C   UNL     1      -6.134   5.524  73.273  1.00  0.00    -0.054 C  
HETATM    2  C   UNL     1      -7.009   6.681  73.722  1.00  0.00    -0.076 C  
ENDROOT
BRANCH   2   3
HETATM    3  O   UNL     1      -8.335   6.432  73.271  1.00  0.00    -0.118 OA 
BRANCH   3   4
HETATM    4  C   UNL     1      -9.283   7.362  73.799  1.00  0.00    -0.257 C  
BRANCH   4   5
HETATM    5  C   UNL     1     -10.664   6.860  73.410  1.00  0.00    -0.324 C  
BRANCH   5   6
HETATM    6  O   UNL     1     -11.608   7.909  73.177  1.00  0.00    -0.292 OA 
BRANCH   6   7
HETATM    7  C   UNL     1     -11.536   8.466  71.942  1.00  0.00    -0.329 C  
HETATM    8  O   UNL     1     -11.414   9.649  71.681  1.00  0.00    -0.380 OA 
BRANCH   7   9
HETATM    9  C   UNL     1     -11.430   7.346  70.983  1.00  0.00    -0.307 C  
HETATM   10  C   UNL     1     -10.967   7.546  69.737  1.00  0.00    -0.195 C  
BRANCH  10  11
HETATM   11  C   UNL     1     -10.611   6.452  68.819  1.00  0.00    -0.295 A  
HETATM   12  C   UNL     1      -9.891   5.320  69.217  1.00  0.00    -0.256 A  
HETATM   13  C   UNL     1      -9.522   4.344  68.285  1.00  0.00    -0.210 A  
HETATM   14  C   UNL     1      -9.893   4.459  66.946  1.00  0.00    -0.207 A  
HETATM   15  C   UNL     1     -10.630   5.569  66.538  1.00  0.00    -0.343 A  
HETATM   16  C   UNL     1     -10.988   6.555  67.470  1.00  0.00    -0.444 A  
BRANCH  14  17
HETATM   17  O   UNL     1      -9.428   3.468  66.127  1.00  0.00    -0.175 OA 
HETATM   18  C   UNL     1      -8.893   2.320  66.774  1.00  0.00    -0.129 C  
ENDBRANCH  14  17
ENDBRANCH  10  11
ENDBRANCH   7   9
ENDBRANCH   6   7
ENDBRANCH   5   6
ENDBRANCH   4   5
ENDBRANCH   3   4
ENDBRANCH   2   3
TORSDOF 8
ENDMDL
MODEL      170
REMARK 921   NORMALIZED FREE ENERGY PREDICTED BY IDOCK:   -2.84 KCAL/MOL
REMARK 922        TOTAL FREE ENERGY PREDICTED BY IDOCK:   -4.82 KCAL/MOL
REMARK 923 INTER-LIGAND FREE ENERGY PREDICTED BY IDOCK:   -5.04 KCAL/MOL
REMARK 924 INTRA-LIGAND FREE ENERGY PREDICTED BY IDOCK:    0.22 KCAL/MOL
REMARK 927      BINDING AFFINITY PREDICTED BY RF-SCORE:    0.00 PKD
ROOT
HETATM    1  C   UNL     1     -11.147  12.006  65.712  1.00  0.00    -0.371 C  
HETATM    2  C   UNL     1     -11.757  12.421  67.038  1.00  0.00    -0.353 C  
ENDROOT
BRANCH   2   3
HETATM    3  O   UNL     1     -10.994  11.824  68.080  1.00  0.00    -0.202 OA 
BRANCH   3   4
HETATM    4  C   UNL     1      -9.825  12.577  68.412  1.00  0.00    -0.202 C  
BRANCH   4   5
HETATM    5  C   UNL     1     -10.102  14.022  68.029  1.00  0.00    -0.239 C  
BRANCH   5   6
HETATM    6  O   UNL     1     -11.120  14.637  68.824  1.00  0.00    -0.239 OA 
BRANCH   6   7
HETATM    7  C   UNL     1     -10.855  15.919  69.182  1.00  0.00    -0.268 C  
HETATM    8  O   UNL     1     -11.274  16.504  70.165  1.00  0.00    -0.323 OA 
BRANCH   7   9
HETATM    9  C   UNL     1      -9.802  16.402  68.264  1.00  0.00    -0.229 C  
HETATM   10  C   UNL     1      -9.875  17.624  67.710  1.00  0.00    -0.292 C  
BRANCH  10  11
HETATM   11  C   UNL     1      -8.760  18.256  66.987  1.00  0.00    -0.265 A  
HETATM   12  C   UNL     1      -8.710  19.625  66.699  1.00  0.00    -0.392 A  
HETATM   13  C   UNL     1      -7.658  20.160  65.949  1.00  0.00    -0.272 A  
HETATM   14  C   UNL     1      -6.616  19.348  65.501  1.00  0.00    -0.267 A  
HETATM   15  C   UNL     1      -6.639  17.987  65.799  1.00  0.00    -0.298 A  
HETATM   16  C   UNL     1      -7.702  17.448  66.540  1.00  0.00    -0.319 A  
BRANCH  14  17
HETATM   17  O   UNL     1      -5.676  19.979  64.735  1.00  0.00    -0.182 OA 
HETATM   18  C   UNL     1      -6.149  21.028  63.900  1.00  0.00    -0.323 C  
ENDBRANCH  14  17
ENDBRANCH  10  11
ENDBRANCH   7   9
ENDBRANCH   6   7
ENDBRANCH   5   6
ENDBRANCH   4   5
ENDBRANCH   3   4
ENDBRANCH   2   3
TORSDOF 8
ENDMDL
MODEL      171
REMARK 921   NORMALIZED FREE ENERGY PREDICTED BY IDOCK:   -2.83 KCAL/MOL
REMARK 922        TOTAL FREE ENERGY PREDICTED BY IDOCK:   -4.81 KCAL/MOL
REMARK 923 INTER-LIGAND FREE ENERGY PREDICTED BY IDOCK:   -3.91 KCAL/MOL
REMARK 924 INTRA-LIGAND FREE ENERGY PREDICTED BY IDOCK:   -0.90 KCAL/MOL
REMARK 927      BINDING AFFINITY PREDICTED BY RF-SCORE:    0.00 PKD
ROOT
HETATM    1  C   UNL     1      -7.671   5.073  69.726  1.00  0.00    -0.064 C  
HETATM    2  C   UNL     1      -8.171   3.775  69.118  1.00  0.00    -0.060 C  
ENDROOT
BRANCH   2   3
HETATM    3  O   UNL     1      -7.184   3.306  68.208  1.00  0.00    -0.050 OA 
BRANCH   3   4
HETATM    4  C   UNL     1      -7.638   2.205  67.418  1.00  0.00    -0.060 C  
BRANCH   4   5
HETATM    5  C   UNL     1      -9.006   2.581  66.872  1.00  0.00    -0.136 C  
BRANCH   5   6
HETATM    6  O   UNL     1      -8.989   2.938  65.487  1.00  0.00    -0.136 OA 
BRANCH   6   7
HETATM    7  C   UNL     1      -9.896   3.885  65.140  1.00  0.00    -0.184 C  
HETATM    8  O   UNL     1     -10.754   3.794  64.279  1.00  0.00    -0.267 OA 
BRANCH   7   9
HETATM    9  C   UNL     1      -9.778   4.967  66.141  1.00  0.00    -0.200 C  
HETATM   10  C   UNL     1     -10.867   5.611  66.593  1.00  0.00    -0.280 C  
BRANCH  10  11
HETATM   11  C   UNL     1     -10.849   6.521  67.750  1.00  0.00    -0.395 A  
HETATM   12  C   UNL     1     -10.441   7.857  67.669  1.00  0.00    -0.303 A  
HETATM   13  C   UNL     1     -10.379   8.656  68.815  1.00  0.00    -0.228 A  
HETATM   14  C   UNL     1     -10.758   8.151  70.058  1.00  0.00    -0.243 A  
HETATM   15  C   UNL     1     -11.188   6.829  70.152  1.00  0.00    -0.387 A  
HETATM   16  C   UNL     1     -11.236   6.023  69.004  1.00  0.00    -0.298 A  
BRANCH  14  17
HETATM   17  O   UNL     1     -10.604   9.014  71.108  1.00  0.00    -0.240 OA 
HETATM   18  C   UNL     1     -11.800   9.456  71.737  1.00  0.00    -0.382 C  
ENDBRANCH  14  17
ENDBRANCH  10  11
ENDBRANCH   7   9
ENDBRANCH   6   7
ENDBRANCH   5   6
ENDBRANCH   4   5
ENDBRANCH   3   4
ENDBRANCH   2   3
TORSDOF 8
ENDMDL
MODEL      172
REMARK 921   NORMALIZED FREE ENERGY PREDICTED BY IDOCK:   -2.83 KCAL/MOL
REMARK 922        TOTAL FREE ENERGY PREDICTED BY IDOCK:   -4.80 KCAL/MOL
REMARK 923 INTER-LIGAND FREE ENERGY PREDICTED BY IDOCK:   -4.56 KCAL/MOL
REMARK 924 INTRA-LIGAND FREE ENERGY PREDICTED BY IDOCK:   -0.24 KCAL/MOL
REMARK 927      BINDING AFFINITY PREDICTED BY RF-SCORE:    0.00 PKD
ROOT
HETATM    1  C   UNL     1      -6.273   5.055  67.316  1.00  0.00    -0.035 C  
HETATM    2  C   UNL     1      -6.816   6.220  68.125  1.00  0.00    -0.070 C  
ENDROOT
BRANCH   2   3
HETATM    3  O   UNL     1      -8.126   6.511  67.652  1.00  0.00    -0.115 OA 
BRANCH   3   4
HETATM    4  C   UNL     1      -9.100   6.536  68.698  1.00  0.00    -0.128 C  
BRANCH   4   5
HETATM    5  C   UNL     1      -8.372   6.923  69.975  1.00  0.00    -0.139 C  
BRANCH   5   6
HETATM    6  O   UNL     1      -9.251   7.253  71.055  1.00  0.00    -0.153 OA 
BRANCH   6   7
HETATM    7  C   UNL     1      -9.171   8.542  71.470  1.00  0.00    -0.221 C  
HETATM    8  O   UNL     1      -8.734   8.940  72.536  1.00  0.00    -0.391 OA 
BRANCH   7   9
HETATM    9  C   UNL     1      -9.525   9.381  70.306  1.00  0.00    -0.294 C  
HETATM   10  C   UNL     1     -10.671  10.082  70.282  1.00  0.00    -0.367 C  
BRANCH  10  11
HETATM   11  C   UNL     1     -10.972  11.112  69.275  1.00  0.00    -0.300 A  
HETATM   12  C   UNL     1     -11.378  12.410  69.604  1.00  0.00    -0.193 A  
HETATM   13  C   UNL     1     -11.717  13.328  68.605  1.00  0.00    -0.376 A  
HETATM   14  C   UNL     1     -11.623  12.983  67.257  1.00  0.00    -0.356 A  
HETATM   15  C   UNL     1     -11.198  11.702  66.913  1.00  0.00    -0.376 A  
HETATM   16  C   UNL     1     -10.872  10.776  67.916  1.00  0.00    -0.313 A  
BRANCH  14  17
HETATM   17  O   UNL     1     -12.031  13.949  66.380  1.00  0.00    -0.390 OA 
HETATM   18  C   UNL     1     -11.031  14.862  65.944  1.00  0.00    -0.338 C  
ENDBRANCH  14  17
ENDBRANCH  10  11
ENDBRANCH   7   9
ENDBRANCH   6   7
ENDBRANCH   5   6
ENDBRANCH   4   5
ENDBRANCH   3   4
ENDBRANCH   2   3
TORSDOF 8
ENDMDL
MODEL      173
REMARK 921   NORMALIZED FREE ENERGY PREDICTED BY IDOCK:   -2.81 KCAL/MOL
REMARK 922        TOTAL FREE ENERGY PREDICTED BY IDOCK:   -4.78 KCAL/MOL
REMARK 923 INTER-LIGAND FREE ENERGY PREDICTED BY IDOCK:   -4.40 KCAL/MOL
REMARK 924 INTRA-LIGAND FREE ENERGY PREDICTED BY IDOCK:   -0.38 KCAL/MOL
REMARK 927      BINDING AFFINITY PREDICTED BY RF-SCORE:    0.00 PKD
ROOT
HETATM    1  C   UNL     1     -11.830  13.058  69.960  1.00  0.00    -0.355 C  
HETATM    2  C   UNL     1     -11.866  11.546  69.829  1.00  0.00    -0.357 C  
ENDROOT
BRANCH   2   3
HETATM    3  O   UNL     1     -13.078  11.082  70.410  1.00  0.00    -0.127 OA 
BRANCH   3   4
HETATM    4  C   UNL     1     -12.874  10.417  71.660  1.00  0.00    -0.474 C  
BRANCH   4   5
HETATM    5  C   UNL     1     -12.428   8.999  71.343  1.00  0.00    -0.317 C  
BRANCH   5   6
HETATM    6  O   UNL     1     -11.999   8.264  72.493  1.00  0.00    -0.387 OA 
BRANCH   6   7
HETATM    7  C   UNL     1     -10.682   7.938  72.492  1.00  0.00    -0.328 C  
HETATM    8  O   UNL     1      -9.881   8.138  73.388  1.00  0.00    -0.237 OA 
BRANCH   7   9
HETATM    9  C   UNL     1     -10.454   7.115  71.286  1.00  0.00    -0.219 C  
HETATM   10  C   UNL     1      -9.568   6.105  71.296  1.00  0.00    -0.189 C  
BRANCH  10  11
HETATM   11  C   UNL     1      -9.465   5.105  70.222  1.00  0.00    -0.233 A  
HETATM   12  C   UNL     1      -9.506   5.433  68.862  1.00  0.00    -0.174 A  
HETATM   13  C   UNL     1      -9.473   4.434  67.884  1.00  0.00    -0.209 A  
HETATM   14  C   UNL     1      -9.361   3.090  68.240  1.00  0.00    -0.195 A  
HETATM   15  C   UNL     1      -9.295   2.749  69.589  1.00  0.00    -0.198 A  
HETATM   16  C   UNL     1      -9.344   3.750  70.571  1.00  0.00    -0.228 A  
BRANCH  14  17
HETATM   17  O   UNL     1      -9.390   2.208  67.197  1.00  0.00    -0.105 OA 
HETATM   18  C   UNL     1      -8.156   1.579  66.872  1.00  0.00    -0.073 C  
ENDBRANCH  14  17
ENDBRANCH  10  11
ENDBRANCH   7   9
ENDBRANCH   6   7
ENDBRANCH   5   6
ENDBRANCH   4   5
ENDBRANCH   3   4
ENDBRANCH   2   3
TORSDOF 8
ENDMDL
MODEL      174
REMARK 921   NORMALIZED FREE ENERGY PREDICTED BY IDOCK:   -2.80 KCAL/MOL
REMARK 922        TOTAL FREE ENERGY PREDICTED BY IDOCK:   -4.77 KCAL/MOL
REMARK 923 INTER-LIGAND FREE ENERGY PREDICTED BY IDOCK:   -4.37 KCAL/MOL
REMARK 924 INTRA-LIGAND FREE ENERGY PREDICTED BY IDOCK:   -0.40 KCAL/MOL
REMARK 927      BINDING AFFINITY PREDICTED BY RF-SCORE:    0.00 PKD
ROOT
HETATM    1  C   UNL     1      -8.399   2.804  64.633  1.00  0.00    -0.087 C  
HETATM    2  C   UNL     1      -9.628   3.691  64.708  1.00  0.00    -0.173 C  
ENDROOT
BRANCH   2   3
HETATM    3  O   UNL     1      -9.333   4.781  65.574  1.00  0.00    -0.152 OA 
BRANCH   3   4
HETATM    4  C   UNL     1     -10.157   4.796  66.743  1.00  0.00    -0.229 C  
BRANCH   4   5
HETATM    5  C   UNL     1      -9.230   4.681  67.943  1.00  0.00    -0.127 C  
BRANCH   5   6
HETATM    6  O   UNL     1      -9.116   5.892  68.694  1.00  0.00    -0.116 OA 
BRANCH   6   7
HETATM    7  C   UNL     1     -10.180   6.159  69.493  1.00  0.00    -0.198 C  
HETATM    8  O   UNL     1     -10.608   5.463  70.396  1.00  0.00    -0.280 OA 
BRANCH   7   9
HETATM    9  C   UNL     1     -10.591   7.547  69.193  1.00  0.00    -0.204 C  
HETATM   10  C   UNL     1     -11.011   8.370  70.169  1.00  0.00    -0.216 C  
BRANCH  10  11
HETATM   11  C   UNL     1     -11.205   9.817  69.983  1.00  0.00    -0.297 A  
HETATM   12  C   UNL     1     -12.046  10.588  70.793  1.00  0.00    -0.470 A  
HETATM   13  C   UNL     1     -12.245  11.947  70.527  1.00  0.00    -0.426 A  
HETATM   14  C   UNL     1     -11.582  12.572  69.472  1.00  0.00    -0.281 A  
HETATM   15  C   UNL     1     -10.723  11.824  68.671  1.00  0.00    -0.252 A  
HETATM   16  C   UNL     1     -10.534  10.457  68.928  1.00  0.00    -0.232 A  
BRANCH  14  17
HETATM   17  O   UNL     1     -11.899  13.889  69.285  1.00  0.00    -0.303 OA 
HETATM   18  C   UNL     1     -11.927  14.342  67.937  1.00  0.00    -0.329 C  
ENDBRANCH  14  17
ENDBRANCH  10  11
ENDBRANCH   7   9
ENDBRANCH   6   7
ENDBRANCH   5   6
ENDBRANCH   4   5
ENDBRANCH   3   4
ENDBRANCH   2   3
TORSDOF 8
ENDMDL
MODEL      175
REMARK 921   NORMALIZED FREE ENERGY PREDICTED BY IDOCK:   -2.79 KCAL/MOL
REMARK 922        TOTAL FREE ENERGY PREDICTED BY IDOCK:   -4.75 KCAL/MOL
REMARK 923 INTER-LIGAND FREE ENERGY PREDICTED BY IDOCK:   -4.39 KCAL/MOL
REMARK 924 INTRA-LIGAND FREE ENERGY PREDICTED BY IDOCK:   -0.35 KCAL/MOL
REMARK 927      BINDING AFFINITY PREDICTED BY RF-SCORE:    0.00 PKD
ROOT
HETATM    1  C   UNL     1      -8.997  17.413  66.380  1.00  0.00    -0.274 C  
HETATM    2  C   UNL     1      -8.482  15.986  66.329  1.00  0.00    -0.302 C  
ENDROOT
BRANCH   2   3
HETATM    3  O   UNL     1      -8.951  15.306  67.487  1.00  0.00    -0.178 OA 
BRANCH   3   4
HETATM    4  C   UNL     1     -10.296  14.842  67.349  1.00  0.00    -0.242 C  
BRANCH   4   5
HETATM    5  C   UNL     1     -10.704  14.252  68.690  1.00  0.00    -0.249 C  
BRANCH   5   6
HETATM    6  O   UNL     1     -11.834  13.378  68.609  1.00  0.00    -0.329 OA 
BRANCH   6   7
HETATM    7  C   UNL     1     -11.943  12.505  69.642  1.00  0.00    -0.272 C  
HETATM    8  O   UNL     1     -12.304  12.759  70.778  1.00  0.00    -0.368 OA 
BRANCH   7   9
HETATM    9  C   UNL     1     -11.738  11.155  69.074  1.00  0.00    -0.408 C  
HETATM   10  C   UNL     1     -10.520  10.588  69.065  1.00  0.00    -0.238 C  
BRANCH  10  11
HETATM   11  C   UNL     1     -10.288   9.171  68.740  1.00  0.00    -0.235 A  
HETATM   12  C   UNL     1     -10.155   8.173  69.712  1.00  0.00    -0.197 A  
HETATM   13  C   UNL     1      -9.867   6.854  69.348  1.00  0.00    -0.161 A  
HETATM   14  C   UNL     1      -9.740   6.496  68.006  1.00  0.00    -0.118 A  
HETATM   15  C   UNL     1      -9.892   7.473  67.025  1.00  0.00    -0.280 A  
HETATM   16  C   UNL     1     -10.167   8.800  67.392  1.00  0.00    -0.318 A  
BRANCH  14  17
HETATM   17  O   UNL     1      -9.407   5.189  67.783  1.00  0.00    -0.115 OA 
HETATM   18  C   UNL     1      -8.630   4.930  66.620  1.00  0.00    -0.109 C  
ENDBRANCH  14  17
ENDBRANCH  10  11
ENDBRANCH   7   9
ENDBRANCH   6   7
ENDBRANCH   5   6
ENDBRANCH   4   5
ENDBRANCH   3   4
ENDBRANCH   2   3
TORSDOF 8
ENDMDL
MODEL      176
REMARK 921   NORMALIZED FREE ENERGY PREDICTED BY IDOCK:   -2.78 KCAL/MOL
REMARK 922        TOTAL FREE ENERGY PREDICTED BY IDOCK:   -4.73 KCAL/MOL
REMARK 923 INTER-LIGAND FREE ENERGY PREDICTED BY IDOCK:   -4.38 KCAL/MOL
REMARK 924 INTRA-LIGAND FREE ENERGY PREDICTED BY IDOCK:   -0.35 KCAL/MOL
REMARK 927      BINDING AFFINITY PREDICTED BY RF-SCORE:    0.00 PKD
ROOT
HETATM    1  C   UNL     1      -9.903   3.974  63.143  1.00  0.00    -0.140 C  
HETATM    2  C   UNL     1      -8.788   4.673  63.899  1.00  0.00    -0.135 C  
ENDROOT
BRANCH   2   3
HETATM    3  O   UNL     1      -8.921   4.352  65.279  1.00  0.00    -0.129 OA 
BRANCH   3   4
HETATM    4  C   UNL     1      -9.995   5.054  65.909  1.00  0.00    -0.167 C  
BRANCH   4   5
HETATM    5  C   UNL     1      -9.390   5.875  67.036  1.00  0.00    -0.120 C  
BRANCH   5   6
HETATM    6  O   UNL     1      -9.385   7.282  66.777  1.00  0.00    -0.149 OA 
BRANCH   6   7
HETATM    7  C   UNL     1     -10.055   8.025  67.693  1.00  0.00    -0.209 C  
HETATM    8  O   UNL     1     -10.447   7.655  68.786  1.00  0.00    -0.207 OA 
BRANCH   7   9
HETATM    9  C   UNL     1     -10.039   9.417  67.198  1.00  0.00    -0.292 C  
HETATM   10  C   UNL     1     -11.081  10.238  67.413  1.00  0.00    -0.261 C  
BRANCH  10  11
HETATM   11  C   UNL     1     -11.036  11.688  67.163  1.00  0.00    -0.354 A  
HETATM   12  C   UNL     1     -11.851  12.329  66.223  1.00  0.00    -0.387 A  
HETATM   13  C   UNL     1     -11.717  13.700  65.978  1.00  0.00    -0.383 A  
HETATM   14  C   UNL     1     -10.795  14.466  66.690  1.00  0.00    -0.304 A  
HETATM   15  C   UNL     1      -9.993  13.846  67.646  1.00  0.00    -0.237 A  
HETATM   16  C   UNL     1     -10.116  12.469  67.881  1.00  0.00    -0.214 A  
BRANCH  14  17
HETATM   17  O   UNL     1     -10.725  15.781  66.323  1.00  0.00    -0.312 OA 
HETATM   18  C   UNL     1     -10.916  16.057  64.942  1.00  0.00    -0.384 C  
ENDBRANCH  14  17
ENDBRANCH  10  11
ENDBRANCH   7   9
ENDBRANCH   6   7
ENDBRANCH   5   6
ENDBRANCH   4   5
ENDBRANCH   3   4
ENDBRANCH   2   3
TORSDOF 8
ENDMDL
MODEL      177
REMARK 921   NORMALIZED FREE ENERGY PREDICTED BY IDOCK:   -2.78 KCAL/MOL
REMARK 922        TOTAL FREE ENERGY PREDICTED BY IDOCK:   -4.73 KCAL/MOL
REMARK 923 INTER-LIGAND FREE ENERGY PREDICTED BY IDOCK:   -4.25 KCAL/MOL
REMARK 924 INTRA-LIGAND FREE ENERGY PREDICTED BY IDOCK:   -0.48 KCAL/MOL
REMARK 927      BINDING AFFINITY PREDICTED BY RF-SCORE:    0.00 PKD
ROOT
HETATM    1  C   UNL     1      -6.352   2.990  72.482  1.00  0.00    -0.014 C  
HETATM    2  C   UNL     1      -7.850   3.226  72.557  1.00  0.00    -0.063 C  
ENDROOT
BRANCH   2   3
HETATM    3  O   UNL     1      -8.257   3.857  71.349  1.00  0.00    -0.067 OA 
BRANCH   3   4
HETATM    4  C   UNL     1      -7.424   4.964  70.994  1.00  0.00    -0.073 C  
BRANCH   4   5
HETATM    5  C   UNL     1      -7.637   5.225  69.512  1.00  0.00    -0.069 C  
BRANCH   5   6
HETATM    6  O   UNL     1      -8.304   6.460  69.240  1.00  0.00    -0.119 OA 
BRANCH   6   7
HETATM    7  C   UNL     1      -9.654   6.359  69.140  1.00  0.00    -0.136 C  
HETATM    8  O   UNL     1     -10.281   5.464  68.601  1.00  0.00    -0.178 OA 
BRANCH   7   9
HETATM    9  C   UNL     1     -10.218   7.433  69.985  1.00  0.00    -0.211 C  
HETATM   10  C   UNL     1     -10.612   8.599  69.448  1.00  0.00    -0.207 C  
BRANCH  10  11
HETATM   11  C   UNL     1     -11.395   9.607  70.181  1.00  0.00    -0.275 A  
HETATM   12  C   UNL     1     -11.574  10.919  69.726  1.00  0.00    -0.399 A  
HETATM   13  C   UNL     1     -12.270  11.854  70.498  1.00  0.00    -0.426 A  
HETATM   14  C   UNL     1     -12.833  11.492  71.722  1.00  0.00    -0.335 A  
HETATM   15  C   UNL     1     -12.684  10.184  72.178  1.00  0.00    -0.316 A  
HETATM   16  C   UNL     1     -11.972   9.250  71.410  1.00  0.00    -0.424 A  
BRANCH  14  17
HETATM   17  O   UNL     1     -13.444  12.508  72.404  1.00  0.00    -0.529 OA 
HETATM   18  C   UNL     1     -13.203  13.823  71.918  1.00  0.00    -0.403 C  
ENDBRANCH  14  17
ENDBRANCH  10  11
ENDBRANCH   7   9
ENDBRANCH   6   7
ENDBRANCH   5   6
ENDBRANCH   4   5
ENDBRANCH   3   4
ENDBRANCH   2   3
TORSDOF 8
ENDMDL
MODEL      178
REMARK 921   NORMALIZED FREE ENERGY PREDICTED BY IDOCK:   -2.74 KCAL/MOL
REMARK 922        TOTAL FREE ENERGY PREDICTED BY IDOCK:   -4.68 KCAL/MOL
REMARK 923 INTER-LIGAND FREE ENERGY PREDICTED BY IDOCK:   -4.35 KCAL/MOL
REMARK 924 INTRA-LIGAND FREE ENERGY PREDICTED BY IDOCK:   -0.33 KCAL/MOL
REMARK 927      BINDING AFFINITY PREDICTED BY RF-SCORE:    0.00 PKD
ROOT
HETATM    1  C   UNL     1      -8.025   4.998  65.697  1.00  0.00    -0.107 C  
HETATM    2  C   UNL     1      -9.388   4.360  65.495  1.00  0.00    -0.162 C  
ENDROOT
BRANCH   2   3
HETATM    3  O   UNL     1     -10.327   5.063  66.299  1.00  0.00    -0.246 OA 
BRANCH   3   4
HETATM    4  C   UNL     1      -9.708   6.021  67.162  1.00  0.00    -0.131 C  
BRANCH   4   5
HETATM    5  C   UNL     1     -10.562   7.278  67.118  1.00  0.00    -0.346 C  
BRANCH   5   6
HETATM    6  O   UNL     1      -9.855   8.462  67.496  1.00  0.00    -0.159 OA 
BRANCH   6   7
HETATM    7  C   UNL     1      -9.721   9.377  66.503  1.00  0.00    -0.236 C  
HETATM    8  O   UNL     1      -9.434   9.155  65.339  1.00  0.00    -0.241 OA 
BRANCH   7   9
HETATM    9  C   UNL     1     -10.187  10.667  67.055  1.00  0.00    -0.267 C  
HETATM   10  C   UNL     1      -9.398  11.755  67.029  1.00  0.00    -0.187 C  
BRANCH  10  11
HETATM   11  C   UNL     1      -9.877  13.112  67.337  1.00  0.00    -0.226 A  
HETATM   12  C   UNL     1     -11.098  13.617  66.876  1.00  0.00    -0.314 A  
HETATM   13  C   UNL     1     -11.472  14.938  67.142  1.00  0.00    -0.344 A  
HETATM   14  C   UNL     1     -10.653  15.771  67.904  1.00  0.00    -0.282 A  
HETATM   15  C   UNL     1      -9.445  15.276  68.390  1.00  0.00    -0.206 A  
HETATM   16  C   UNL     1      -9.063  13.955  68.110  1.00  0.00    -0.193 A  
BRANCH  14  17
HETATM   17  O   UNL     1     -11.104  17.053  68.051  1.00  0.00    -0.324 OA 
HETATM   18  C   UNL     1     -10.178  18.084  67.730  1.00  0.00    -0.378 C  
ENDBRANCH  14  17
ENDBRANCH  10  11
ENDBRANCH   7   9
ENDBRANCH   6   7
ENDBRANCH   5   6
ENDBRANCH   4   5
ENDBRANCH   3   4
ENDBRANCH   2   3
TORSDOF 8
ENDMDL
MODEL      179
REMARK 921   NORMALIZED FREE ENERGY PREDICTED BY IDOCK:   -2.74 KCAL/MOL
REMARK 922        TOTAL FREE ENERGY PREDICTED BY IDOCK:   -4.67 KCAL/MOL
REMARK 923 INTER-LIGAND FREE ENERGY PREDICTED BY IDOCK:   -4.32 KCAL/MOL
REMARK 924 INTRA-LIGAND FREE ENERGY PREDICTED BY IDOCK:   -0.35 KCAL/MOL
REMARK 927      BINDING AFFINITY PREDICTED BY RF-SCORE:    0.00 PKD
ROOT
HETATM    1  C   UNL     1     -12.223  15.188  64.275  1.00  0.00    -0.257 C  
HETATM    2  C   UNL     1     -10.860  15.755  64.631  1.00  0.00    -0.227 C  
ENDROOT
BRANCH   2   3
HETATM    3  O   UNL     1     -10.831  15.985  66.034  1.00  0.00    -0.286 OA 
BRANCH   3   4
HETATM    4  C   UNL     1      -9.576  15.643  66.625  1.00  0.00    -0.248 C  
BRANCH   4   5
HETATM    5  C   UNL     1      -9.682  14.202  67.098  1.00  0.00    -0.248 C  
BRANCH   5   6
HETATM    6  O   UNL     1      -8.729  13.329  66.486  1.00  0.00    -0.070 OA 
BRANCH   6   7
HETATM    7  C   UNL     1      -7.886  12.720  67.357  1.00  0.00    -0.172 C  
HETATM    8  O   UNL     1      -6.668  12.766  67.348  1.00  0.00    -0.153 OA 
BRANCH   7   9
HETATM    9  C   UNL     1      -8.728  12.160  68.435  1.00  0.00    -0.141 C  
HETATM   10  C   UNL     1      -9.297  10.949  68.308  1.00  0.00    -0.168 C  
BRANCH  10  11
HETATM   11  C   UNL     1      -9.942  10.235  69.422  1.00  0.00    -0.254 A  
HETATM   12  C   UNL     1     -11.137  10.657  70.015  1.00  0.00    -0.359 A  
HETATM   13  C   UNL     1     -11.668   9.978  71.116  1.00  0.00    -0.472 A  
HETATM   14  C   UNL     1     -11.038   8.843  71.625  1.00  0.00    -0.350 A  
HETATM   15  C   UNL     1      -9.860   8.396  71.032  1.00  0.00    -0.232 A  
HETATM   16  C   UNL     1      -9.319   9.086  69.937  1.00  0.00    -0.182 A  
BRANCH  14  17
HETATM   17  O   UNL     1     -11.627   8.299  72.733  1.00  0.00    -0.395 OA 
HETATM   18  C   UNL     1     -11.332   6.933  72.994  1.00  0.00    -0.104 C  
ENDBRANCH  14  17
ENDBRANCH  10  11
ENDBRANCH   7   9
ENDBRANCH   6   7
ENDBRANCH   5   6
ENDBRANCH   4   5
ENDBRANCH   3   4
ENDBRANCH   2   3
TORSDOF 8
ENDMDL
MODEL      180
REMARK 921   NORMALIZED FREE ENERGY PREDICTED BY IDOCK:   -2.69 KCAL/MOL
REMARK 922        TOTAL FREE ENERGY PREDICTED BY IDOCK:   -4.61 KCAL/MOL
REMARK 923 INTER-LIGAND FREE ENERGY PREDICTED BY IDOCK:   -4.00 KCAL/MOL
REMARK 924 INTRA-LIGAND FREE ENERGY PREDICTED BY IDOCK:   -0.61 KCAL/MOL
REMARK 927      BINDING AFFINITY PREDICTED BY RF-SCORE:    0.00 PKD
ROOT
HETATM    1  C   UNL     1     -10.775  17.014  65.428  1.00  0.00    -0.126 C  
HETATM    2  C   UNL     1     -10.771  15.532  65.101  1.00  0.00    -0.440 C  
ENDROOT
BRANCH   2   3
HETATM    3  O   UNL     1     -12.083  15.169  64.688  1.00  0.00    -0.357 OA 
BRANCH   3   4
HETATM    4  C   UNL     1     -12.661  14.152  65.509  1.00  0.00    -0.443 C  
BRANCH   4   5
HETATM    5  C   UNL     1     -12.468  12.830  64.783  1.00  0.00    -0.472 C  
BRANCH   5   6
HETATM    6  O   UNL     1     -11.909  11.803  65.607  1.00  0.00    -0.346 OA 
BRANCH   6   7
HETATM    7  C   UNL     1     -10.719  11.318  65.171  1.00  0.00    -0.246 C  
HETATM    8  O   UNL     1     -10.480  10.852  64.071  1.00  0.00    -0.364 OA 
BRANCH   7   9
HETATM    9  C   UNL     1      -9.723  11.650  66.212  1.00  0.00    -0.241 C  
HETATM   10  C   UNL     1      -8.975  12.763  66.122  1.00  0.00     0.137 C  
BRANCH  10  11
HETATM   11  C   UNL     1      -8.146  13.275  67.225  1.00  0.00    -0.150 A  
HETATM   12  C   UNL     1      -7.597  12.454  68.216  1.00  0.00    -0.131 A  
HETATM   13  C   UNL     1      -6.875  13.003  69.280  1.00  0.00    -0.019 A  
HETATM   14  C   UNL     1      -6.654  14.378  69.358  1.00  0.00    -0.137 A  
HETATM   15  C   UNL     1      -7.174  15.207  68.366  1.00  0.00    -0.114 A  
HETATM   16  C   UNL     1      -7.912  14.657  67.307  1.00  0.00    -0.223 A  
BRANCH  14  17
HETATM   17  O   UNL     1      -5.978  14.796  70.471  1.00  0.00    -0.155 OA 
HETATM   18  C   UNL     1      -5.288  16.035  70.357  1.00  0.00    -0.169 C  
ENDBRANCH  14  17
ENDBRANCH  10  11
ENDBRANCH   7   9
ENDBRANCH   6   7
ENDBRANCH   5   6
ENDBRANCH   4   5
ENDBRANCH   3   4
ENDBRANCH   2   3
TORSDOF 8
ENDMDL
MODEL      181
REMARK 921   NORMALIZED FREE ENERGY PREDICTED BY IDOCK:   -2.68 KCAL/MOL
REMARK 922        TOTAL FREE ENERGY PREDICTED BY IDOCK:   -4.59 KCAL/MOL
REMARK 923 INTER-LIGAND FREE ENERGY PREDICTED BY IDOCK:   -3.83 KCAL/MOL
REMARK 924 INTRA-LIGAND FREE ENERGY PREDICTED BY IDOCK:   -0.76 KCAL/MOL
REMARK 927      BINDING AFFINITY PREDICTED BY RF-SCORE:    0.00 PKD
ROOT
HETATM    1  C   UNL     1     -10.107   5.129  69.994  1.00  0.00    -0.345 C  
HETATM    2  C   UNL     1     -10.970   6.157  69.284  1.00  0.00    -0.381 C  
ENDROOT
BRANCH   2   3
HETATM    3  O   UNL     1     -11.938   6.634  70.211  1.00  0.00    -0.387 OA 
BRANCH   3   4
HETATM    4  C   UNL     1     -11.388   6.880  71.508  1.00  0.00    -0.266 C  
BRANCH   4   5
HETATM    5  C   UNL     1     -11.707   8.324  71.862  1.00  0.00    -0.322 C  
BRANCH   5   6
HETATM    6  O   UNL     1     -10.882   9.274  71.183  1.00  0.00    -0.280 OA 
BRANCH   6   7
HETATM    7  C   UNL     1     -11.536  10.034  70.269  1.00  0.00    -0.300 C  
HETATM    8  O   UNL     1     -12.584  10.632  70.433  1.00  0.00    -0.335 OA 
BRANCH   7   9
HETATM    9  C   UNL     1     -10.631  10.163  69.106  1.00  0.00    -0.247 C  
HETATM   10  C   UNL     1      -9.532   9.398  68.999  1.00  0.00    -0.160 C  
BRANCH  10  11
HETATM   11  C   UNL     1      -8.727   9.302  67.770  1.00  0.00    -0.120 A  
HETATM   12  C   UNL     1      -8.460   8.092  67.121  1.00  0.00    -0.124 A  
HETATM   13  C   UNL     1      -7.632   8.052  65.994  1.00  0.00    -0.085 A  
HETATM   14  C   UNL     1      -7.082   9.223  65.472  1.00  0.00    -0.086 A  
HETATM   15  C   UNL     1      -7.357  10.438  66.093  1.00  0.00    -0.131 A  
HETATM   16  C   UNL     1      -8.176  10.476  67.232  1.00  0.00    -0.119 A  
BRANCH  14  17
HETATM   17  O   UNL     1      -6.249   9.046  64.402  1.00  0.00    -0.070 OA 
HETATM   18  C   UNL     1      -6.643   8.058  63.458  1.00  0.00    -0.071 C  
ENDBRANCH  14  17
ENDBRANCH  10  11
ENDBRANCH   7   9
ENDBRANCH   6   7
ENDBRANCH   5   6
ENDBRANCH   4   5
ENDBRANCH   3   4
ENDBRANCH   2   3
TORSDOF 8
ENDMDL
MODEL      182
REMARK 921   NORMALIZED FREE ENERGY PREDICTED BY IDOCK:   -2.67 KCAL/MOL
REMARK 922        TOTAL FREE ENERGY PREDICTED BY IDOCK:   -4.58 KCAL/MOL
REMARK 923 INTER-LIGAND FREE ENERGY PREDICTED BY IDOCK:   -4.29 KCAL/MOL
REMARK 924 INTRA-LIGAND FREE ENERGY PREDICTED BY IDOCK:   -0.29 KCAL/MOL
REMARK 927      BINDING AFFINITY PREDICTED BY RF-SCORE:    0.00 PKD
ROOT
HETATM    1  C   UNL     1      -9.828  16.940  67.310  1.00  0.00    -0.265 C  
HETATM    2  C   UNL     1     -11.038  16.055  67.548  1.00  0.00    -0.207 C  
ENDROOT
BRANCH   2   3
HETATM    3  O   UNL     1     -11.016  15.011  66.582  1.00  0.00    -0.318 OA 
BRANCH   3   4
HETATM    4  C   UNL     1     -12.123  14.115  66.710  1.00  0.00    -0.442 C  
BRANCH   4   5
HETATM    5  C   UNL     1     -11.700  13.017  67.673  1.00  0.00    -0.366 C  
BRANCH   5   6
HETATM    6  O   UNL     1     -12.034  11.702  67.221  1.00  0.00    -0.627 OA 
BRANCH   6   7
HETATM    7  C   UNL     1     -11.030  11.060  66.572  1.00  0.00    -0.166 C  
HETATM    8  O   UNL     1     -10.395  11.473  65.618  1.00  0.00    -0.242 OA 
BRANCH   7   9
HETATM    9  C   UNL     1     -10.719   9.854  67.370  1.00  0.00    -0.323 C  
HETATM   10  C   UNL     1     -10.278   8.731  66.779  1.00  0.00    -0.354 C  
BRANCH  10  11
HETATM   11  C   UNL     1      -9.727   7.586  67.522  1.00  0.00    -0.190 A  
HETATM   12  C   UNL     1     -10.213   7.175  68.768  1.00  0.00    -0.184 A  
HETATM   13  C   UNL     1      -9.606   6.122  69.461  1.00  0.00    -0.165 A  
HETATM   14  C   UNL     1      -8.525   5.435  68.909  1.00  0.00    -0.099 A  
HETATM   15  C   UNL     1      -8.044   5.817  67.660  1.00  0.00    -0.102 A  
HETATM   16  C   UNL     1      -8.643   6.883  66.971  1.00  0.00    -0.121 A  
BRANCH  14  17
HETATM   17  O   UNL     1      -7.988   4.462  69.706  1.00  0.00    -0.057 OA 
HETATM   18  C   UNL     1      -8.487   3.144  69.508  1.00  0.00    -0.061 C  
ENDBRANCH  14  17
ENDBRANCH  10  11
ENDBRANCH   7   9
ENDBRANCH   6   7
ENDBRANCH   5   6
ENDBRANCH   4   5
ENDBRANCH   3   4
ENDBRANCH   2   3
TORSDOF 8
ENDMDL
MODEL      183
REMARK 921   NORMALIZED FREE ENERGY PREDICTED BY IDOCK:   -2.67 KCAL/MOL
REMARK 922        TOTAL FREE ENERGY PREDICTED BY IDOCK:   -4.57 KCAL/MOL
REMARK 923 INTER-LIGAND FREE ENERGY PREDICTED BY IDOCK:   -3.97 KCAL/MOL
REMARK 924 INTRA-LIGAND FREE ENERGY PREDICTED BY IDOCK:   -0.60 KCAL/MOL
REMARK 927      BINDING AFFINITY PREDICTED BY RF-SCORE:    0.00 PKD
ROOT
HETATM    1  C   UNL     1     -11.495   6.028  72.566  1.00  0.00    -0.336 C  
HETATM    2  C   UNL     1     -11.722   6.481  71.135  1.00  0.00    -0.335 C  
ENDROOT
BRANCH   2   3
HETATM    3  O   UNL     1     -12.469   7.692  71.170  1.00  0.00    -0.307 OA 
BRANCH   3   4
HETATM    4  C   UNL     1     -11.880   8.680  72.019  1.00  0.00    -0.372 C  
BRANCH   4   5
HETATM    5  C   UNL     1     -10.787   9.365  71.214  1.00  0.00    -0.361 C  
BRANCH   5   6
HETATM    6  O   UNL     1      -9.469   9.112  71.710  1.00  0.00    -0.312 OA 
BRANCH   6   7
HETATM    7  C   UNL     1      -8.496   9.154  70.766  1.00  0.00    -0.212 C  
HETATM    8  O   UNL     1      -7.431   9.741  70.841  1.00  0.00    -0.320 OA 
BRANCH   7   9
HETATM    9  C   UNL     1      -8.886   8.187  69.717  1.00  0.00    -0.143 C  
HETATM   10  C   UNL     1      -8.336   8.237  68.493  1.00  0.00    -0.129 C  
BRANCH  10  11
HETATM   11  C   UNL     1      -8.495   7.174  67.488  1.00  0.00    -0.123 A  
HETATM   12  C   UNL     1      -8.080   7.308  66.158  1.00  0.00    -0.121 A  
HETATM   13  C   UNL     1      -8.319   6.290  65.228  1.00  0.00    -0.138 A  
HETATM   14  C   UNL     1      -8.944   5.105  65.614  1.00  0.00    -0.154 A  
HETATM   15  C   UNL     1      -9.343   4.947  66.939  1.00  0.00    -0.137 A  
HETATM   16  C   UNL     1      -9.116   5.974  67.868  1.00  0.00    -0.117 A  
BRANCH  14  17
HETATM   17  O   UNL     1      -9.167   4.210  64.604  1.00  0.00    -0.137 OA 
HETATM   18  C   UNL     1     -10.512   3.782  64.431  1.00  0.00    -0.216 C  
ENDBRANCH  14  17
ENDBRANCH  10  11
ENDBRANCH   7   9
ENDBRANCH   6   7
ENDBRANCH   5   6
ENDBRANCH   4   5
ENDBRANCH   3   4
ENDBRANCH   2   3
TORSDOF 8
ENDMDL
MODEL      184
REMARK 921   NORMALIZED FREE ENERGY PREDICTED BY IDOCK:   -2.67 KCAL/MOL
REMARK 922        TOTAL FREE ENERGY PREDICTED BY IDOCK:   -4.57 KCAL/MOL
REMARK 923 INTER-LIGAND FREE ENERGY PREDICTED BY IDOCK:   -4.12 KCAL/MOL
REMARK 924 INTRA-LIGAND FREE ENERGY PREDICTED BY IDOCK:   -0.44 KCAL/MOL
REMARK 927      BINDING AFFINITY PREDICTED BY RF-SCORE:    0.00 PKD
ROOT
HETATM    1  C   UNL     1     -10.393  11.657  65.153  1.00  0.00    -0.326 C  
HETATM    2  C   UNL     1     -11.299  12.576  65.953  1.00  0.00    -0.340 C  
ENDROOT
BRANCH   2   3
HETATM    3  O   UNL     1     -11.777  11.851  67.080  1.00  0.00    -0.538 OA 
BRANCH   3   4
HETATM    4  C   UNL     1     -11.164  12.262  68.304  1.00  0.00    -0.267 C  
BRANCH   4   5
HETATM    5  C   UNL     1     -10.403  11.064  68.847  1.00  0.00    -0.205 C  
BRANCH   5   6
HETATM    6  O   UNL     1     -10.640  10.819  70.236  1.00  0.00    -0.059 OA 
BRANCH   6   7
HETATM    7  C   UNL     1     -11.394   9.721  70.492  1.00  0.00    -0.314 C  
HETATM    8  O   UNL     1     -12.560   9.703  70.847  1.00  0.00    -0.288 OA 
BRANCH   7   9
HETATM    9  C   UNL     1     -10.596   8.553  70.062  1.00  0.00    -0.230 C  
HETATM   10  C   UNL     1     -10.715   7.369  70.685  1.00  0.00    -0.242 C  
BRANCH  10  11
HETATM   11  C   UNL     1     -10.139   6.118  70.167  1.00  0.00    -0.233 A  
HETATM   12  C   UNL     1     -10.378   5.643  68.872  1.00  0.00    -0.295 A  
HETATM   13  C   UNL     1      -9.860   4.412  68.455  1.00  0.00    -0.140 A  
HETATM   14  C   UNL     1      -9.063   3.648  69.307  1.00  0.00    -0.133 A  
HETATM   15  C   UNL     1      -8.797   4.118  70.591  1.00  0.00    -0.129 A  
HETATM   16  C   UNL     1      -9.329   5.345  71.015  1.00  0.00    -0.188 A  
BRANCH  14  17
HETATM   17  O   UNL     1      -8.661   2.443  68.801  1.00  0.00    -0.064 OA 
HETATM   18  C   UNL     1      -8.873   2.245  67.409  1.00  0.00    -0.135 C  
ENDBRANCH  14  17
ENDBRANCH  10  11
ENDBRANCH   7   9
ENDBRANCH   6   7
ENDBRANCH   5   6
ENDBRANCH   4   5
ENDBRANCH   3   4
ENDBRANCH   2   3
TORSDOF 8
ENDMDL
MODEL      185
REMARK 921   NORMALIZED FREE ENERGY PREDICTED BY IDOCK:   -2.65 KCAL/MOL
REMARK 922        TOTAL FREE ENERGY PREDICTED BY IDOCK:   -4.54 KCAL/MOL
REMARK 923 INTER-LIGAND FREE ENERGY PREDICTED BY IDOCK:   -4.20 KCAL/MOL
REMARK 924 INTRA-LIGAND FREE ENERGY PREDICTED BY IDOCK:   -0.34 KCAL/MOL
REMARK 927      BINDING AFFINITY PREDICTED BY RF-SCORE:    0.00 PKD
ROOT
HETATM    1  C   UNL     1      -8.873   3.745  65.747  1.00  0.00    -0.124 C  
HETATM    2  C   UNL     1      -7.967   4.647  64.928  1.00  0.00    -0.099 C  
ENDROOT
BRANCH   2   3
HETATM    3  O   UNL     1      -7.881   5.903  65.590  1.00  0.00    -0.093 OA 
BRANCH   3   4
HETATM    4  C   UNL     1      -7.705   6.995  64.685  1.00  0.00    -0.116 C  
BRANCH   4   5
HETATM    5  C   UNL     1      -7.989   8.270  65.463  1.00  0.00    -0.120 C  
BRANCH   5   6
HETATM    6  O   UNL     1      -9.382   8.510  65.677  1.00  0.00    -0.162 OA 
BRANCH   6   7
HETATM    7  C   UNL     1      -9.675   9.754  66.132  1.00  0.00    -0.246 C  
HETATM    8  O   UNL     1      -9.719  10.780  65.476  1.00  0.00    -0.211 OA 
BRANCH   7   9
HETATM    9  C   UNL     1     -10.127   9.593  67.530  1.00  0.00    -0.247 C  
HETATM   10  C   UNL     1     -10.367   8.374  68.043  1.00  0.00    -0.270 C  
BRANCH  10  11
HETATM   11  C   UNL     1     -10.585   8.125  69.477  1.00  0.00    -0.215 A  
HETATM   12  C   UNL     1     -10.422   9.109  70.459  1.00  0.00    -0.289 A  
HETATM   13  C   UNL     1     -10.575   8.799  71.814  1.00  0.00    -0.417 A  
HETATM   14  C   UNL     1     -10.930   7.511  72.215  1.00  0.00    -0.262 A  
HETATM   15  C   UNL     1     -11.119   6.526  71.248  1.00  0.00    -0.321 A  
HETATM   16  C   UNL     1     -10.950   6.834  69.890  1.00  0.00    -0.340 A  
BRANCH  14  17
HETATM   17  O   UNL     1     -10.999   7.322  73.568  1.00  0.00    -0.345 OA 
HETATM   18  C   UNL     1      -9.861   6.723  74.176  1.00  0.00    -0.321 C  
ENDBRANCH  14  17
ENDBRANCH  10  11
ENDBRANCH   7   9
ENDBRANCH   6   7
ENDBRANCH   5   6
ENDBRANCH   4   5
ENDBRANCH   3   4
ENDBRANCH   2   3
TORSDOF 8
ENDMDL
MODEL      186
REMARK 921   NORMALIZED FREE ENERGY PREDICTED BY IDOCK:   -2.64 KCAL/MOL
REMARK 922        TOTAL FREE ENERGY PREDICTED BY IDOCK:   -4.53 KCAL/MOL
REMARK 923 INTER-LIGAND FREE ENERGY PREDICTED BY IDOCK:   -4.08 KCAL/MOL
REMARK 924 INTRA-LIGAND FREE ENERGY PREDICTED BY IDOCK:   -0.46 KCAL/MOL
REMARK 927      BINDING AFFINITY PREDICTED BY RF-SCORE:    0.00 PKD
ROOT
HETATM    1  C   UNL     1      -9.587  13.420  66.643  1.00  0.00    -0.272 C  
HETATM    2  C   UNL     1      -8.607  14.041  67.622  1.00  0.00    -0.188 C  
ENDROOT
BRANCH   2   3
HETATM    3  O   UNL     1      -7.301  13.591  67.282  1.00  0.00    -0.140 OA 
BRANCH   3   4
HETATM    4  C   UNL     1      -6.576  13.093  68.409  1.00  0.00    -0.092 C  
BRANCH   4   5
HETATM    5  C   UNL     1      -6.688  11.577  68.377  1.00  0.00    -0.066 C  
BRANCH   5   6
HETATM    6  O   UNL     1      -7.400  11.034  69.492  1.00  0.00    -0.126 OA 
BRANCH   6   7
HETATM    7  C   UNL     1      -8.527  10.355  69.162  1.00  0.00    -0.164 C  
HETATM    8  O   UNL     1      -9.204  10.506  68.160  1.00  0.00    -0.142 OA 
BRANCH   7   9
HETATM    9  C   UNL     1      -8.662   9.261  70.147  1.00  0.00    -0.224 C  
HETATM   10  C   UNL     1      -9.756   9.158  70.919  1.00  0.00    -0.352 C  
BRANCH  10  11
HETATM   11  C   UNL     1     -10.062   7.975  71.740  1.00  0.00    -0.249 A  
HETATM   12  C   UNL     1     -10.616   6.801  71.216  1.00  0.00    -0.246 A  
HETATM   13  C   UNL     1     -10.950   5.733  72.055  1.00  0.00    -0.317 A  
HETATM   14  C   UNL     1     -10.704   5.798  73.426  1.00  0.00    -0.273 A  
HETATM   15  C   UNL     1     -10.131   6.950  73.959  1.00  0.00    -0.383 A  
HETATM   16  C   UNL     1      -9.810   8.028  73.120  1.00  0.00    -0.332 A  
BRANCH  14  17
HETATM   17  O   UNL     1     -11.122   4.711  74.143  1.00  0.00    -0.290 OA 
HETATM   18  C   UNL     1     -11.043   3.455  73.481  1.00  0.00    -0.219 C  
ENDBRANCH  14  17
ENDBRANCH  10  11
ENDBRANCH   7   9
ENDBRANCH   6   7
ENDBRANCH   5   6
ENDBRANCH   4   5
ENDBRANCH   3   4
ENDBRANCH   2   3
TORSDOF 8
ENDMDL
MODEL      187
REMARK 921   NORMALIZED FREE ENERGY PREDICTED BY IDOCK:   -2.62 KCAL/MOL
REMARK 922        TOTAL FREE ENERGY PREDICTED BY IDOCK:   -4.50 KCAL/MOL
REMARK 923 INTER-LIGAND FREE ENERGY PREDICTED BY IDOCK:   -4.15 KCAL/MOL
REMARK 924 INTRA-LIGAND FREE ENERGY PREDICTED BY IDOCK:   -0.35 KCAL/MOL
REMARK 927      BINDING AFFINITY PREDICTED BY RF-SCORE:    0.00 PKD
ROOT
HETATM    1  C   UNL     1      -7.011  18.839  65.657  1.00  0.00    -0.260 C  
HETATM    2  C   UNL     1      -8.033  17.910  66.288  1.00  0.00    -0.244 C  
ENDROOT
BRANCH   2   3
HETATM    3  O   UNL     1      -7.351  17.062  67.205  1.00  0.00    -0.147 OA 
BRANCH   3   4
HETATM    4  C   UNL     1      -7.816  17.213  68.548  1.00  0.00    -0.257 C  
BRANCH   4   5
HETATM    5  C   UNL     1      -8.510  15.914  68.928  1.00  0.00    -0.220 C  
BRANCH   5   6
HETATM    6  O   UNL     1      -9.720  15.680  68.203  1.00  0.00    -0.203 OA 
BRANCH   6   7
HETATM    7  C   UNL     1     -10.647  14.953  68.877  1.00  0.00    -0.247 C  
HETATM    8  O   UNL     1     -11.432  15.366  69.711  1.00  0.00    -0.276 OA 
BRANCH   7   9
HETATM    9  C   UNL     1     -10.657  13.610  68.258  1.00  0.00    -0.261 C  
HETATM   10  C   UNL     1     -10.101  12.558  68.882  1.00  0.00     0.034 C  
BRANCH  10  11
HETATM   11  C   UNL     1     -10.284  11.165  68.443  1.00  0.00    -0.200 A  
HETATM   12  C   UNL     1     -10.432  10.094  69.332  1.00  0.00    -0.254 A  
HETATM   13  C   UNL     1     -10.533   8.782  68.859  1.00  0.00    -0.217 A  
HETATM   14  C   UNL     1     -10.526   8.514  67.490  1.00  0.00    -0.258 A  
HETATM   15  C   UNL     1     -10.402   9.572  66.592  1.00  0.00    -0.280 A  
HETATM   16  C   UNL     1     -10.286  10.887  67.067  1.00  0.00    -0.256 A  
BRANCH  14  17
HETATM   17  O   UNL     1     -10.580   7.189  67.157  1.00  0.00    -0.280 OA 
HETATM   18  C   UNL     1     -10.985   6.299  68.190  1.00  0.00    -0.323 C  
ENDBRANCH  14  17
ENDBRANCH  10  11
ENDBRANCH   7   9
ENDBRANCH   6   7
ENDBRANCH   5   6
ENDBRANCH   4   5
ENDBRANCH   3   4
ENDBRANCH   2   3
TORSDOF 8
ENDMDL
MODEL      188
REMARK 921   NORMALIZED FREE ENERGY PREDICTED BY IDOCK:   -2.59 KCAL/MOL
REMARK 922        TOTAL FREE ENERGY PREDICTED BY IDOCK:   -4.45 KCAL/MOL
REMARK 923 INTER-LIGAND FREE ENERGY PREDICTED BY IDOCK:   -4.04 KCAL/MOL
REMARK 924 INTRA-LIGAND FREE ENERGY PREDICTED BY IDOCK:   -0.41 KCAL/MOL
REMARK 927      BINDING AFFINITY PREDICTED BY RF-SCORE:    0.00 PKD
ROOT
HETATM    1  C   UNL     1     -10.280  20.099  67.322  1.00  0.00    -0.540 C  
HETATM    2  C   UNL     1     -10.274  18.758  66.610  1.00  0.00    -0.408 C  
ENDROOT
BRANCH   2   3
HETATM    3  O   UNL     1      -8.946  18.498  66.172  1.00  0.00    -0.462 OA 
BRANCH   3   4
HETATM    4  C   UNL     1      -8.633  17.103  66.151  1.00  0.00    -0.187 C  
BRANCH   4   5
HETATM    5  C   UNL     1      -8.372  16.683  67.588  1.00  0.00    -0.173 C  
BRANCH   5   6
HETATM    6  O   UNL     1      -7.071  16.125  67.792  1.00  0.00    -0.121 OA 
BRANCH   6   7
HETATM    7  C   UNL     1      -7.016  15.165  68.749  1.00  0.00    -0.111 C  
HETATM    8  O   UNL     1      -6.385  15.207  69.790  1.00  0.00    -0.134 OA 
BRANCH   7   9
HETATM    9  C   UNL     1      -8.024  14.148  68.381  1.00  0.00    -0.142 C  
HETATM   10  C   UNL     1      -7.660  12.990  67.806  1.00  0.00    -0.152 C  
BRANCH  10  11
HETATM   11  C   UNL     1      -8.571  11.847  67.636  1.00  0.00    -0.156 A  
HETATM   12  C   UNL     1      -8.815  10.904  68.641  1.00  0.00    -0.158 A  
HETATM   13  C   UNL     1      -9.638   9.799  68.401  1.00  0.00    -0.157 A  
HETATM   14  C   UNL     1     -10.262   9.630  67.165  1.00  0.00    -0.243 A  
HETATM   15  C   UNL     1     -10.047  10.572  66.161  1.00  0.00    -0.306 A  
HETATM   16  C   UNL     1      -9.210  11.673  66.398  1.00  0.00    -0.219 A  
BRANCH  14  17
HETATM   17  O   UNL     1     -10.998   8.485  67.038  1.00  0.00    -0.095 OA 
HETATM   18  C   UNL     1     -10.264   7.267  67.011  1.00  0.00    -0.278 C  
ENDBRANCH  14  17
ENDBRANCH  10  11
ENDBRANCH   7   9
ENDBRANCH   6   7
ENDBRANCH   5   6
ENDBRANCH   4   5
ENDBRANCH   3   4
ENDBRANCH   2   3
TORSDOF 8
ENDMDL
MODEL      189
REMARK 921   NORMALIZED FREE ENERGY PREDICTED BY IDOCK:   -2.58 KCAL/MOL
REMARK 922        TOTAL FREE ENERGY PREDICTED BY IDOCK:   -4.45 KCAL/MOL
REMARK 923 INTER-LIGAND FREE ENERGY PREDICTED BY IDOCK:   -3.89 KCAL/MOL
REMARK 924 INTRA-LIGAND FREE ENERGY PREDICTED BY IDOCK:   -0.55 KCAL/MOL
REMARK 927      BINDING AFFINITY PREDICTED BY RF-SCORE:    0.00 PKD
ROOT
HETATM    1  C   UNL     1      -9.130   2.069  67.662  1.00  0.00    -0.199 C  
HETATM    2  C   UNL     1      -8.625   2.339  66.255  1.00  0.00    -0.112 C  
ENDROOT
BRANCH   2   3
HETATM    3  O   UNL     1      -8.219   3.701  66.187  1.00  0.00    -0.099 OA 
BRANCH   3   4
HETATM    4  C   UNL     1      -9.249   4.561  65.696  1.00  0.00    -0.149 C  
BRANCH   4   5
HETATM    5  C   UNL     1      -9.120   5.881  66.439  1.00  0.00    -0.149 C  
BRANCH   5   6
HETATM    6  O   UNL     1     -10.333   6.639  66.472  1.00  0.00    -0.154 OA 
BRANCH   6   7
HETATM    7  C   UNL     1     -10.383   7.576  67.452  1.00  0.00    -0.276 C  
HETATM    8  O   UNL     1     -10.756   8.730  67.340  1.00  0.00    -0.267 OA 
BRANCH   7   9
HETATM    9  C   UNL     1     -10.094   6.873  68.720  1.00  0.00    -0.168 C  
HETATM   10  C   UNL     1     -11.013   6.807  69.698  1.00  0.00    -0.336 C  
BRANCH  10  11
HETATM   11  C   UNL     1     -10.884   5.931  70.874  1.00  0.00    -0.347 A  
HETATM   12  C   UNL     1     -11.418   6.249  72.129  1.00  0.00    -0.354 A  
HETATM   13  C   UNL     1     -11.206   5.411  73.228  1.00  0.00    -0.322 A  
HETATM   14  C   UNL     1     -10.490   4.221  73.092  1.00  0.00    -0.181 A  
HETATM   15  C   UNL     1      -9.973   3.880  71.845  1.00  0.00    -0.238 A  
HETATM   16  C   UNL     1     -10.173   4.728  70.745  1.00  0.00    -0.246 A  
BRANCH  14  17
HETATM   17  O   UNL     1     -10.309   3.516  74.249  1.00  0.00    -0.163 OA 
HETATM   18  C   UNL     1     -10.526   2.113  74.169  1.00  0.00    -0.134 C  
ENDBRANCH  14  17
ENDBRANCH  10  11
ENDBRANCH   7   9
ENDBRANCH   6   7
ENDBRANCH   5   6
ENDBRANCH   4   5
ENDBRANCH   3   4
ENDBRANCH   2   3
TORSDOF 8
ENDMDL
MODEL      190
REMARK 921   NORMALIZED FREE ENERGY PREDICTED BY IDOCK:   -2.55 KCAL/MOL
REMARK 922        TOTAL FREE ENERGY PREDICTED BY IDOCK:   -4.40 KCAL/MOL
REMARK 923 INTER-LIGAND FREE ENERGY PREDICTED BY IDOCK:   -4.01 KCAL/MOL
REMARK 924 INTRA-LIGAND FREE ENERGY PREDICTED BY IDOCK:   -0.39 KCAL/MOL
REMARK 927      BINDING AFFINITY PREDICTED BY RF-SCORE:    0.00 PKD
ROOT
HETATM    1  C   UNL     1     -12.160  14.066  66.208  1.00  0.00    -0.482 C  
HETATM    2  C   UNL     1     -11.712  12.631  66.000  1.00  0.00    -0.417 C  
ENDROOT
BRANCH   2   3
HETATM    3  O   UNL     1     -12.129  11.872  67.129  1.00  0.00    -0.590 OA 
BRANCH   3   4
HETATM    4  C   UNL     1     -11.261  12.031  68.254  1.00  0.00    -0.261 C  
BRANCH   4   5
HETATM    5  C   UNL     1     -10.487  10.731  68.407  1.00  0.00    -0.183 C  
BRANCH   5   6
HETATM    6  O   UNL     1      -9.110  10.923  68.742  1.00  0.00    -0.169 OA 
BRANCH   6   7
HETATM    7  C   UNL     1      -8.532   9.867  69.368  1.00  0.00    -0.165 C  
HETATM    8  O   UNL     1      -8.294   9.765  70.559  1.00  0.00    -0.194 OA 
BRANCH   7   9
HETATM    9  C   UNL     1      -8.435   8.786  68.364  1.00  0.00    -0.130 C  
HETATM   10  C   UNL     1      -8.579   7.498  68.720  1.00  0.00    -0.129 C  
BRANCH  10  11
HETATM   11  C   UNL     1      -8.733   6.401  67.751  1.00  0.00    -0.114 A  
HETATM   12  C   UNL     1      -8.437   6.534  66.390  1.00  0.00    -0.124 A  
HETATM   13  C   UNL     1      -8.667   5.477  65.502  1.00  0.00    -0.154 A  
HETATM   14  C   UNL     1      -9.161   4.256  65.959  1.00  0.00    -0.145 A  
HETATM   15  C   UNL     1      -9.438   4.100  67.316  1.00  0.00    -0.220 A  
HETATM   16  C   UNL     1      -9.222   5.165  68.204  1.00  0.00    -0.136 A  
BRANCH  14  17
HETATM   17  O   UNL     1      -9.391   3.322  64.988  1.00  0.00    -0.144 OA 
HETATM   18  C   UNL     1     -10.290   3.701  63.953  1.00  0.00    -0.254 C  
ENDBRANCH  14  17
ENDBRANCH  10  11
ENDBRANCH   7   9
ENDBRANCH   6   7
ENDBRANCH   5   6
ENDBRANCH   4   5
ENDBRANCH   3   4
ENDBRANCH   2   3
TORSDOF 8
ENDMDL
MODEL      191
REMARK 921   NORMALIZED FREE ENERGY PREDICTED BY IDOCK:   -2.47 KCAL/MOL
REMARK 922        TOTAL FREE ENERGY PREDICTED BY IDOCK:   -4.28 KCAL/MOL
REMARK 923 INTER-LIGAND FREE ENERGY PREDICTED BY IDOCK:   -3.82 KCAL/MOL
REMARK 924 INTRA-LIGAND FREE ENERGY PREDICTED BY IDOCK:   -0.46 KCAL/MOL
REMARK 927      BINDING AFFINITY PREDICTED BY RF-SCORE:    0.00 PKD
ROOT
HETATM    1  C   UNL     1     -12.381  13.321  64.697  1.00  0.00    -0.447 C  
HETATM    2  C   UNL     1     -11.658  12.066  65.151  1.00  0.00    -0.272 C  
ENDROOT
BRANCH   2   3
HETATM    3  O   UNL     1     -11.929  11.879  66.535  1.00  0.00    -0.588 OA 
BRANCH   3   4
HETATM    4  C   UNL     1     -10.976  11.026  67.175  1.00  0.00    -0.283 C  
BRANCH   4   5
HETATM    5  C   UNL     1      -9.599  11.607  66.896  1.00  0.00    -0.186 C  
BRANCH   5   6
HETATM    6  O   UNL     1      -8.540  10.655  67.030  1.00  0.00    -0.127 OA 
BRANCH   6   7
HETATM    7  C   UNL     1      -7.640  10.950  68.001  1.00  0.00    -0.092 C  
HETATM    8  O   UNL     1      -6.844  10.184  68.515  1.00  0.00    -0.057 OA 
BRANCH   7   9
HETATM    9  C   UNL     1      -7.670  12.419  68.170  1.00  0.00    -0.139 C  
HETATM   10  C   UNL     1      -6.652  13.067  68.760  1.00  0.00    -0.096 C  
BRANCH  10  11
HETATM   11  C   UNL     1      -6.505  14.531  68.746  1.00  0.00    -0.089 A  
HETATM   12  C   UNL     1      -6.310  15.293  69.904  1.00  0.00    -0.164 A  
HETATM   13  C   UNL     1      -6.246  16.689  69.839  1.00  0.00    -0.155 A  
HETATM   14  C   UNL     1      -6.340  17.351  68.615  1.00  0.00    -0.179 A  
HETATM   15  C   UNL     1      -6.511  16.605  67.451  1.00  0.00    -0.202 A  
HETATM   16  C   UNL     1      -6.590  15.206  67.518  1.00  0.00    -0.167 A  
BRANCH  14  17
HETATM   17  O   UNL     1      -6.315  18.716  68.689  1.00  0.00    -0.210 OA 
HETATM   18  C   UNL     1      -7.580  19.363  68.758  1.00  0.00    -0.363 C  
ENDBRANCH  14  17
ENDBRANCH  10  11
ENDBRANCH   7   9
ENDBRANCH   6   7
ENDBRANCH   5   6
ENDBRANCH   4   5
ENDBRANCH   3   4
ENDBRANCH   2   3
TORSDOF 8
ENDMDL
MODEL      192
REMARK 921   NORMALIZED FREE ENERGY PREDICTED BY IDOCK:   -2.43 KCAL/MOL
REMARK 922        TOTAL FREE ENERGY PREDICTED BY IDOCK:   -4.21 KCAL/MOL
REMARK 923 INTER-LIGAND FREE ENERGY PREDICTED BY IDOCK:   -3.67 KCAL/MOL
REMARK 924 INTRA-LIGAND FREE ENERGY PREDICTED BY IDOCK:   -0.55 KCAL/MOL
REMARK 927      BINDING AFFINITY PREDICTED BY RF-SCORE:    0.00 PKD
ROOT
HETATM    1  C   UNL     1      -9.783  12.690  66.126  1.00  0.00    -0.253 C  
HETATM    2  C   UNL     1     -10.410  11.364  66.518  1.00  0.00    -0.236 C  
ENDROOT
BRANCH   2   3
HETATM    3  O   UNL     1     -10.316  10.486  65.402  1.00  0.00    -0.278 OA 
BRANCH   3   4
HETATM    4  C   UNL     1      -9.442  10.978  64.383  1.00  0.00    -0.238 C  
BRANCH   4   5
HETATM    5  C   UNL     1      -8.469   9.858  64.050  1.00  0.00    -0.180 C  
BRANCH   5   6
HETATM    6  O   UNL     1      -7.916   9.221  65.205  1.00  0.00    -0.101 OA 
BRANCH   6   7
HETATM    7  C   UNL     1      -8.097   7.876  65.245  1.00  0.00    -0.135 C  
HETATM    8  O   UNL     1      -7.944   7.092  64.326  1.00  0.00    -0.127 OA 
BRANCH   7   9
HETATM    9  C   UNL     1      -8.317   7.524  66.664  1.00  0.00    -0.127 C  
HETATM   10  C   UNL     1      -9.555   7.305  67.137  1.00  0.00    -0.203 C  
BRANCH  10  11
HETATM   11  C   UNL     1      -9.826   6.723  68.462  1.00  0.00    -0.141 A  
HETATM   12  C   UNL     1      -8.885   5.974  69.177  1.00  0.00    -0.119 A  
HETATM   13  C   UNL     1      -9.220   5.387  70.402  1.00  0.00    -0.190 A  
HETATM   14  C   UNL     1     -10.488   5.565  70.955  1.00  0.00    -0.244 A  
HETATM   15  C   UNL     1     -11.428   6.327  70.266  1.00  0.00    -0.428 A  
HETATM   16  C   UNL     1     -11.097   6.904  69.031  1.00  0.00    -0.188 A  
BRANCH  14  17
HETATM   17  O   UNL     1     -10.708   4.899  72.129  1.00  0.00    -0.198 OA 
HETATM   18  C   UNL     1     -10.878   5.708  73.286  1.00  0.00    -0.282 C  
ENDBRANCH  14  17
ENDBRANCH  10  11
ENDBRANCH   7   9
ENDBRANCH   6   7
ENDBRANCH   5   6
ENDBRANCH   4   5
ENDBRANCH   3   4
ENDBRANCH   2   3
TORSDOF 8
ENDMDL
MODEL      193
REMARK 921   NORMALIZED FREE ENERGY PREDICTED BY IDOCK:   -2.32 KCAL/MOL
REMARK 922        TOTAL FREE ENERGY PREDICTED BY IDOCK:   -4.06 KCAL/MOL
REMARK 923 INTER-LIGAND FREE ENERGY PREDICTED BY IDOCK:   -3.47 KCAL/MOL
REMARK 924 INTRA-LIGAND FREE ENERGY PREDICTED BY IDOCK:   -0.59 KCAL/MOL
REMARK 927      BINDING AFFINITY PREDICTED BY RF-SCORE:    0.00 PKD
ROOT
HETATM    1  C   UNL     1      -7.934   5.550  70.682  1.00  0.00    -0.103 C  
HETATM    2  C   UNL     1      -9.143   4.652  70.493  1.00  0.00    -0.120 C  
ENDROOT
BRANCH   2   3
HETATM    3  O   UNL     1      -8.675   3.339  70.209  1.00  0.00    -0.060 OA 
BRANCH   3   4
HETATM    4  C   UNL     1      -9.405   2.708  69.153  1.00  0.00    -0.128 C  
BRANCH   4   5
HETATM    5  C   UNL     1      -9.467   3.697  68.001  1.00  0.00    -0.161 C  
BRANCH   5   6
HETATM    6  O   UNL     1      -8.409   3.535  67.052  1.00  0.00    -0.093 OA 
BRANCH   6   7
HETATM    7  C   UNL     1      -8.403   4.455  66.055  1.00  0.00    -0.113 C  
HETATM    8  O   UNL     1      -8.233   4.243  64.867  1.00  0.00    -0.099 OA 
BRANCH   7   9
HETATM    9  C   UNL     1      -8.843   5.731  66.658  1.00  0.00    -0.121 C  
HETATM   10  C   UNL     1      -8.713   6.890  65.992  1.00  0.00    -0.151 C  
BRANCH  10  11
HETATM   11  C   UNL     1      -9.340   8.149  66.425  1.00  0.00    -0.269 A  
HETATM   12  C   UNL     1      -9.986   8.300  67.658  1.00  0.00    -0.245 A  
HETATM   13  C   UNL     1     -10.624   9.500  67.989  1.00  0.00    -0.282 A  
HETATM   14  C   UNL     1     -10.601  10.585  67.114  1.00  0.00    -0.264 A  
HETATM   15  C   UNL     1      -9.942  10.459  65.893  1.00  0.00    -0.317 A  
HETATM   16  C   UNL     1      -9.314   9.250  65.555  1.00  0.00    -0.303 A  
BRANCH  14  17
HETATM   17  O   UNL     1     -11.304  11.682  67.529  1.00  0.00    -0.270 OA 
HETATM   18  C   UNL     1     -11.812  12.526  66.504  1.00  0.00    -0.367 C  
ENDBRANCH  14  17
ENDBRANCH  10  11
ENDBRANCH   7   9
ENDBRANCH   6   7
ENDBRANCH   5   6
ENDBRANCH   4   5
ENDBRANCH   3   4
ENDBRANCH   2   3
TORSDOF 8
ENDMDL
MODEL      194
REMARK 921   NORMALIZED FREE ENERGY PREDICTED BY IDOCK:   -2.29 KCAL/MOL
REMARK 922        TOTAL FREE ENERGY PREDICTED BY IDOCK:   -4.01 KCAL/MOL
REMARK 923 INTER-LIGAND FREE ENERGY PREDICTED BY IDOCK:   -3.59 KCAL/MOL
REMARK 924 INTRA-LIGAND FREE ENERGY PREDICTED BY IDOCK:   -0.42 KCAL/MOL
REMARK 927      BINDING AFFINITY PREDICTED BY RF-SCORE:    0.00 PKD
ROOT
HETATM    1  C   UNL     1     -11.833  14.416  67.568  1.00  0.00    -0.418 C  
HETATM    2  C   UNL     1     -12.389  13.736  66.330  1.00  0.00    -0.412 C  
ENDROOT
BRANCH   2   3
HETATM    3  O   UNL     1     -11.294  13.360  65.505  1.00  0.00    -0.292 OA 
BRANCH   3   4
HETATM    4  C   UNL     1     -10.027  13.627  66.111  1.00  0.00    -0.306 C  
BRANCH   4   5
HETATM    5  C   UNL     1      -9.363  12.283  66.367  1.00  0.00    -0.219 C  
BRANCH   5   6
HETATM    6  O   UNL     1      -9.644  11.307  65.360  1.00  0.00    -0.216 OA 
BRANCH   6   7
HETATM    7  C   UNL     1      -9.188  10.061  65.643  1.00  0.00    -0.186 C  
HETATM    8  O   UNL     1      -8.678   9.276  64.863  1.00  0.00    -0.174 OA 
BRANCH   7   9
HETATM    9  C   UNL     1      -9.242   9.918  67.113  1.00  0.00    -0.158 C  
HETATM   10  C   UNL     1      -9.129   8.711  67.694  1.00  0.00    -0.145 C  
BRANCH  10  11
HETATM   11  C   UNL     1      -8.935   8.523  69.141  1.00  0.00    -0.146 A  
HETATM   12  C   UNL     1      -9.506   7.466  69.860  1.00  0.00    -0.153 A  
HETATM   13  C   UNL     1      -9.344   7.375  71.246  1.00  0.00    -0.158 A  
HETATM   14  C   UNL     1      -8.580   8.314  71.938  1.00  0.00    -0.168 A  
HETATM   15  C   UNL     1      -7.986   9.358  71.234  1.00  0.00     0.181 A  
HETATM   16  C   UNL     1      -8.161   9.458  69.845  1.00  0.00    -0.142 A  
BRANCH  14  17
HETATM   17  O   UNL     1      -8.541   8.144  73.295  1.00  0.00    -0.207 OA 
HETATM   18  C   UNL     1      -9.565   7.332  73.855  1.00  0.00    -0.276 C  
ENDBRANCH  14  17
ENDBRANCH  10  11
ENDBRANCH   7   9
ENDBRANCH   6   7
ENDBRANCH   5   6
ENDBRANCH   4   5
ENDBRANCH   3   4
ENDBRANCH   2   3
TORSDOF 8
ENDMDL
MODEL      195
REMARK 921   NORMALIZED FREE ENERGY PREDICTED BY IDOCK:   -2.28 KCAL/MOL
REMARK 922        TOTAL FREE ENERGY PREDICTED BY IDOCK:   -4.01 KCAL/MOL
REMARK 923 INTER-LIGAND FREE ENERGY PREDICTED BY IDOCK:   -3.74 KCAL/MOL
REMARK 924 INTRA-LIGAND FREE ENERGY PREDICTED BY IDOCK:   -0.27 KCAL/MOL
REMARK 927      BINDING AFFINITY PREDICTED BY RF-SCORE:    0.00 PKD
ROOT
HETATM    1  C   UNL     1      -7.546   4.184  64.841  1.00  0.00    -0.077 C  
HETATM    2  C   UNL     1      -8.664   3.327  64.276  1.00  0.00    -0.093 C  
ENDROOT
BRANCH   2   3
HETATM    3  O   UNL     1      -9.842   3.584  65.031  1.00  0.00    -0.165 OA 
BRANCH   3   4
HETATM    4  C   UNL     1      -9.565   4.190  66.297  1.00  0.00    -0.199 C  
BRANCH   4   5
HETATM    5  C   UNL     1     -10.548   5.338  66.466  1.00  0.00    -0.285 C  
BRANCH   5   6
HETATM    6  O   UNL     1     -10.034   6.417  67.251  1.00  0.00    -0.128 OA 
BRANCH   6   7
HETATM    7  C   UNL     1      -9.460   7.413  66.531  1.00  0.00    -0.172 C  
HETATM    8  O   UNL     1      -8.753   7.288  65.547  1.00  0.00    -0.122 OA 
BRANCH   7   9
HETATM    9  C   UNL     1     -10.023   8.681  67.044  1.00  0.00    -0.317 C  
HETATM   10  C   UNL     1      -9.221   9.704  67.385  1.00  0.00    -0.148 C  
BRANCH  10  11
HETATM   11  C   UNL     1      -9.714  11.060  67.671  1.00  0.00    -0.184 A  
HETATM   12  C   UNL     1     -11.043  11.452  67.469  1.00  0.00    -0.339 A  
HETATM   13  C   UNL     1     -11.440  12.774  67.694  1.00  0.00    -0.387 A  
HETATM   14  C   UNL     1     -10.531  13.723  68.159  1.00  0.00    -0.249 A  
HETATM   15  C   UNL     1      -9.210  13.344  68.388  1.00  0.00    -0.149 A  
HETATM   16  C   UNL     1      -8.808  12.021  68.148  1.00  0.00    -0.182 A  
BRANCH  14  17
HETATM   17  O   UNL     1     -11.029  14.990  68.290  1.00  0.00    -0.254 OA 
HETATM   18  C   UNL     1     -10.338  16.012  67.583  1.00  0.00    -0.284 C  
ENDBRANCH  14  17
ENDBRANCH  10  11
ENDBRANCH   7   9
ENDBRANCH   6   7
ENDBRANCH   5   6
ENDBRANCH   4   5
ENDBRANCH   3   4
ENDBRANCH   2   3
TORSDOF 8
ENDMDL
MODEL      196
REMARK 921   NORMALIZED FREE ENERGY PREDICTED BY IDOCK:   -2.28 KCAL/MOL
REMARK 922        TOTAL FREE ENERGY PREDICTED BY IDOCK:   -3.99 KCAL/MOL
REMARK 923 INTER-LIGAND FREE ENERGY PREDICTED BY IDOCK:   -3.59 KCAL/MOL
REMARK 924 INTRA-LIGAND FREE ENERGY PREDICTED BY IDOCK:   -0.40 KCAL/MOL
REMARK 927      BINDING AFFINITY PREDICTED BY RF-SCORE:    0.00 PKD
ROOT
HETATM    1  C   UNL     1      -7.684   7.009  67.203  1.00  0.00    -0.108 C  
HETATM    2  C   UNL     1      -8.457   8.227  67.677  1.00  0.00    -0.130 C  
ENDROOT
BRANCH   2   3
HETATM    3  O   UNL     1      -8.406   8.255  69.098  1.00  0.00    -0.120 OA 
BRANCH   3   4
HETATM    4  C   UNL     1      -8.326   9.583  69.622  1.00  0.00    -0.152 C  
BRANCH   4   5
HETATM    5  C   UNL     1      -8.104  10.516  68.443  1.00  0.00    -0.119 C  
BRANCH   5   6
HETATM    6  O   UNL     1      -6.805  11.114  68.425  1.00  0.00    -0.061 OA 
BRANCH   6   7
HETATM    7  C   UNL     1      -6.716  12.283  69.108  1.00  0.00    -0.095 C  
HETATM    8  O   UNL     1      -6.140  12.468  70.166  1.00  0.00    -0.151 OA 
BRANCH   7   9
HETATM    9  C   UNL     1      -7.274  13.329  68.226  1.00  0.00    -0.108 C  
HETATM   10  C   UNL     1      -8.213  14.181  68.672  1.00  0.00    -0.116 C  
BRANCH  10  11
HETATM   11  C   UNL     1      -8.634  15.383  67.935  1.00  0.00    -0.156 A  
HETATM   12  C   UNL     1      -8.301  16.683  68.333  1.00  0.00    -0.208 A  
HETATM   13  C   UNL     1      -8.787  17.792  67.633  1.00  0.00    -0.248 A  
HETATM   14  C   UNL     1      -9.584  17.627  66.500  1.00  0.00    -0.292 A  
HETATM   15  C   UNL     1      -9.905  16.339  66.077  1.00  0.00    -0.371 A  
HETATM   16  C   UNL     1      -9.430  15.227  66.789  1.00  0.00    -0.264 A  
BRANCH  14  17
HETATM   17  O   UNL     1     -10.037  18.786  65.935  1.00  0.00    -0.512 OA 
HETATM   18  C   UNL     1     -10.847  19.612  66.762  1.00  0.00    -0.376 C  
ENDBRANCH  14  17
ENDBRANCH  10  11
ENDBRANCH   7   9
ENDBRANCH   6   7
ENDBRANCH   5   6
ENDBRANCH   4   5
ENDBRANCH   3   4
ENDBRANCH   2   3
TORSDOF 8
ENDMDL
MODEL      197
REMARK 921   NORMALIZED FREE ENERGY PREDICTED BY IDOCK:   -2.24 KCAL/MOL
REMARK 922        TOTAL FREE ENERGY PREDICTED BY IDOCK:   -3.94 KCAL/MOL
REMARK 923 INTER-LIGAND FREE ENERGY PREDICTED BY IDOCK:   -3.66 KCAL/MOL
REMARK 924 INTRA-LIGAND FREE ENERGY PREDICTED BY IDOCK:   -0.28 KCAL/MOL
REMARK 927      BINDING AFFINITY PREDICTED BY RF-SCORE:    0.00 PKD
ROOT
HETATM    1  C   UNL     1      -7.439   2.490  72.721  1.00  0.00    -0.044 C  
HETATM    2  C   UNL     1      -8.790   1.892  72.373  1.00  0.00    -0.065 C  
ENDROOT
BRANCH   2   3
HETATM    3  O   UNL     1      -9.552   2.886  71.700  1.00  0.00    -0.131 OA 
BRANCH   3   4
HETATM    4  C   UNL     1      -8.803   4.076  71.439  1.00  0.00    -0.104 C  
BRANCH   4   5
HETATM    5  C   UNL     1      -9.721   5.025  70.686  1.00  0.00    -0.198 C  
BRANCH   5   6
HETATM    6  O   UNL     1      -9.547   6.397  71.053  1.00  0.00    -0.174 OA 
BRANCH   6   7
HETATM    7  C   UNL     1      -8.588   7.049  70.349  1.00  0.00    -0.142 C  
HETATM    8  O   UNL     1      -7.394   6.807  70.345  1.00  0.00    -0.077 OA 
BRANCH   7   9
HETATM    9  C   UNL     1      -9.292   7.974  69.436  1.00  0.00    -0.155 C  
HETATM   10  C   UNL     1     -10.067   8.961  69.915  1.00  0.00    -0.204 C  
BRANCH  10  11
HETATM   11  C   UNL     1     -10.598  10.052  69.083  1.00  0.00    -0.240 A  
HETATM   12  C   UNL     1     -11.092  11.250  69.612  1.00  0.00    -0.273 A  
HETATM   13  C   UNL     1     -11.649  12.225  68.778  1.00  0.00    -0.380 A  
HETATM   14  C   UNL     1     -11.691  12.042  67.396  1.00  0.00    -0.281 A  
HETATM   15  C   UNL     1     -11.182  10.865  66.851  1.00  0.00    -0.162 A  
HETATM   16  C   UNL     1     -10.637   9.880  67.690  1.00  0.00    -0.325 A  
BRANCH  14  17
HETATM   17  O   UNL     1     -12.305  13.043  66.696  1.00  0.00    -0.381 OA 
HETATM   18  C   UNL     1     -11.459  13.856  65.893  1.00  0.00    -0.325 C  
ENDBRANCH  14  17
ENDBRANCH  10  11
ENDBRANCH   7   9
ENDBRANCH   6   7
ENDBRANCH   5   6
ENDBRANCH   4   5
ENDBRANCH   3   4
ENDBRANCH   2   3
TORSDOF 8
ENDMDL
MODEL      198
REMARK 921   NORMALIZED FREE ENERGY PREDICTED BY IDOCK:   -2.24 KCAL/MOL
REMARK 922        TOTAL FREE ENERGY PREDICTED BY IDOCK:   -3.94 KCAL/MOL
REMARK 923 INTER-LIGAND FREE ENERGY PREDICTED BY IDOCK:   -3.32 KCAL/MOL
REMARK 924 INTRA-LIGAND FREE ENERGY PREDICTED BY IDOCK:   -0.62 KCAL/MOL
REMARK 927      BINDING AFFINITY PREDICTED BY RF-SCORE:    0.00 PKD
ROOT
HETATM    1  C   UNL     1     -10.363  16.599  66.158  1.00  0.00    -0.340 C  
HETATM    2  C   UNL     1     -10.715  15.451  65.228  1.00  0.00    -0.421 C  
ENDROOT
BRANCH   2   3
HETATM    3  O   UNL     1     -12.032  15.671  64.737  1.00  0.00    -0.111 OA 
BRANCH   3   4
HETATM    4  C   UNL     1     -12.652  14.474  64.261  1.00  0.00    -0.105 C  
BRANCH   4   5
HETATM    5  C   UNL     1     -11.826  13.981  63.084  1.00  0.00     0.870 C  
BRANCH   5   6
HETATM    6  O   UNL     1     -11.736  12.556  63.007  1.00  0.00    -0.326 OA 
BRANCH   6   7
HETATM    7  C   UNL     1     -10.541  12.047  63.401  1.00  0.00    -0.428 C  
HETATM    8  O   UNL     1      -9.464  12.207  62.856  1.00  0.00    -0.200 OA 
BRANCH   7   9
HETATM    9  C   UNL     1     -10.764  11.432  64.727  1.00  0.00    -0.362 C  
HETATM   10  C   UNL     1     -10.083  11.852  65.806  1.00  0.00    -0.272 C  
BRANCH  10  11
HETATM   11  C   UNL     1     -10.421  11.457  67.183  1.00  0.00    -0.259 A  
HETATM   12  C   UNL     1     -10.351  12.334  68.271  1.00  0.00    -0.227 A  
HETATM   13  C   UNL     1     -10.618  11.885  69.569  1.00  0.00     0.195 A  
HETATM   14  C   UNL     1     -10.996  10.563  69.803  1.00  0.00    -0.294 A  
HETATM   15  C   UNL     1     -11.093   9.684  68.728  1.00  0.00    -0.093 A  
HETATM   16  C   UNL     1     -10.811  10.130  67.427  1.00  0.00    -0.323 A  
BRANCH  14  17
HETATM   17  O   UNL     1     -11.179  10.236  71.118  1.00  0.00    -0.277 OA 
HETATM   18  C   UNL     1     -10.622   8.997  71.540  1.00  0.00    -0.345 C  
ENDBRANCH  14  17
ENDBRANCH  10  11
ENDBRANCH   7   9
ENDBRANCH   6   7
ENDBRANCH   5   6
ENDBRANCH   4   5
ENDBRANCH   3   4
ENDBRANCH   2   3
TORSDOF 8
ENDMDL
MODEL      199
REMARK 921   NORMALIZED FREE ENERGY PREDICTED BY IDOCK:   -2.23 KCAL/MOL
REMARK 922        TOTAL FREE ENERGY PREDICTED BY IDOCK:   -3.93 KCAL/MOL
REMARK 923 INTER-LIGAND FREE ENERGY PREDICTED BY IDOCK:   -3.71 KCAL/MOL
REMARK 924 INTRA-LIGAND FREE ENERGY PREDICTED BY IDOCK:   -0.22 KCAL/MOL
REMARK 927      BINDING AFFINITY PREDICTED BY RF-SCORE:    0.00 PKD
ROOT
HETATM    1  C   UNL     1      -6.409   9.991  63.291  1.00  0.00    -0.135 C  
HETATM    2  C   UNL     1      -7.567   9.506  64.146  1.00  0.00    -0.123 C  
ENDROOT
BRANCH   2   3
HETATM    3  O   UNL     1      -8.620  10.457  64.040  1.00  0.00    -0.171 OA 
BRANCH   3   4
HETATM    4  C   UNL     1      -9.810  10.041  64.715  1.00  0.00    -0.254 C  
BRANCH   4   5
HETATM    5  C   UNL     1      -9.635  10.392  66.184  1.00  0.00    -0.196 C  
BRANCH   5   6
HETATM    6  O   UNL     1     -10.786  10.102  66.981  1.00  0.00    -0.230 OA 
BRANCH   6   7
HETATM    7  C   UNL     1     -10.892  10.849  68.109  1.00  0.00    -0.234 C  
HETATM    8  O   UNL     1     -11.088  10.440  69.240  1.00  0.00    -0.225 OA 
BRANCH   7   9
HETATM    9  C   UNL     1     -10.523  12.230  67.733  1.00  0.00    -0.225 C  
HETATM   10  C   UNL     1      -9.488  12.853  68.322  1.00  0.00    -0.206 C  
BRANCH  10  11
HETATM   11  C   UNL     1      -8.921  14.121  67.835  1.00  0.00    -0.185 A  
HETATM   12  C   UNL     1      -9.326  14.736  66.645  1.00  0.00    -0.291 A  
HETATM   13  C   UNL     1      -8.704  15.905  66.197  1.00  0.00    -0.328 A  
HETATM   14  C   UNL     1      -7.690  16.505  66.944  1.00  0.00    -0.231 A  
HETATM   15  C   UNL     1      -7.291  15.918  68.142  1.00  0.00    -0.133 A  
HETATM   16  C   UNL     1      -7.906  14.737  68.585  1.00  0.00    -0.140 A  
BRANCH  14  17
HETATM   17  O   UNL     1      -7.127  17.614  66.374  1.00  0.00    -0.220 OA 
HETATM   18  C   UNL     1      -5.719  17.747  66.520  1.00  0.00    -0.181 C  
ENDBRANCH  14  17
ENDBRANCH  10  11
ENDBRANCH   7   9
ENDBRANCH   6   7
ENDBRANCH   5   6
ENDBRANCH   4   5
ENDBRANCH   3   4
ENDBRANCH   2   3
TORSDOF 8
ENDMDL
MODEL      200
REMARK 921   NORMALIZED FREE ENERGY PREDICTED BY IDOCK:   -2.17 KCAL/MOL
REMARK 922        TOTAL FREE ENERGY PREDICTED BY IDOCK:   -3.84 KCAL/MOL
REMARK 923 INTER-LIGAND FREE ENERGY PREDICTED BY IDOCK:   -5.19 KCAL/MOL
REMARK 924 INTRA-LIGAND FREE ENERGY PREDICTED BY IDOCK:    1.35 KCAL/MOL
REMARK 927      BINDING AFFINITY PREDICTED BY RF-SCORE:    0.00 PKD
ROOT
HETATM    1  C   UNL     1     -12.042  13.127  63.157  1.00  0.00    -0.282 C  
HETATM    2  C   UNL     1     -10.967  13.236  64.223  1.00  0.00    -0.395 C  
ENDROOT
BRANCH   2   3
HETATM    3  O   UNL     1     -11.579  13.696  65.421  1.00  0.00    -0.311 OA 
BRANCH   3   4
HETATM    4  C   UNL     1     -11.116  13.002  66.582  1.00  0.00    -0.289 C  
BRANCH   4   5
HETATM    5  C   UNL     1      -9.730  13.539  66.899  1.00  0.00    -0.261 C  
BRANCH   5   6
HETATM    6  O   UNL     1      -8.710  12.537  66.875  1.00  0.00    -0.200 OA 
BRANCH   6   7
HETATM    7  C   UNL     1      -9.103  11.349  66.350  1.00  0.00    -0.193 C  
HETATM    8  O   UNL     1      -8.894  10.946  65.220  1.00  0.00    -0.194 OA 
BRANCH   7   9
HETATM    9  C   UNL     1      -9.653  10.556  67.470  1.00  0.00    -0.181 C  
HETATM   10  C   UNL     1      -9.926  11.131  68.654  1.00  0.00    -0.210 C  
BRANCH  10  11
HETATM   11  C   UNL     1     -10.690  10.465  69.722  1.00  0.00    -0.325 A  
HETATM   12  C   UNL     1     -10.132   9.517  70.587  1.00  0.00    -0.353 A  
HETATM   13  C   UNL     1     -10.922   8.866  71.540  1.00  0.00    -0.398 A  
HETATM   14  C   UNL     1     -12.276   9.173  71.674  1.00  0.00    -0.361 A  
HETATM   15  C   UNL     1     -12.841  10.131  70.836  1.00  0.00    -0.442 A  
HETATM   16  C   UNL     1     -12.052  10.774  69.870  1.00  0.00    -0.410 A  
BRANCH  14  17
HETATM   17  O   UNL     1     -12.950   8.433  72.605  1.00  0.00    -0.249 OA 
HETATM   18  C   UNL     1     -14.349   8.670  72.701  1.00  0.00    -0.139 C  
ENDBRANCH  14  17
ENDBRANCH  10  11
ENDBRANCH   7   9
ENDBRANCH   6   7
ENDBRANCH   5   6
ENDBRANCH   4   5
ENDBRANCH   3   4
ENDBRANCH   2   3
TORSDOF 8
ENDMDL
MODEL      201
REMARK 921   NORMALIZED FREE ENERGY PREDICTED BY IDOCK:   -1.98 KCAL/MOL
REMARK 922        TOTAL FREE ENERGY PREDICTED BY IDOCK:   -3.55 KCAL/MOL
REMARK 923 INTER-LIGAND FREE ENERGY PREDICTED BY IDOCK:   -3.62 KCAL/MOL
REMARK 924 INTRA-LIGAND FREE ENERGY PREDICTED BY IDOCK:    0.07 KCAL/MOL
REMARK 927      BINDING AFFINITY PREDICTED BY RF-SCORE:    0.00 PKD
ROOT
HETATM    1  C   UNL     1     -10.393  11.657  65.153  1.00  0.00    -0.326 C  
HETATM    2  C   UNL     1     -11.299  12.576  65.953  1.00  0.00    -0.340 C  
ENDROOT
BRANCH   2   3
HETATM    3  O   UNL     1     -11.777  11.851  67.080  1.00  0.00    -0.538 OA 
BRANCH   3   4
HETATM    4  C   UNL     1     -11.164  12.262  68.304  1.00  0.00    -0.267 C  
BRANCH   4   5
HETATM    5  C   UNL     1     -10.403  11.064  68.847  1.00  0.00    -0.205 C  
BRANCH   5   6
HETATM    6  O   UNL     1     -10.640  10.819  70.236  1.00  0.00    -0.059 OA 
BRANCH   6   7
HETATM    7  C   UNL     1     -11.394   9.721  70.492  1.00  0.00    -0.314 C  
HETATM    8  O   UNL     1     -12.560   9.703  70.847  1.00  0.00    -0.288 OA 
BRANCH   7   9
HETATM    9  C   UNL     1     -10.596   8.553  70.062  1.00  0.00    -0.230 C  
HETATM   10  C   UNL     1     -10.642   8.114  68.793  1.00  0.00    -0.149 C  
BRANCH  10  11
HETATM   11  C   UNL     1      -9.706   7.121  68.244  1.00  0.00    -0.148 A  
HETATM   12  C   UNL     1      -8.315   7.258  68.316  1.00  0.00    -0.125 A  
HETATM   13  C   UNL     1      -7.472   6.316  67.715  1.00  0.00    -0.093 A  
HETATM   14  C   UNL     1      -7.998   5.202  67.062  1.00  0.00    -0.100 A  
HETATM   15  C   UNL     1      -9.380   5.040  67.002  1.00  0.00    -0.133 A  
HETATM   16  C   UNL     1     -10.226   5.992  67.592  1.00  0.00    -0.221 A  
BRANCH  14  17
HETATM   17  O   UNL     1      -7.074   4.384  66.473  1.00  0.00    -0.067 OA 
HETATM   18  C   UNL     1      -5.716   4.619  66.821  1.00  0.00    -0.018 C  
ENDBRANCH  14  17
ENDBRANCH  10  11
ENDBRANCH   7   9
ENDBRANCH   6   7
ENDBRANCH   5   6
ENDBRANCH   4   5
ENDBRANCH   3   4
ENDBRANCH   2   3
TORSDOF 8
ENDMDL
MODEL      202
REMARK 921   NORMALIZED FREE ENERGY PREDICTED BY IDOCK:   -1.93 KCAL/MOL
REMARK 922        TOTAL FREE ENERGY PREDICTED BY IDOCK:   -3.49 KCAL/MOL
REMARK 923 INTER-LIGAND FREE ENERGY PREDICTED BY IDOCK:   -3.22 KCAL/MOL
REMARK 924 INTRA-LIGAND FREE ENERGY PREDICTED BY IDOCK:   -0.27 KCAL/MOL
REMARK 927      BINDING AFFINITY PREDICTED BY RF-SCORE:    0.00 PKD
ROOT
HETATM    1  C   UNL     1     -12.784  14.015  71.478  1.00  0.00    -0.443 C  
HETATM    2  C   UNL     1     -13.622  12.948  72.159  1.00  0.00    -0.495 C  
ENDROOT
BRANCH   2   3
HETATM    3  O   UNL     1     -12.890  11.729  72.133  1.00  0.00    -0.267 OA 
BRANCH   3   4
HETATM    4  C   UNL     1     -13.189  10.928  70.988  1.00  0.00    -0.069 C  
BRANCH   4   5
HETATM    5  C   UNL     1     -11.950  10.930  70.106  1.00  0.00    -0.352 C  
BRANCH   5   6
HETATM    6  O   UNL     1     -10.901  10.090  70.594  1.00  0.00    -0.304 OA 
BRANCH   6   7
HETATM    7  C   UNL     1     -10.332   9.297  69.652  1.00  0.00    -0.217 C  
HETATM    8  O   UNL     1     -10.070   9.602  68.502  1.00  0.00    -0.164 OA 
BRANCH   7   9
HETATM    9  C   UNL     1      -9.906   8.062  70.344  1.00  0.00    -0.183 C  
HETATM   10  C   UNL     1      -8.603   7.762  70.481  1.00  0.00    -0.132 C  
BRANCH  10  11
HETATM   11  C   UNL     1      -8.106   6.688  71.356  1.00  0.00    -0.111 A  
HETATM   12  C   UNL     1      -6.745   6.420  71.543  1.00  0.00    -0.055 A  
HETATM   13  C   UNL     1      -6.330   5.343  72.333  1.00  0.00    -0.050 A  
HETATM   14  C   UNL     1      -7.263   4.534  72.981  1.00  0.00    -0.079 A  
HETATM   15  C   UNL     1      -8.620   4.802  72.824  1.00  0.00    -0.114 A  
HETATM   16  C   UNL     1      -9.037   5.873  72.020  1.00  0.00    -0.147 A  
BRANCH  14  17
HETATM   17  O   UNL     1      -6.734   3.484  73.681  1.00  0.00    -0.033 OA 
HETATM   18  C   UNL     1      -5.412   3.097  73.327  1.00  0.00     0.000 C  
ENDBRANCH  14  17
ENDBRANCH  10  11
ENDBRANCH   7   9
ENDBRANCH   6   7
ENDBRANCH   5   6
ENDBRANCH   4   5
ENDBRANCH   3   4
ENDBRANCH   2   3
TORSDOF 8
ENDMDL
MODEL      203
REMARK 921   NORMALIZED FREE ENERGY PREDICTED BY IDOCK:   -1.83 KCAL/MOL
REMARK 922        TOTAL FREE ENERGY PREDICTED BY IDOCK:   -3.33 KCAL/MOL
REMARK 923 INTER-LIGAND FREE ENERGY PREDICTED BY IDOCK:   -2.76 KCAL/MOL
REMARK 924 INTRA-LIGAND FREE ENERGY PREDICTED BY IDOCK:   -0.57 KCAL/MOL
REMARK 927      BINDING AFFINITY PREDICTED BY RF-SCORE:    0.00 PKD
ROOT
HETATM    1  C   UNL     1      -8.381  11.504  67.040  1.00  0.00    -0.165 C  
HETATM    2  C   UNL     1      -9.204  12.469  67.875  1.00  0.00    -0.200 C  
ENDROOT
BRANCH   2   3
HETATM    3  O   UNL     1     -10.517  11.937  67.997  1.00  0.00    -0.196 OA 
BRANCH   3   4
HETATM    4  C   UNL     1     -11.032  12.033  69.327  1.00  0.00    -0.131 C  
BRANCH   4   5
HETATM    5  C   UNL     1     -11.465  10.635  69.740  1.00  0.00    -0.302 C  
BRANCH   5   6
HETATM    6  O   UNL     1     -10.871   9.598  68.954  1.00  0.00    -0.221 OA 
BRANCH   6   7
HETATM    7  C   UNL     1      -9.773   9.030  69.512  1.00  0.00    -0.170 C  
HETATM    8  O   UNL     1      -9.296   9.282  70.605  1.00  0.00    -0.236 OA 
BRANCH   7   9
HETATM    9  C   UNL     1      -9.387   7.907  68.631  1.00  0.00    -0.145 C  
HETATM   10  C   UNL     1      -9.988   6.710  68.736  1.00  0.00    -0.150 C  
BRANCH  10  11
HETATM   11  C   UNL     1      -9.827   5.632  67.746  1.00  0.00    -0.153 A  
HETATM   12  C   UNL     1      -9.971   4.276  68.059  1.00  0.00    -0.040 A  
HETATM   13  C   UNL     1      -9.739   3.291  67.093  1.00  0.00     0.058 A  
HETATM   14  C   UNL     1      -9.394   3.639  65.788  1.00  0.00    -0.164 A  
HETATM   15  C   UNL     1      -9.269   4.986  65.454  1.00  0.00    -0.144 A  
HETATM   16  C   UNL     1      -9.488   5.974  66.427  1.00  0.00    -0.174 A  
BRANCH  14  17
HETATM   17  O   UNL     1      -9.144   2.586  64.952  1.00  0.00    -0.129 OA 
HETATM   18  C   UNL     1      -9.330   2.829  63.563  1.00  0.00    -0.098 C  
ENDBRANCH  14  17
ENDBRANCH  10  11
ENDBRANCH   7   9
ENDBRANCH   6   7
ENDBRANCH   5   6
ENDBRANCH   4   5
ENDBRANCH   3   4
ENDBRANCH   2   3
TORSDOF 8
ENDMDL
MODEL      204
REMARK 921   NORMALIZED FREE ENERGY PREDICTED BY IDOCK:   -1.44 KCAL/MOL
REMARK 922        TOTAL FREE ENERGY PREDICTED BY IDOCK:   -2.76 KCAL/MOL
REMARK 923 INTER-LIGAND FREE ENERGY PREDICTED BY IDOCK:   -2.66 KCAL/MOL
REMARK 924 INTRA-LIGAND FREE ENERGY PREDICTED BY IDOCK:   -0.11 KCAL/MOL
REMARK 927      BINDING AFFINITY PREDICTED BY RF-SCORE:    0.00 PKD
ROOT
HETATM    1  C   UNL     1     -10.297   5.032  65.422  1.00  0.00     0.083 C  
HETATM    2  C   UNL     1      -8.972   5.255  66.128  1.00  0.00    -0.139 C  
ENDROOT
BRANCH   2   3
HETATM    3  O   UNL     1      -8.513   3.997  66.610  1.00  0.00    -0.104 OA 
BRANCH   3   4
HETATM    4  C   UNL     1      -7.358   4.113  67.445  1.00  0.00    -0.069 C  
BRANCH   4   5
HETATM    5  C   UNL     1      -7.407   5.491  68.085  1.00  0.00    -0.073 C  
BRANCH   5   6
HETATM    6  O   UNL     1      -8.457   5.637  69.045  1.00  0.00    -0.102 OA 
BRANCH   6   7
HETATM    7  C   UNL     1      -8.124   6.378  70.132  1.00  0.00    -0.120 C  
HETATM    8  O   UNL     1      -7.265   6.120  70.957  1.00  0.00    -0.071 OA 
BRANCH   7   9
HETATM    9  C   UNL     1      -8.861   7.654  70.012  1.00  0.00    -0.143 C  
HETATM   10  C   UNL     1      -8.319   8.707  69.377  1.00  0.00    -0.114 C  
BRANCH  10  11
HETATM   11  C   UNL     1      -9.078   9.914  69.013  1.00  0.00    -0.164 A  
HETATM   12  C   UNL     1     -10.248  10.311  69.671  1.00  0.00    -0.268 A  
HETATM   13  C   UNL     1     -10.967  11.430  69.238  1.00  0.00    -0.282 A  
HETATM   14  C   UNL     1     -10.515  12.197  68.165  1.00  0.00    -0.211 A  
HETATM   15  C   UNL     1      -9.339  11.829  67.515  1.00  0.00    -0.174 A  
HETATM   16  C   UNL     1      -8.626  10.698  67.939  1.00  0.00    -0.124 A  
BRANCH  14  17
HETATM   17  O   UNL     1     -11.331  13.234  67.807  1.00  0.00    -0.266 OA 
HETATM   18  C   UNL     1     -11.360  13.560  66.423  1.00  0.00    -0.316 C  
ENDBRANCH  14  17
ENDBRANCH  10  11
ENDBRANCH   7   9
ENDBRANCH   6   7
ENDBRANCH   5   6
ENDBRANCH   4   5
ENDBRANCH   3   4
ENDBRANCH   2   3
TORSDOF 8
ENDMDL
MODEL      205
REMARK 921   NORMALIZED FREE ENERGY PREDICTED BY IDOCK:   -0.99 KCAL/MOL
REMARK 922        TOTAL FREE ENERGY PREDICTED BY IDOCK:   -2.10 KCAL/MOL
REMARK 923 INTER-LIGAND FREE ENERGY PREDICTED BY IDOCK:   -1.99 KCAL/MOL
REMARK 924 INTRA-LIGAND FREE ENERGY PREDICTED BY IDOCK:   -0.11 KCAL/MOL
REMARK 927      BINDING AFFINITY PREDICTED BY RF-SCORE:    0.00 PKD
ROOT
HETATM    1  C   UNL     1      -7.670   3.120  64.480  1.00  0.00    -0.077 C  
HETATM    2  C   UNL     1      -7.977   4.104  63.365  1.00  0.00    -0.084 C  
ENDROOT
BRANCH   2   3
HETATM    3  O   UNL     1      -9.363   4.418  63.425  1.00  0.00    -0.147 OA 
BRANCH   3   4
HETATM    4  C   UNL     1     -10.028   3.784  64.520  1.00  0.00    -0.201 C  
BRANCH   4   5
HETATM    5  C   UNL     1     -11.250   4.627  64.848  1.00  0.00     0.376 C  
BRANCH   5   6
HETATM    6  O   UNL     1     -11.077   5.459  65.999  1.00  0.00    -0.057 OA 
BRANCH   6   7
HETATM    7  C   UNL     1      -9.826   5.438  66.524  1.00  0.00    -0.176 C  
HETATM    8  O   UNL     1      -8.876   6.115  66.173  1.00  0.00    -0.145 OA 
BRANCH   7   9
HETATM    9  C   UNL     1      -9.892   4.588  67.731  1.00  0.00    -0.169 C  
HETATM   10  C   UNL     1      -9.037   4.771  68.752  1.00  0.00    -0.151 C  
BRANCH  10  11
HETATM   11  C   UNL     1      -9.196   4.130  70.068  1.00  0.00    -0.213 A  
HETATM   12  C   UNL     1      -8.915   4.779  71.275  1.00  0.00    -0.162 A  
HETATM   13  C   UNL     1      -9.018   4.099  72.493  1.00  0.00    -0.127 A  
HETATM   14  C   UNL     1      -9.439   2.770  72.535  1.00  0.00    -0.108 A  
HETATM   15  C   UNL     1      -9.745   2.117  71.343  1.00  0.00    -0.212 A  
HETATM   16  C   UNL     1      -9.627   2.795  70.120  1.00  0.00    -0.117 A  
BRANCH  14  17
HETATM   17  O   UNL     1      -9.449   2.203  73.779  1.00  0.00    -0.081 OA 
HETATM   18  C   UNL     1     -10.730   1.914  74.325  1.00  0.00    -0.137 C  
ENDBRANCH  14  17
ENDBRANCH  10  11
ENDBRANCH   7   9
ENDBRANCH   6   7
ENDBRANCH   5   6
ENDBRANCH   4   5
ENDBRANCH   3   4
ENDBRANCH   2   3
TORSDOF 8
ENDMDL
MODEL      206
REMARK 921   NORMALIZED FREE ENERGY PREDICTED BY IDOCK:   -0.83 KCAL/MOL
REMARK 922        TOTAL FREE ENERGY PREDICTED BY IDOCK:   -1.88 KCAL/MOL
REMARK 923 INTER-LIGAND FREE ENERGY PREDICTED BY IDOCK:   -2.33 KCAL/MOL
REMARK 924 INTRA-LIGAND FREE ENERGY PREDICTED BY IDOCK:    0.45 KCAL/MOL
REMARK 927      BINDING AFFINITY PREDICTED BY RF-SCORE:    0.00 PKD
ROOT
HETATM    1  C   UNL     1      -9.861   4.530  64.407  1.00  0.00     0.044 C  
HETATM    2  C   UNL     1      -8.482   5.146  64.563  1.00  0.00    -0.141 C  
ENDROOT
BRANCH   2   3
HETATM    3  O   UNL     1      -7.536   4.087  64.663  1.00  0.00    -0.075 OA 
BRANCH   3   4
HETATM    4  C   UNL     1      -6.192   4.557  64.788  1.00  0.00    -0.033 C  
BRANCH   4   5
HETATM    5  C   UNL     1      -6.266   6.014  65.214  1.00  0.00    -0.037 C  
BRANCH   5   6
HETATM    6  O   UNL     1      -7.059   6.226  66.385  1.00  0.00    -0.065 OA 
BRANCH   6   7
HETATM    7  C   UNL     1      -6.495   7.050  67.304  1.00  0.00    -0.053 C  
HETATM    8  O   UNL     1      -5.410   6.910  67.840  1.00  0.00    -0.014 OA 
BRANCH   7   9
HETATM    9  C   UNL     1      -7.355   8.250  67.377  1.00  0.00    -0.092 C  
HETATM   10  C   UNL     1      -8.555   8.203  67.980  1.00  0.00    -0.129 C  
BRANCH  10  11
HETATM   11  C   UNL     1      -9.351   9.399  68.298  1.00  0.00    -0.140 A  
HETATM   12  C   UNL     1      -9.098  10.658  67.742  1.00  0.00    -0.144 A  
HETATM   13  C   UNL     1      -9.843  11.776  68.133  1.00  0.00    -0.190 A  
HETATM   14  C   UNL     1     -10.878  11.654  69.059  1.00  0.00    -0.203 A  
HETATM   15  C   UNL     1     -11.158  10.403  69.605  1.00  0.00    -0.328 A  
HETATM   16  C   UNL     1     -10.400   9.285  69.224  1.00  0.00    -0.222 A  
BRANCH  14  17
HETATM   17  O   UNL     1     -11.496  12.826  69.397  1.00  0.00    -0.271 OA 
HETATM   18  C   UNL     1     -12.114  12.863  70.678  1.00  0.00    -0.235 C  
ENDBRANCH  14  17
ENDBRANCH  10  11
ENDBRANCH   7   9
ENDBRANCH   6   7
ENDBRANCH   5   6
ENDBRANCH   4   5
ENDBRANCH   3   4
ENDBRANCH   2   3
TORSDOF 8
ENDMDL
MODEL      207
REMARK 921   NORMALIZED FREE ENERGY PREDICTED BY IDOCK:   -0.59 KCAL/MOL
REMARK 922        TOTAL FREE ENERGY PREDICTED BY IDOCK:   -1.52 KCAL/MOL
REMARK 923 INTER-LIGAND FREE ENERGY PREDICTED BY IDOCK:   -2.20 KCAL/MOL
REMARK 924 INTRA-LIGAND FREE ENERGY PREDICTED BY IDOCK:    0.68 KCAL/MOL
REMARK 927      BINDING AFFINITY PREDICTED BY RF-SCORE:    0.00 PKD
ROOT
HETATM    1  C   UNL     1      -9.847   4.537  64.406  1.00  0.00     0.044 C  
HETATM    2  C   UNL     1      -8.402   4.988  64.524  1.00  0.00    -0.135 C  
ENDROOT
BRANCH   2   3
HETATM    3  O   UNL     1      -7.587   3.829  64.638  1.00  0.00    -0.077 OA 
BRANCH   3   4
HETATM    4  C   UNL     1      -6.191   4.136  64.685  1.00  0.00    -0.026 C  
BRANCH   4   5
HETATM    5  C   UNL     1      -6.071   5.619  64.998  1.00  0.00    -0.022 C  
BRANCH   5   6
HETATM    6  O   UNL     1      -6.819   6.021  66.149  1.00  0.00    -0.058 OA 
BRANCH   6   7
HETATM    7  C   UNL     1      -6.109   6.738  67.057  1.00  0.00    -0.032 C  
HETATM    8  O   UNL     1      -5.131   6.364  67.680  1.00  0.00    -0.004 OA 
BRANCH   7   9
HETATM    9  C   UNL     1      -6.625   8.122  66.994  1.00  0.00    -0.058 C  
HETATM   10  C   UNL     1      -7.310   8.556  65.922  1.00  0.00    -0.077 C  
BRANCH  10  11
HETATM   11  C   UNL     1      -8.051   9.827  65.893  1.00  0.00    -0.114 A  
HETATM   12  C   UNL     1      -7.877  10.838  66.845  1.00  0.00    -0.130 A  
HETATM   13  C   UNL     1      -8.657  11.998  66.807  1.00  0.00    -0.177 A  
HETATM   14  C   UNL     1      -9.601  12.190  65.799  1.00  0.00    -0.197 A  
HETATM   15  C   UNL     1      -9.770  11.203  64.830  1.00  0.00    -0.303 A  
HETATM   16  C   UNL     1      -8.997  10.033  64.876  1.00  0.00    -0.241 A  
BRANCH  14  17
HETATM   17  O   UNL     1     -10.335  13.339  65.901  1.00  0.00    -0.281 OA 
HETATM   18  C   UNL     1     -11.618  13.321  65.287  1.00  0.00    -0.310 C  
ENDBRANCH  14  17
ENDBRANCH  10  11
ENDBRANCH   7   9
ENDBRANCH   6   7
ENDBRANCH   5   6
ENDBRANCH   4   5
ENDBRANCH   3   4
ENDBRANCH   2   3
TORSDOF 8
ENDMDL
MODEL      208
REMARK 921   NORMALIZED FREE ENERGY PREDICTED BY IDOCK:   -0.50 KCAL/MOL
REMARK 922        TOTAL FREE ENERGY PREDICTED BY IDOCK:   -1.39 KCAL/MOL
REMARK 923 INTER-LIGAND FREE ENERGY PREDICTED BY IDOCK:   -1.27 KCAL/MOL
REMARK 924 INTRA-LIGAND FREE ENERGY PREDICTED BY IDOCK:   -0.11 KCAL/MOL
REMARK 927      BINDING AFFINITY PREDICTED BY RF-SCORE:    0.00 PKD
ROOT
HETATM    1  C   UNL     1      -7.745   3.151  64.485  1.00  0.00    -0.077 C  
HETATM    2  C   UNL     1      -8.161   4.161  63.430  1.00  0.00    -0.086 C  
ENDROOT
BRANCH   2   3
HETATM    3  O   UNL     1      -9.541   4.449  63.617  1.00  0.00    -0.127 OA 
BRANCH   3   4
HETATM    4  C   UNL     1     -10.098   3.779  64.750  1.00  0.00    -0.170 C  
BRANCH   4   5
HETATM    5  C   UNL     1     -11.280   4.609  65.223  1.00  0.00     0.309 C  
BRANCH   5   6
HETATM    6  O   UNL     1     -10.960   5.497  66.297  1.00  0.00    -0.193 OA 
BRANCH   6   7
HETATM    7  C   UNL     1      -9.633   5.608  66.558  1.00  0.00    -0.155 C  
HETATM    8  O   UNL     1      -8.848   6.379  66.034  1.00  0.00    -0.155 OA 
BRANCH   7   9
HETATM    9  C   UNL     1      -9.365   4.760  67.739  1.00  0.00    -0.163 C  
HETATM   10  C   UNL     1      -8.167   4.176  67.912  1.00  0.00    -0.093 C  
BRANCH  10  11
HETATM   11  C   UNL     1      -7.756   3.524  69.165  1.00  0.00    -0.051 A  
HETATM   12  C   UNL     1      -6.433   3.164  69.444  1.00  0.00    -0.033 A  
HETATM   13  C   UNL     1      -6.110   2.485  70.623  1.00  0.00    -0.019 A  
HETATM   14  C   UNL     1      -7.094   2.182  71.565  1.00  0.00    -0.032 A  
HETATM   15  C   UNL     1      -8.412   2.554  71.312  1.00  0.00    -0.092 A  
HETATM   16  C   UNL     1      -8.738   3.223  70.123  1.00  0.00    -0.126 A  
BRANCH  14  17
HETATM   17  O   UNL     1      -6.661   1.471  72.649  1.00  0.00    -0.013 OA 
HETATM   18  C   UNL     1      -5.351   1.772  73.114  1.00  0.00     0.000 C  
ENDBRANCH  14  17
ENDBRANCH  10  11
ENDBRANCH   7   9
ENDBRANCH   6   7
ENDBRANCH   5   6
ENDBRANCH   4   5
ENDBRANCH   3   4
ENDBRANCH   2   3
TORSDOF 8
ENDMDL
MODEL      209
REMARK 921   NORMALIZED FREE ENERGY PREDICTED BY IDOCK:    1.85 KCAL/MOL
REMARK 922        TOTAL FREE ENERGY PREDICTED BY IDOCK:    2.06 KCAL/MOL
REMARK 923 INTER-LIGAND FREE ENERGY PREDICTED BY IDOCK:    1.92 KCAL/MOL
REMARK 924 INTRA-LIGAND FREE ENERGY PREDICTED BY IDOCK:    0.14 KCAL/MOL
REMARK 927      BINDING AFFINITY PREDICTED BY RF-SCORE:    0.00 PKD
ROOT
HETATM    1  C   UNL     1     -10.820  10.996  68.491  1.00  0.00    -0.254 C  
HETATM    2  C   UNL     1     -11.046   9.602  69.048  1.00  0.00    -0.070 C  
ENDROOT
BRANCH   2   3
HETATM    3  O   UNL     1     -11.413   8.751  67.969  1.00  0.00     0.627 OA 
BRANCH   3   4
HETATM    4  C   UNL     1     -10.290   8.093  67.377  1.00  0.00    -0.281 C  
BRANCH   4   5
HETATM    5  C   UNL     1      -9.915   8.883  66.133  1.00  0.00    -0.220 C  
BRANCH   5   6
HETATM    6  O   UNL     1      -8.608   9.460  66.195  1.00  0.00    -0.130 OA 
BRANCH   6   7
HETATM    7  C   UNL     1      -8.501  10.674  65.599  1.00  0.00    -0.178 C  
HETATM    8  O   UNL     1      -8.551  10.907  64.404  1.00  0.00    -0.096 OA 
BRANCH   7   9
HETATM    9  C   UNL     1      -8.518  11.678  66.684  1.00  0.00    -0.165 C  
HETATM   10  C   UNL     1      -8.299  12.978  66.425  1.00  0.00     0.483 C  
BRANCH  10  11
HETATM   11  C   UNL     1      -8.535  14.051  67.404  1.00  0.00    -0.209 A  
HETATM   12  C   UNL     1      -9.665  14.102  68.228  1.00  0.00    -0.227 A  
HETATM   13  C   UNL     1      -9.871  15.182  69.093  1.00  0.00    -0.237 A  
HETATM   14  C   UNL     1      -8.938  16.215  69.179  1.00  0.00    -0.237 A  
HETATM   15  C   UNL     1      -7.796  16.167  68.383  1.00  0.00    -0.160 A  
HETATM   16  C   UNL     1      -7.596  15.091  67.505  1.00  0.00    -0.216 A  
BRANCH  14  17
HETATM   17  O   UNL     1      -9.279  17.237  70.021  1.00  0.00     1.096 OA 
HETATM   18  C   UNL     1     -10.236  16.928  71.026  1.00  0.00     2.398 C  
ENDBRANCH  14  17
ENDBRANCH  10  11
ENDBRANCH   7   9
ENDBRANCH   6   7
ENDBRANCH   5   6
ENDBRANCH   4   5
ENDBRANCH   3   4
ENDBRANCH   2   3
TORSDOF 8
ENDMDL
MODEL      210
REMARK 921   NORMALIZED FREE ENERGY PREDICTED BY IDOCK:    2.28 KCAL/MOL
REMARK 922        TOTAL FREE ENERGY PREDICTED BY IDOCK:    2.69 KCAL/MOL
REMARK 923 INTER-LIGAND FREE ENERGY PREDICTED BY IDOCK:    1.95 KCAL/MOL
REMARK 924 INTRA-LIGAND FREE ENERGY PREDICTED BY IDOCK:    0.75 KCAL/MOL
REMARK 927      BINDING AFFINITY PREDICTED BY RF-SCORE:    0.00 PKD
ROOT
HETATM    1  C   UNL     1      -7.247   2.186  63.825  1.00  0.00    -0.052 C  
HETATM    2  C   UNL     1      -8.002   2.924  62.734  1.00  0.00    -0.068 C  
ENDROOT
BRANCH   2   3
HETATM    3  O   UNL     1      -9.392   2.828  63.020  1.00  0.00    -0.094 OA 
BRANCH   3   4
HETATM    4  C   UNL     1      -9.655   2.290  64.318  1.00  0.00    -0.132 C  
BRANCH   4   5
HETATM    5  C   UNL     1     -11.095   2.636  64.661  1.00  0.00     1.495 C  
BRANCH   5   6
HETATM    6  O   UNL     1     -11.272   3.992  65.081  1.00  0.00     0.016 OA 
BRANCH   6   7
HETATM    7  C   UNL     1     -10.291   4.837  64.677  1.00  0.00     0.363 C  
HETATM    8  O   UNL     1     -10.251   5.463  63.632  1.00  0.00     1.472 OA 
BRANCH   7   9
HETATM    9  C   UNL     1      -9.383   5.010  65.831  1.00  0.00    -0.165 C  
HETATM   10  C   UNL     1      -9.530   6.044  66.676  1.00  0.00    -0.167 C  
BRANCH  10  11
HETATM   11  C   UNL     1      -8.825   6.145  67.964  1.00  0.00    -0.111 A  
HETATM   12  C   UNL     1      -9.176   7.063  68.960  1.00  0.00    -0.137 A  
HETATM   13  C   UNL     1      -8.428   7.162  70.138  1.00  0.00    -0.139 A  
HETATM   14  C   UNL     1      -7.337   6.323  70.362  1.00  0.00    -0.089 A  
HETATM   15  C   UNL     1      -6.989   5.387  69.390  1.00  0.00    -0.059 A  
HETATM   16  C   UNL     1      -7.730   5.299  68.202  1.00  0.00    -0.084 A  
BRANCH  14  17
HETATM   17  O   UNL     1      -6.657   6.552  71.526  1.00  0.00    -0.052 OA 
HETATM   18  C   UNL     1      -6.509   5.436  72.395  1.00  0.00    -0.052 C  
ENDBRANCH  14  17
ENDBRANCH  10  11
ENDBRANCH   7   9
ENDBRANCH   6   7
ENDBRANCH   5   6
ENDBRANCH   4   5
ENDBRANCH   3   4
ENDBRANCH   2   3
TORSDOF 8
ENDMDL
