MODEL        1
REMARK 921   NORMALIZED FREE ENERGY PREDICTED BY IDOCK:   -6.30 KCAL/MOL
REMARK 922        TOTAL FREE ENERGY PREDICTED BY IDOCK:   -7.52 KCAL/MOL
REMARK 923 INTER-LIGAND FREE ENERGY PREDICTED BY IDOCK:   -7.04 KCAL/MOL
REMARK 924 INTRA-LIGAND FREE ENERGY PREDICTED BY IDOCK:   -0.48 KCAL/MOL
REMARK 927      BINDING AFFINITY PREDICTED BY RF-SCORE:    0.00 PKD
ROOT
HETATM    1  C   UNL     1      -9.540  12.841  65.916  1.00  0.00    -0.143 C  
HETATM    2  C   UNL     1     -10.680  11.837  65.678  1.00  0.00    -0.280 C  
HETATM    3  O   UNL     1     -11.950  12.194  66.288  1.00  0.00    -0.605 OA 
HETATM    4  C   UNL     1     -10.937  11.855  64.151  1.00  0.00    -0.369 C  
HETATM    5  C   UNL     1     -10.310  10.390  66.024  1.00  0.00    -0.262 C  
HETATM    6  O   UNL     1     -12.213  12.163  63.819  1.00  0.00    -0.474 OA 
HETATM    7  O   UNL     1     -10.090  11.604  63.302  1.00  0.00    -0.390 OA 
ENDROOT
BRANCH   3   8
HETATM    8  C   UNL     1     -11.982  12.775  67.524  1.00  0.00    -0.281 A  
HETATM    9  C   UNL     1     -12.025  14.169  67.552  1.00  0.00    -0.419 A  
HETATM   10  C   UNL     1     -11.929  14.863  68.769  1.00  0.00    -0.284 A  
HETATM   11  C   UNL     1     -11.792  14.177  69.986  1.00  0.00    -0.388 A  
HETATM   12  C   UNL     1     -11.833  12.778  69.934  1.00  0.00    -0.371 A  
HETATM   13  C   UNL     1     -11.968  12.087  68.729  1.00  0.00    -0.299 A  
BRANCH  11  14
HETATM   14  C   UNL     1     -11.500  14.875  71.291  1.00  0.00    -0.322 C  
HETATM   15  C   UNL     1     -11.780  16.334  71.527  1.00  0.00    -0.467 C  
HETATM   16  C   UNL     1     -12.610  15.302  72.233  1.00  0.00    -0.357 C  
HETATM   17 CL   UNL     1     -12.336  15.007  73.948  1.00  0.00    -0.680 Cl 
HETATM   18 CL   UNL     1     -14.310  15.233  71.784  1.00  0.00    -0.650 Cl 
ENDBRANCH  11  14
ENDBRANCH   3   8
TORSDOF 2
ENDMDL
MODEL        2
REMARK 921   NORMALIZED FREE ENERGY PREDICTED BY IDOCK:   -6.15 KCAL/MOL
REMARK 922        TOTAL FREE ENERGY PREDICTED BY IDOCK:   -7.34 KCAL/MOL
REMARK 923 INTER-LIGAND FREE ENERGY PREDICTED BY IDOCK:   -7.06 KCAL/MOL
REMARK 924 INTRA-LIGAND FREE ENERGY PREDICTED BY IDOCK:   -0.28 KCAL/MOL
REMARK 927      BINDING AFFINITY PREDICTED BY RF-SCORE:    0.00 PKD
ROOT
HETATM    1  C   UNL     1     -14.349  15.131  70.971  1.00  0.00    -0.260 C  
HETATM    2  C   UNL     1     -13.169  14.734  71.874  1.00  0.00    -0.345 C  
HETATM    3  O   UNL     1     -11.879  14.670  71.207  1.00  0.00    -0.333 OA 
HETATM    4  C   UNL     1     -13.040  15.874  72.914  1.00  0.00    -0.507 C  
HETATM    5  C   UNL     1     -13.415  13.455  72.683  1.00  0.00    -0.536 C  
HETATM    6  O   UNL     1     -11.817  16.457  72.931  1.00  0.00    -0.514 OA 
HETATM    7  O   UNL     1     -13.936  16.226  73.672  1.00  0.00    -0.337 OA 
ENDROOT
BRANCH   3   8
HETATM    8  C   UNL     1     -11.784  14.179  69.936  1.00  0.00    -0.309 A  
HETATM    9  C   UNL     1     -11.669  15.124  68.915  1.00  0.00    -0.357 A  
HETATM   10  C   UNL     1     -11.696  14.727  67.569  1.00  0.00    -0.370 A  
HETATM   11  C   UNL     1     -11.834  13.377  67.213  1.00  0.00    -0.422 A  
HETATM   12  C   UNL     1     -11.865  12.445  68.259  1.00  0.00    -0.364 A  
HETATM   13  C   UNL     1     -11.799  12.834  69.596  1.00  0.00    -0.384 A  
BRANCH  11  14
HETATM   14  C   UNL     1     -12.055  12.922  65.791  1.00  0.00    -0.513 C  
HETATM   15  C   UNL     1     -12.645  13.804  64.726  1.00  0.00    -0.330 C  
HETATM   16  C   UNL     1     -11.193  13.429  64.650  1.00  0.00    -0.359 C  
HETATM   17 CL   UNL     1     -10.679  12.229  63.467  1.00  0.00    -0.494 Cl 
HETATM   18 CL   UNL     1     -10.040  14.744  64.846  1.00  0.00    -0.329 Cl 
ENDBRANCH  11  14
ENDBRANCH   3   8
TORSDOF 2
ENDMDL
MODEL        3
REMARK 921   NORMALIZED FREE ENERGY PREDICTED BY IDOCK:   -6.10 KCAL/MOL
REMARK 922        TOTAL FREE ENERGY PREDICTED BY IDOCK:   -7.29 KCAL/MOL
REMARK 923 INTER-LIGAND FREE ENERGY PREDICTED BY IDOCK:   -6.85 KCAL/MOL
REMARK 924 INTRA-LIGAND FREE ENERGY PREDICTED BY IDOCK:   -0.44 KCAL/MOL
REMARK 927      BINDING AFFINITY PREDICTED BY RF-SCORE:    0.00 PKD
ROOT
HETATM    1  C   UNL     1     -14.387  15.215  70.967  1.00  0.00    -0.260 C  
HETATM    2  C   UNL     1     -13.165  14.751  71.777  1.00  0.00    -0.348 C  
HETATM    3  O   UNL     1     -11.929  14.649  71.019  1.00  0.00    -0.310 OA 
HETATM    4  C   UNL     1     -12.915  15.862  72.826  1.00  0.00    -0.483 C  
HETATM    5  C   UNL     1     -13.408  13.466  72.577  1.00  0.00    -0.588 C  
HETATM    6  O   UNL     1     -11.671  16.394  72.767  1.00  0.00    -0.484 OA 
HETATM    7  O   UNL     1     -13.740  16.234  73.653  1.00  0.00    -0.552 OA 
ENDROOT
BRANCH   3   8
HETATM    8  C   UNL     1     -11.944  14.182  69.735  1.00  0.00    -0.339 A  
HETATM    9  C   UNL     1     -11.911  12.796  69.580  1.00  0.00    -0.354 A  
HETATM   10  C   UNL     1     -11.794  12.222  68.304  1.00  0.00    -0.367 A  
HETATM   11  C   UNL     1     -11.709  13.023  67.154  1.00  0.00    -0.439 A  
HETATM   12  C   UNL     1     -11.826  14.407  67.335  1.00  0.00    -0.430 A  
HETATM   13  C   UNL     1     -11.983  14.976  68.598  1.00  0.00    -0.278 A  
BRANCH  11  14
HETATM   14  C   UNL     1     -11.395  12.464  65.788  1.00  0.00    -0.393 C  
HETATM   15  C   UNL     1     -10.459  13.133  64.820  1.00  0.00    -0.390 C  
HETATM   16  C   UNL     1     -10.047  11.845  65.471  1.00  0.00    -0.245 C  
HETATM   17 CL   UNL     1     -10.074  10.359  64.525  1.00  0.00    -0.408 Cl 
HETATM   18 CL   UNL     1      -8.680  11.935  66.576  1.00  0.00    -0.185 Cl 
ENDBRANCH  11  14
ENDBRANCH   3   8
TORSDOF 2
ENDMDL
MODEL        4
REMARK 921   NORMALIZED FREE ENERGY PREDICTED BY IDOCK:   -6.06 KCAL/MOL
REMARK 922        TOTAL FREE ENERGY PREDICTED BY IDOCK:   -7.25 KCAL/MOL
REMARK 923 INTER-LIGAND FREE ENERGY PREDICTED BY IDOCK:   -6.90 KCAL/MOL
REMARK 924 INTRA-LIGAND FREE ENERGY PREDICTED BY IDOCK:   -0.35 KCAL/MOL
REMARK 927      BINDING AFFINITY PREDICTED BY RF-SCORE:    0.00 PKD
ROOT
HETATM    1  C   UNL     1     -11.877  14.078  67.454  1.00  0.00    -0.445 C  
HETATM    2  C   UNL     1     -11.506  13.127  66.304  1.00  0.00    -0.334 C  
HETATM    3  O   UNL     1     -11.669  11.713  66.600  1.00  0.00    -0.523 OA 
HETATM    4  C   UNL     1     -12.515  13.431  65.170  1.00  0.00    -0.459 C  
HETATM    5  C   UNL     1     -10.117  13.391  65.711  1.00  0.00    -0.297 C  
HETATM    6  O   UNL     1     -13.224  12.348  64.771  1.00  0.00    -0.784 OA 
HETATM    7  O   UNL     1     -12.669  14.532  64.655  1.00  0.00    -0.630 OA 
ENDROOT
BRANCH   3   8
HETATM    8  C   UNL     1     -11.353  11.226  67.836  1.00  0.00    -0.299 A  
HETATM    9  C   UNL     1     -10.132  10.560  67.946  1.00  0.00    -0.204 A  
HETATM   10  C   UNL     1      -9.776   9.913  69.140  1.00  0.00    -0.204 A  
HETATM   11  C   UNL     1     -10.632   9.920  70.252  1.00  0.00    -0.359 A  
HETATM   12  C   UNL     1     -11.813  10.665  70.138  1.00  0.00    -0.421 A  
HETATM   13  C   UNL     1     -12.150  11.341  68.966  1.00  0.00    -0.325 A  
BRANCH  11  14
HETATM   14  C   UNL     1     -10.380   9.088  71.485  1.00  0.00    -0.412 C  
HETATM   15  C   UNL     1     -11.484   8.511  72.329  1.00  0.00    -0.445 C  
HETATM   16  C   UNL     1     -10.632   7.592  71.502  1.00  0.00    -0.212 C  
HETATM   17 CL   UNL     1      -9.411   6.605  72.301  1.00  0.00    -0.147 Cl 
HETATM   18 CL   UNL     1     -11.445   6.754  70.185  1.00  0.00    -0.401 Cl 
ENDBRANCH  11  14
ENDBRANCH   3   8
TORSDOF 2
ENDMDL
MODEL        5
REMARK 921   NORMALIZED FREE ENERGY PREDICTED BY IDOCK:   -5.89 KCAL/MOL
REMARK 922        TOTAL FREE ENERGY PREDICTED BY IDOCK:   -7.06 KCAL/MOL
REMARK 923 INTER-LIGAND FREE ENERGY PREDICTED BY IDOCK:   -7.33 KCAL/MOL
REMARK 924 INTRA-LIGAND FREE ENERGY PREDICTED BY IDOCK:    0.27 KCAL/MOL
REMARK 927      BINDING AFFINITY PREDICTED BY RF-SCORE:    0.00 PKD
ROOT
HETATM    1  C   UNL     1     -12.645  13.364  65.442  1.00  0.00    -0.528 C  
HETATM    2  C   UNL     1     -11.122  13.566  65.497  1.00  0.00    -0.294 C  
HETATM    3  O   UNL     1     -10.532  13.432  66.820  1.00  0.00    -0.270 OA 
HETATM    4  C   UNL     1     -10.519  12.413  64.658  1.00  0.00    -0.309 C  
HETATM    5  C   UNL     1     -10.647  14.862  64.831  1.00  0.00    -0.417 C  
HETATM    6  O   UNL     1      -9.638  11.646  65.344  1.00  0.00    -0.226 OA 
HETATM    7  O   UNL     1     -10.784  12.200  63.481  1.00  0.00    -0.410 OA 
ENDROOT
BRANCH   3   8
HETATM    8  C   UNL     1     -11.188  13.911  67.918  1.00  0.00    -0.278 A  
HETATM    9  C   UNL     1     -11.125  15.289  68.125  1.00  0.00    -0.309 A  
HETATM   10  C   UNL     1     -11.656  15.861  69.292  1.00  0.00    -0.372 A  
HETATM   11  C   UNL     1     -12.263  15.068  70.277  1.00  0.00    -0.390 A  
HETATM   12  C   UNL     1     -12.383  13.699  70.005  1.00  0.00    -0.342 A  
HETATM   13  C   UNL     1     -11.892  13.135  68.828  1.00  0.00    -0.361 A  
BRANCH  11  14
HETATM   14  C   UNL     1     -12.678  15.608  71.624  1.00  0.00    -0.522 C  
HETATM   15  C   UNL     1     -14.098  15.586  72.119  1.00  0.00    -0.621 C  
HETATM   16  C   UNL     1     -13.082  14.688  72.761  1.00  0.00    -0.486 C  
HETATM   17 CL   UNL     1     -12.460  15.100  74.357  1.00  0.00    -0.662 Cl 
HETATM   18 CL   UNL     1     -13.323  12.959  72.540  1.00  0.00    -0.534 Cl 
ENDBRANCH  11  14
ENDBRANCH   3   8
TORSDOF 2
ENDMDL
MODEL        6
REMARK 921   NORMALIZED FREE ENERGY PREDICTED BY IDOCK:   -5.77 KCAL/MOL
REMARK 922        TOTAL FREE ENERGY PREDICTED BY IDOCK:   -6.92 KCAL/MOL
REMARK 923 INTER-LIGAND FREE ENERGY PREDICTED BY IDOCK:   -6.51 KCAL/MOL
REMARK 924 INTRA-LIGAND FREE ENERGY PREDICTED BY IDOCK:   -0.41 KCAL/MOL
REMARK 927      BINDING AFFINITY PREDICTED BY RF-SCORE:    0.00 PKD
ROOT
HETATM    1  C   UNL     1     -10.447  13.673  66.990  1.00  0.00    -0.270 C  
HETATM    2  C   UNL     1     -11.001  12.601  66.036  1.00  0.00    -0.282 C  
HETATM    3  O   UNL     1     -11.840  11.594  66.666  1.00  0.00    -0.533 OA 
HETATM    4  C   UNL     1     -11.929  13.357  65.055  1.00  0.00    -0.374 C  
HETATM    5  C   UNL     1      -9.928  11.934  65.169  1.00  0.00    -0.276 C  
HETATM    6  O   UNL     1     -13.199  12.885  65.037  1.00  0.00    -0.765 OA 
HETATM    7  O   UNL     1     -11.574  14.286  64.340  1.00  0.00    -0.382 OA 
ENDROOT
BRANCH   3   8
HETATM    8  C   UNL     1     -11.528  11.115  67.907  1.00  0.00    -0.284 A  
HETATM    9  C   UNL     1     -10.531  10.141  67.962  1.00  0.00    -0.249 A  
HETATM   10  C   UNL     1     -10.230   9.494  69.171  1.00  0.00    -0.209 A  
HETATM   11  C   UNL     1     -10.918   9.810  70.353  1.00  0.00    -0.371 A  
HETATM   12  C   UNL     1     -11.857  10.848  70.283  1.00  0.00    -0.450 A  
HETATM   13  C   UNL     1     -12.128  11.518  69.091  1.00  0.00    -0.329 A  
BRANCH  11  14
HETATM   14  C   UNL     1     -10.763   9.018  71.628  1.00  0.00    -0.441 C  
HETATM   15  C   UNL     1     -11.929   8.535  72.445  1.00  0.00    -0.434 C  
HETATM   16  C   UNL     1     -11.095   7.539  71.693  1.00  0.00    -0.239 C  
HETATM   17 CL   UNL     1      -9.963   6.524  72.583  1.00  0.00    -0.177 Cl 
HETATM   18 CL   UNL     1     -11.896   6.690  70.376  1.00  0.00    -0.449 Cl 
ENDBRANCH  11  14
ENDBRANCH   3   8
TORSDOF 2
ENDMDL
MODEL        7
REMARK 921   NORMALIZED FREE ENERGY PREDICTED BY IDOCK:   -5.69 KCAL/MOL
REMARK 922        TOTAL FREE ENERGY PREDICTED BY IDOCK:   -6.84 KCAL/MOL
REMARK 923 INTER-LIGAND FREE ENERGY PREDICTED BY IDOCK:   -6.24 KCAL/MOL
REMARK 924 INTRA-LIGAND FREE ENERGY PREDICTED BY IDOCK:   -0.60 KCAL/MOL
REMARK 927      BINDING AFFINITY PREDICTED BY RF-SCORE:    0.00 PKD
ROOT
HETATM    1  C   UNL     1     -10.910  16.431  67.751  1.00  0.00    -0.306 C  
HETATM    2  C   UNL     1     -10.154  16.244  66.425  1.00  0.00    -0.305 C  
HETATM    3  O   UNL     1     -10.422  14.992  65.736  1.00  0.00    -0.297 OA 
HETATM    4  C   UNL     1     -10.683  17.354  65.484  1.00  0.00    -0.078 C  
HETATM    5  C   UNL     1      -8.643  16.477  66.538  1.00  0.00    -0.321 C  
HETATM    6  O   UNL     1     -11.207  16.881  64.328  1.00  0.00    -1.204 OA 
HETATM    7  O   UNL     1     -10.633  18.554  65.729  1.00  0.00    -0.575 OA 
ENDROOT
BRANCH   3   8
HETATM    8  C   UNL     1     -10.577  13.835  66.445  1.00  0.00    -0.284 A  
HETATM    9  C   UNL     1     -11.849  13.259  66.419  1.00  0.00    -0.446 A  
HETATM   10  C   UNL     1     -12.144  12.143  67.218  1.00  0.00     0.045 A  
HETATM   11  C   UNL     1     -11.174  11.576  68.059  1.00  0.00    -0.335 A  
HETATM   12  C   UNL     1      -9.886  12.126  68.004  1.00  0.00    -0.202 A  
HETATM   13  C   UNL     1      -9.581  13.209  67.180  1.00  0.00    -0.235 A  
BRANCH  11  14
HETATM   14  C   UNL     1     -11.492  10.501  69.069  1.00  0.00    -0.304 C  
HETATM   15  C   UNL     1     -10.713  10.309  70.341  1.00  0.00    -0.270 C  
HETATM   16  C   UNL     1     -12.119  10.830  70.411  1.00  0.00    -0.354 C  
HETATM   17 CL   UNL     1     -13.404   9.756  70.956  1.00  0.00    -0.368 Cl 
HETATM   18 CL   UNL     1     -12.307  12.481  70.990  1.00  0.00    -0.400 Cl 
ENDBRANCH  11  14
ENDBRANCH   3   8
TORSDOF 2
ENDMDL
MODEL        8
REMARK 921   NORMALIZED FREE ENERGY PREDICTED BY IDOCK:   -5.66 KCAL/MOL
REMARK 922        TOTAL FREE ENERGY PREDICTED BY IDOCK:   -6.79 KCAL/MOL
REMARK 923 INTER-LIGAND FREE ENERGY PREDICTED BY IDOCK:   -6.30 KCAL/MOL
REMARK 924 INTRA-LIGAND FREE ENERGY PREDICTED BY IDOCK:   -0.49 KCAL/MOL
REMARK 927      BINDING AFFINITY PREDICTED BY RF-SCORE:    0.00 PKD
ROOT
HETATM    1  C   UNL     1      -9.938  13.590  66.903  1.00  0.00    -0.256 C  
HETATM    2  C   UNL     1     -10.914  12.969  65.889  1.00  0.00    -0.271 C  
HETATM    3  O   UNL     1     -11.920  12.090  66.464  1.00  0.00    -0.616 OA 
HETATM    4  C   UNL     1     -11.701  14.159  65.287  1.00  0.00    -0.353 C  
HETATM    5  C   UNL     1     -10.221  12.284  64.706  1.00  0.00    -0.308 C  
HETATM    6  O   UNL     1     -13.043  14.052  65.435  1.00  0.00    -0.763 OA 
HETATM    7  O   UNL     1     -11.187  15.111  64.713  1.00  0.00    -0.394 OA 
ENDROOT
BRANCH   3   8
HETATM    8  C   UNL     1     -11.597  11.255  67.496  1.00  0.00    -0.175 A  
HETATM    9  C   UNL     1     -12.027  11.645  68.765  1.00  0.00    -0.326 A  
HETATM   10  C   UNL     1     -11.636  10.924  69.904  1.00  0.00    -0.410 A  
HETATM   11  C   UNL     1     -10.808   9.795  69.799  1.00  0.00    -0.285 A  
HETATM   12  C   UNL     1     -10.459   9.382  68.507  1.00  0.00    -0.239 A  
HETATM   13  C   UNL     1     -10.880  10.074  67.372  1.00  0.00    -0.313 A  
BRANCH  11  14
HETATM   14  C   UNL     1     -10.211   9.102  70.999  1.00  0.00    -0.372 C  
HETATM   15  C   UNL     1     -11.023   8.673  72.191  1.00  0.00    -0.434 C  
HETATM   16  C   UNL     1     -10.456   7.630  71.273  1.00  0.00    -0.206 C  
HETATM   17 CL   UNL     1      -9.061   6.691  71.798  1.00  0.00    -0.145 Cl 
HETATM   18 CL   UNL     1     -11.625   6.680  70.363  1.00  0.00    -0.438 Cl 
ENDBRANCH  11  14
ENDBRANCH   3   8
TORSDOF 2
ENDMDL
MODEL        9
REMARK 921   NORMALIZED FREE ENERGY PREDICTED BY IDOCK:   -5.61 KCAL/MOL
REMARK 922        TOTAL FREE ENERGY PREDICTED BY IDOCK:   -6.74 KCAL/MOL
REMARK 923 INTER-LIGAND FREE ENERGY PREDICTED BY IDOCK:   -6.32 KCAL/MOL
REMARK 924 INTRA-LIGAND FREE ENERGY PREDICTED BY IDOCK:   -0.42 KCAL/MOL
REMARK 927      BINDING AFFINITY PREDICTED BY RF-SCORE:    0.00 PKD
ROOT
HETATM    1  C   UNL     1      -9.647  13.095  68.133  1.00  0.00    -0.227 C  
HETATM    2  C   UNL     1     -11.155  13.293  67.907  1.00  0.00    -0.262 C  
HETATM    3  O   UNL     1     -11.502  14.332  66.951  1.00  0.00    -0.331 OA 
HETATM    4  C   UNL     1     -11.659  11.971  67.281  1.00  0.00    -0.313 C  
HETATM    5  C   UNL     1     -11.953  13.474  69.203  1.00  0.00    -0.378 C  
HETATM    6  O   UNL     1     -12.271  12.136  66.084  1.00  0.00    -0.611 OA 
HETATM    7  O   UNL     1     -11.543  10.867  67.801  1.00  0.00    -0.523 OA 
ENDROOT
BRANCH   3   8
HETATM    8  C   UNL     1     -10.784  15.494  66.904  1.00  0.00    -0.317 A  
HETATM    9  C   UNL     1     -11.120  16.467  67.847  1.00  0.00    -0.249 A  
HETATM   10  C   UNL     1     -10.531  17.740  67.799  1.00  0.00    -0.402 A  
HETATM   11  C   UNL     1      -9.591  18.068  66.810  1.00  0.00    -0.303 A  
HETATM   12  C   UNL     1      -9.214  17.046  65.928  1.00  0.00    -0.076 A  
HETATM   13  C   UNL     1      -9.769  15.768  66.000  1.00  0.00    -0.377 A  
BRANCH  11  14
HETATM   14  C   UNL     1      -9.073  19.470  66.603  1.00  0.00    -0.406 C  
HETATM   15  C   UNL     1      -9.455  20.628  67.484  1.00  0.00    -0.479 C  
HETATM   16  C   UNL     1      -8.055  20.090  67.543  1.00  0.00    -0.316 C  
HETATM   17 CL   UNL     1      -6.752  21.005  66.788  1.00  0.00    -0.372 Cl 
HETATM   18 CL   UNL     1      -7.578  19.329  69.056  1.00  0.00    -0.381 Cl 
ENDBRANCH  11  14
ENDBRANCH   3   8
TORSDOF 2
ENDMDL
MODEL       10
REMARK 921   NORMALIZED FREE ENERGY PREDICTED BY IDOCK:   -5.57 KCAL/MOL
REMARK 922        TOTAL FREE ENERGY PREDICTED BY IDOCK:   -6.70 KCAL/MOL
REMARK 923 INTER-LIGAND FREE ENERGY PREDICTED BY IDOCK:   -6.28 KCAL/MOL
REMARK 924 INTRA-LIGAND FREE ENERGY PREDICTED BY IDOCK:   -0.41 KCAL/MOL
REMARK 927      BINDING AFFINITY PREDICTED BY RF-SCORE:    0.00 PKD
ROOT
HETATM    1  C   UNL     1     -10.056  13.790  65.305  1.00  0.00    -0.312 C  
HETATM    2  C   UNL     1     -11.261  14.707  65.572  1.00  0.00    -0.343 C  
HETATM    3  O   UNL     1     -10.926  16.095  65.848  1.00  0.00    -0.212 OA 
HETATM    4  C   UNL     1     -12.066  14.732  64.251  1.00  0.00    -0.394 C  
HETATM    5  C   UNL     1     -12.221  14.169  66.639  1.00  0.00    -0.450 C  
HETATM    6  O   UNL     1     -12.247  15.977  63.749  1.00  0.00    -0.895 OA 
HETATM    7  O   UNL     1     -12.522  13.738  63.697  1.00  0.00    -0.718 OA 
ENDROOT
BRANCH   3   8
HETATM    8  C   UNL     1      -9.826  16.403  66.597  1.00  0.00    -0.261 A  
HETATM    9  C   UNL     1     -10.032  16.543  67.971  1.00  0.00    -0.245 A  
HETATM   10  C   UNL     1      -8.995  16.984  68.807  1.00  0.00    -0.249 A  
HETATM   11  C   UNL     1      -7.727  17.293  68.290  1.00  0.00    -0.234 A  
HETATM   12  C   UNL     1      -7.528  17.066  66.921  1.00  0.00    -0.248 A  
HETATM   13  C   UNL     1      -8.546  16.590  66.096  1.00  0.00    -0.334 A  
BRANCH  11  14
HETATM   14  C   UNL     1      -6.643  17.944  69.111  1.00  0.00    -0.240 C  
HETATM   15  C   UNL     1      -5.380  18.503  68.515  1.00  0.00    -0.177 C  
HETATM   16  C   UNL     1      -6.407  19.443  69.076  1.00  0.00    -0.279 C  
HETATM   17 CL   UNL     1      -6.101  20.222  70.626  1.00  0.00    -0.377 Cl 
HETATM   18 CL   UNL     1      -7.208  20.499  67.919  1.00  0.00    -0.316 Cl 
ENDBRANCH  11  14
ENDBRANCH   3   8
TORSDOF 2
ENDMDL
MODEL       11
REMARK 921   NORMALIZED FREE ENERGY PREDICTED BY IDOCK:   -5.54 KCAL/MOL
REMARK 922        TOTAL FREE ENERGY PREDICTED BY IDOCK:   -6.66 KCAL/MOL
REMARK 923 INTER-LIGAND FREE ENERGY PREDICTED BY IDOCK:   -6.39 KCAL/MOL
REMARK 924 INTRA-LIGAND FREE ENERGY PREDICTED BY IDOCK:   -0.27 KCAL/MOL
REMARK 927      BINDING AFFINITY PREDICTED BY RF-SCORE:    0.00 PKD
ROOT
HETATM    1  C   UNL     1     -10.010  13.945  66.512  1.00  0.00    -0.288 C  
HETATM    2  C   UNL     1     -11.055  13.240  65.630  1.00  0.00    -0.282 C  
HETATM    3  O   UNL     1     -11.949  12.339  66.338  1.00  0.00    -0.589 OA 
HETATM    4  C   UNL     1     -11.959  14.368  65.076  1.00  0.00    -0.412 C  
HETATM    5  C   UNL     1     -10.456  12.543  64.404  1.00  0.00    -0.384 C  
HETATM    6  O   UNL     1     -13.271  14.205  65.371  1.00  0.00    -0.741 OA 
HETATM    7  O   UNL     1     -11.556  15.321  64.419  1.00  0.00    -0.358 OA 
ENDROOT
BRANCH   3   8
HETATM    8  C   UNL     1     -11.478  11.560  67.357  1.00  0.00    -0.274 A  
HETATM    9  C   UNL     1     -10.862  10.363  66.987  1.00  0.00    -0.269 A  
HETATM   10  C   UNL     1     -10.462   9.435  67.961  1.00  0.00    -0.278 A  
HETATM   11  C   UNL     1     -10.665   9.684  69.327  1.00  0.00    -0.246 A  
HETATM   12  C   UNL     1     -11.212  10.927  69.671  1.00  0.00    -0.348 A  
HETATM   13  C   UNL     1     -11.573  11.867  68.706  1.00  0.00    -0.366 A  
BRANCH  11  14
HETATM   14  C   UNL     1     -10.425   8.645  70.394  1.00  0.00    -0.233 C  
HETATM   15  C   UNL     1     -10.437   8.957  71.866  1.00  0.00    -0.415 C  
HETATM   16  C   UNL     1     -11.549   8.136  71.278  1.00  0.00    -0.273 C  
HETATM   17 CL   UNL     1     -11.582   6.400  71.576  1.00  0.00    -0.356 Cl 
HETATM   18 CL   UNL     1     -13.148   8.870  71.293  1.00  0.00    -0.282 Cl 
ENDBRANCH  11  14
ENDBRANCH   3   8
TORSDOF 2
ENDMDL
MODEL       12
REMARK 921   NORMALIZED FREE ENERGY PREDICTED BY IDOCK:   -5.51 KCAL/MOL
REMARK 922        TOTAL FREE ENERGY PREDICTED BY IDOCK:   -6.63 KCAL/MOL
REMARK 923 INTER-LIGAND FREE ENERGY PREDICTED BY IDOCK:   -6.17 KCAL/MOL
REMARK 924 INTRA-LIGAND FREE ENERGY PREDICTED BY IDOCK:   -0.46 KCAL/MOL
REMARK 927      BINDING AFFINITY PREDICTED BY RF-SCORE:    0.00 PKD
ROOT
HETATM    1  C   UNL     1     -12.042  13.580  66.486  1.00  0.00    -0.460 C  
HETATM    2  C   UNL     1     -10.858  13.070  67.325  1.00  0.00    -0.252 C  
HETATM    3  O   UNL     1     -10.214  14.076  68.154  1.00  0.00    -0.231 OA 
HETATM    4  C   UNL     1     -11.460  12.044  68.315  1.00  0.00    -0.303 C  
HETATM    5  C   UNL     1      -9.811  12.302  66.510  1.00  0.00    -0.240 C  
HETATM    6  O   UNL     1     -11.219  12.338  69.615  1.00  0.00    -0.173 OA 
HETATM    7  O   UNL     1     -12.087  11.044  67.982  1.00  0.00    -0.615 OA 
ENDROOT
BRANCH   3   8
HETATM    8  C   UNL     1     -10.047  15.350  67.688  1.00  0.00    -0.236 A  
HETATM    9  C   UNL     1      -8.999  15.547  66.788  1.00  0.00    -0.295 A  
HETATM   10  C   UNL     1      -8.665  16.839  66.353  1.00  0.00    -0.337 A  
HETATM   11  C   UNL     1      -9.374  17.963  66.805  1.00  0.00    -0.279 A  
HETATM   12  C   UNL     1     -10.471  17.726  67.644  1.00  0.00    -0.393 A  
HETATM   13  C   UNL     1     -10.828  16.439  68.046  1.00  0.00    -0.342 A  
BRANCH  11  14
HETATM   14  C   UNL     1      -8.938  19.378  66.516  1.00  0.00    -0.391 C  
HETATM   15  C   UNL     1      -9.436  20.568  67.289  1.00  0.00    -0.559 C  
HETATM   16  C   UNL     1      -8.008  20.132  67.448  1.00  0.00    -0.322 C  
HETATM   17 CL   UNL     1      -6.733  21.077  66.683  1.00  0.00    -0.348 Cl 
HETATM   18 CL   UNL     1      -7.556  19.518  69.034  1.00  0.00    -0.394 Cl 
ENDBRANCH  11  14
ENDBRANCH   3   8
TORSDOF 2
ENDMDL
MODEL       13
REMARK 921   NORMALIZED FREE ENERGY PREDICTED BY IDOCK:   -5.45 KCAL/MOL
REMARK 922        TOTAL FREE ENERGY PREDICTED BY IDOCK:   -6.56 KCAL/MOL
REMARK 923 INTER-LIGAND FREE ENERGY PREDICTED BY IDOCK:   -6.15 KCAL/MOL
REMARK 924 INTRA-LIGAND FREE ENERGY PREDICTED BY IDOCK:   -0.41 KCAL/MOL
REMARK 927      BINDING AFFINITY PREDICTED BY RF-SCORE:    0.00 PKD
ROOT
HETATM    1  C   UNL     1      -7.442  19.336  65.748  1.00  0.00    -0.228 C  
HETATM    2  C   UNL     1      -8.164  19.683  67.061  1.00  0.00    -0.288 C  
HETATM    3  O   UNL     1      -8.633  18.539  67.826  1.00  0.00    -0.264 OA 
HETATM    4  C   UNL     1      -7.100  20.369  67.952  1.00  0.00    -0.292 C  
HETATM    5  C   UNL     1      -9.292  20.708  66.891  1.00  0.00    -0.373 C  
HETATM    6  O   UNL     1      -6.920  19.758  69.148  1.00  0.00    -0.341 OA 
HETATM    7  O   UNL     1      -6.477  21.376  67.639  1.00  0.00    -0.483 OA 
ENDROOT
BRANCH   3   8
HETATM    8  C   UNL     1      -9.151  17.449  67.187  1.00  0.00    -0.237 A  
HETATM    9  C   UNL     1      -8.548  16.222  67.468  1.00  0.00    -0.189 A  
HETATM   10  C   UNL     1      -8.922  15.065  66.766  1.00  0.00    -0.293 A  
HETATM   11  C   UNL     1      -9.911  15.108  65.771  1.00  0.00    -0.384 A  
HETATM   12  C   UNL     1     -10.555  16.336  65.569  1.00  0.00    -0.369 A  
HETATM   13  C   UNL     1     -10.212  17.477  66.293  1.00  0.00    -0.356 A  
BRANCH  11  14
HETATM   14  C   UNL     1     -10.215  13.940  64.867  1.00  0.00    -0.378 C  
HETATM   15  C   UNL     1     -10.440  12.541  65.373  1.00  0.00    -0.308 C  
HETATM   16  C   UNL     1     -11.596  13.314  64.808  1.00  0.00    -0.332 C  
HETATM   17 CL   UNL     1     -12.200  12.904  63.205  1.00  0.00    -0.590 Cl 
HETATM   18 CL   UNL     1     -12.875  13.738  65.941  1.00  0.00    -0.443 Cl 
ENDBRANCH  11  14
ENDBRANCH   3   8
TORSDOF 2
ENDMDL
MODEL       14
REMARK 921   NORMALIZED FREE ENERGY PREDICTED BY IDOCK:   -5.45 KCAL/MOL
REMARK 922        TOTAL FREE ENERGY PREDICTED BY IDOCK:   -6.56 KCAL/MOL
REMARK 923 INTER-LIGAND FREE ENERGY PREDICTED BY IDOCK:   -6.07 KCAL/MOL
REMARK 924 INTRA-LIGAND FREE ENERGY PREDICTED BY IDOCK:   -0.49 KCAL/MOL
REMARK 927      BINDING AFFINITY PREDICTED BY RF-SCORE:    0.00 PKD
ROOT
HETATM    1  C   UNL     1     -10.471  17.112  67.841  1.00  0.00    -0.369 C  
HETATM    2  C   UNL     1      -9.922  16.689  66.468  1.00  0.00    -0.285 C  
HETATM    3  O   UNL     1     -10.398  15.403  65.985  1.00  0.00    -0.287 OA 
HETATM    4  C   UNL     1     -10.465  17.734  65.463  1.00  0.00    -0.017 C  
HETATM    5  C   UNL     1      -8.394  16.764  66.365  1.00  0.00    -0.344 C  
HETATM    6  O   UNL     1     -11.182  17.191  64.450  1.00  0.00    -1.143 OA 
HETATM    7  O   UNL     1     -10.268  18.941  65.543  1.00  0.00    -0.442 OA 
ENDROOT
BRANCH   3   8
HETATM    8  C   UNL     1     -10.567  14.361  66.852  1.00  0.00    -0.278 A  
HETATM    9  C   UNL     1     -11.872  14.119  67.282  1.00  0.00    -0.452 A  
HETATM   10  C   UNL     1     -12.131  13.156  68.270  1.00  0.00    -0.217 A  
HETATM   11  C   UNL     1     -11.092  12.411  68.848  1.00  0.00    -0.307 A  
HETATM   12  C   UNL     1      -9.803  12.619  68.338  1.00  0.00    -0.200 A  
HETATM   13  C   UNL     1      -9.550  13.547  67.329  1.00  0.00    -0.235 A  
BRANCH  11  14
HETATM   14  C   UNL     1     -11.295  11.505  70.036  1.00  0.00    -0.222 C  
HETATM   15  C   UNL     1     -12.410  10.498  70.125  1.00  0.00    -0.339 C  
HETATM   16  C   UNL     1     -10.996  10.019  69.966  1.00  0.00    -0.300 C  
HETATM   17 CL   UNL     1     -10.166   9.323  71.355  1.00  0.00    -0.395 Cl 
HETATM   18 CL   UNL     1     -10.619   9.200  68.455  1.00  0.00    -0.240 Cl 
ENDBRANCH  11  14
ENDBRANCH   3   8
TORSDOF 2
ENDMDL
MODEL       15
REMARK 921   NORMALIZED FREE ENERGY PREDICTED BY IDOCK:   -5.43 KCAL/MOL
REMARK 922        TOTAL FREE ENERGY PREDICTED BY IDOCK:   -6.54 KCAL/MOL
REMARK 923 INTER-LIGAND FREE ENERGY PREDICTED BY IDOCK:   -6.21 KCAL/MOL
REMARK 924 INTRA-LIGAND FREE ENERGY PREDICTED BY IDOCK:   -0.33 KCAL/MOL
REMARK 927      BINDING AFFINITY PREDICTED BY RF-SCORE:    0.00 PKD
ROOT
HETATM    1  C   UNL     1     -10.377  13.241  64.538  1.00  0.00    -0.394 C  
HETATM    2  C   UNL     1     -11.379  13.201  65.703  1.00  0.00    -0.303 C  
HETATM    3  O   UNL     1     -11.469  14.427  66.480  1.00  0.00    -0.341 OA 
HETATM    4  C   UNL     1     -12.771  13.024  65.049  1.00  0.00    -0.410 C  
HETATM    5  C   UNL     1     -11.197  11.995  66.632  1.00  0.00    -0.380 C  
HETATM    6  O   UNL     1     -13.652  14.000  65.377  1.00  0.00    -0.593 OA 
HETATM    7  O   UNL     1     -13.079  12.094  64.313  1.00  0.00    -0.723 OA 
ENDROOT
BRANCH   3   8
HETATM    8  C   UNL     1     -10.345  15.156  66.749  1.00  0.00    -0.273 A  
HETATM    9  C   UNL     1      -9.812  15.020  68.031  1.00  0.00    -0.218 A  
HETATM   10  C   UNL     1      -8.738  15.823  68.447  1.00  0.00    -0.177 A  
HETATM   11  C   UNL     1      -8.170  16.776  67.588  1.00  0.00    -0.191 A  
HETATM   12  C   UNL     1      -8.673  16.833  66.281  1.00  0.00    -0.342 A  
HETATM   13  C   UNL     1      -9.714  16.009  65.855  1.00  0.00    -0.378 A  
BRANCH  11  14
HETATM   14  C   UNL     1      -7.145  17.784  68.045  1.00  0.00    -0.209 C  
HETATM   15  C   UNL     1      -6.724  18.966  67.215  1.00  0.00    -0.209 C  
HETATM   16  C   UNL     1      -7.539  19.191  68.455  1.00  0.00    -0.334 C  
HETATM   17 CL   UNL     1      -6.752  19.834  69.894  1.00  0.00    -0.337 Cl 
HETATM   18 CL   UNL     1      -9.161  19.828  68.213  1.00  0.00    -0.400 Cl 
ENDBRANCH  11  14
ENDBRANCH   3   8
TORSDOF 2
ENDMDL
MODEL       16
REMARK 921   NORMALIZED FREE ENERGY PREDICTED BY IDOCK:   -5.34 KCAL/MOL
REMARK 922        TOTAL FREE ENERGY PREDICTED BY IDOCK:   -6.45 KCAL/MOL
REMARK 923 INTER-LIGAND FREE ENERGY PREDICTED BY IDOCK:   -6.10 KCAL/MOL
REMARK 924 INTRA-LIGAND FREE ENERGY PREDICTED BY IDOCK:   -0.34 KCAL/MOL
REMARK 927      BINDING AFFINITY PREDICTED BY RF-SCORE:    0.00 PKD
ROOT
HETATM    1  C   UNL     1     -12.445   8.741  72.021  1.00  0.00    -0.452 C  
HETATM    2  C   UNL     1     -11.080   8.184  71.583  1.00  0.00    -0.255 C  
HETATM    3  O   UNL     1     -10.233   9.126  70.870  1.00  0.00    -0.235 OA 
HETATM    4  C   UNL     1     -10.323   7.860  72.894  1.00  0.00    -0.347 C  
HETATM    5  C   UNL     1     -11.171   6.861  70.814  1.00  0.00    -0.338 C  
HETATM    6  O   UNL     1      -9.131   8.494  73.004  1.00  0.00    -0.270 OA 
HETATM    7  O   UNL     1     -10.732   7.095  73.760  1.00  0.00    -0.361 OA 
ENDROOT
BRANCH   3   8
HETATM    8  C   UNL     1     -10.778  10.004  69.976  1.00  0.00    -0.299 A  
HETATM    9  C   UNL     1     -10.635   9.682  68.626  1.00  0.00    -0.246 A  
HETATM   10  C   UNL     1     -11.045  10.582  67.630  1.00  0.00    -0.375 A  
HETATM   11  C   UNL     1     -11.612  11.822  67.961  1.00  0.00    -0.386 A  
HETATM   12  C   UNL     1     -11.818  12.082  69.323  1.00  0.00    -0.377 A  
HETATM   13  C   UNL     1     -11.446  11.172  70.312  1.00  0.00    -0.329 A  
BRANCH  11  14
HETATM   14  C   UNL     1     -11.896  12.893  66.938  1.00  0.00    -0.444 C  
HETATM   15  C   UNL     1     -11.813  14.365  67.240  1.00  0.00    -0.434 C  
HETATM   16  C   UNL     1     -10.786  13.739  66.342  1.00  0.00    -0.281 C  
HETATM   17 CL   UNL     1     -10.873  14.031  64.607  1.00  0.00    -0.422 Cl 
HETATM   18 CL   UNL     1      -9.136  13.704  66.954  1.00  0.00    -0.252 Cl 
ENDBRANCH  11  14
ENDBRANCH   3   8
TORSDOF 2
ENDMDL
MODEL       17
REMARK 921   NORMALIZED FREE ENERGY PREDICTED BY IDOCK:   -5.34 KCAL/MOL
REMARK 922        TOTAL FREE ENERGY PREDICTED BY IDOCK:   -6.44 KCAL/MOL
REMARK 923 INTER-LIGAND FREE ENERGY PREDICTED BY IDOCK:   -6.05 KCAL/MOL
REMARK 924 INTRA-LIGAND FREE ENERGY PREDICTED BY IDOCK:   -0.39 KCAL/MOL
REMARK 927      BINDING AFFINITY PREDICTED BY RF-SCORE:    0.00 PKD
ROOT
HETATM    1  C   UNL     1     -10.000  13.844  66.902  1.00  0.00    -0.264 C  
HETATM    2  C   UNL     1     -10.990  13.117  65.977  1.00  0.00    -0.279 C  
HETATM    3  O   UNL     1     -11.983  12.303  66.660  1.00  0.00    -0.598 OA 
HETATM    4  C   UNL     1     -11.791  14.234  65.265  1.00  0.00    -0.374 C  
HETATM    5  C   UNL     1     -10.315  12.309  64.863  1.00  0.00    -0.319 C  
HETATM    6  O   UNL     1     -13.130  14.141  65.446  1.00  0.00    -0.743 OA 
HETATM    7  O   UNL     1     -11.290  15.120  64.583  1.00  0.00    -0.390 OA 
ENDROOT
BRANCH   3   8
HETATM    8  C   UNL     1     -11.640  11.584  67.769  1.00  0.00    -0.267 A  
HETATM    9  C   UNL     1     -10.946  10.394  67.545  1.00  0.00    -0.358 A  
HETATM   10  C   UNL     1     -10.663   9.521  68.608  1.00  0.00    -0.218 A  
HETATM   11  C   UNL     1     -11.065   9.820  69.919  1.00  0.00    -0.293 A  
HETATM   12  C   UNL     1     -11.688  11.059  70.125  1.00  0.00    -0.442 A  
HETATM   13  C   UNL     1     -11.934  11.944  69.076  1.00  0.00    -0.321 A  
BRANCH  11  14
HETATM   14  C   UNL     1     -10.950   8.836  71.056  1.00  0.00    -0.328 C  
HETATM   15  C   UNL     1     -10.423   7.438  70.886  1.00  0.00    -0.225 C  
HETATM   16  C   UNL     1      -9.605   8.445  71.640  1.00  0.00    -0.221 C  
HETATM   17 CL   UNL     1      -9.518   8.338  73.396  1.00  0.00    -0.240 Cl 
HETATM   18 CL   UNL     1      -8.080   8.917  70.901  1.00  0.00    -0.174 Cl 
ENDBRANCH  11  14
ENDBRANCH   3   8
TORSDOF 2
ENDMDL
MODEL       18
REMARK 921   NORMALIZED FREE ENERGY PREDICTED BY IDOCK:   -5.26 KCAL/MOL
REMARK 922        TOTAL FREE ENERGY PREDICTED BY IDOCK:   -6.35 KCAL/MOL
REMARK 923 INTER-LIGAND FREE ENERGY PREDICTED BY IDOCK:   -6.33 KCAL/MOL
REMARK 924 INTRA-LIGAND FREE ENERGY PREDICTED BY IDOCK:   -0.02 KCAL/MOL
REMARK 927      BINDING AFFINITY PREDICTED BY RF-SCORE:    0.00 PKD
ROOT
HETATM    1  C   UNL     1      -9.773   8.647  71.357  1.00  0.00    -0.314 C  
HETATM    2  C   UNL     1     -11.144   7.952  71.394  1.00  0.00    -0.243 C  
HETATM    3  O   UNL     1     -12.193   8.622  70.643  1.00  0.00    -0.099 OA 
HETATM    4  C   UNL     1     -10.938   6.589  70.690  1.00  0.00    -0.287 C  
HETATM    5  C   UNL     1     -11.630   7.622  72.810  1.00  0.00    -0.334 C  
HETATM    6  O   UNL     1     -11.763   6.395  69.633  1.00  0.00    -0.389 OA 
HETATM    7  O   UNL     1     -10.126   5.741  71.042  1.00  0.00    -0.189 OA 
ENDROOT
BRANCH   3   8
HETATM    8  C   UNL     1     -12.271   9.986  70.635  1.00  0.00    -0.269 A  
HETATM    9  C   UNL     1     -11.648  10.634  69.567  1.00  0.00    -0.360 A  
HETATM   10  C   UNL     1     -11.560  12.035  69.536  1.00  0.00    -0.389 A  
HETATM   11  C   UNL     1     -12.097  12.819  70.569  1.00  0.00    -0.369 A  
HETATM   12  C   UNL     1     -12.787  12.144  71.585  1.00  0.00    -0.390 A  
HETATM   13  C   UNL     1     -12.909  10.755  71.597  1.00  0.00    -0.562 A  
BRANCH  11  14
HETATM   14  C   UNL     1     -11.866  14.306  70.674  1.00  0.00    -0.349 C  
HETATM   15  C   UNL     1     -12.726  15.324  69.977  1.00  0.00    -0.206 C  
HETATM   16  C   UNL     1     -12.795  15.202  71.472  1.00  0.00    -0.369 C  
HETATM   17 CL   UNL     1     -12.025  16.433  72.469  1.00  0.00    -0.623 Cl 
HETATM   18 CL   UNL     1     -14.322  14.631  72.135  1.00  0.00    -0.590 Cl 
ENDBRANCH  11  14
ENDBRANCH   3   8
TORSDOF 2
ENDMDL
MODEL       19
REMARK 921   NORMALIZED FREE ENERGY PREDICTED BY IDOCK:   -5.24 KCAL/MOL
REMARK 922        TOTAL FREE ENERGY PREDICTED BY IDOCK:   -6.33 KCAL/MOL
REMARK 923 INTER-LIGAND FREE ENERGY PREDICTED BY IDOCK:   -6.07 KCAL/MOL
REMARK 924 INTRA-LIGAND FREE ENERGY PREDICTED BY IDOCK:   -0.26 KCAL/MOL
REMARK 927      BINDING AFFINITY PREDICTED BY RF-SCORE:    0.00 PKD
ROOT
HETATM    1  C   UNL     1     -10.603  13.646  64.504  1.00  0.00    -0.428 C  
HETATM    2  C   UNL     1     -11.368  14.493  65.535  1.00  0.00    -0.335 C  
HETATM    3  O   UNL     1     -10.915  14.345  66.909  1.00  0.00    -0.296 OA 
HETATM    4  C   UNL     1     -11.076  15.966  65.161  1.00  0.00    -0.311 C  
HETATM    5  C   UNL     1     -12.890  14.334  65.457  1.00  0.00    -0.334 C  
HETATM    6  O   UNL     1     -10.525  16.683  66.170  1.00  0.00    -0.319 OA 
HETATM    7  O   UNL     1     -11.324  16.467  64.071  1.00  0.00    -1.064 OA 
ENDROOT
BRANCH   3   8
HETATM    8  C   UNL     1     -10.533  13.121  67.381  1.00  0.00    -0.242 A  
HETATM    9  C   UNL     1     -11.529  12.146  67.449  1.00  0.00    -0.415 A  
HETATM   10  C   UNL     1     -11.268  10.899  68.040  1.00  0.00    -0.378 A  
HETATM   11  C   UNL     1     -10.005  10.598  68.571  1.00  0.00    -0.176 A  
HETATM   12  C   UNL     1      -9.004  11.566  68.415  1.00  0.00    -0.173 A  
HETATM   13  C   UNL     1      -9.251  12.789  67.794  1.00  0.00    -0.199 A  
BRANCH  11  14
HETATM   14  C   UNL     1      -9.730   9.352  69.377  1.00  0.00    -0.181 C  
HETATM   15  C   UNL     1      -9.105   9.376  70.744  1.00  0.00    -0.268 C  
HETATM   16  C   UNL     1     -10.551   8.999  70.603  1.00  0.00    -0.236 C  
HETATM   17 CL   UNL     1     -11.016   7.308  70.771  1.00  0.00    -0.263 Cl 
HETATM   18 CL   UNL     1     -11.716  10.109  71.314  1.00  0.00    -0.447 Cl 
ENDBRANCH  11  14
ENDBRANCH   3   8
TORSDOF 2
ENDMDL
MODEL       20
REMARK 921   NORMALIZED FREE ENERGY PREDICTED BY IDOCK:   -5.23 KCAL/MOL
REMARK 922        TOTAL FREE ENERGY PREDICTED BY IDOCK:   -6.32 KCAL/MOL
REMARK 923 INTER-LIGAND FREE ENERGY PREDICTED BY IDOCK:   -5.91 KCAL/MOL
REMARK 924 INTRA-LIGAND FREE ENERGY PREDICTED BY IDOCK:   -0.41 KCAL/MOL
REMARK 927      BINDING AFFINITY PREDICTED BY RF-SCORE:    0.00 PKD
ROOT
HETATM    1  C   UNL     1     -11.015  11.735  65.885  1.00  0.00    -0.354 C  
HETATM    2  C   UNL     1     -11.027  13.082  66.626  1.00  0.00    -0.279 C  
HETATM    3  O   UNL     1     -10.455  13.053  67.962  1.00  0.00    -0.216 OA 
HETATM    4  C   UNL     1     -10.108  14.017  65.803  1.00  0.00    -0.327 C  
HETATM    5  C   UNL     1     -12.401  13.760  66.650  1.00  0.00    -0.403 C  
HETATM    6  O   UNL     1      -9.086  14.542  66.521  1.00  0.00    -0.258 OA 
HETATM    7  O   UNL     1     -10.273  14.288  64.620  1.00  0.00    -0.387 OA 
ENDROOT
BRANCH   3   8
HETATM    8  C   UNL     1     -10.663  11.977  68.778  1.00  0.00    -0.220 A  
HETATM    9  C   UNL     1     -11.865  11.962  69.487  1.00  0.00    -0.395 A  
HETATM   10  C   UNL     1     -12.115  10.969  70.447  1.00  0.00    -0.463 A  
HETATM   11  C   UNL     1     -11.171   9.966  70.717  1.00  0.00    -0.427 A  
HETATM   12  C   UNL     1     -10.009   9.961  69.933  1.00  0.00    -0.292 A  
HETATM   13  C   UNL     1      -9.777  10.924  68.951  1.00  0.00    -0.198 A  
BRANCH  11  14
HETATM   14  C   UNL     1     -11.312   8.994  71.862  1.00  0.00    -0.438 C  
HETATM   15  C   UNL     1     -12.591   8.266  72.172  1.00  0.00    -0.379 C  
HETATM   16  C   UNL     1     -11.421   7.498  71.628  1.00  0.00    -0.261 C  
HETATM   17 CL   UNL     1     -10.492   6.469  72.715  1.00  0.00    -0.223 Cl 
HETATM   18 CL   UNL     1     -11.625   6.804  70.025  1.00  0.00    -0.389 Cl 
ENDBRANCH  11  14
ENDBRANCH   3   8
TORSDOF 2
ENDMDL
MODEL       21
REMARK 921   NORMALIZED FREE ENERGY PREDICTED BY IDOCK:   -5.21 KCAL/MOL
REMARK 922        TOTAL FREE ENERGY PREDICTED BY IDOCK:   -6.29 KCAL/MOL
REMARK 923 INTER-LIGAND FREE ENERGY PREDICTED BY IDOCK:   -5.90 KCAL/MOL
REMARK 924 INTRA-LIGAND FREE ENERGY PREDICTED BY IDOCK:   -0.39 KCAL/MOL
REMARK 927      BINDING AFFINITY PREDICTED BY RF-SCORE:    0.00 PKD
ROOT
HETATM    1  C   UNL     1      -8.977  14.198  66.821  1.00  0.00    -0.229 C  
HETATM    2  C   UNL     1     -10.298  14.884  66.436  1.00  0.00    -0.286 C  
HETATM    3  O   UNL     1     -11.385  14.701  67.384  1.00  0.00    -0.328 OA 
HETATM    4  C   UNL     1      -9.996  16.402  66.442  1.00  0.00    -0.303 C  
HETATM    5  C   UNL     1     -10.771  14.557  65.015  1.00  0.00    -0.444 C  
HETATM    6  O   UNL     1     -10.797  17.112  67.272  1.00  0.00    -0.251 OA 
HETATM    7  O   UNL     1      -9.131  16.941  65.761  1.00  0.00    -0.523 OA 
ENDROOT
BRANCH   3   8
HETATM    8  C   UNL     1     -11.554  13.502  68.015  1.00  0.00    -0.337 A  
HETATM    9  C   UNL     1     -11.767  13.552  69.394  1.00  0.00    -0.381 A  
HETATM   10  C   UNL     1     -11.823  12.371  70.151  1.00  0.00    -0.341 A  
HETATM   11  C   UNL     1     -11.671  11.114  69.547  1.00  0.00    -0.405 A  
HETATM   12  C   UNL     1     -11.540  11.092  68.152  1.00  0.00    -0.345 A  
HETATM   13  C   UNL     1     -11.524  12.262  67.394  1.00  0.00    -0.422 A  
BRANCH  11  14
HETATM   14  C   UNL     1     -11.538   9.836  70.337  1.00  0.00    -0.327 C  
HETATM   15  C   UNL     1     -11.020   8.552  69.747  1.00  0.00    -0.131 C  
HETATM   16  C   UNL     1     -10.182   9.291  70.749  1.00  0.00    -0.286 C  
HETATM   17 CL   UNL     1     -10.059   8.666  72.392  1.00  0.00    -0.362 Cl 
HETATM   18 CL   UNL     1      -8.671   9.965  70.152  1.00  0.00    -0.203 Cl 
ENDBRANCH  11  14
ENDBRANCH   3   8
TORSDOF 2
ENDMDL
MODEL       22
REMARK 921   NORMALIZED FREE ENERGY PREDICTED BY IDOCK:   -5.20 KCAL/MOL
REMARK 922        TOTAL FREE ENERGY PREDICTED BY IDOCK:   -6.28 KCAL/MOL
REMARK 923 INTER-LIGAND FREE ENERGY PREDICTED BY IDOCK:   -5.71 KCAL/MOL
REMARK 924 INTRA-LIGAND FREE ENERGY PREDICTED BY IDOCK:   -0.57 KCAL/MOL
REMARK 927      BINDING AFFINITY PREDICTED BY RF-SCORE:    0.00 PKD
ROOT
HETATM    1  C   UNL     1      -7.761  16.675  68.269  1.00  0.00    -0.183 C  
HETATM    2  C   UNL     1      -8.511  17.844  67.610  1.00  0.00    -0.234 C  
HETATM    3  O   UNL     1      -9.926  17.611  67.374  1.00  0.00    -0.299 OA 
HETATM    4  C   UNL     1      -8.449  19.007  68.630  1.00  0.00    -0.359 C  
HETATM    5  C   UNL     1      -7.838  18.368  66.336  1.00  0.00    -0.291 C  
HETATM    6  O   UNL     1      -9.667  19.477  68.991  1.00  0.00    -0.412 OA 
HETATM    7  O   UNL     1      -7.412  19.486  69.074  1.00  0.00    -0.363 OA 
ENDROOT
BRANCH   3   8
HETATM    8  C   UNL     1     -10.364  16.381  66.969  1.00  0.00    -0.293 A  
HETATM    9  C   UNL     1     -11.177  15.688  67.867  1.00  0.00    -0.328 A  
HETATM   10  C   UNL     1     -11.571  14.367  67.601  1.00  0.00    -0.396 A  
HETATM   11  C   UNL     1     -11.164  13.711  66.429  1.00  0.00    -0.317 A  
HETATM   12  C   UNL     1     -10.416  14.460  65.510  1.00  0.00    -0.366 A  
HETATM   13  C   UNL     1     -10.057  15.785  65.755  1.00  0.00    -0.399 A  
BRANCH  11  14
HETATM   14  C   UNL     1     -11.403  12.242  66.186  1.00  0.00    -0.402 C  
HETATM   15  C   UNL     1     -10.795  11.486  65.036  1.00  0.00    -0.336 C  
HETATM   16  C   UNL     1     -10.321  11.207  66.432  1.00  0.00    -0.252 C  
HETATM   17 CL   UNL     1     -10.829   9.720  67.229  1.00  0.00    -0.305 Cl 
HETATM   18 CL   UNL     1      -8.654  11.646  66.789  1.00  0.00    -0.177 Cl 
ENDBRANCH  11  14
ENDBRANCH   3   8
TORSDOF 2
ENDMDL
MODEL       23
REMARK 921   NORMALIZED FREE ENERGY PREDICTED BY IDOCK:   -5.19 KCAL/MOL
REMARK 922        TOTAL FREE ENERGY PREDICTED BY IDOCK:   -6.28 KCAL/MOL
REMARK 923 INTER-LIGAND FREE ENERGY PREDICTED BY IDOCK:   -5.68 KCAL/MOL
REMARK 924 INTRA-LIGAND FREE ENERGY PREDICTED BY IDOCK:   -0.59 KCAL/MOL
REMARK 927      BINDING AFFINITY PREDICTED BY RF-SCORE:    0.00 PKD
ROOT
HETATM    1  C   UNL     1      -8.441  16.776  68.667  1.00  0.00    -0.259 C  
HETATM    2  C   UNL     1      -9.498  17.686  68.019  1.00  0.00    -0.282 C  
HETATM    3  O   UNL     1     -10.871  17.399  68.399  1.00  0.00    -0.336 OA 
HETATM    4  C   UNL     1      -9.209  19.108  68.557  1.00  0.00    -0.376 C  
HETATM    5  C   UNL     1      -9.376  17.782  66.494  1.00  0.00    -0.291 C  
HETATM    6  O   UNL     1     -10.266  19.676  69.186  1.00  0.00    -0.394 OA 
HETATM    7  O   UNL     1      -8.141  19.695  68.428  1.00  0.00    -0.330 OA 
ENDROOT
BRANCH   3   8
HETATM    8  C   UNL     1     -11.286  16.108  68.563  1.00  0.00    -0.359 A  
HETATM    9  C   UNL     1     -11.489  15.685  69.878  1.00  0.00    -0.344 A  
HETATM   10  C   UNL     1     -11.789  14.343  70.157  1.00  0.00    -0.380 A  
HETATM   11  C   UNL     1     -11.897  13.394  69.129  1.00  0.00    -0.383 A  
HETATM   12  C   UNL     1     -11.768  13.864  67.815  1.00  0.00    -0.401 A  
HETATM   13  C   UNL     1     -11.509  15.205  67.534  1.00  0.00    -0.306 A  
BRANCH  11  14
HETATM   14  C   UNL     1     -12.032  11.914  69.390  1.00  0.00    -0.350 C  
HETATM   15  C   UNL     1     -11.895  10.871  68.314  1.00  0.00    -0.157 C  
HETATM   16  C   UNL     1     -10.830  10.988  69.366  1.00  0.00    -0.231 C  
HETATM   17 CL   UNL     1     -10.751   9.778  70.644  1.00  0.00    -0.376 Cl 
HETATM   18 CL   UNL     1      -9.244  11.510  68.810  1.00  0.00    -0.127 Cl 
ENDBRANCH  11  14
ENDBRANCH   3   8
TORSDOF 2
ENDMDL
MODEL       24
REMARK 921   NORMALIZED FREE ENERGY PREDICTED BY IDOCK:   -5.18 KCAL/MOL
REMARK 922        TOTAL FREE ENERGY PREDICTED BY IDOCK:   -6.26 KCAL/MOL
REMARK 923 INTER-LIGAND FREE ENERGY PREDICTED BY IDOCK:   -5.76 KCAL/MOL
REMARK 924 INTRA-LIGAND FREE ENERGY PREDICTED BY IDOCK:   -0.50 KCAL/MOL
REMARK 927      BINDING AFFINITY PREDICTED BY RF-SCORE:    0.00 PKD
ROOT
HETATM    1  C   UNL     1      -9.689  18.100  68.372  1.00  0.00    -0.363 C  
HETATM    2  C   UNL     1      -9.259  18.506  66.953  1.00  0.00    -0.290 C  
HETATM    3  O   UNL     1      -9.688  17.601  65.898  1.00  0.00    -0.521 OA 
HETATM    4  C   UNL     1      -9.982  19.845  66.666  1.00  0.00    -0.457 C  
HETATM    5  C   UNL     1      -7.761  18.802  66.824  1.00  0.00    -0.252 C  
HETATM    6  O   UNL     1     -10.760  19.815  65.558  1.00  0.00    -0.479 OA 
HETATM    7  O   UNL     1      -9.867  20.855  67.350  1.00  0.00    -0.444 OA 
ENDROOT
BRANCH   3   8
HETATM    8  C   UNL     1      -9.686  16.251  66.106  1.00  0.00    -0.329 A  
HETATM    9  C   UNL     1     -10.926  15.614  66.047  1.00  0.00    -0.213 A  
HETATM   10  C   UNL     1     -11.047  14.254  66.374  1.00  0.00    -0.325 A  
HETATM   11  C   UNL     1      -9.930  13.500  66.763  1.00  0.00    -0.269 A  
HETATM   12  C   UNL     1      -8.687  14.145  66.734  1.00  0.00    -0.148 A  
HETATM   13  C   UNL     1      -8.560  15.486  66.372  1.00  0.00    -0.292 A  
BRANCH  11  14
HETATM   14  C   UNL     1     -10.037  12.094  67.300  1.00  0.00    -0.214 C  
HETATM   15  C   UNL     1     -11.335  11.338  67.379  1.00  0.00    -0.349 C  
HETATM   16  C   UNL     1     -10.294  10.909  66.387  1.00  0.00    -0.251 C  
HETATM   17 CL   UNL     1      -9.350   9.457  66.708  1.00  0.00    -0.188 Cl 
HETATM   18 CL   UNL     1     -10.715  11.097  64.688  1.00  0.00    -0.379 Cl 
ENDBRANCH  11  14
ENDBRANCH   3   8
TORSDOF 2
ENDMDL
MODEL       25
REMARK 921   NORMALIZED FREE ENERGY PREDICTED BY IDOCK:   -5.17 KCAL/MOL
REMARK 922        TOTAL FREE ENERGY PREDICTED BY IDOCK:   -6.25 KCAL/MOL
REMARK 923 INTER-LIGAND FREE ENERGY PREDICTED BY IDOCK:   -5.96 KCAL/MOL
REMARK 924 INTRA-LIGAND FREE ENERGY PREDICTED BY IDOCK:   -0.29 KCAL/MOL
REMARK 927      BINDING AFFINITY PREDICTED BY RF-SCORE:    0.00 PKD
ROOT
HETATM    1  C   UNL     1     -10.433  16.668  67.764  1.00  0.00    -0.316 C  
HETATM    2  C   UNL     1      -9.985  16.470  66.307  1.00  0.00    -0.329 C  
HETATM    3  O   UNL     1     -10.520  15.286  65.655  1.00  0.00    -0.307 OA 
HETATM    4  C   UNL     1     -10.571  17.671  65.525  1.00  0.00    -0.068 C  
HETATM    5  C   UNL     1      -8.466  16.545  66.113  1.00  0.00    -0.320 C  
HETATM    6  O   UNL     1     -11.365  17.309  64.489  1.00  0.00    -1.007 OA 
HETATM    7  O   UNL     1     -10.344  18.847  65.786  1.00  0.00    -0.549 OA 
ENDROOT
BRANCH   3   8
HETATM    8  C   UNL     1     -10.653  14.117  66.351  1.00  0.00    -0.280 A  
HETATM    9  C   UNL     1      -9.609  13.200  66.224  1.00  0.00    -0.241 A  
HETATM   10  C   UNL     1      -9.709  11.921  66.794  1.00  0.00    -0.218 A  
HETATM   11  C   UNL     1     -10.855  11.531  67.505  1.00  0.00    -0.285 A  
HETATM   12  C   UNL     1     -11.851  12.500  67.684  1.00  0.00    -0.381 A  
HETATM   13  C   UNL     1     -11.735  13.785  67.152  1.00  0.00    -0.417 A  
BRANCH  11  14
HETATM   14  C   UNL     1     -11.088  10.116  67.972  1.00  0.00    -0.302 C  
HETATM   15  C   UNL     1     -10.203   8.963  67.583  1.00  0.00    -0.296 C  
HETATM   16  C   UNL     1     -10.187   9.457  69.000  1.00  0.00    -0.205 C  
HETATM   17 CL   UNL     1     -10.991   8.508  70.248  1.00  0.00    -0.247 Cl 
HETATM   18 CL   UNL     1      -8.685  10.190  69.550  1.00  0.00    -0.194 Cl 
ENDBRANCH  11  14
ENDBRANCH   3   8
TORSDOF 2
ENDMDL
MODEL       26
REMARK 921   NORMALIZED FREE ENERGY PREDICTED BY IDOCK:   -5.10 KCAL/MOL
REMARK 922        TOTAL FREE ENERGY PREDICTED BY IDOCK:   -6.17 KCAL/MOL
REMARK 923 INTER-LIGAND FREE ENERGY PREDICTED BY IDOCK:   -5.70 KCAL/MOL
REMARK 924 INTRA-LIGAND FREE ENERGY PREDICTED BY IDOCK:   -0.47 KCAL/MOL
REMARK 927      BINDING AFFINITY PREDICTED BY RF-SCORE:    0.00 PKD
ROOT
HETATM    1  C   UNL     1     -12.876   7.304  71.229  1.00  0.00    -0.391 C  
HETATM    2  C   UNL     1     -11.348   7.145  71.290  1.00  0.00    -0.268 C  
HETATM    3  O   UNL     1     -10.597   8.387  71.199  1.00  0.00    -0.204 OA 
HETATM    4  C   UNL     1     -11.043   6.582  72.699  1.00  0.00    -0.257 C  
HETATM    5  C   UNL     1     -10.795   6.115  70.298  1.00  0.00    -0.385 C  
HETATM    6  O   UNL     1     -10.190   7.350  73.418  1.00  0.00    -0.293 OA 
HETATM    7  O   UNL     1     -11.504   5.536  73.143  1.00  0.00    -0.266 OA 
ENDROOT
BRANCH   3   8
HETATM    8  C   UNL     1     -11.011   9.383  70.360  1.00  0.00    -0.266 A  
HETATM    9  C   UNL     1     -10.646   9.255  69.019  1.00  0.00    -0.225 A  
HETATM   10  C   UNL     1     -10.911  10.287  68.105  1.00  0.00    -0.328 A  
HETATM   11  C   UNL     1     -11.550  11.469  68.511  1.00  0.00    -0.377 A  
HETATM   12  C   UNL     1     -11.976  11.535  69.844  1.00  0.00    -0.426 A  
HETATM   13  C   UNL     1     -11.748  10.494  70.744  1.00  0.00    -0.454 A  
BRANCH  11  14
HETATM   14  C   UNL     1     -11.689  12.675  67.615  1.00  0.00    -0.420 C  
HETATM   15  C   UNL     1     -11.742  14.085  68.134  1.00  0.00    -0.387 C  
HETATM   16  C   UNL     1     -10.531  13.627  67.375  1.00  0.00    -0.251 C  
HETATM   17 CL   UNL     1     -10.301  14.173  65.717  1.00  0.00    -0.321 Cl 
HETATM   18 CL   UNL     1      -9.029  13.539  68.288  1.00  0.00    -0.186 Cl 
ENDBRANCH  11  14
ENDBRANCH   3   8
TORSDOF 2
ENDMDL
MODEL       27
REMARK 921   NORMALIZED FREE ENERGY PREDICTED BY IDOCK:   -5.09 KCAL/MOL
REMARK 922        TOTAL FREE ENERGY PREDICTED BY IDOCK:   -6.17 KCAL/MOL
REMARK 923 INTER-LIGAND FREE ENERGY PREDICTED BY IDOCK:   -5.72 KCAL/MOL
REMARK 924 INTRA-LIGAND FREE ENERGY PREDICTED BY IDOCK:   -0.45 KCAL/MOL
REMARK 927      BINDING AFFINITY PREDICTED BY RF-SCORE:    0.00 PKD
ROOT
HETATM    1  C   UNL     1     -12.088  14.994  64.439  1.00  0.00    -0.373 C  
HETATM    2  C   UNL     1     -11.300  13.887  65.159  1.00  0.00    -0.318 C  
HETATM    3  O   UNL     1     -10.721  14.275  66.435  1.00  0.00    -0.291 OA 
HETATM    4  C   UNL     1     -12.338  12.788  65.494  1.00  0.00    -0.434 C  
HETATM    5  C   UNL     1     -10.243  13.211  64.279  1.00  0.00    -0.283 C  
HETATM    6  O   UNL     1     -12.406  12.491  66.813  1.00  0.00    -0.457 OA 
HETATM    7  O   UNL     1     -13.034  12.215  64.664  1.00  0.00    -0.651 OA 
ENDROOT
BRANCH   3   8
HETATM    8  C   UNL     1     -10.188  15.522  66.599  1.00  0.00    -0.276 A  
HETATM    9  C   UNL     1      -8.929  15.736  66.035  1.00  0.00    -0.322 A  
HETATM   10  C   UNL     1      -8.242  16.939  66.259  1.00  0.00    -0.344 A  
HETATM   11  C   UNL     1      -8.799  17.957  67.048  1.00  0.00    -0.256 A  
HETATM   12  C   UNL     1     -10.096  17.746  67.534  1.00  0.00    -0.340 A  
HETATM   13  C   UNL     1     -10.796  16.567  67.279  1.00  0.00    -0.173 A  
BRANCH  11  14
HETATM   14  C   UNL     1      -8.027  19.183  67.469  1.00  0.00    -0.284 C  
HETATM   15  C   UNL     1      -8.139  19.799  68.837  1.00  0.00    -0.190 C  
HETATM   16  C   UNL     1      -6.870  19.100  68.447  1.00  0.00    -0.265 C  
HETATM   17 CL   UNL     1      -5.446  20.061  68.057  1.00  0.00    -0.212 Cl 
HETATM   18 CL   UNL     1      -6.487  17.631  69.338  1.00  0.00    -0.250 Cl 
ENDBRANCH  11  14
ENDBRANCH   3   8
TORSDOF 2
ENDMDL
MODEL       28
REMARK 921   NORMALIZED FREE ENERGY PREDICTED BY IDOCK:   -5.06 KCAL/MOL
REMARK 922        TOTAL FREE ENERGY PREDICTED BY IDOCK:   -6.13 KCAL/MOL
REMARK 923 INTER-LIGAND FREE ENERGY PREDICTED BY IDOCK:   -5.71 KCAL/MOL
REMARK 924 INTRA-LIGAND FREE ENERGY PREDICTED BY IDOCK:   -0.42 KCAL/MOL
REMARK 927      BINDING AFFINITY PREDICTED BY RF-SCORE:    0.00 PKD
ROOT
HETATM    1  C   UNL     1      -9.670  19.594  67.800  1.00  0.00    -0.481 C  
HETATM    2  C   UNL     1      -8.263  19.065  67.477  1.00  0.00    -0.276 C  
HETATM    3  O   UNL     1      -8.228  17.914  66.589  1.00  0.00    -0.237 OA 
HETATM    4  C   UNL     1      -7.558  20.205  66.703  1.00  0.00    -0.280 C  
HETATM    5  C   UNL     1      -7.402  18.806  68.718  1.00  0.00    -0.342 C  
HETATM    6  O   UNL     1      -7.107  19.833  65.481  1.00  0.00    -0.300 OA 
HETATM    7  O   UNL     1      -7.395  21.340  67.135  1.00  0.00    -0.454 OA 
ENDROOT
BRANCH   3   8
HETATM    8  C   UNL     1      -9.171  16.932  66.696  1.00  0.00    -0.256 A  
HETATM    9  C   UNL     1      -9.086  16.114  67.824  1.00  0.00    -0.197 A  
HETATM   10  C   UNL     1      -9.927  14.998  67.961  1.00  0.00    -0.219 A  
HETATM   11  C   UNL     1     -10.872  14.676  66.975  1.00  0.00    -0.304 A  
HETATM   12  C   UNL     1     -10.989  15.561  65.895  1.00  0.00    -0.264 A  
HETATM   13  C   UNL     1     -10.182  16.692  65.777  1.00  0.00    -0.328 A  
BRANCH  11  14
HETATM   14  C   UNL     1     -11.664  13.392  66.987  1.00  0.00    -0.426 C  
HETATM   15  C   UNL     1     -12.021  12.633  65.738  1.00  0.00    -0.503 C  
HETATM   16  C   UNL     1     -11.014  12.053  66.688  1.00  0.00    -0.287 C  
HETATM   17 CL   UNL     1     -11.487  10.708  67.723  1.00  0.00    -0.327 Cl 
HETATM   18 CL   UNL     1      -9.367  11.914  66.085  1.00  0.00    -0.231 Cl 
ENDBRANCH  11  14
ENDBRANCH   3   8
TORSDOF 2
ENDMDL
MODEL       29
REMARK 921   NORMALIZED FREE ENERGY PREDICTED BY IDOCK:   -5.05 KCAL/MOL
REMARK 922        TOTAL FREE ENERGY PREDICTED BY IDOCK:   -6.12 KCAL/MOL
REMARK 923 INTER-LIGAND FREE ENERGY PREDICTED BY IDOCK:   -5.69 KCAL/MOL
REMARK 924 INTRA-LIGAND FREE ENERGY PREDICTED BY IDOCK:   -0.43 KCAL/MOL
REMARK 927      BINDING AFFINITY PREDICTED BY RF-SCORE:    0.00 PKD
ROOT
HETATM    1  C   UNL     1     -12.470  13.670  65.964  1.00  0.00    -0.477 C  
HETATM    2  C   UNL     1     -11.788  14.000  64.626  1.00  0.00    -0.417 C  
HETATM    3  O   UNL     1     -10.362  14.273  64.713  1.00  0.00    -0.433 OA 
HETATM    4  C   UNL     1     -11.911  12.717  63.768  1.00  0.00    -0.510 C  
HETATM    5  C   UNL     1     -12.493  15.105  63.830  1.00  0.00     0.277 C  
HETATM    6  O   UNL     1     -10.720  12.235  63.340  1.00  0.00    -0.446 OA 
HETATM    7  O   UNL     1     -12.971  12.176  63.477  1.00  0.00    -0.794 OA 
ENDROOT
BRANCH   3   8
HETATM    8  C   UNL     1      -9.858  14.973  65.772  1.00  0.00    -0.353 A  
HETATM    9  C   UNL     1     -10.136  16.341  65.798  1.00  0.00    -0.373 A  
HETATM   10  C   UNL     1      -9.556  17.169  66.772  1.00  0.00    -0.279 A  
HETATM   11  C   UNL     1      -8.688  16.648  67.744  1.00  0.00    -0.201 A  
HETATM   12  C   UNL     1      -8.493  15.260  67.741  1.00  0.00    -0.158 A  
HETATM   13  C   UNL     1      -9.100  14.431  66.799  1.00  0.00    -0.278 A  
BRANCH  11  14
HETATM   14  C   UNL     1      -7.899  17.519  68.689  1.00  0.00    -0.272 C  
HETATM   15  C   UNL     1      -6.492  17.204  69.119  1.00  0.00    -0.223 C  
HETATM   16  C   UNL     1      -6.739  18.371  68.207  1.00  0.00    -0.224 C  
HETATM   17 CL   UNL     1      -6.646  20.004  68.861  1.00  0.00    -0.350 Cl 
HETATM   18 CL   UNL     1      -6.079  18.239  66.581  1.00  0.00    -0.180 Cl 
ENDBRANCH  11  14
ENDBRANCH   3   8
TORSDOF 2
ENDMDL
MODEL       30
REMARK 921   NORMALIZED FREE ENERGY PREDICTED BY IDOCK:   -5.03 KCAL/MOL
REMARK 922        TOTAL FREE ENERGY PREDICTED BY IDOCK:   -6.10 KCAL/MOL
REMARK 923 INTER-LIGAND FREE ENERGY PREDICTED BY IDOCK:   -5.88 KCAL/MOL
REMARK 924 INTRA-LIGAND FREE ENERGY PREDICTED BY IDOCK:   -0.22 KCAL/MOL
REMARK 927      BINDING AFFINITY PREDICTED BY RF-SCORE:    0.00 PKD
ROOT
HETATM    1  C   UNL     1      -9.232  14.044  68.221  1.00  0.00    -0.200 C  
HETATM    2  C   UNL     1     -10.562  14.526  67.618  1.00  0.00    -0.251 C  
HETATM    3  O   UNL     1     -11.754  14.057  68.306  1.00  0.00    -0.316 OA 
HETATM    4  C   UNL     1     -10.563  16.064  67.792  1.00  0.00    -0.309 C  
HETATM    5  C   UNL     1     -10.682  14.274  66.111  1.00  0.00    -0.295 C  
HETATM    6  O   UNL     1     -11.630  16.530  68.485  1.00  0.00    -0.252 OA 
HETATM    7  O   UNL     1      -9.704  16.814  67.344  1.00  0.00    -0.239 OA 
ENDROOT
BRANCH   3   8
HETATM    8  C   UNL     1     -11.807  12.785  68.803  1.00  0.00    -0.307 A  
HETATM    9  C   UNL     1     -12.092  12.665  70.164  1.00  0.00    -0.368 A  
HETATM   10  C   UNL     1     -12.042  11.413  70.797  1.00  0.00    -0.433 A  
HETATM   11  C   UNL     1     -11.709  10.252  70.081  1.00  0.00    -0.364 A  
HETATM   12  C   UNL     1     -11.508  10.392  68.702  1.00  0.00    -0.238 A  
HETATM   13  C   UNL     1     -11.596  11.630  68.065  1.00  0.00    -0.383 A  
BRANCH  11  14
HETATM   14  C   UNL     1     -11.460   8.922  70.748  1.00  0.00    -0.319 C  
HETATM   15  C   UNL     1     -11.077   8.784  72.196  1.00  0.00    -0.406 C  
HETATM   16  C   UNL     1     -12.439   8.337  71.749  1.00  0.00    -0.332 C  
HETATM   17 CL   UNL     1     -12.769   6.613  71.602  1.00  0.00    -0.353 Cl 
HETATM   18 CL   UNL     1     -13.803   9.250  72.383  1.00  0.00    -0.512 Cl 
ENDBRANCH  11  14
ENDBRANCH   3   8
TORSDOF 2
ENDMDL
MODEL       31
REMARK 921   NORMALIZED FREE ENERGY PREDICTED BY IDOCK:   -5.02 KCAL/MOL
REMARK 922        TOTAL FREE ENERGY PREDICTED BY IDOCK:   -6.08 KCAL/MOL
REMARK 923 INTER-LIGAND FREE ENERGY PREDICTED BY IDOCK:   -5.58 KCAL/MOL
REMARK 924 INTRA-LIGAND FREE ENERGY PREDICTED BY IDOCK:   -0.50 KCAL/MOL
REMARK 927      BINDING AFFINITY PREDICTED BY RF-SCORE:    0.00 PKD
ROOT
HETATM    1  C   UNL     1     -11.829  12.039  65.342  1.00  0.00    -0.258 C  
HETATM    2  C   UNL     1     -10.378  12.543  65.389  1.00  0.00    -0.282 C  
HETATM    3  O   UNL     1      -9.775  12.559  66.713  1.00  0.00    -0.221 OA 
HETATM    4  C   UNL     1      -9.554  11.518  64.573  1.00  0.00    -0.154 C  
HETATM    5  C   UNL     1     -10.171  13.894  64.695  1.00  0.00    -0.278 C  
HETATM    6  O   UNL     1      -8.538  10.958  65.273  1.00  0.00    -0.172 OA 
HETATM    7  O   UNL     1      -9.768  11.231  63.401  1.00  0.00    -0.289 OA 
ENDROOT
BRANCH   3   8
HETATM    8  C   UNL     1     -10.516  12.918  67.803  1.00  0.00    -0.220 A  
HETATM    9  C   UNL     1     -10.938  11.880  68.634  1.00  0.00    -0.271 A  
HETATM   10  C   UNL     1     -11.811  12.132  69.705  1.00  0.00    -0.391 A  
HETATM   11  C   UNL     1     -12.277  13.429  69.970  1.00  0.00    -0.367 A  
HETATM   12  C   UNL     1     -11.772  14.462  69.169  1.00  0.00    -0.354 A  
HETATM   13  C   UNL     1     -10.875  14.218  68.130  1.00  0.00    -0.253 A  
BRANCH  11  14
HETATM   14  C   UNL     1     -13.354  13.720  70.986  1.00  0.00    -0.154 C  
HETATM   15  C   UNL     1     -13.338  13.170  72.386  1.00  0.00    -0.591 C  
HETATM   16  C   UNL     1     -13.106  14.637  72.170  1.00  0.00    -0.347 C  
HETATM   17 CL   UNL     1     -14.394  15.775  72.559  1.00  0.00    -0.487 Cl 
HETATM   18 CL   UNL     1     -11.505  15.239  72.581  1.00  0.00    -0.489 Cl 
ENDBRANCH  11  14
ENDBRANCH   3   8
TORSDOF 2
ENDMDL
MODEL       32
REMARK 921   NORMALIZED FREE ENERGY PREDICTED BY IDOCK:   -5.00 KCAL/MOL
REMARK 922        TOTAL FREE ENERGY PREDICTED BY IDOCK:   -6.06 KCAL/MOL
REMARK 923 INTER-LIGAND FREE ENERGY PREDICTED BY IDOCK:   -5.52 KCAL/MOL
REMARK 924 INTRA-LIGAND FREE ENERGY PREDICTED BY IDOCK:   -0.54 KCAL/MOL
REMARK 927      BINDING AFFINITY PREDICTED BY RF-SCORE:    0.00 PKD
ROOT
HETATM    1  C   UNL     1     -12.194  14.017  66.591  1.00  0.00    -0.463 C  
HETATM    2  C   UNL     1     -11.181  13.811  65.452  1.00  0.00    -0.302 C  
HETATM    3  O   UNL     1     -10.611  12.476  65.371  1.00  0.00    -0.268 OA 
HETATM    4  C   UNL     1     -11.984  13.998  64.142  1.00  0.00    -0.408 C  
HETATM    5  C   UNL     1     -10.070  14.867  65.417  1.00  0.00    -0.400 C  
HETATM    6  O   UNL     1     -11.924  12.929  63.312  1.00  0.00    -0.555 OA 
HETATM    7  O   UNL     1     -12.611  15.009  63.850  1.00  0.00    -0.813 OA 
ENDROOT
BRANCH   3   8
HETATM    8  C   UNL     1     -10.302  11.788  66.510  1.00  0.00    -0.223 A  
HETATM    9  C   UNL     1     -11.138  10.718  66.832  1.00  0.00    -0.204 A  
HETATM   10  C   UNL     1     -10.983  10.031  68.046  1.00  0.00    -0.296 A  
HETATM   11  C   UNL     1      -9.986  10.396  68.964  1.00  0.00    -0.224 A  
HETATM   12  C   UNL     1      -9.111  11.420  68.577  1.00  0.00    -0.169 A  
HETATM   13  C   UNL     1      -9.240  12.077  67.353  1.00  0.00    -0.180 A  
BRANCH  11  14
HETATM   14  C   UNL     1      -9.898   9.815  70.354  1.00  0.00    -0.269 C  
HETATM   15  C   UNL     1     -10.753   8.670  70.824  1.00  0.00    -0.260 C  
HETATM   16  C   UNL     1      -9.283   8.452  70.610  1.00  0.00    -0.156 C  
HETATM   17 CL   UNL     1      -8.223   8.325  72.011  1.00  0.00    -0.191 Cl 
HETATM   18 CL   UNL     1      -8.843   7.352  69.309  1.00  0.00    -0.137 Cl 
ENDBRANCH  11  14
ENDBRANCH   3   8
TORSDOF 2
ENDMDL
MODEL       33
REMARK 921   NORMALIZED FREE ENERGY PREDICTED BY IDOCK:   -4.98 KCAL/MOL
REMARK 922        TOTAL FREE ENERGY PREDICTED BY IDOCK:   -6.04 KCAL/MOL
REMARK 923 INTER-LIGAND FREE ENERGY PREDICTED BY IDOCK:   -5.62 KCAL/MOL
REMARK 924 INTRA-LIGAND FREE ENERGY PREDICTED BY IDOCK:   -0.42 KCAL/MOL
REMARK 927      BINDING AFFINITY PREDICTED BY RF-SCORE:    0.00 PKD
ROOT
HETATM    1  C   UNL     1      -9.472   9.185  71.069  1.00  0.00    -0.344 C  
HETATM    2  C   UNL     1     -10.786   8.400  71.218  1.00  0.00    -0.230 C  
HETATM    3  O   UNL     1     -11.910   8.934  70.466  1.00  0.00    -0.190 OA 
HETATM    4  C   UNL     1     -10.507   7.004  70.608  1.00  0.00    -0.210 C  
HETATM    5  C   UNL     1     -11.192   8.147  72.675  1.00  0.00    -0.447 C  
HETATM    6  O   UNL     1     -11.355   6.672  69.605  1.00  0.00    -0.335 OA 
HETATM    7  O   UNL     1      -9.621   6.246  70.986  1.00  0.00    -0.173 OA 
ENDROOT
BRANCH   3   8
HETATM    8  C   UNL     1     -12.089  10.284  70.360  1.00  0.00    -0.286 A  
HETATM    9  C   UNL     1     -11.771  10.855  69.127  1.00  0.00    -0.397 A  
HETATM   10  C   UNL     1     -11.797  12.248  68.957  1.00  0.00    -0.358 A  
HETATM   11  C   UNL     1     -12.144  13.102  70.016  1.00  0.00    -0.375 A  
HETATM   12  C   UNL     1     -12.536  12.496  71.217  1.00  0.00    -0.332 A  
HETATM   13  C   UNL     1     -12.549  11.110  71.375  1.00  0.00    -0.479 A  
BRANCH  11  14
HETATM   14  C   UNL     1     -12.007  14.602  69.938  1.00  0.00    -0.381 C  
HETATM   15  C   UNL     1     -11.114  15.396  70.852  1.00  0.00    -0.374 C  
HETATM   16  C   UNL     1     -10.749  15.260  69.402  1.00  0.00    -0.265 C  
HETATM   17 CL   UNL     1     -10.985  16.635  68.326  1.00  0.00    -0.359 Cl 
HETATM   18 CL   UNL     1      -9.281  14.354  69.053  1.00  0.00    -0.081 Cl 
ENDBRANCH  11  14
ENDBRANCH   3   8
TORSDOF 2
ENDMDL
MODEL       34
REMARK 921   NORMALIZED FREE ENERGY PREDICTED BY IDOCK:   -4.98 KCAL/MOL
REMARK 922        TOTAL FREE ENERGY PREDICTED BY IDOCK:   -6.03 KCAL/MOL
REMARK 923 INTER-LIGAND FREE ENERGY PREDICTED BY IDOCK:   -5.51 KCAL/MOL
REMARK 924 INTRA-LIGAND FREE ENERGY PREDICTED BY IDOCK:   -0.52 KCAL/MOL
REMARK 927      BINDING AFFINITY PREDICTED BY RF-SCORE:    0.00 PKD
ROOT
HETATM    1  C   UNL     1     -11.128  13.401  66.626  1.00  0.00    -0.310 C  
HETATM    2  C   UNL     1     -10.582  12.937  67.986  1.00  0.00    -0.227 C  
HETATM    3  O   UNL     1     -10.405  13.992  68.970  1.00  0.00    -0.214 OA 
HETATM    4  C   UNL     1     -11.669  12.003  68.573  1.00  0.00    -0.332 C  
HETATM    5  C   UNL     1      -9.311  12.086  67.883  1.00  0.00    -0.190 C  
HETATM    6  O   UNL     1     -12.121  12.394  69.789  1.00  0.00    -0.285 OA 
HETATM    7  O   UNL     1     -12.089  10.993  68.020  1.00  0.00    -0.615 OA 
ENDROOT
BRANCH   3   8
HETATM    8  C   UNL     1      -9.948  15.221  68.588  1.00  0.00    -0.216 A  
HETATM    9  C   UNL     1     -10.886  16.254  68.575  1.00  0.00    -0.330 A  
HETATM   10  C   UNL     1     -10.546  17.521  68.074  1.00  0.00    -0.384 A  
HETATM   11  C   UNL     1      -9.260  17.784  67.579  1.00  0.00    -0.244 A  
HETATM   12  C   UNL     1      -8.317  16.752  67.680  1.00  0.00    -0.191 A  
HETATM   13  C   UNL     1      -8.643  15.506  68.214  1.00  0.00    -0.161 A  
BRANCH  11  14
HETATM   14  C   UNL     1      -8.903  19.064  66.864  1.00  0.00    -0.314 C  
HETATM   15  C   UNL     1      -9.301  20.426  67.363  1.00  0.00    -0.536 C  
HETATM   16  C   UNL     1      -7.858  20.018  67.412  1.00  0.00    -0.295 C  
HETATM   17 CL   UNL     1      -6.734  20.701  66.240  1.00  0.00    -0.287 Cl 
HETATM   18 CL   UNL     1      -7.156  19.834  69.016  1.00  0.00    -0.378 Cl 
ENDBRANCH  11  14
ENDBRANCH   3   8
TORSDOF 2
ENDMDL
MODEL       35
REMARK 921   NORMALIZED FREE ENERGY PREDICTED BY IDOCK:   -4.95 KCAL/MOL
REMARK 922        TOTAL FREE ENERGY PREDICTED BY IDOCK:   -6.00 KCAL/MOL
REMARK 923 INTER-LIGAND FREE ENERGY PREDICTED BY IDOCK:   -5.48 KCAL/MOL
REMARK 924 INTRA-LIGAND FREE ENERGY PREDICTED BY IDOCK:   -0.53 KCAL/MOL
REMARK 927      BINDING AFFINITY PREDICTED BY RF-SCORE:    0.00 PKD
ROOT
HETATM    1  C   UNL     1      -9.153  10.129  69.274  1.00  0.00    -0.208 C  
HETATM    2  C   UNL     1     -10.439   9.338  68.985  1.00  0.00    -0.216 C  
HETATM    3  O   UNL     1     -11.472  10.081  68.282  1.00  0.00    -0.131 OA 
HETATM    4  C   UNL     1     -10.021   8.201  68.021  1.00  0.00    -0.184 C  
HETATM    5  C   UNL     1     -11.028   8.645  70.219  1.00  0.00    -0.251 C  
HETATM    6  O   UNL     1     -10.709   8.198  66.854  1.00  0.00    -0.309 OA 
HETATM    7  O   UNL     1      -9.163   7.362  68.269  1.00  0.00    -0.138 OA 
ENDROOT
BRANCH   3   8
HETATM    8  C   UNL     1     -11.692  11.398  68.572  1.00  0.00    -0.318 A  
HETATM    9  C   UNL     1     -11.597  12.291  67.504  1.00  0.00    -0.422 A  
HETATM   10  C   UNL     1     -11.678  13.676  67.722  1.00  0.00    -0.397 A  
HETATM   11  C   UNL     1     -11.860  14.198  69.012  1.00  0.00    -0.384 A  
HETATM   12  C   UNL     1     -12.032  13.275  70.052  1.00  0.00    -0.399 A  
HETATM   13  C   UNL     1     -11.992  11.898  69.831  1.00  0.00    -0.398 A  
BRANCH  11  14
HETATM   14  C   UNL     1     -11.766  15.672  69.320  1.00  0.00    -0.388 C  
HETATM   15  C   UNL     1     -11.335  16.208  70.658  1.00  0.00    -0.394 C  
HETATM   16  C   UNL     1     -10.428  16.371  69.473  1.00  0.00    -0.301 C  
HETATM   17 CL   UNL     1     -10.284  17.954  68.714  1.00  0.00    -0.376 Cl 
HETATM   18 CL   UNL     1      -8.904  15.494  69.535  1.00  0.00    -0.264 Cl 
ENDBRANCH  11  14
ENDBRANCH   3   8
TORSDOF 2
ENDMDL
MODEL       36
REMARK 921   NORMALIZED FREE ENERGY PREDICTED BY IDOCK:   -4.93 KCAL/MOL
REMARK 922        TOTAL FREE ENERGY PREDICTED BY IDOCK:   -5.98 KCAL/MOL
REMARK 923 INTER-LIGAND FREE ENERGY PREDICTED BY IDOCK:   -5.62 KCAL/MOL
REMARK 924 INTRA-LIGAND FREE ENERGY PREDICTED BY IDOCK:   -0.37 KCAL/MOL
REMARK 927      BINDING AFFINITY PREDICTED BY RF-SCORE:    0.00 PKD
ROOT
HETATM    1  C   UNL     1     -12.146  13.111  63.541  1.00  0.00    -0.585 C  
HETATM    2  C   UNL     1     -11.882  13.840  64.869  1.00  0.00    -0.375 C  
HETATM    3  O   UNL     1     -10.756  13.333  65.635  1.00  0.00    -0.275 OA 
HETATM    4  C   UNL     1     -11.497  15.288  64.478  1.00  0.00    -0.315 C  
HETATM    5  C   UNL     1     -13.122  13.963  65.762  1.00  0.00    -0.139 C  
HETATM    6  O   UNL     1     -10.286  15.673  64.949  1.00  0.00    -0.441 OA 
HETATM    7  O   UNL     1     -12.205  16.041  63.820  1.00  0.00    -0.895 OA 
ENDROOT
BRANCH   3   8
HETATM    8  C   UNL     1     -10.508  11.990  65.689  1.00  0.00    -0.256 A  
HETATM    9  C   UNL     1     -10.941  11.327  66.839  1.00  0.00    -0.348 A  
HETATM   10  C   UNL     1     -10.620   9.976  67.047  1.00  0.00    -0.279 A  
HETATM   11  C   UNL     1      -9.862   9.258  66.110  1.00  0.00    -0.363 A  
HETATM   12  C   UNL     1      -9.511   9.927  64.930  1.00  0.00    -0.355 A  
HETATM   13  C   UNL     1      -9.863  11.258  64.703  1.00  0.00    -0.314 A  
BRANCH  11  14
HETATM   14  C   UNL     1      -9.336   7.869  66.373  1.00  0.00    -0.247 C  
HETATM   15  C   UNL     1      -8.181   7.268  65.618  1.00  0.00    -0.138 C  
HETATM   16  C   UNL     1      -8.004   7.638  67.062  1.00  0.00    -0.116 C  
HETATM   17 CL   UNL     1      -7.963   6.362  68.276  1.00  0.00    -0.105 Cl 
HETATM   18 CL   UNL     1      -6.872   8.944  67.395  1.00  0.00    -0.070 Cl 
ENDBRANCH  11  14
ENDBRANCH   3   8
TORSDOF 2
ENDMDL
MODEL       37
REMARK 921   NORMALIZED FREE ENERGY PREDICTED BY IDOCK:   -4.91 KCAL/MOL
REMARK 922        TOTAL FREE ENERGY PREDICTED BY IDOCK:   -5.96 KCAL/MOL
REMARK 923 INTER-LIGAND FREE ENERGY PREDICTED BY IDOCK:   -5.53 KCAL/MOL
REMARK 924 INTRA-LIGAND FREE ENERGY PREDICTED BY IDOCK:   -0.43 KCAL/MOL
REMARK 927      BINDING AFFINITY PREDICTED BY RF-SCORE:    0.00 PKD
ROOT
HETATM    1  C   UNL     1      -9.899  11.770  65.810  1.00  0.00    -0.267 C  
HETATM    2  C   UNL     1     -10.088  11.793  67.336  1.00  0.00    -0.195 C  
HETATM    3  O   UNL     1     -10.649  13.026  67.866  1.00  0.00    -0.221 OA 
HETATM    4  C   UNL     1     -11.138  10.697  67.642  1.00  0.00    -0.319 C  
HETATM    5  C   UNL     1      -8.831  11.400  68.119  1.00  0.00    -0.162 C  
HETATM    6  O   UNL     1     -12.227  11.158  68.303  1.00  0.00    -0.613 OA 
HETATM    7  O   UNL     1     -11.016   9.516  67.340  1.00  0.00    -0.232 OA 
ENDROOT
BRANCH   3   8
HETATM    8  C   UNL     1     -10.282  14.232  67.341  1.00  0.00    -0.247 A  
HETATM    9  C   UNL     1      -9.113  14.799  67.852  1.00  0.00    -0.183 A  
HETATM   10  C   UNL     1      -8.721  16.092  67.472  1.00  0.00    -0.195 A  
HETATM   11  C   UNL     1      -9.488  16.847  66.571  1.00  0.00    -0.296 A  
HETATM   12  C   UNL     1     -10.612  16.221  66.014  1.00  0.00    -0.288 A  
HETATM   13  C   UNL     1     -10.979  14.921  66.360  1.00  0.00    -0.336 A  
BRANCH  11  14
HETATM   14  C   UNL     1      -9.213  18.301  66.277  1.00  0.00    -0.216 C  
HETATM   15  C   UNL     1     -10.293  19.344  66.192  1.00  0.00    -0.595 C  
HETATM   16  C   UNL     1      -9.338  19.368  67.349  1.00  0.00    -0.315 C  
HETATM   17 CL   UNL     1      -8.068  20.588  67.387  1.00  0.00    -0.369 Cl 
HETATM   18 CL   UNL     1     -10.028  19.040  68.934  1.00  0.00    -0.480 Cl 
ENDBRANCH  11  14
ENDBRANCH   3   8
TORSDOF 2
ENDMDL
MODEL       38
REMARK 921   NORMALIZED FREE ENERGY PREDICTED BY IDOCK:   -4.89 KCAL/MOL
REMARK 922        TOTAL FREE ENERGY PREDICTED BY IDOCK:   -5.93 KCAL/MOL
REMARK 923 INTER-LIGAND FREE ENERGY PREDICTED BY IDOCK:   -5.53 KCAL/MOL
REMARK 924 INTRA-LIGAND FREE ENERGY PREDICTED BY IDOCK:   -0.40 KCAL/MOL
REMARK 927      BINDING AFFINITY PREDICTED BY RF-SCORE:    0.00 PKD
ROOT
HETATM    1  C   UNL     1     -11.751  13.294  63.947  1.00  0.00    -0.486 C  
HETATM    2  C   UNL     1     -11.734  14.216  65.178  1.00  0.00    -0.361 C  
HETATM    3  O   UNL     1     -10.780  13.843  66.211  1.00  0.00    -0.282 OA 
HETATM    4  C   UNL     1     -11.261  15.595  64.658  1.00  0.00    -0.369 C  
HETATM    5  C   UNL     1     -13.118  14.451  65.792  1.00  0.00     0.149 C  
HETATM    6  O   UNL     1     -10.156  16.062  65.288  1.00  0.00    -0.475 OA 
HETATM    7  O   UNL     1     -11.820  16.232  63.774  1.00  0.00    -0.955 OA 
ENDROOT
BRANCH   3   8
HETATM    8  C   UNL     1     -10.566  12.527  66.509  1.00  0.00    -0.242 A  
HETATM    9  C   UNL     1      -9.429  11.943  65.949  1.00  0.00    -0.227 A  
HETATM   10  C   UNL     1      -9.191  10.567  66.089  1.00  0.00    -0.197 A  
HETATM   11  C   UNL     1     -10.083   9.744  66.795  1.00  0.00    -0.295 A  
HETATM   12  C   UNL     1     -11.172  10.373  67.414  1.00  0.00    -0.205 A  
HETATM   13  C   UNL     1     -11.388  11.746  67.309  1.00  0.00    -0.379 A  
BRANCH  11  14
HETATM   14  C   UNL     1      -9.970   8.240  66.815  1.00  0.00    -0.355 C  
HETATM   15  C   UNL     1      -8.757   7.511  67.325  1.00  0.00    -0.121 C  
HETATM   16  C   UNL     1     -10.035   7.453  68.110  1.00  0.00    -0.166 C  
HETATM   17 CL   UNL     1     -10.994   5.975  68.078  1.00  0.00    -0.378 Cl 
HETATM   18 CL   UNL     1     -10.012   8.227  69.690  1.00  0.00    -0.189 Cl 
ENDBRANCH  11  14
ENDBRANCH   3   8
TORSDOF 2
ENDMDL
MODEL       39
REMARK 921   NORMALIZED FREE ENERGY PREDICTED BY IDOCK:   -4.87 KCAL/MOL
REMARK 922        TOTAL FREE ENERGY PREDICTED BY IDOCK:   -5.92 KCAL/MOL
REMARK 923 INTER-LIGAND FREE ENERGY PREDICTED BY IDOCK:   -5.35 KCAL/MOL
REMARK 924 INTRA-LIGAND FREE ENERGY PREDICTED BY IDOCK:   -0.57 KCAL/MOL
REMARK 927      BINDING AFFINITY PREDICTED BY RF-SCORE:    0.00 PKD
ROOT
HETATM    1  C   UNL     1      -8.508   9.860  69.830  1.00  0.00    -0.210 C  
HETATM    2  C   UNL     1      -9.690   8.947  70.195  1.00  0.00    -0.179 C  
HETATM    3  O   UNL     1     -10.850   9.066  69.326  1.00  0.00    -0.206 OA 
HETATM    4  C   UNL     1      -9.174   7.501  69.997  1.00  0.00    -0.151 C  
HETATM    5  C   UNL     1     -10.113   9.043  71.665  1.00  0.00    -0.405 C  
HETATM    6  O   UNL     1      -9.917   6.774  69.129  1.00  0.00    -0.155 OA 
HETATM    7  O   UNL     1      -8.199   7.027  70.569  1.00  0.00    -0.119 OA 
ENDROOT
BRANCH   3   8
HETATM    8  C   UNL     1     -11.230  10.288  68.848  1.00  0.00    -0.207 A  
HETATM    9  C   UNL     1     -11.124  10.473  67.469  1.00  0.00    -0.358 A  
HETATM   10  C   UNL     1     -11.366  11.732  66.897  1.00  0.00    -0.386 A  
HETATM   11  C   UNL     1     -11.722  12.833  67.690  1.00  0.00    -0.422 A  
HETATM   12  C   UNL     1     -11.899  12.598  69.060  1.00  0.00    -0.341 A  
HETATM   13  C   UNL     1     -11.698  11.339  69.624  1.00  0.00    -0.420 A  
BRANCH  11  14
HETATM   14  C   UNL     1     -11.810  14.239  67.150  1.00  0.00    -0.454 C  
HETATM   15  C   UNL     1     -11.270  15.438  67.881  1.00  0.00    -0.329 C  
HETATM   16  C   UNL     1     -10.586  14.970  66.630  1.00  0.00    -0.301 C  
HETATM   17 CL   UNL     1     -10.799  15.888  65.141  1.00  0.00    -0.443 Cl 
HETATM   18 CL   UNL     1      -8.954  14.342  66.826  1.00  0.00    -0.269 Cl 
ENDBRANCH  11  14
ENDBRANCH   3   8
TORSDOF 2
ENDMDL
MODEL       40
REMARK 921   NORMALIZED FREE ENERGY PREDICTED BY IDOCK:   -4.85 KCAL/MOL
REMARK 922        TOTAL FREE ENERGY PREDICTED BY IDOCK:   -5.89 KCAL/MOL
REMARK 923 INTER-LIGAND FREE ENERGY PREDICTED BY IDOCK:   -5.36 KCAL/MOL
REMARK 924 INTRA-LIGAND FREE ENERGY PREDICTED BY IDOCK:   -0.54 KCAL/MOL
REMARK 927      BINDING AFFINITY PREDICTED BY RF-SCORE:    0.00 PKD
ROOT
HETATM    1  C   UNL     1      -8.571   9.680  70.142  1.00  0.00    -0.243 C  
HETATM    2  C   UNL     1      -9.807   8.783  70.318  1.00  0.00    -0.175 C  
HETATM    3  O   UNL     1     -10.609   8.599  69.120  1.00  0.00    -0.224 OA 
HETATM    4  C   UNL     1      -9.256   7.379  70.666  1.00  0.00    -0.157 C  
HETATM    5  C   UNL     1     -10.699   9.187  71.498  1.00  0.00    -0.437 C  
HETATM    6  O   UNL     1      -9.666   6.409  69.813  1.00  0.00    -0.153 OA 
HETATM    7  O   UNL     1      -8.530   7.135  71.622  1.00  0.00    -0.114 OA 
ENDROOT
BRANCH   3   8
HETATM    8  C   UNL     1     -10.806   9.639  68.256  1.00  0.00    -0.182 A  
HETATM    9  C   UNL     1     -10.232   9.510  66.990  1.00  0.00    -0.321 A  
HETATM   10  C   UNL     1     -10.266  10.576  66.078  1.00  0.00    -0.310 A  
HETATM   11  C   UNL     1     -10.879  11.794  66.409  1.00  0.00    -0.325 A  
HETATM   12  C   UNL     1     -11.517  11.867  67.655  1.00  0.00    -0.387 A  
HETATM   13  C   UNL     1     -11.517  10.794  68.546  1.00  0.00    -0.362 A  
BRANCH  11  14
HETATM   14  C   UNL     1     -10.780  13.024  65.541  1.00  0.00    -0.299 C  
HETATM   15  C   UNL     1     -10.294  12.991  64.118  1.00  0.00    -0.345 C  
HETATM   16  C   UNL     1     -11.743  13.269  64.393  1.00  0.00    -0.388 C  
HETATM   17 CL   UNL     1     -12.348  14.915  64.221  1.00  0.00    -0.448 Cl 
HETATM   18 CL   UNL     1     -12.886  12.051  63.841  1.00  0.00    -0.490 Cl 
ENDBRANCH  11  14
ENDBRANCH   3   8
TORSDOF 2
ENDMDL
MODEL       41
REMARK 921   NORMALIZED FREE ENERGY PREDICTED BY IDOCK:   -4.85 KCAL/MOL
REMARK 922        TOTAL FREE ENERGY PREDICTED BY IDOCK:   -5.89 KCAL/MOL
REMARK 923 INTER-LIGAND FREE ENERGY PREDICTED BY IDOCK:   -5.55 KCAL/MOL
REMARK 924 INTRA-LIGAND FREE ENERGY PREDICTED BY IDOCK:   -0.34 KCAL/MOL
REMARK 927      BINDING AFFINITY PREDICTED BY RF-SCORE:    0.00 PKD
ROOT
HETATM    1  C   UNL     1     -10.987  10.849  66.617  1.00  0.00    -0.212 C  
HETATM    2  C   UNL     1     -10.808  12.265  67.188  1.00  0.00    -0.244 C  
HETATM    3  O   UNL     1     -10.350  12.319  68.567  1.00  0.00    -0.226 OA 
HETATM    4  C   UNL     1      -9.675  12.910  66.352  1.00  0.00    -0.263 C  
HETATM    5  C   UNL     1     -12.033  13.166  66.998  1.00  0.00    -0.412 C  
HETATM    6  O   UNL     1      -8.630  13.342  67.098  1.00  0.00    -0.201 OA 
HETATM    7  O   UNL     1      -9.700  13.042  65.134  1.00  0.00    -0.104 OA 
ENDROOT
BRANCH   3   8
HETATM    8  C   UNL     1     -10.811  11.415  69.482  1.00  0.00    -0.108 A  
HETATM    9  C   UNL     1      -9.967  10.341  69.769  1.00  0.00    -0.222 A  
HETATM   10  C   UNL     1     -10.402   9.292  70.595  1.00  0.00    -0.326 A  
HETATM   11  C   UNL     1     -11.689   9.296  71.155  1.00  0.00    -0.394 A  
HETATM   12  C   UNL     1     -12.483  10.425  70.914  1.00  0.00    -0.478 A  
HETATM   13  C   UNL     1     -12.037  11.486  70.126  1.00  0.00    -0.432 A  
BRANCH  11  14
HETATM   14  C   UNL     1     -12.266   8.112  71.891  1.00  0.00    -0.373 C  
HETATM   15  C   UNL     1     -13.439   7.318  71.384  1.00  0.00    -0.400 C  
HETATM   16  C   UNL     1     -12.074   6.692  71.392  1.00  0.00    -0.347 C  
HETATM   17 CL   UNL     1     -11.694   5.481  72.613  1.00  0.00    -0.310 Cl 
HETATM   18 CL   UNL     1     -11.378   6.329  69.817  1.00  0.00    -0.501 Cl 
ENDBRANCH  11  14
ENDBRANCH   3   8
TORSDOF 2
ENDMDL
MODEL       42
REMARK 921   NORMALIZED FREE ENERGY PREDICTED BY IDOCK:   -4.83 KCAL/MOL
REMARK 922        TOTAL FREE ENERGY PREDICTED BY IDOCK:   -5.88 KCAL/MOL
REMARK 923 INTER-LIGAND FREE ENERGY PREDICTED BY IDOCK:   -5.29 KCAL/MOL
REMARK 924 INTRA-LIGAND FREE ENERGY PREDICTED BY IDOCK:   -0.58 KCAL/MOL
REMARK 927      BINDING AFFINITY PREDICTED BY RF-SCORE:    0.00 PKD
ROOT
HETATM    1  C   UNL     1      -9.502  12.959  66.917  1.00  0.00    -0.237 C  
HETATM    2  C   UNL     1     -10.740  12.641  66.063  1.00  0.00    -0.269 C  
HETATM    3  O   UNL     1     -11.800  11.929  66.758  1.00  0.00    -0.598 OA 
HETATM    4  C   UNL     1     -11.346  14.014  65.682  1.00  0.00    -0.313 C  
HETATM    5  C   UNL     1     -10.412  11.946  64.737  1.00  0.00    -0.333 C  
HETATM    6  O   UNL     1     -12.637  14.161  66.063  1.00  0.00    -0.478 OA 
HETATM    7  O   UNL     1     -10.744  14.896  65.080  1.00  0.00    -0.380 OA 
ENDROOT
BRANCH   3   8
HETATM    8  C   UNL     1     -11.495  10.954  67.664  1.00  0.00    -0.200 A  
HETATM    9  C   UNL     1     -11.846  11.210  68.991  1.00  0.00    -0.418 A  
HETATM   10  C   UNL     1     -11.461  10.330  70.014  1.00  0.00    -0.367 A  
HETATM   11  C   UNL     1     -10.719   9.172  69.734  1.00  0.00    -0.239 A  
HETATM   12  C   UNL     1     -10.452   8.900  68.386  1.00  0.00    -0.230 A  
HETATM   13  C   UNL     1     -10.868   9.753  67.364  1.00  0.00    -0.265 A  
BRANCH  11  14
HETATM   14  C   UNL     1     -10.125   8.299  70.812  1.00  0.00    -0.218 C  
HETATM   15  C   UNL     1      -9.097   7.236  70.537  1.00  0.00    -0.158 C  
HETATM   16  C   UNL     1      -8.692   8.475  71.281  1.00  0.00    -0.181 C  
HETATM   17 CL   UNL     1      -8.423   8.383  73.019  1.00  0.00    -0.251 Cl 
HETATM   18 CL   UNL     1      -7.552   9.535  70.461  1.00  0.00    -0.160 Cl 
ENDBRANCH  11  14
ENDBRANCH   3   8
TORSDOF 2
ENDMDL
MODEL       43
REMARK 921   NORMALIZED FREE ENERGY PREDICTED BY IDOCK:   -4.83 KCAL/MOL
REMARK 922        TOTAL FREE ENERGY PREDICTED BY IDOCK:   -5.87 KCAL/MOL
REMARK 923 INTER-LIGAND FREE ENERGY PREDICTED BY IDOCK:   -5.27 KCAL/MOL
REMARK 924 INTRA-LIGAND FREE ENERGY PREDICTED BY IDOCK:   -0.60 KCAL/MOL
REMARK 927      BINDING AFFINITY PREDICTED BY RF-SCORE:    0.00 PKD
ROOT
HETATM    1  C   UNL     1      -8.482  11.181  66.195  1.00  0.00    -0.156 C  
HETATM    2  C   UNL     1      -9.693  10.480  65.557  1.00  0.00    -0.242 C  
HETATM    3  O   UNL     1     -10.764  11.367  65.132  1.00  0.00    -0.289 OA 
HETATM    4  C   UNL     1      -9.159   9.826  64.259  1.00  0.00    -0.246 C  
HETATM    5  C   UNL     1     -10.257   9.332  66.403  1.00  0.00    -0.298 C  
HETATM    6  O   UNL     1      -9.814  10.224  63.142  1.00  0.00    -0.253 OA 
HETATM    7  O   UNL     1      -8.244   9.013  64.218  1.00  0.00    -0.147 OA 
ENDROOT
BRANCH   3   8
HETATM    8  C   UNL     1     -11.097  12.456  65.887  1.00  0.00    -0.313 A  
HETATM    9  C   UNL     1     -10.709  13.699  65.385  1.00  0.00    -0.311 A  
HETATM   10  C   UNL     1     -10.889  14.864  66.146  1.00  0.00    -0.327 A  
HETATM   11  C   UNL     1     -11.465  14.814  67.425  1.00  0.00    -0.376 A  
HETATM   12  C   UNL     1     -11.917  13.564  67.868  1.00  0.00    -0.372 A  
HETATM   13  C   UNL     1     -11.775  12.411  67.096  1.00  0.00    -0.415 A  
BRANCH  11  14
HETATM   14  C   UNL     1     -11.508  16.004  68.351  1.00  0.00    -0.331 C  
HETATM   15  C   UNL     1     -11.276  15.902  69.834  1.00  0.00    -0.348 C  
HETATM   16  C   UNL     1     -10.248  16.577  68.973  1.00  0.00    -0.285 C  
HETATM   17 CL   UNL     1     -10.123  18.334  69.004  1.00  0.00    -0.363 Cl 
HETATM   18 CL   UNL     1      -8.686  15.775  68.855  1.00  0.00    -0.200 Cl 
ENDBRANCH  11  14
ENDBRANCH   3   8
TORSDOF 2
ENDMDL
MODEL       44
REMARK 921   NORMALIZED FREE ENERGY PREDICTED BY IDOCK:   -4.83 KCAL/MOL
REMARK 922        TOTAL FREE ENERGY PREDICTED BY IDOCK:   -5.87 KCAL/MOL
REMARK 923 INTER-LIGAND FREE ENERGY PREDICTED BY IDOCK:   -5.53 KCAL/MOL
REMARK 924 INTRA-LIGAND FREE ENERGY PREDICTED BY IDOCK:   -0.34 KCAL/MOL
REMARK 927      BINDING AFFINITY PREDICTED BY RF-SCORE:    0.00 PKD
ROOT
HETATM    1  C   UNL     1     -12.386   6.928  71.098  1.00  0.00    -0.419 C  
HETATM    2  C   UNL     1     -10.941   6.833  71.615  1.00  0.00    -0.235 C  
HETATM    3  O   UNL     1     -10.299   8.109  71.883  1.00  0.00    -0.204 OA 
HETATM    4  C   UNL     1     -11.036   6.122  72.987  1.00  0.00    -0.218 C  
HETATM    5  C   UNL     1     -10.034   5.952  70.749  1.00  0.00    -0.241 C  
HETATM    6  O   UNL     1     -10.505   6.839  74.007  1.00  0.00    -0.364 OA 
HETATM    7  O   UNL     1     -11.526   5.012  73.162  1.00  0.00    -0.327 OA 
ENDROOT
BRANCH   3   8
HETATM    8  C   UNL     1     -10.516   9.177  71.059  1.00  0.00    -0.298 A  
HETATM    9  C   UNL     1     -11.572  10.021  71.405  1.00  0.00    -0.383 A  
HETATM   10  C   UNL     1     -11.957  11.069  70.554  1.00  0.00    -0.474 A  
HETATM   11  C   UNL     1     -11.293  11.298  69.339  1.00  0.00    -0.360 A  
HETATM   12  C   UNL     1     -10.187  10.485  69.057  1.00  0.00    -0.233 A  
HETATM   13  C   UNL     1      -9.779   9.469  69.921  1.00  0.00    -0.252 A  
BRANCH  11  14
HETATM   14  C   UNL     1     -11.785  12.286  68.310  1.00  0.00    -0.392 C  
HETATM   15  C   UNL     1     -12.014  13.742  68.609  1.00  0.00    -0.401 C  
HETATM   16  C   UNL     1     -10.871  13.345  67.721  1.00  0.00    -0.252 C  
HETATM   17 CL   UNL     1     -11.001  13.610  65.985  1.00  0.00    -0.286 Cl 
HETATM   18 CL   UNL     1      -9.256  13.656  68.348  1.00  0.00    -0.192 Cl 
ENDBRANCH  11  14
ENDBRANCH   3   8
TORSDOF 2
ENDMDL
MODEL       45
REMARK 921   NORMALIZED FREE ENERGY PREDICTED BY IDOCK:   -4.82 KCAL/MOL
REMARK 922        TOTAL FREE ENERGY PREDICTED BY IDOCK:   -5.86 KCAL/MOL
REMARK 923 INTER-LIGAND FREE ENERGY PREDICTED BY IDOCK:   -5.35 KCAL/MOL
REMARK 924 INTRA-LIGAND FREE ENERGY PREDICTED BY IDOCK:   -0.51 KCAL/MOL
REMARK 927      BINDING AFFINITY PREDICTED BY RF-SCORE:    0.00 PKD
ROOT
HETATM    1  C   UNL     1     -11.867   6.893  70.135  1.00  0.00    -0.266 C  
HETATM    2  C   UNL     1     -10.672   7.198  71.053  1.00  0.00    -0.232 C  
HETATM    3  O   UNL     1     -10.389   8.611  71.245  1.00  0.00    -0.204 OA 
HETATM    4  C   UNL     1     -11.073   6.664  72.450  1.00  0.00    -0.259 C  
HETATM    5  C   UNL     1      -9.392   6.447  70.669  1.00  0.00    -0.169 C  
HETATM    6  O   UNL     1     -11.035   7.606  73.422  1.00  0.00    -0.371 OA 
HETATM    7  O   UNL     1     -11.385   5.503  72.685  1.00  0.00    -0.282 OA 
ENDROOT
BRANCH   3   8
HETATM    8  C   UNL     1     -10.519   9.487  70.205  1.00  0.00    -0.255 A  
HETATM    9  C   UNL     1     -11.528  10.444  70.323  1.00  0.00    -0.406 A  
HETATM   10  C   UNL     1     -11.825  11.304  69.254  1.00  0.00    -0.423 A  
HETATM   11  C   UNL     1     -11.117  11.230  68.045  1.00  0.00    -0.325 A  
HETATM   12  C   UNL     1     -10.057  10.315  67.985  1.00  0.00    -0.189 A  
HETATM   13  C   UNL     1      -9.735   9.487  69.060  1.00  0.00    -0.170 A  
BRANCH  11  14
HETATM   14  C   UNL     1     -11.520  11.999  66.811  1.00  0.00    -0.410 C  
HETATM   15  C   UNL     1     -11.896  13.456  66.834  1.00  0.00    -0.453 C  
HETATM   16  C   UNL     1     -10.607  13.039  66.187  1.00  0.00    -0.277 C  
HETATM   17 CL   UNL     1     -10.495  13.026  64.429  1.00  0.00    -0.414 Cl 
HETATM   18 CL   UNL     1      -9.131  13.594  66.969  1.00  0.00    -0.243 Cl 
ENDBRANCH  11  14
ENDBRANCH   3   8
TORSDOF 2
ENDMDL
MODEL       46
REMARK 921   NORMALIZED FREE ENERGY PREDICTED BY IDOCK:   -4.80 KCAL/MOL
REMARK 922        TOTAL FREE ENERGY PREDICTED BY IDOCK:   -5.84 KCAL/MOL
REMARK 923 INTER-LIGAND FREE ENERGY PREDICTED BY IDOCK:   -6.13 KCAL/MOL
REMARK 924 INTRA-LIGAND FREE ENERGY PREDICTED BY IDOCK:    0.29 KCAL/MOL
REMARK 927      BINDING AFFINITY PREDICTED BY RF-SCORE:    0.00 PKD
ROOT
HETATM    1  C   UNL     1     -12.436   8.595  71.872  1.00  0.00    -0.412 C  
HETATM    2  C   UNL     1     -11.064   7.996  71.520  1.00  0.00    -0.248 C  
HETATM    3  O   UNL     1     -10.196   8.865  70.741  1.00  0.00    -0.197 OA 
HETATM    4  C   UNL     1     -10.339   7.794  72.872  1.00  0.00    -0.334 C  
HETATM    5  C   UNL     1     -11.144   6.608  70.875  1.00  0.00    -0.335 C  
HETATM    6  O   UNL     1      -9.147   8.433  72.950  1.00  0.00    -0.254 OA 
HETATM    7  O   UNL     1     -10.771   7.114  73.796  1.00  0.00    -0.361 OA 
ENDROOT
BRANCH   3   8
HETATM    8  C   UNL     1     -10.717   9.657  69.757  1.00  0.00    -0.245 A  
HETATM    9  C   UNL     1     -10.505   9.234  68.445  1.00  0.00    -0.246 A  
HETATM   10  C   UNL     1     -10.886  10.043  67.363  1.00  0.00    -0.313 A  
HETATM   11  C   UNL     1     -11.492  11.292  67.569  1.00  0.00    -0.324 A  
HETATM   12  C   UNL     1     -11.765  11.653  68.895  1.00  0.00    -0.397 A  
HETATM   13  C   UNL     1     -11.423  10.833  69.969  1.00  0.00    -0.412 A  
BRANCH  11  14
HETATM   14  C   UNL     1     -11.749  12.273  66.452  1.00  0.00    -0.431 C  
HETATM   15  C   UNL     1     -10.672  13.129  65.844  1.00  0.00    -0.287 C  
HETATM   16  C   UNL     1     -11.268  12.013  65.037  1.00  0.00    -0.320 C  
HETATM   17 CL   UNL     1     -12.401  12.399  63.744  1.00  0.00    -0.596 Cl 
HETATM   18 CL   UNL     1     -10.187  10.684  64.634  1.00  0.00    -0.417 Cl 
ENDBRANCH  11  14
ENDBRANCH   3   8
TORSDOF 2
ENDMDL
MODEL       47
REMARK 921   NORMALIZED FREE ENERGY PREDICTED BY IDOCK:   -4.80 KCAL/MOL
REMARK 922        TOTAL FREE ENERGY PREDICTED BY IDOCK:   -5.84 KCAL/MOL
REMARK 923 INTER-LIGAND FREE ENERGY PREDICTED BY IDOCK:   -5.77 KCAL/MOL
REMARK 924 INTRA-LIGAND FREE ENERGY PREDICTED BY IDOCK:   -0.06 KCAL/MOL
REMARK 927      BINDING AFFINITY PREDICTED BY RF-SCORE:    0.00 PKD
ROOT
HETATM    1  C   UNL     1      -9.852   8.190  69.503  1.00  0.00    -0.181 C  
HETATM    2  C   UNL     1     -10.773   8.409  70.715  1.00  0.00    -0.212 C  
HETATM    3  O   UNL     1     -11.883   9.320  70.487  1.00  0.00    -0.233 OA 
HETATM    4  C   UNL     1     -11.421   7.031  70.998  1.00  0.00    -0.303 C  
HETATM    5  C   UNL     1     -10.025   8.791  71.997  1.00  0.00    -0.391 C  
HETATM    6  O   UNL     1     -12.775   7.054  70.976  1.00  0.00    -0.367 OA 
HETATM    7  O   UNL     1     -10.794   6.006  71.237  1.00  0.00    -0.251 OA 
ENDROOT
BRANCH   3   8
HETATM    8  C   UNL     1     -11.710  10.438  69.722  1.00  0.00    -0.237 A  
HETATM    9  C   UNL     1     -11.925  11.662  70.358  1.00  0.00    -0.448 A  
HETATM   10  C   UNL     1     -11.900  12.860  69.627  1.00  0.00    -0.387 A  
HETATM   11  C   UNL     1     -11.656  12.862  68.245  1.00  0.00    -0.374 A  
HETATM   12  C   UNL     1     -11.365  11.628  67.650  1.00  0.00    -0.362 A  
HETATM   13  C   UNL     1     -11.350  10.441  68.383  1.00  0.00    -0.292 A  
BRANCH  11  14
HETATM   14  C   UNL     1     -11.803  14.096  67.389  1.00  0.00    -0.447 C  
HETATM   15  C   UNL     1     -11.266  15.444  67.786  1.00  0.00    -0.321 C  
HETATM   16  C   UNL     1     -10.621  14.700  66.653  1.00  0.00    -0.289 C  
HETATM   17 CL   UNL     1     -10.921  15.230  64.999  1.00  0.00    -0.426 Cl 
HETATM   18 CL   UNL     1      -8.967  14.163  66.917  1.00  0.00    -0.253 Cl 
ENDBRANCH  11  14
ENDBRANCH   3   8
TORSDOF 2
ENDMDL
MODEL       48
REMARK 921   NORMALIZED FREE ENERGY PREDICTED BY IDOCK:   -4.78 KCAL/MOL
REMARK 922        TOTAL FREE ENERGY PREDICTED BY IDOCK:   -5.82 KCAL/MOL
REMARK 923 INTER-LIGAND FREE ENERGY PREDICTED BY IDOCK:   -5.28 KCAL/MOL
REMARK 924 INTRA-LIGAND FREE ENERGY PREDICTED BY IDOCK:   -0.54 KCAL/MOL
REMARK 927      BINDING AFFINITY PREDICTED BY RF-SCORE:    0.00 PKD
ROOT
HETATM    1  C   UNL     1      -6.913  18.066  68.794  1.00  0.00    -0.264 C  
HETATM    2  C   UNL     1      -7.196  18.681  67.413  1.00  0.00    -0.206 C  
HETATM    3  O   UNL     1      -8.505  18.373  66.860  1.00  0.00    -0.250 OA 
HETATM    4  C   UNL     1      -7.189  20.213  67.631  1.00  0.00    -0.290 C  
HETATM    5  C   UNL     1      -6.101  18.400  66.378  1.00  0.00    -0.198 C  
HETATM    6  O   UNL     1      -8.338  20.820  67.249  1.00  0.00    -0.308 OA 
HETATM    7  O   UNL     1      -6.244  20.845  68.089  1.00  0.00    -0.313 OA 
ENDROOT
BRANCH   3   8
HETATM    8  C   UNL     1      -9.050  17.132  67.029  1.00  0.00    -0.230 A  
HETATM    9  C   UNL     1     -10.052  17.023  67.995  1.00  0.00    -0.305 A  
HETATM   10  C   UNL     1     -10.583  15.768  68.334  1.00  0.00    -0.264 A  
HETATM   11  C   UNL     1     -10.127  14.596  67.712  1.00  0.00    -0.228 A  
HETATM   12  C   UNL     1      -9.180  14.746  66.691  1.00  0.00    -0.300 A  
HETATM   13  C   UNL     1      -8.680  15.995  66.326  1.00  0.00    -0.372 A  
BRANCH  11  14
HETATM   14  C   UNL     1     -10.529  13.216  68.170  1.00  0.00    -0.255 C  
HETATM   15  C   UNL     1     -11.913  12.879  68.655  1.00  0.00    -0.282 C  
HETATM   16  C   UNL     1     -11.442  12.334  67.338  1.00  0.00    -0.352 C  
HETATM   17 CL   UNL     1     -10.994  10.634  67.224  1.00  0.00    -0.357 Cl 
HETATM   18 CL   UNL     1     -12.282  12.924  65.909  1.00  0.00    -0.502 Cl 
ENDBRANCH  11  14
ENDBRANCH   3   8
TORSDOF 2
ENDMDL
MODEL       49
REMARK 921   NORMALIZED FREE ENERGY PREDICTED BY IDOCK:   -4.75 KCAL/MOL
REMARK 922        TOTAL FREE ENERGY PREDICTED BY IDOCK:   -5.78 KCAL/MOL
REMARK 923 INTER-LIGAND FREE ENERGY PREDICTED BY IDOCK:   -5.32 KCAL/MOL
REMARK 924 INTRA-LIGAND FREE ENERGY PREDICTED BY IDOCK:   -0.46 KCAL/MOL
REMARK 927      BINDING AFFINITY PREDICTED BY RF-SCORE:    0.00 PKD
ROOT
HETATM    1  C   UNL     1      -8.846  12.070  66.607  1.00  0.00    -0.191 C  
HETATM    2  C   UNL     1     -10.166  12.363  65.875  1.00  0.00    -0.251 C  
HETATM    3  O   UNL     1     -10.352  13.747  65.472  1.00  0.00    -0.297 OA 
HETATM    4  C   UNL     1     -10.098  11.555  64.556  1.00  0.00    -0.278 C  
HETATM    5  C   UNL     1     -11.408  11.852  66.615  1.00  0.00    -0.400 C  
HETATM    6  O   UNL     1     -10.242  12.316  63.445  1.00  0.00    -0.421 OA 
HETATM    7  O   UNL     1      -9.945  10.340  64.493  1.00  0.00    -0.339 OA 
ENDROOT
BRANCH   3   8
HETATM    8  C   UNL     1      -9.942  14.763  66.288  1.00  0.00    -0.291 A  
HETATM    9  C   UNL     1     -10.767  15.057  67.374  1.00  0.00    -0.289 A  
HETATM   10  C   UNL     1     -10.501  16.164  68.194  1.00  0.00    -0.279 A  
HETATM   11  C   UNL     1      -9.402  17.001  67.949  1.00  0.00    -0.240 A  
HETATM   12  C   UNL     1      -8.547  16.635  66.902  1.00  0.00    -0.240 A  
HETATM   13  C   UNL     1      -8.788  15.512  66.110  1.00  0.00    -0.273 A  
BRANCH  11  14
HETATM   14  C   UNL     1      -9.182  18.301  68.683  1.00  0.00    -0.309 C  
HETATM   15  C   UNL     1      -8.404  19.452  68.106  1.00  0.00    -0.363 C  
HETATM   16  C   UNL     1      -9.891  19.578  68.272  1.00  0.00    -0.416 C  
HETATM   17 CL   UNL     1     -10.526  20.574  69.579  1.00  0.00     0.112 Cl 
HETATM   18 CL   UNL     1     -10.830  19.704  66.789  1.00  0.00    -0.557 Cl 
ENDBRANCH  11  14
ENDBRANCH   3   8
TORSDOF 2
ENDMDL
MODEL       50
REMARK 921   NORMALIZED FREE ENERGY PREDICTED BY IDOCK:   -4.69 KCAL/MOL
REMARK 922        TOTAL FREE ENERGY PREDICTED BY IDOCK:   -5.72 KCAL/MOL
REMARK 923 INTER-LIGAND FREE ENERGY PREDICTED BY IDOCK:   -5.26 KCAL/MOL
REMARK 924 INTRA-LIGAND FREE ENERGY PREDICTED BY IDOCK:   -0.45 KCAL/MOL
REMARK 927      BINDING AFFINITY PREDICTED BY RF-SCORE:    0.00 PKD
ROOT
HETATM    1  C   UNL     1     -12.247   9.172  71.250  1.00  0.00    -0.395 C  
HETATM    2  C   UNL     1     -10.925   8.427  71.002  1.00  0.00    -0.246 C  
HETATM    3  O   UNL     1      -9.929   9.175  70.252  1.00  0.00    -0.182 OA 
HETATM    4  C   UNL     1     -10.304   8.205  72.403  1.00  0.00    -0.311 C  
HETATM    5  C   UNL     1     -11.107   7.030  70.398  1.00  0.00    -0.323 C  
HETATM    6  O   UNL     1      -9.060   8.725  72.534  1.00  0.00    -0.367 OA 
HETATM    7  O   UNL     1     -10.856   7.607  73.320  1.00  0.00    -0.394 OA 
ENDROOT
BRANCH   3   8
HETATM    8  C   UNL     1     -10.309   9.977  69.213  1.00  0.00    -0.219 A  
HETATM    9  C   UNL     1     -10.565  11.314  69.524  1.00  0.00    -0.083 A  
HETATM   10  C   UNL     1     -11.084  12.186  68.554  1.00  0.00    -0.295 A  
HETATM   11  C   UNL     1     -11.355  11.743  67.251  1.00  0.00    -0.379 A  
HETATM   12  C   UNL     1     -11.012  10.419  66.946  1.00  0.00    -0.167 A  
HETATM   13  C   UNL     1     -10.460   9.562  67.898  1.00  0.00    -0.293 A  
BRANCH  11  14
HETATM   14  C   UNL     1     -12.083  12.586  66.233  1.00  0.00    -0.315 C  
HETATM   15  C   UNL     1     -12.161  14.086  66.310  1.00  0.00    -0.493 C  
HETATM   16  C   UNL     1     -11.336  13.447  65.231  1.00  0.00    -0.296 C  
HETATM   17 CL   UNL     1     -11.948  13.432  63.580  1.00  0.00    -0.519 Cl 
HETATM   18 CL   UNL     1      -9.599  13.713  65.322  1.00  0.00     0.013 Cl 
ENDBRANCH  11  14
ENDBRANCH   3   8
TORSDOF 2
ENDMDL
MODEL       51
REMARK 921   NORMALIZED FREE ENERGY PREDICTED BY IDOCK:   -4.68 KCAL/MOL
REMARK 922        TOTAL FREE ENERGY PREDICTED BY IDOCK:   -5.70 KCAL/MOL
REMARK 923 INTER-LIGAND FREE ENERGY PREDICTED BY IDOCK:   -5.41 KCAL/MOL
REMARK 924 INTRA-LIGAND FREE ENERGY PREDICTED BY IDOCK:   -0.30 KCAL/MOL
REMARK 927      BINDING AFFINITY PREDICTED BY RF-SCORE:    0.00 PKD
ROOT
HETATM    1  C   UNL     1     -11.941  12.959  67.716  1.00  0.00    -0.336 C  
HETATM    2  C   UNL     1     -11.356  12.787  66.305  1.00  0.00    -0.320 C  
HETATM    3  O   UNL     1     -10.944  11.433  65.972  1.00  0.00    -0.285 OA 
HETATM    4  C   UNL     1     -12.513  13.118  65.331  1.00  0.00    -0.481 C  
HETATM    5  C   UNL     1     -10.235  13.780  65.977  1.00  0.00    -0.315 C  
HETATM    6  O   UNL     1     -12.798  12.115  64.467  1.00  0.00    -0.596 OA 
HETATM    7  O   UNL     1     -13.120  14.182  65.311  1.00  0.00    -0.763 OA 
ENDROOT
BRANCH   3   8
HETATM    8  C   UNL     1     -10.347  10.643  66.913  1.00  0.00    -0.236 A  
HETATM    9  C   UNL     1     -10.785   9.319  66.977  1.00  0.00    -0.199 A  
HETATM   10  C   UNL     1     -10.327   8.464  67.993  1.00  0.00    -0.270 A  
HETATM   11  C   UNL     1      -9.419   8.913  68.964  1.00  0.00    -0.156 A  
HETATM   12  C   UNL     1      -8.937  10.221  68.826  1.00  0.00    -0.155 A  
HETATM   13  C   UNL     1      -9.360  11.059  67.794  1.00  0.00    -0.162 A  
BRANCH  11  14
HETATM   14  C   UNL     1      -9.044   8.096  70.176  1.00  0.00    -0.147 C  
HETATM   15  C   UNL     1      -8.956   8.671  71.563  1.00  0.00    -0.302 C  
HETATM   16  C   UNL     1     -10.068   7.720  71.231  1.00  0.00    -0.179 C  
HETATM   17 CL   UNL     1      -9.992   6.067  71.838  1.00  0.00    -0.191 Cl 
HETATM   18 CL   UNL     1     -11.695   8.389  71.253  1.00  0.00    -0.313 Cl 
ENDBRANCH  11  14
ENDBRANCH   3   8
TORSDOF 2
ENDMDL
MODEL       52
REMARK 921   NORMALIZED FREE ENERGY PREDICTED BY IDOCK:   -4.60 KCAL/MOL
REMARK 922        TOTAL FREE ENERGY PREDICTED BY IDOCK:   -5.62 KCAL/MOL
REMARK 923 INTER-LIGAND FREE ENERGY PREDICTED BY IDOCK:   -5.08 KCAL/MOL
REMARK 924 INTRA-LIGAND FREE ENERGY PREDICTED BY IDOCK:   -0.54 KCAL/MOL
REMARK 927      BINDING AFFINITY PREDICTED BY RF-SCORE:    0.00 PKD
ROOT
HETATM    1  C   UNL     1      -9.578   8.704  71.771  1.00  0.00    -0.360 C  
HETATM    2  C   UNL     1     -10.942   8.078  71.436  1.00  0.00    -0.234 C  
HETATM    3  O   UNL     1     -11.479   8.437  70.133  1.00  0.00    -0.148 OA 
HETATM    4  C   UNL     1     -10.694   6.551  71.373  1.00  0.00    -0.238 C  
HETATM    5  C   UNL     1     -12.000   8.287  72.525  1.00  0.00    -0.420 C  
HETATM    6  O   UNL     1     -11.046   5.992  70.191  1.00  0.00    -0.338 OA 
HETATM    7  O   UNL     1     -10.239   5.884  72.295  1.00  0.00    -0.184 OA 
ENDROOT
BRANCH   3   8
HETATM    8  C   UNL     1     -11.325   9.705  69.650  1.00  0.00    -0.073 A  
HETATM    9  C   UNL     1     -10.324   9.886  68.694  1.00  0.00    -0.217 A  
HETATM   10  C   UNL     1     -10.002  11.172  68.233  1.00  0.00    -0.196 A  
HETATM   11  C   UNL     1     -10.675  12.306  68.714  1.00  0.00    -0.247 A  
HETATM   12  C   UNL     1     -11.729  12.085  69.611  1.00  0.00    -0.405 A  
HETATM   13  C   UNL     1     -12.076  10.805  70.040  1.00  0.00    -0.423 A  
BRANCH  11  14
HETATM   14  C   UNL     1     -10.242  13.715  68.391  1.00  0.00    -0.245 C  
HETATM   15  C   UNL     1      -9.690  14.121  67.053  1.00  0.00    -0.258 C  
HETATM   16  C   UNL     1     -11.050  14.604  67.464  1.00  0.00    -0.313 C  
HETATM   17 CL   UNL     1     -11.249  16.280  67.968  1.00  0.00    -0.306 Cl 
HETATM   18 CL   UNL     1     -12.407  14.001  66.519  1.00  0.00    -0.480 Cl 
ENDBRANCH  11  14
ENDBRANCH   3   8
TORSDOF 2
ENDMDL
MODEL       53
REMARK 921   NORMALIZED FREE ENERGY PREDICTED BY IDOCK:   -4.56 KCAL/MOL
REMARK 922        TOTAL FREE ENERGY PREDICTED BY IDOCK:   -5.57 KCAL/MOL
REMARK 923 INTER-LIGAND FREE ENERGY PREDICTED BY IDOCK:   -4.98 KCAL/MOL
REMARK 924 INTRA-LIGAND FREE ENERGY PREDICTED BY IDOCK:   -0.59 KCAL/MOL
REMARK 927      BINDING AFFINITY PREDICTED BY RF-SCORE:    0.00 PKD
ROOT
HETATM    1  C   UNL     1     -10.192  14.128  65.158  1.00  0.00    -0.411 C  
HETATM    2  C   UNL     1     -11.414  13.267  64.797  1.00  0.00    -0.327 C  
HETATM    3  O   UNL     1     -11.857  12.359  65.844  1.00  0.00    -0.418 OA 
HETATM    4  C   UNL     1     -12.581  14.264  64.595  1.00  0.00    -0.255 C  
HETATM    5  C   UNL     1     -11.269  12.517  63.468  1.00  0.00    -0.525 C  
HETATM    6  O   UNL     1     -13.648  14.020  65.393  1.00  0.00    -0.593 OA 
HETATM    7  O   UNL     1     -12.574  15.186  63.788  1.00  0.00    -0.752 OA 
ENDROOT
BRANCH   3   8
HETATM    8  C   UNL     1     -10.943  11.713  66.627  1.00  0.00    -0.299 A  
HETATM    9  C   UNL     1     -10.931  12.061  67.979  1.00  0.00    -0.267 A  
HETATM   10  C   UNL     1      -9.946  11.550  68.839  1.00  0.00    -0.117 A  
HETATM   11  C   UNL     1      -8.954  10.677  68.367  1.00  0.00    -0.149 A  
HETATM   12  C   UNL     1      -9.040  10.282  67.026  1.00  0.00    -0.154 A  
HETATM   13  C   UNL     1     -10.042  10.758  66.180  1.00  0.00    -0.297 A  
BRANCH  11  14
HETATM   14  C   UNL     1      -7.772  10.251  69.203  1.00  0.00    -0.119 C  
HETATM   15  C   UNL     1      -6.523   9.650  68.619  1.00  0.00    -0.047 C  
HETATM   16  C   UNL     1      -6.471  11.033  69.201  1.00  0.00    -0.066 C  
HETATM   17 CL   UNL     1      -5.704  11.275  70.768  1.00  0.00    -0.119 Cl 
HETATM   18 CL   UNL     1      -6.156  12.341  68.068  1.00  0.00    -0.062 Cl 
ENDBRANCH  11  14
ENDBRANCH   3   8
TORSDOF 2
ENDMDL
MODEL       54
REMARK 921   NORMALIZED FREE ENERGY PREDICTED BY IDOCK:   -4.56 KCAL/MOL
REMARK 922        TOTAL FREE ENERGY PREDICTED BY IDOCK:   -5.57 KCAL/MOL
REMARK 923 INTER-LIGAND FREE ENERGY PREDICTED BY IDOCK:   -5.25 KCAL/MOL
REMARK 924 INTRA-LIGAND FREE ENERGY PREDICTED BY IDOCK:   -0.32 KCAL/MOL
REMARK 927      BINDING AFFINITY PREDICTED BY RF-SCORE:    0.00 PKD
ROOT
HETATM    1  C   UNL     1     -10.847   7.300  67.407  1.00  0.00    -0.317 C  
HETATM    2  C   UNL     1     -10.153   7.579  68.750  1.00  0.00    -0.185 C  
HETATM    3  O   UNL     1     -10.420   8.890  69.319  1.00  0.00    -0.221 OA 
HETATM    4  C   UNL     1     -10.758   6.564  69.750  1.00  0.00    -0.269 C  
HETATM    5  C   UNL     1      -8.645   7.302  68.734  1.00  0.00    -0.129 C  
HETATM    6  O   UNL     1     -11.325   7.144  70.835  1.00  0.00    -0.265 OA 
HETATM    7  O   UNL     1     -10.729   5.347  69.607  1.00  0.00    -0.308 OA 
ENDROOT
BRANCH   3   8
HETATM    8  C   UNL     1     -10.508   9.988  68.510  1.00  0.00    -0.202 A  
HETATM    9  C   UNL     1     -11.651  10.774  68.658  1.00  0.00    -0.342 A  
HETATM   10  C   UNL     1     -11.897  11.847  67.787  1.00  0.00    -0.289 A  
HETATM   11  C   UNL     1     -11.004  12.159  66.750  1.00  0.00    -0.325 A  
HETATM   12  C   UNL     1      -9.827  11.403  66.677  1.00  0.00    -0.233 A  
HETATM   13  C   UNL     1      -9.562  10.362  67.567  1.00  0.00    -0.178 A  
BRANCH  11  14
HETATM   14  C   UNL     1     -11.313  13.177  65.680  1.00  0.00    -0.328 C  
HETATM   15  C   UNL     1     -12.652  13.850  65.545  1.00  0.00    -0.560 C  
HETATM   16  C   UNL     1     -11.468  14.652  66.003  1.00  0.00    -0.332 C  
HETATM   17 CL   UNL     1     -10.710  15.779  64.882  1.00  0.00    -0.446 Cl 
HETATM   18 CL   UNL     1     -11.531  15.257  67.654  1.00  0.00    -0.319 Cl 
ENDBRANCH  11  14
ENDBRANCH   3   8
TORSDOF 2
ENDMDL
MODEL       55
REMARK 921   NORMALIZED FREE ENERGY PREDICTED BY IDOCK:   -4.54 KCAL/MOL
REMARK 922        TOTAL FREE ENERGY PREDICTED BY IDOCK:   -5.55 KCAL/MOL
REMARK 923 INTER-LIGAND FREE ENERGY PREDICTED BY IDOCK:   -5.01 KCAL/MOL
REMARK 924 INTRA-LIGAND FREE ENERGY PREDICTED BY IDOCK:   -0.54 KCAL/MOL
REMARK 927      BINDING AFFINITY PREDICTED BY RF-SCORE:    0.00 PKD
ROOT
HETATM    1  C   UNL     1     -11.516  12.082  68.862  1.00  0.00    -0.356 C  
HETATM    2  C   UNL     1     -10.307  11.477  68.130  1.00  0.00    -0.195 C  
HETATM    3  O   UNL     1      -9.174  12.375  67.970  1.00  0.00    -0.190 OA 
HETATM    4  C   UNL     1      -9.799  10.332  69.041  1.00  0.00    -0.207 C  
HETATM    5  C   UNL     1     -10.661  10.821  66.791  1.00  0.00    -0.307 C  
HETATM    6  O   UNL     1      -8.501  10.463  69.404  1.00  0.00    -0.161 OA 
HETATM    7  O   UNL     1     -10.480   9.379  69.402  1.00  0.00    -0.206 OA 
ENDROOT
BRANCH   3   8
HETATM    8  C   UNL     1      -9.377  13.697  67.693  1.00  0.00    -0.215 A  
HETATM    9  C   UNL     1      -9.227  14.583  68.761  1.00  0.00    -0.162 A  
HETATM   10  C   UNL     1      -9.540  15.943  68.609  1.00  0.00    -0.209 A  
HETATM   11  C   UNL     1     -10.005  16.449  67.386  1.00  0.00    -0.251 A  
HETATM   12  C   UNL     1     -10.068  15.552  66.311  1.00  0.00    -0.312 A  
HETATM   13  C   UNL     1      -9.720  14.208  66.450  1.00  0.00    -0.313 A  
BRANCH  11  14
HETATM   14  C   UNL     1     -10.529  17.855  67.226  1.00  0.00    -0.373 C  
HETATM   15  C   UNL     1     -10.048  19.013  68.057  1.00  0.00    -0.458 C  
HETATM   16  C   UNL     1      -9.687  18.952  66.601  1.00  0.00    -0.347 C  
HETATM   17 CL   UNL     1     -10.512  20.019  65.468  1.00  0.00    -0.446 Cl 
HETATM   18 CL   UNL     1      -7.979  18.741  66.233  1.00  0.00    -0.297 Cl 
ENDBRANCH  11  14
ENDBRANCH   3   8
TORSDOF 2
ENDMDL
MODEL       56
REMARK 921   NORMALIZED FREE ENERGY PREDICTED BY IDOCK:   -4.43 KCAL/MOL
REMARK 922        TOTAL FREE ENERGY PREDICTED BY IDOCK:   -5.43 KCAL/MOL
REMARK 923 INTER-LIGAND FREE ENERGY PREDICTED BY IDOCK:   -4.90 KCAL/MOL
REMARK 924 INTRA-LIGAND FREE ENERGY PREDICTED BY IDOCK:   -0.52 KCAL/MOL
REMARK 927      BINDING AFFINITY PREDICTED BY RF-SCORE:    0.00 PKD
ROOT
HETATM    1  C   UNL     1     -10.205   9.344  66.702  1.00  0.00    -0.319 C  
HETATM    2  C   UNL     1     -10.063  10.856  66.945  1.00  0.00    -0.212 C  
HETATM    3  O   UNL     1      -9.680  11.229  68.297  1.00  0.00    -0.183 OA 
HETATM    4  C   UNL     1      -8.891  11.314  66.043  1.00  0.00    -0.184 C  
HETATM    5  C   UNL     1     -11.281  11.670  66.493  1.00  0.00    -0.356 C  
HETATM    6  O   UNL     1      -7.889  11.922  66.722  1.00  0.00    -0.146 OA 
HETATM    7  O   UNL     1      -8.853  11.167  64.827  1.00  0.00    -0.097 OA 
ENDROOT
BRANCH   3   8
HETATM    8  C   UNL     1     -10.184  10.547  69.368  1.00  0.00    -0.221 A  
HETATM    9  C   UNL     1      -9.286   9.737  70.064  1.00  0.00    -0.274 A  
HETATM   10  C   UNL     1      -9.734   8.899  71.098  1.00  0.00    -0.344 A  
HETATM   11  C   UNL     1     -11.089   8.855  71.461  1.00  0.00    -0.397 A  
HETATM   12  C   UNL     1     -11.952   9.739  70.799  1.00  0.00    -0.382 A  
HETATM   13  C   UNL     1     -11.502  10.600  69.800  1.00  0.00    -0.375 A  
BRANCH  11  14
HETATM   14  C   UNL     1     -11.645   7.842  72.430  1.00  0.00    -0.410 C  
HETATM   15  C   UNL     1     -12.842   6.982  72.127  1.00  0.00    -0.090 C  
HETATM   16  C   UNL     1     -11.483   6.350  72.204  1.00  0.00    -0.301 C  
HETATM   17 CL   UNL     1     -11.064   5.388  73.620  1.00  0.00    -0.281 Cl 
HETATM   18 CL   UNL     1     -10.850   5.683  70.704  1.00  0.00    -0.333 Cl 
ENDBRANCH  11  14
ENDBRANCH   3   8
TORSDOF 2
ENDMDL
MODEL       57
REMARK 921   NORMALIZED FREE ENERGY PREDICTED BY IDOCK:   -4.43 KCAL/MOL
REMARK 922        TOTAL FREE ENERGY PREDICTED BY IDOCK:   -5.42 KCAL/MOL
REMARK 923 INTER-LIGAND FREE ENERGY PREDICTED BY IDOCK:   -5.83 KCAL/MOL
REMARK 924 INTRA-LIGAND FREE ENERGY PREDICTED BY IDOCK:    0.40 KCAL/MOL
REMARK 927      BINDING AFFINITY PREDICTED BY RF-SCORE:    0.00 PKD
ROOT
HETATM    1  C   UNL     1     -12.223  13.627  66.546  1.00  0.00    -0.454 C  
HETATM    2  C   UNL     1     -11.377  13.532  65.266  1.00  0.00    -0.290 C  
HETATM    3  O   UNL     1     -11.064  12.179  64.835  1.00  0.00    -0.303 OA 
HETATM    4  C   UNL     1     -12.257  14.131  64.141  1.00  0.00    -0.390 C  
HETATM    5  C   UNL     1     -10.105  14.387  65.302  1.00  0.00    -0.387 C  
HETATM    6  O   UNL     1     -12.468  13.281  63.107  1.00  0.00    -0.696 OA 
HETATM    7  O   UNL     1     -12.718  15.266  64.151  1.00  0.00    -0.651 OA 
ENDROOT
BRANCH   3   8
HETATM    8  C   UNL     1     -10.775  11.212  65.755  1.00  0.00    -0.188 A  
HETATM    9  C   UNL     1     -10.037  10.120  65.295  1.00  0.00    -0.344 A  
HETATM   10  C   UNL     1      -9.801   9.016  66.128  1.00  0.00    -0.349 A  
HETATM   11  C   UNL     1     -10.293   8.980  67.442  1.00  0.00    -0.335 A  
HETATM   12  C   UNL     1     -10.959  10.124  67.902  1.00  0.00    -0.335 A  
HETATM   13  C   UNL     1     -11.161  11.238  67.087  1.00  0.00    -0.364 A  
BRANCH  11  14
HETATM   14  C   UNL     1     -10.226   7.747  68.309  1.00  0.00    -0.236 C  
HETATM   15  C   UNL     1      -9.640   6.442  67.843  1.00  0.00    -0.121 C  
HETATM   16  C   UNL     1      -8.913   7.246  68.882  1.00  0.00    -0.133 C  
HETATM   17 CL   UNL     1      -8.948   6.709  70.559  1.00  0.00    -0.151 Cl 
HETATM   18 CL   UNL     1      -7.356   7.909  68.401  1.00  0.00    -0.099 Cl 
ENDBRANCH  11  14
ENDBRANCH   3   8
TORSDOF 2
ENDMDL
MODEL       58
REMARK 921   NORMALIZED FREE ENERGY PREDICTED BY IDOCK:   -4.42 KCAL/MOL
REMARK 922        TOTAL FREE ENERGY PREDICTED BY IDOCK:   -5.42 KCAL/MOL
REMARK 923 INTER-LIGAND FREE ENERGY PREDICTED BY IDOCK:   -5.45 KCAL/MOL
REMARK 924 INTRA-LIGAND FREE ENERGY PREDICTED BY IDOCK:    0.03 KCAL/MOL
REMARK 927      BINDING AFFINITY PREDICTED BY RF-SCORE:    0.00 PKD
ROOT
HETATM    1  C   UNL     1      -9.593  13.153  66.515  1.00  0.00    -0.268 C  
HETATM    2  C   UNL     1     -10.867  12.762  65.749  1.00  0.00    -0.272 C  
HETATM    3  O   UNL     1     -11.789  11.911  66.485  1.00  0.00    -0.579 OA 
HETATM    4  C   UNL     1     -11.631  14.086  65.509  1.00  0.00    -0.332 C  
HETATM    5  C   UNL     1     -10.596  12.176  64.359  1.00  0.00    -0.363 C  
HETATM    6  O   UNL     1     -12.891  14.084  66.007  1.00  0.00    -0.438 OA 
HETATM    7  O   UNL     1     -11.171  15.055  64.915  1.00  0.00    -0.387 OA 
ENDROOT
BRANCH   3   8
HETATM    8  C   UNL     1     -11.314  10.922  67.300  1.00  0.00    -0.151 A  
HETATM    9  C   UNL     1     -10.616   9.888  66.674  1.00  0.00    -0.186 A  
HETATM   10  C   UNL     1     -10.201   8.763  67.405  1.00  0.00    -0.318 A  
HETATM   11  C   UNL     1     -10.471   8.649  68.777  1.00  0.00    -0.209 A  
HETATM   12  C   UNL     1     -11.102   9.739  69.393  1.00  0.00    -0.205 A  
HETATM   13  C   UNL     1     -11.479  10.874  68.676  1.00  0.00    -0.380 A  
BRANCH  11  14
HETATM   14  C   UNL     1     -10.213   7.386  69.561  1.00  0.00    -0.204 C  
HETATM   15  C   UNL     1     -11.297   6.411  69.932  1.00  0.00    -0.500 C  
HETATM   16  C   UNL     1     -10.271   6.017  68.909  1.00  0.00    -0.196 C  
HETATM   17 CL   UNL     1      -9.001   4.884  69.361  1.00  0.00    -0.123 Cl 
HETATM   18 CL   UNL     1     -10.863   5.774  67.270  1.00  0.00    -0.335 Cl 
ENDBRANCH  11  14
ENDBRANCH   3   8
TORSDOF 2
ENDMDL
MODEL       59
REMARK 921   NORMALIZED FREE ENERGY PREDICTED BY IDOCK:   -4.41 KCAL/MOL
REMARK 922        TOTAL FREE ENERGY PREDICTED BY IDOCK:   -5.40 KCAL/MOL
REMARK 923 INTER-LIGAND FREE ENERGY PREDICTED BY IDOCK:   -5.03 KCAL/MOL
REMARK 924 INTRA-LIGAND FREE ENERGY PREDICTED BY IDOCK:   -0.37 KCAL/MOL
REMARK 927      BINDING AFFINITY PREDICTED BY RF-SCORE:    0.00 PKD
ROOT
HETATM    1  C   UNL     1     -10.217   7.579  69.097  1.00  0.00    -0.202 C  
HETATM    2  C   UNL     1      -9.345   8.285  70.148  1.00  0.00    -0.159 C  
HETATM    3  O   UNL     1      -9.691   9.674  70.401  1.00  0.00    -0.250 OA 
HETATM    4  C   UNL     1      -9.615   7.542  71.479  1.00  0.00    -0.154 C  
HETATM    5  C   UNL     1      -7.839   8.150  69.891  1.00  0.00    -0.104 C  
HETATM    6  O   UNL     1     -10.059   8.351  72.471  1.00  0.00    -0.295 OA 
HETATM    7  O   UNL     1      -9.438   6.342  71.652  1.00  0.00    -0.155 OA 
ENDROOT
BRANCH   3   8
HETATM    8  C   UNL     1     -10.076  10.487  69.373  1.00  0.00    -0.209 A  
HETATM    9  C   UNL     1     -11.446  10.720  69.247  1.00  0.00    -0.369 A  
HETATM   10  C   UNL     1     -11.951  11.434  68.149  1.00  0.00    -0.201 A  
HETATM   11  C   UNL     1     -11.097  11.935  67.155  1.00  0.00    -0.347 A  
HETATM   12  C   UNL     1      -9.721  11.755  67.350  1.00  0.00    -0.186 A  
HETATM   13  C   UNL     1      -9.216  11.081  68.461  1.00  0.00    -0.177 A  
BRANCH  11  14
HETATM   14  C   UNL     1     -11.603  12.542  65.869  1.00  0.00    -0.454 C  
HETATM   15  C   UNL     1     -10.724  13.300  64.914  1.00  0.00    -0.365 C  
HETATM   16  C   UNL     1     -11.250  11.952  64.516  1.00  0.00    -0.319 C  
HETATM   17 CL   UNL     1     -12.559  11.855  63.342  1.00  0.00    -0.674 Cl 
HETATM   18 CL   UNL     1     -10.053  10.677  64.323  1.00  0.00    -0.410 Cl 
ENDBRANCH  11  14
ENDBRANCH   3   8
TORSDOF 2
ENDMDL
MODEL       60
REMARK 921   NORMALIZED FREE ENERGY PREDICTED BY IDOCK:   -4.37 KCAL/MOL
REMARK 922        TOTAL FREE ENERGY PREDICTED BY IDOCK:   -5.36 KCAL/MOL
REMARK 923 INTER-LIGAND FREE ENERGY PREDICTED BY IDOCK:   -4.81 KCAL/MOL
REMARK 924 INTRA-LIGAND FREE ENERGY PREDICTED BY IDOCK:   -0.55 KCAL/MOL
REMARK 927      BINDING AFFINITY PREDICTED BY RF-SCORE:    0.00 PKD
ROOT
HETATM    1  C   UNL     1     -11.017   6.780  67.270  1.00  0.00    -0.433 C  
HETATM    2  C   UNL     1      -9.484   6.815  67.155  1.00  0.00    -0.142 C  
HETATM    3  O   UNL     1      -8.878   8.112  67.411  1.00  0.00    -0.126 OA 
HETATM    4  C   UNL     1      -8.961   5.886  68.279  1.00  0.00    -0.112 C  
HETATM    5  C   UNL     1      -8.950   6.227  65.844  1.00  0.00    -0.122 C  
HETATM    6  O   UNL     1      -8.112   6.499  69.137  1.00  0.00    -0.109 OA 
HETATM    7  O   UNL     1      -9.259   4.703  68.396  1.00  0.00    -0.115 OA 
ENDROOT
BRANCH   3   8
HETATM    8  C   UNL     1      -9.486   9.255  66.975  1.00  0.00    -0.159 A  
HETATM    9  C   UNL     1     -10.067  10.059  67.956  1.00  0.00    -0.197 A  
HETATM   10  C   UNL     1     -10.826  11.185  67.598  1.00  0.00    -0.295 A  
HETATM   11  C   UNL     1     -11.018  11.533  66.252  1.00  0.00    -0.328 A  
HETATM   12  C   UNL     1     -10.355  10.754  65.295  1.00  0.00    -0.327 A  
HETATM   13  C   UNL     1      -9.569   9.659  65.650  1.00  0.00    -0.338 A  
BRANCH  11  14
HETATM   14  C   UNL     1     -11.972  12.616  65.814  1.00  0.00    -0.503 C  
HETATM   15  C   UNL     1     -12.380  13.763  66.697  1.00  0.00    -0.403 C  
HETATM   16  C   UNL     1     -11.494  14.026  65.514  1.00  0.00    -0.318 C  
HETATM   17 CL   UNL     1     -12.180  14.794  64.085  1.00  0.00    -0.438 Cl 
HETATM   18 CL   UNL     1      -9.859  14.567  65.872  1.00  0.00    -0.343 Cl 
ENDBRANCH  11  14
ENDBRANCH   3   8
TORSDOF 2
ENDMDL
MODEL       61
REMARK 921   NORMALIZED FREE ENERGY PREDICTED BY IDOCK:   -4.35 KCAL/MOL
REMARK 922        TOTAL FREE ENERGY PREDICTED BY IDOCK:   -5.34 KCAL/MOL
REMARK 923 INTER-LIGAND FREE ENERGY PREDICTED BY IDOCK:   -4.87 KCAL/MOL
REMARK 924 INTRA-LIGAND FREE ENERGY PREDICTED BY IDOCK:   -0.46 KCAL/MOL
REMARK 927      BINDING AFFINITY PREDICTED BY RF-SCORE:    0.00 PKD
ROOT
HETATM    1  C   UNL     1      -9.955  14.531  69.377  1.00  0.00     0.026 C  
HETATM    2  C   UNL     1     -11.415  14.931  69.102  1.00  0.00    -0.302 C  
HETATM    3  O   UNL     1     -12.269  13.854  68.629  1.00  0.00    -0.345 OA 
HETATM    4  C   UNL     1     -11.997  15.347  70.475  1.00  0.00    -0.357 C  
HETATM    5  C   UNL     1     -11.557  16.160  68.197  1.00  0.00    -0.133 C  
HETATM    6  O   UNL     1     -13.097  14.643  70.833  1.00  0.00    -0.355 OA 
HETATM    7  O   UNL     1     -11.536  16.234  71.185  1.00  0.00    -0.427 OA 
ENDROOT
BRANCH   3   8
HETATM    8  C   UNL     1     -11.783  12.922  67.756  1.00  0.00    -0.362 A  
HETATM    9  C   UNL     1     -11.585  11.639  68.267  1.00  0.00    -0.378 A  
HETATM   10  C   UNL     1     -10.970  10.647  67.488  1.00  0.00    -0.371 A  
HETATM   11  C   UNL     1     -10.542  10.914  66.178  1.00  0.00    -0.270 A  
HETATM   12  C   UNL     1     -10.827  12.187  65.665  1.00  0.00    -0.323 A  
HETATM   13  C   UNL     1     -11.474  13.161  66.425  1.00  0.00    -0.374 A  
BRANCH  11  14
HETATM   14  C   UNL     1      -9.714   9.945  65.372  1.00  0.00    -0.375 C  
HETATM   15  C   UNL     1      -8.364  10.288  64.803  1.00  0.00    -0.173 C  
HETATM   16  C   UNL     1      -8.456   9.309  65.936  1.00  0.00    -0.132 C  
HETATM   17 CL   UNL     1      -8.234   7.593  65.607  1.00  0.00    -0.130 Cl 
HETATM   18 CL   UNL     1      -7.742   9.818  67.462  1.00  0.00    -0.095 Cl 
ENDBRANCH  11  14
ENDBRANCH   3   8
TORSDOF 2
ENDMDL
MODEL       62
REMARK 921   NORMALIZED FREE ENERGY PREDICTED BY IDOCK:   -4.34 KCAL/MOL
REMARK 922        TOTAL FREE ENERGY PREDICTED BY IDOCK:   -5.32 KCAL/MOL
REMARK 923 INTER-LIGAND FREE ENERGY PREDICTED BY IDOCK:   -4.88 KCAL/MOL
REMARK 924 INTRA-LIGAND FREE ENERGY PREDICTED BY IDOCK:   -0.44 KCAL/MOL
REMARK 927      BINDING AFFINITY PREDICTED BY RF-SCORE:    0.00 PKD
ROOT
HETATM    1  C   UNL     1      -8.930  11.185  67.535  1.00  0.00    -0.139 C  
HETATM    2  C   UNL     1     -10.177  10.659  66.805  1.00  0.00    -0.233 C  
HETATM    3  O   UNL     1     -11.225  10.145  67.671  1.00  0.00    -0.284 OA 
HETATM    4  C   UNL     1     -10.793  11.890  66.097  1.00  0.00    -0.292 C  
HETATM    5  C   UNL     1      -9.862   9.651  65.694  1.00  0.00    -0.369 C  
HETATM    6  O   UNL     1     -12.080  12.128  66.445  1.00  0.00    -0.630 OA 
HETATM    7  O   UNL     1     -10.202  12.592  65.284  1.00  0.00    -0.279 OA 
ENDROOT
BRANCH   3   8
HETATM    8  C   UNL     1     -10.906   9.431  68.791  1.00  0.00    -0.114 A  
HETATM    9  C   UNL     1     -11.226  10.022  70.014  1.00  0.00    -0.345 A  
HETATM   10  C   UNL     1     -10.823   9.430  71.221  1.00  0.00    -0.431 A  
HETATM   11  C   UNL     1     -10.094   8.231  71.232  1.00  0.00    -0.249 A  
HETATM   12  C   UNL     1      -9.857   7.620  69.993  1.00  0.00    -0.180 A  
HETATM   13  C   UNL     1     -10.292   8.187  68.796  1.00  0.00    -0.220 A  
BRANCH  11  14
HETATM   14  C   UNL     1      -9.480   7.656  72.485  1.00  0.00    -0.222 C  
HETATM   15  C   UNL     1     -10.276   7.338  73.721  1.00  0.00    -0.370 C  
HETATM   16  C   UNL     1      -9.714   6.215  72.898  1.00  0.00    -0.158 C  
HETATM   17 CL   UNL     1      -8.308   5.336  73.494  1.00  0.00    -0.113 Cl 
HETATM   18 CL   UNL     1     -10.887   5.178  72.094  1.00  0.00    -0.253 Cl 
ENDBRANCH  11  14
ENDBRANCH   3   8
TORSDOF 2
ENDMDL
MODEL       63
REMARK 921   NORMALIZED FREE ENERGY PREDICTED BY IDOCK:   -4.33 KCAL/MOL
REMARK 922        TOTAL FREE ENERGY PREDICTED BY IDOCK:   -5.31 KCAL/MOL
REMARK 923 INTER-LIGAND FREE ENERGY PREDICTED BY IDOCK:   -4.81 KCAL/MOL
REMARK 924 INTRA-LIGAND FREE ENERGY PREDICTED BY IDOCK:   -0.50 KCAL/MOL
REMARK 927      BINDING AFFINITY PREDICTED BY RF-SCORE:    0.00 PKD
ROOT
HETATM    1  C   UNL     1      -7.405  18.623  66.066  1.00  0.00    -0.276 C  
HETATM    2  C   UNL     1      -8.130  19.403  67.176  1.00  0.00    -0.266 C  
HETATM    3  O   UNL     1      -8.399  18.642  68.386  1.00  0.00    -0.315 OA 
HETATM    4  C   UNL     1      -7.152  20.524  67.603  1.00  0.00    -0.321 C  
HETATM    5  C   UNL     1      -9.401  20.115  66.700  1.00  0.00    -0.490 C  
HETATM    6  O   UNL     1      -6.845  20.503  68.923  1.00  0.00    -0.166 OA 
HETATM    7  O   UNL     1      -6.694  21.372  66.846  1.00  0.00    -0.483 OA 
ENDROOT
BRANCH   3   8
HETATM    8  C   UNL     1      -8.771  17.330  68.306  1.00  0.00    -0.251 A  
HETATM    9  C   UNL     1      -7.904  16.405  68.890  1.00  0.00    -0.234 A  
HETATM   10  C   UNL     1      -8.130  15.027  68.748  1.00  0.00    -0.166 A  
HETATM   11  C   UNL     1      -9.230  14.542  68.024  1.00  0.00    -0.190 A  
HETATM   12  C   UNL     1     -10.126  15.494  67.519  1.00  0.00    -0.241 A  
HETATM   13  C   UNL     1      -9.924  16.863  67.692  1.00  0.00    -0.271 A  
BRANCH  11  14
HETATM   14  C   UNL     1      -9.412  13.083  67.688  1.00  0.00    -0.201 C  
HETATM   15  C   UNL     1      -9.155  11.973  68.670  1.00  0.00    -0.030 C  
HETATM   16  C   UNL     1     -10.565  12.273  68.252  1.00  0.00    -0.227 C  
HETATM   17 CL   UNL     1     -11.377  11.185  67.129  1.00  0.00    -0.324 Cl 
HETATM   18 CL   UNL     1     -11.632  12.892  69.506  1.00  0.00    -0.357 Cl 
ENDBRANCH  11  14
ENDBRANCH   3   8
TORSDOF 2
ENDMDL
MODEL       64
REMARK 921   NORMALIZED FREE ENERGY PREDICTED BY IDOCK:   -4.30 KCAL/MOL
REMARK 922        TOTAL FREE ENERGY PREDICTED BY IDOCK:   -5.28 KCAL/MOL
REMARK 923 INTER-LIGAND FREE ENERGY PREDICTED BY IDOCK:   -5.24 KCAL/MOL
REMARK 924 INTRA-LIGAND FREE ENERGY PREDICTED BY IDOCK:   -0.04 KCAL/MOL
REMARK 927      BINDING AFFINITY PREDICTED BY RF-SCORE:    0.00 PKD
ROOT
HETATM    1  C   UNL     1     -10.989  11.209  66.996  1.00  0.00    -0.348 C  
HETATM    2  C   UNL     1     -10.008  12.116  66.235  1.00  0.00    -0.229 C  
HETATM    3  O   UNL     1      -9.463  13.219  67.010  1.00  0.00    -0.227 OA 
HETATM    4  C   UNL     1      -8.795  11.218  65.887  1.00  0.00    -0.169 C  
HETATM    5  C   UNL     1     -10.551  12.624  64.894  1.00  0.00    -0.332 C  
HETATM    6  O   UNL     1      -7.617  11.691  66.359  1.00  0.00    -0.056 OA 
HETATM    7  O   UNL     1      -8.863  10.182  65.236  1.00  0.00    -0.158 OA 
ENDROOT
BRANCH   3   8
HETATM    8  C   UNL     1     -10.252  13.891  67.900  1.00  0.00    -0.241 A  
HETATM    9  C   UNL     1      -9.592  14.535  68.948  1.00  0.00    -0.158 A  
HETATM   10  C   UNL     1     -10.320  15.141  69.984  1.00  0.00    -0.180 A  
HETATM   11  C   UNL     1     -11.723  15.121  69.994  1.00  0.00    -0.341 A  
HETATM   12  C   UNL     1     -12.357  14.538  68.889  1.00  0.00    -0.091 A  
HETATM   13  C   UNL     1     -11.636  13.970  67.839  1.00  0.00    -0.377 A  
BRANCH  11  14
HETATM   14  C   UNL     1     -12.541  15.591  71.171  1.00  0.00    -0.509 C  
HETATM   15  C   UNL     1     -14.004  15.282  71.334  1.00  0.00    -0.601 C  
HETATM   16  C   UNL     1     -13.008  14.633  72.251  1.00  0.00    -0.355 C  
HETATM   17 CL   UNL     1     -12.874  15.203  73.912  1.00  0.00    -0.573 Cl 
HETATM   18 CL   UNL     1     -12.840  12.887  72.105  1.00  0.00    -0.294 Cl 
ENDBRANCH  11  14
ENDBRANCH   3   8
TORSDOF 2
ENDMDL
MODEL       65
REMARK 921   NORMALIZED FREE ENERGY PREDICTED BY IDOCK:   -4.28 KCAL/MOL
REMARK 922        TOTAL FREE ENERGY PREDICTED BY IDOCK:   -5.26 KCAL/MOL
REMARK 923 INTER-LIGAND FREE ENERGY PREDICTED BY IDOCK:   -5.03 KCAL/MOL
REMARK 924 INTRA-LIGAND FREE ENERGY PREDICTED BY IDOCK:   -0.23 KCAL/MOL
REMARK 927      BINDING AFFINITY PREDICTED BY RF-SCORE:    0.00 PKD
ROOT
HETATM    1  C   UNL     1     -10.238   7.975  68.974  1.00  0.00    -0.217 C  
HETATM    2  C   UNL     1     -10.318   8.909  70.194  1.00  0.00    -0.206 C  
HETATM    3  O   UNL     1     -10.933  10.201  69.939  1.00  0.00    -0.252 OA 
HETATM    4  C   UNL     1     -11.255   8.198  71.201  1.00  0.00    -0.257 C  
HETATM    5  C   UNL     1      -8.981   9.089  70.921  1.00  0.00    -0.300 C  
HETATM    6  O   UNL     1     -12.325   8.943  71.565  1.00  0.00    -0.298 OA 
HETATM    7  O   UNL     1     -11.063   7.075  71.653  1.00  0.00    -0.229 OA 
ENDROOT
BRANCH   3   8
HETATM    8  C   UNL     1     -10.699  10.856  68.763  1.00  0.00    -0.207 A  
HETATM    9  C   UNL     1      -9.816  11.935  68.821  1.00  0.00    -0.078 A  
HETATM   10  C   UNL     1      -9.610  12.750  67.696  1.00  0.00    -0.192 A  
HETATM   11  C   UNL     1     -10.280  12.502  66.488  1.00  0.00    -0.255 A  
HETATM   12  C   UNL     1     -11.097  11.365  66.437  1.00  0.00    -0.301 A  
HETATM   13  C   UNL     1     -11.271  10.532  67.542  1.00  0.00    -0.299 A  
BRANCH  11  14
HETATM   14  C   UNL     1     -10.236  13.452  65.317  1.00  0.00    -0.312 C  
HETATM   15  C   UNL     1     -10.949  13.192  64.018  1.00  0.00    -0.377 C  
HETATM   16  C   UNL     1     -11.441  14.286  64.921  1.00  0.00    -0.378 C  
HETATM   17 CL   UNL     1     -11.121  15.963  64.489  1.00  0.00    -0.399 Cl 
HETATM   18 CL   UNL     1     -13.032  14.048  65.635  1.00  0.00    -0.471 Cl 
ENDBRANCH  11  14
ENDBRANCH   3   8
TORSDOF 2
ENDMDL
MODEL       66
REMARK 921   NORMALIZED FREE ENERGY PREDICTED BY IDOCK:   -4.22 KCAL/MOL
REMARK 922        TOTAL FREE ENERGY PREDICTED BY IDOCK:   -5.19 KCAL/MOL
REMARK 923 INTER-LIGAND FREE ENERGY PREDICTED BY IDOCK:   -4.82 KCAL/MOL
REMARK 924 INTRA-LIGAND FREE ENERGY PREDICTED BY IDOCK:   -0.37 KCAL/MOL
REMARK 927      BINDING AFFINITY PREDICTED BY RF-SCORE:    0.00 PKD
ROOT
HETATM    1  C   UNL     1     -12.098  13.628  66.439  1.00  0.00    -0.478 C  
HETATM    2  C   UNL     1     -10.848  13.931  67.282  1.00  0.00    -0.286 C  
HETATM    3  O   UNL     1      -9.779  12.952  67.169  1.00  0.00    -0.212 OA 
HETATM    4  C   UNL     1     -10.267  15.245  66.706  1.00  0.00    -0.272 C  
HETATM    5  C   UNL     1     -11.153  14.218  68.757  1.00  0.00    -0.276 C  
HETATM    6  O   UNL     1      -8.981  15.135  66.294  1.00  0.00    -0.289 OA 
HETATM    7  O   UNL     1     -10.882  16.303  66.632  1.00  0.00    -0.247 OA 
ENDROOT
BRANCH   3   8
HETATM    8  C   UNL     1     -10.070  11.621  67.081  1.00  0.00    -0.204 A  
HETATM    9  C   UNL     1     -10.660  11.040  68.205  1.00  0.00    -0.226 A  
HETATM   10  C   UNL     1     -10.878   9.655  68.262  1.00  0.00    -0.230 A  
HETATM   11  C   UNL     1     -10.515   8.819  67.194  1.00  0.00    -0.354 A  
HETATM   12  C   UNL     1     -10.000   9.440  66.049  1.00  0.00    -0.352 A  
HETATM   13  C   UNL     1      -9.820  10.821  65.976  1.00  0.00    -0.285 A  
BRANCH  11  14
HETATM   14  C   UNL     1     -10.556   7.313  67.282  1.00  0.00    -0.395 C  
HETATM   15  C   UNL     1      -9.520   6.422  66.653  1.00  0.00    -0.191 C  
HETATM   16  C   UNL     1      -9.581   6.538  68.148  1.00  0.00    -0.123 C  
HETATM   17 CL   UNL     1     -10.257   5.207  69.084  1.00  0.00    -0.279 Cl 
HETATM   18 CL   UNL     1      -8.197   7.296  68.926  1.00  0.00    -0.124 Cl 
ENDBRANCH  11  14
ENDBRANCH   3   8
TORSDOF 2
ENDMDL
MODEL       67
REMARK 921   NORMALIZED FREE ENERGY PREDICTED BY IDOCK:   -4.18 KCAL/MOL
REMARK 922        TOTAL FREE ENERGY PREDICTED BY IDOCK:   -5.15 KCAL/MOL
REMARK 923 INTER-LIGAND FREE ENERGY PREDICTED BY IDOCK:   -4.95 KCAL/MOL
REMARK 924 INTRA-LIGAND FREE ENERGY PREDICTED BY IDOCK:   -0.20 KCAL/MOL
REMARK 927      BINDING AFFINITY PREDICTED BY RF-SCORE:    0.00 PKD
ROOT
HETATM    1  C   UNL     1     -11.235  12.427  67.342  1.00  0.00    -0.351 C  
HETATM    2  C   UNL     1     -11.173  12.418  65.805  1.00  0.00    -0.333 C  
HETATM    3  O   UNL     1     -11.126  11.097  65.199  1.00  0.00    -0.150 OA 
HETATM    4  C   UNL     1     -12.508  13.042  65.331  1.00  0.00    -0.476 C  
HETATM    5  C   UNL     1     -10.066  13.308  65.228  1.00  0.00    -0.254 C  
HETATM    6  O   UNL     1     -13.221  12.236  64.509  1.00  0.00    -0.799 OA 
HETATM    7  O   UNL     1     -12.900  14.161  65.642  1.00  0.00    -0.529 OA 
ENDROOT
BRANCH   3   8
HETATM    8  C   UNL     1     -10.401  10.097  65.783  1.00  0.00    -0.146 A  
HETATM    9  C   UNL     1      -9.243   9.700  65.112  1.00  0.00    -0.305 A  
HETATM   10  C   UNL     1      -8.501   8.596  65.560  1.00  0.00    -0.181 A  
HETATM   11  C   UNL     1      -8.898   7.866  66.691  1.00  0.00    -0.166 A  
HETATM   12  C   UNL     1     -10.017   8.337  67.390  1.00  0.00    -0.271 A  
HETATM   13  C   UNL     1     -10.732   9.458  66.968  1.00  0.00    -0.207 A  
BRANCH  11  14
HETATM   14  C   UNL     1      -8.244   6.569  67.101  1.00  0.00    -0.113 C  
HETATM   15  C   UNL     1      -8.730   5.728  68.249  1.00  0.00    -0.111 C  
HETATM   16  C   UNL     1      -8.906   5.228  66.845  1.00  0.00    -0.110 C  
HETATM   17 CL   UNL     1      -7.858   3.940  66.256  1.00  0.00    -0.089 Cl 
HETATM   18 CL   UNL     1     -10.564   5.085  66.273  1.00  0.00    -0.362 Cl 
ENDBRANCH  11  14
ENDBRANCH   3   8
TORSDOF 2
ENDMDL
MODEL       68
REMARK 921   NORMALIZED FREE ENERGY PREDICTED BY IDOCK:   -4.13 KCAL/MOL
REMARK 922        TOTAL FREE ENERGY PREDICTED BY IDOCK:   -5.09 KCAL/MOL
REMARK 923 INTER-LIGAND FREE ENERGY PREDICTED BY IDOCK:   -4.72 KCAL/MOL
REMARK 924 INTRA-LIGAND FREE ENERGY PREDICTED BY IDOCK:   -0.36 KCAL/MOL
REMARK 927      BINDING AFFINITY PREDICTED BY RF-SCORE:    0.00 PKD
ROOT
HETATM    1  C   UNL     1     -11.689   8.167  70.824  1.00  0.00    -0.211 C  
HETATM    2  C   UNL     1     -10.505   7.265  70.440  1.00  0.00    -0.220 C  
HETATM    3  O   UNL     1      -9.435   7.932  69.715  1.00  0.00    -0.163 OA 
HETATM    4  C   UNL     1      -9.875   6.813  71.780  1.00  0.00    -0.163 C  
HETATM    5  C   UNL     1     -10.918   5.979  69.716  1.00  0.00    -0.471 C  
HETATM    6  O   UNL     1      -8.563   7.128  71.897  1.00  0.00    -0.116 OA 
HETATM    7  O   UNL     1     -10.477   6.212  72.662  1.00  0.00    -0.194 OA 
ENDROOT
BRANCH   3   8
HETATM    8  C   UNL     1      -9.726   8.882  68.778  1.00  0.00    -0.164 A  
HETATM    9  C   UNL     1     -10.202   8.417  67.551  1.00  0.00    -0.308 A  
HETATM   10  C   UNL     1     -10.406   9.303  66.482  1.00  0.00    -0.270 A  
HETATM   11  C   UNL     1     -10.142  10.675  66.616  1.00  0.00    -0.270 A  
HETATM   12  C   UNL     1      -9.743  11.123  67.882  1.00  0.00    -0.184 A  
HETATM   13  C   UNL     1      -9.578  10.250  68.956  1.00  0.00    -0.210 A  
BRANCH  11  14
HETATM   14  C   UNL     1     -10.167  11.632  65.450  1.00  0.00    -0.306 C  
HETATM   15  C   UNL     1     -11.325  11.740  64.496  1.00  0.00    -0.349 C  
HETATM   16  C   UNL     1     -11.050  12.865  65.450  1.00  0.00    -0.281 C  
HETATM   17 CL   UNL     1     -10.321  14.348  64.839  1.00  0.00    -0.452 Cl 
HETATM   18 CL   UNL     1     -12.272  13.154  66.683  1.00  0.00    -0.393 Cl 
ENDBRANCH  11  14
ENDBRANCH   3   8
TORSDOF 2
ENDMDL
MODEL       69
REMARK 921   NORMALIZED FREE ENERGY PREDICTED BY IDOCK:   -4.12 KCAL/MOL
REMARK 922        TOTAL FREE ENERGY PREDICTED BY IDOCK:   -5.08 KCAL/MOL
REMARK 923 INTER-LIGAND FREE ENERGY PREDICTED BY IDOCK:   -4.86 KCAL/MOL
REMARK 924 INTRA-LIGAND FREE ENERGY PREDICTED BY IDOCK:   -0.22 KCAL/MOL
REMARK 927      BINDING AFFINITY PREDICTED BY RF-SCORE:    0.00 PKD
ROOT
HETATM    1  C   UNL     1      -8.051  18.237  68.499  1.00  0.00    -0.330 C  
HETATM    2  C   UNL     1      -8.715  18.280  67.112  1.00  0.00    -0.256 C  
HETATM    3  O   UNL     1      -9.978  17.567  67.013  1.00  0.00    -0.288 OA 
HETATM    4  C   UNL     1      -9.061  19.769  66.863  1.00  0.00    -0.347 C  
HETATM    5  C   UNL     1      -7.780  17.870  65.968  1.00  0.00    -0.216 C  
HETATM    6  O   UNL     1     -10.375  19.985  66.615  1.00  0.00    -0.443 OA 
HETATM    7  O   UNL     1      -8.244  20.682  66.869  1.00  0.00    -0.253 OA 
ENDROOT
BRANCH   3   8
HETATM    8  C   UNL     1     -10.152  16.380  67.667  1.00  0.00    -0.263 A  
HETATM    9  C   UNL     1      -9.279  15.348  67.319  1.00  0.00    -0.217 A  
HETATM   10  C   UNL     1      -9.458  14.056  67.839  1.00  0.00    -0.210 A  
HETATM   11  C   UNL     1     -10.511  13.768  68.720  1.00  0.00    -0.224 A  
HETATM   12  C   UNL     1     -11.321  14.841  69.114  1.00  0.00    -0.302 A  
HETATM   13  C   UNL     1     -11.120  16.134  68.629  1.00  0.00    -0.356 A  
BRANCH  11  14
HETATM   14  C   UNL     1     -10.855  12.365  69.155  1.00  0.00    -0.148 C  
HETATM   15  C   UNL     1     -12.244  11.794  69.074  1.00  0.00    -0.132 C  
HETATM   16  C   UNL     1     -11.181  11.276  68.150  1.00  0.00    -0.286 C  
HETATM   17 CL   UNL     1     -10.474   9.692  68.460  1.00  0.00    -0.231 Cl 
HETATM   18 CL   UNL     1     -11.410  11.607  66.437  1.00  0.00    -0.361 Cl 
ENDBRANCH  11  14
ENDBRANCH   3   8
TORSDOF 2
ENDMDL
MODEL       70
REMARK 921   NORMALIZED FREE ENERGY PREDICTED BY IDOCK:   -4.08 KCAL/MOL
REMARK 922        TOTAL FREE ENERGY PREDICTED BY IDOCK:   -5.04 KCAL/MOL
REMARK 923 INTER-LIGAND FREE ENERGY PREDICTED BY IDOCK:   -4.68 KCAL/MOL
REMARK 924 INTRA-LIGAND FREE ENERGY PREDICTED BY IDOCK:   -0.36 KCAL/MOL
REMARK 927      BINDING AFFINITY PREDICTED BY RF-SCORE:    0.00 PKD
ROOT
HETATM    1  C   UNL     1     -11.083   6.413  67.244  1.00  0.00    -0.416 C  
HETATM    2  C   UNL     1      -9.547   6.485  67.234  1.00  0.00    -0.126 C  
HETATM    3  O   UNL     1      -8.989   7.770  67.624  1.00  0.00    -0.127 OA 
HETATM    4  C   UNL     1      -9.077   5.485  68.319  1.00  0.00    -0.108 C  
HETATM    5  C   UNL     1      -8.915   6.006  65.922  1.00  0.00    -0.144 C  
HETATM    6  O   UNL     1      -8.299   6.048  69.275  1.00  0.00    -0.112 OA 
HETATM    7  O   UNL     1      -9.354   4.291  68.329  1.00  0.00    -0.133 OA 
ENDROOT
BRANCH   3   8
HETATM    8  C   UNL     1      -9.594   8.930  67.232  1.00  0.00    -0.164 A  
HETATM    9  C   UNL     1      -9.269   9.398  65.958  1.00  0.00    -0.253 A  
HETATM   10  C   UNL     1      -9.736  10.646  65.515  1.00  0.00    -0.291 A  
HETATM   11  C   UNL     1     -10.541  11.452  66.335  1.00  0.00    -0.311 A  
HETATM   12  C   UNL     1     -10.916  10.920  67.576  1.00  0.00    -0.352 A  
HETATM   13  C   UNL     1     -10.486   9.664  68.001  1.00  0.00    -0.276 A  
BRANCH  11  14
HETATM   14  C   UNL     1     -10.911  12.871  65.980  1.00  0.00    -0.300 C  
HETATM   15  C   UNL     1     -10.348  13.596  64.788  1.00  0.00    -0.414 C  
HETATM   16  C   UNL     1     -11.793  13.190  64.787  1.00  0.00    -0.369 C  
HETATM   17 CL   UNL     1     -13.029  14.420  65.037  1.00  0.00    -0.149 Cl 
HETATM   18 CL   UNL     1     -12.257  11.975  63.601  1.00  0.00    -0.630 Cl 
ENDBRANCH  11  14
ENDBRANCH   3   8
TORSDOF 2
ENDMDL
MODEL       71
REMARK 921   NORMALIZED FREE ENERGY PREDICTED BY IDOCK:   -4.06 KCAL/MOL
REMARK 922        TOTAL FREE ENERGY PREDICTED BY IDOCK:   -5.01 KCAL/MOL
REMARK 923 INTER-LIGAND FREE ENERGY PREDICTED BY IDOCK:   -4.50 KCAL/MOL
REMARK 924 INTRA-LIGAND FREE ENERGY PREDICTED BY IDOCK:   -0.51 KCAL/MOL
REMARK 927      BINDING AFFINITY PREDICTED BY RF-SCORE:    0.00 PKD
ROOT
HETATM    1  C   UNL     1     -10.100  10.205  65.704  1.00  0.00    -0.324 C  
HETATM    2  C   UNL     1      -8.734   9.579  65.381  1.00  0.00    -0.164 C  
HETATM    3  O   UNL     1      -8.604   8.174  65.732  1.00  0.00    -0.141 OA 
HETATM    4  C   UNL     1      -8.605   9.633  63.839  1.00  0.00    -0.206 C  
HETATM    5  C   UNL     1      -7.545  10.377  65.929  1.00  0.00    -0.146 C  
HETATM    6  O   UNL     1      -8.398   8.422  63.270  1.00  0.00    -0.157 OA 
HETATM    7  O   UNL     1      -8.665  10.660  63.174  1.00  0.00    -0.177 OA 
ENDROOT
BRANCH   3   8
HETATM    8  C   UNL     1      -9.168   7.695  66.880  1.00  0.00    -0.145 A  
HETATM    9  C   UNL     1     -10.324   6.927  66.728  1.00  0.00    -0.287 A  
HETATM   10  C   UNL     1     -11.050   6.499  67.850  1.00  0.00    -0.352 A  
HETATM   11  C   UNL     1     -10.635   6.826  69.150  1.00  0.00    -0.261 A  
HETATM   12  C   UNL     1      -9.428   7.528  69.274  1.00  0.00    -0.154 A  
HETATM   13  C   UNL     1      -8.685   7.919  68.161  1.00  0.00    -0.126 A  
BRANCH  11  14
HETATM   14  C   UNL     1     -11.476   6.551  70.373  1.00  0.00    -0.465 C  
HETATM   15  C   UNL     1     -11.030   6.882  71.771  1.00  0.00    -0.259 C  
HETATM   16  C   UNL     1     -12.145   7.671  71.148  1.00  0.00    -0.298 C  
HETATM   17 CL   UNL     1     -13.801   7.377  71.672  1.00  0.00    -0.489 Cl 
HETATM   18 CL   UNL     1     -11.812   9.370  70.833  1.00  0.00    -0.352 Cl 
ENDBRANCH  11  14
ENDBRANCH   3   8
TORSDOF 2
ENDMDL
MODEL       72
REMARK 921   NORMALIZED FREE ENERGY PREDICTED BY IDOCK:   -4.06 KCAL/MOL
REMARK 922        TOTAL FREE ENERGY PREDICTED BY IDOCK:   -5.01 KCAL/MOL
REMARK 923 INTER-LIGAND FREE ENERGY PREDICTED BY IDOCK:   -4.47 KCAL/MOL
REMARK 924 INTRA-LIGAND FREE ENERGY PREDICTED BY IDOCK:   -0.53 KCAL/MOL
REMARK 927      BINDING AFFINITY PREDICTED BY RF-SCORE:    0.00 PKD
ROOT
HETATM    1  C   UNL     1     -11.073  15.542  68.298  1.00  0.00    -0.322 C  
HETATM    2  C   UNL     1      -9.785  16.125  67.692  1.00  0.00    -0.233 C  
HETATM    3  O   UNL     1      -9.162  15.304  66.667  1.00  0.00    -0.235 OA 
HETATM    4  C   UNL     1     -10.217  17.426  66.973  1.00  0.00    -0.323 C  
HETATM    5  C   UNL     1      -8.748  16.549  68.738  1.00  0.00    -0.259 C  
HETATM    6  O   UNL     1      -9.895  17.451  65.657  1.00  0.00    -0.544 OA 
HETATM    7  O   UNL     1     -10.782  18.366  67.519  1.00  0.00    -0.424 OA 
ENDROOT
BRANCH   3   8
HETATM    8  C   UNL     1      -9.142  13.943  66.792  1.00  0.00    -0.223 A  
HETATM    9  C   UNL     1     -10.066  13.237  66.021  1.00  0.00    -0.301 A  
HETATM   10  C   UNL     1     -10.211  11.849  66.174  1.00  0.00    -0.258 A  
HETATM   11  C   UNL     1      -9.434  11.136  67.100  1.00  0.00    -0.187 A  
HETATM   12  C   UNL     1      -8.460  11.859  67.801  1.00  0.00    -0.154 A  
HETATM   13  C   UNL     1      -8.287  13.231  67.621  1.00  0.00    -0.181 A  
BRANCH  11  14
HETATM   14  C   UNL     1      -9.682   9.686  67.433  1.00  0.00    -0.198 C  
HETATM   15  C   UNL     1     -10.644   8.817  66.670  1.00  0.00    -0.141 C  
HETATM   16  C   UNL     1      -9.170   8.566  66.546  1.00  0.00    -0.190 C  
HETATM   17 CL   UNL     1      -8.465   7.178  67.370  1.00  0.00    -0.122 Cl 
HETATM   18 CL   UNL     1      -8.462   8.861  64.962  1.00  0.00    -0.179 Cl 
ENDBRANCH  11  14
ENDBRANCH   3   8
TORSDOF 2
ENDMDL
MODEL       73
REMARK 921   NORMALIZED FREE ENERGY PREDICTED BY IDOCK:   -4.04 KCAL/MOL
REMARK 922        TOTAL FREE ENERGY PREDICTED BY IDOCK:   -4.99 KCAL/MOL
REMARK 923 INTER-LIGAND FREE ENERGY PREDICTED BY IDOCK:   -4.46 KCAL/MOL
REMARK 924 INTRA-LIGAND FREE ENERGY PREDICTED BY IDOCK:   -0.54 KCAL/MOL
REMARK 927      BINDING AFFINITY PREDICTED BY RF-SCORE:    0.00 PKD
ROOT
HETATM    1  C   UNL     1     -10.857  13.452  64.771  1.00  0.00    -0.387 C  
HETATM    2  C   UNL     1     -11.002  14.560  65.828  1.00  0.00    -0.319 C  
HETATM    3  O   UNL     1     -10.032  14.508  66.910  1.00  0.00    -0.250 OA 
HETATM    4  C   UNL     1     -10.717  15.886  65.082  1.00  0.00    -0.429 C  
HETATM    5  C   UNL     1     -12.421  14.692  66.391  1.00  0.00     0.053 C  
HETATM    6  O   UNL     1      -9.707  16.608  65.625  1.00  0.00    -0.530 OA 
HETATM    7  O   UNL     1     -11.339  16.278  64.102  1.00  0.00    -0.788 OA 
ENDROOT
BRANCH   3   8
HETATM    8  C   UNL     1      -9.640  13.306  67.427  1.00  0.00    -0.223 A  
HETATM    9  C   UNL     1      -8.275  13.021  67.366  1.00  0.00    -0.183 A  
HETATM   10  C   UNL     1      -7.791  11.761  67.752  1.00  0.00    -0.135 A  
HETATM   11  C   UNL     1      -8.659  10.759  68.210  1.00  0.00    -0.135 A  
HETATM   12  C   UNL     1     -10.012  11.101  68.337  1.00  0.00    -0.193 A  
HETATM   13  C   UNL     1     -10.489  12.365  67.991  1.00  0.00    -0.227 A  
BRANCH  11  14
HETATM   14  C   UNL     1      -8.214   9.339  68.457  1.00  0.00    -0.114 C  
HETATM   15  C   UNL     1      -9.173   8.193  68.633  1.00  0.00    -0.143 C  
HETATM   16  C   UNL     1      -8.337   8.268  67.389  1.00  0.00    -0.125 C  
HETATM   17 CL   UNL     1      -6.963   7.180  67.213  1.00  0.00    -0.076 Cl 
HETATM   18 CL   UNL     1      -9.207   8.530  65.882  1.00  0.00    -0.257 Cl 
ENDBRANCH  11  14
ENDBRANCH   3   8
TORSDOF 2
ENDMDL
MODEL       74
REMARK 921   NORMALIZED FREE ENERGY PREDICTED BY IDOCK:   -4.01 KCAL/MOL
REMARK 922        TOTAL FREE ENERGY PREDICTED BY IDOCK:   -4.96 KCAL/MOL
REMARK 923 INTER-LIGAND FREE ENERGY PREDICTED BY IDOCK:   -4.74 KCAL/MOL
REMARK 924 INTRA-LIGAND FREE ENERGY PREDICTED BY IDOCK:   -0.22 KCAL/MOL
REMARK 927      BINDING AFFINITY PREDICTED BY RF-SCORE:    0.00 PKD
ROOT
HETATM    1  C   UNL     1     -10.858   7.186  67.670  1.00  0.00    -0.279 C  
HETATM    2  C   UNL     1      -9.807   7.510  68.746  1.00  0.00    -0.166 C  
HETATM    3  O   UNL     1      -9.947   8.817  69.367  1.00  0.00    -0.186 OA 
HETATM    4  C   UNL     1     -10.046   6.486  69.882  1.00  0.00    -0.173 C  
HETATM    5  C   UNL     1      -8.363   7.292  68.282  1.00  0.00    -0.125 C  
HETATM    6  O   UNL     1     -10.289   7.058  71.085  1.00  0.00    -0.206 OA 
HETATM    7  O   UNL     1     -10.011   5.269  69.738  1.00  0.00    -0.192 OA 
ENDROOT
BRANCH   3   8
HETATM    8  C   UNL     1     -10.317   9.899  68.619  1.00  0.00    -0.195 A  
HETATM    9  C   UNL     1      -9.390  10.347  67.677  1.00  0.00    -0.161 A  
HETATM   10  C   UNL     1      -9.621  11.527  66.952  1.00  0.00    -0.203 A  
HETATM   11  C   UNL     1     -10.786  12.283  67.150  1.00  0.00    -0.282 A  
HETATM   12  C   UNL     1     -11.735  11.766  68.043  1.00  0.00    -0.363 A  
HETATM   13  C   UNL     1     -11.524  10.573  68.734  1.00  0.00    -0.291 A  
BRANCH  11  14
HETATM   14  C   UNL     1     -10.993  13.646  66.537  1.00  0.00    -0.295 C  
HETATM   15  C   UNL     1      -9.882  14.448  65.917  1.00  0.00    -0.336 C  
HETATM   16  C   UNL     1     -10.945  13.860  65.035  1.00  0.00    -0.368 C  
HETATM   17 CL   UNL     1     -12.179  14.918  64.358  1.00  0.00    -0.474 Cl 
HETATM   18 CL   UNL     1     -10.421  12.606  63.917  1.00  0.00    -0.442 Cl 
ENDBRANCH  11  14
ENDBRANCH   3   8
TORSDOF 2
ENDMDL
MODEL       75
REMARK 921   NORMALIZED FREE ENERGY PREDICTED BY IDOCK:   -4.00 KCAL/MOL
REMARK 922        TOTAL FREE ENERGY PREDICTED BY IDOCK:   -4.95 KCAL/MOL
REMARK 923 INTER-LIGAND FREE ENERGY PREDICTED BY IDOCK:   -4.63 KCAL/MOL
REMARK 924 INTRA-LIGAND FREE ENERGY PREDICTED BY IDOCK:   -0.32 KCAL/MOL
REMARK 927      BINDING AFFINITY PREDICTED BY RF-SCORE:    0.00 PKD
ROOT
HETATM    1  C   UNL     1     -12.233  14.780  68.001  1.00  0.00    -0.028 C  
HETATM    2  C   UNL     1     -11.209  14.168  68.971  1.00  0.00    -0.271 C  
HETATM    3  O   UNL     1     -10.020  13.617  68.342  1.00  0.00    -0.231 OA 
HETATM    4  C   UNL     1     -10.707  15.345  69.843  1.00  0.00    -0.303 C  
HETATM    5  C   UNL     1     -11.815  13.152  69.947  1.00  0.00    -0.378 C  
HETATM    6  O   UNL     1      -9.365  15.519  69.799  1.00  0.00    -0.274 OA 
HETATM    7  O   UNL     1     -11.431  16.058  70.528  1.00  0.00    -0.354 OA 
ENDROOT
BRANCH   3   8
HETATM    8  C   UNL     1     -10.115  12.949  67.154  1.00  0.00    -0.243 A  
HETATM    9  C   UNL     1     -10.097  11.555  67.224  1.00  0.00    -0.223 A  
HETATM   10  C   UNL     1     -10.058  10.782  66.054  1.00  0.00    -0.305 A  
HETATM   11  C   UNL     1     -10.041  11.384  64.786  1.00  0.00    -0.326 A  
HETATM   12  C   UNL     1     -10.141  12.781  64.746  1.00  0.00    -0.240 A  
HETATM   13  C   UNL     1     -10.219  13.549  65.908  1.00  0.00    -0.306 A  
BRANCH  11  14
HETATM   14  C   UNL     1      -9.813  10.608  63.513  1.00  0.00    -0.384 C  
HETATM   15  C   UNL     1      -8.905  11.082  62.411  1.00  0.00    -0.358 C  
HETATM   16  C   UNL     1      -8.502   9.896  63.238  1.00  0.00    -0.180 C  
HETATM   17 CL   UNL     1      -8.622   8.283  62.539  1.00  0.00    -0.095 Cl 
HETATM   18 CL   UNL     1      -7.080  10.105  64.253  1.00  0.00    -0.125 Cl 
ENDBRANCH  11  14
ENDBRANCH   3   8
TORSDOF 2
ENDMDL
MODEL       76
REMARK 921   NORMALIZED FREE ENERGY PREDICTED BY IDOCK:   -4.00 KCAL/MOL
REMARK 922        TOTAL FREE ENERGY PREDICTED BY IDOCK:   -4.94 KCAL/MOL
REMARK 923 INTER-LIGAND FREE ENERGY PREDICTED BY IDOCK:   -4.57 KCAL/MOL
REMARK 924 INTRA-LIGAND FREE ENERGY PREDICTED BY IDOCK:   -0.37 KCAL/MOL
REMARK 927      BINDING AFFINITY PREDICTED BY RF-SCORE:    0.00 PKD
ROOT
HETATM    1  C   UNL     1      -8.806  11.456  66.343  1.00  0.00    -0.193 C  
HETATM    2  C   UNL     1      -9.636  11.703  67.614  1.00  0.00    -0.181 C  
HETATM    3  O   UNL     1     -10.071  13.076  67.807  1.00  0.00    -0.219 OA 
HETATM    4  C   UNL     1     -10.935  10.880  67.429  1.00  0.00    -0.293 C  
HETATM    5  C   UNL     1      -8.980  11.168  68.892  1.00  0.00    -0.089 C  
HETATM    6  O   UNL     1     -12.064  11.624  67.512  1.00  0.00    -0.611 OA 
HETATM    7  O   UNL     1     -10.968   9.670  67.240  1.00  0.00    -0.224 OA 
ENDROOT
BRANCH   3   8
HETATM    8  C   UNL     1      -9.243  14.114  67.484  1.00  0.00    -0.192 A  
HETATM    9  C   UNL     1      -8.157  14.326  68.335  1.00  0.00    -0.142 A  
HETATM   10  C   UNL     1      -7.324  15.443  68.163  1.00  0.00    -0.122 A  
HETATM   11  C   UNL     1      -7.555  16.370  67.135  1.00  0.00    -0.224 A  
HETATM   12  C   UNL     1      -8.603  16.086  66.249  1.00  0.00    -0.363 A  
HETATM   13  C   UNL     1      -9.407  14.956  66.395  1.00  0.00    -0.327 A  
BRANCH  11  14
HETATM   14  C   UNL     1      -6.806  17.675  67.025  1.00  0.00    -0.202 C  
HETATM   15  C   UNL     1      -7.114  18.716  65.984  1.00  0.00    -0.302 C  
HETATM   16  C   UNL     1      -7.442  18.994  67.421  1.00  0.00    -0.229 C  
HETATM   17 CL   UNL     1      -6.426  20.108  68.333  1.00  0.00    -0.324 Cl 
HETATM   18 CL   UNL     1      -9.152  19.141  67.813  1.00  0.00    -0.331 Cl 
ENDBRANCH  11  14
ENDBRANCH   3   8
TORSDOF 2
ENDMDL
MODEL       77
REMARK 921   NORMALIZED FREE ENERGY PREDICTED BY IDOCK:   -3.99 KCAL/MOL
REMARK 922        TOTAL FREE ENERGY PREDICTED BY IDOCK:   -4.93 KCAL/MOL
REMARK 923 INTER-LIGAND FREE ENERGY PREDICTED BY IDOCK:   -4.40 KCAL/MOL
REMARK 924 INTRA-LIGAND FREE ENERGY PREDICTED BY IDOCK:   -0.53 KCAL/MOL
REMARK 927      BINDING AFFINITY PREDICTED BY RF-SCORE:    0.00 PKD
ROOT
HETATM    1  C   UNL     1     -11.770   7.091  70.623  1.00  0.00    -0.384 C  
HETATM    2  C   UNL     1     -11.278   8.506  70.973  1.00  0.00    -0.268 C  
HETATM    3  O   UNL     1     -10.815   9.292  69.841  1.00  0.00    -0.229 OA 
HETATM    4  C   UNL     1     -12.520   9.255  71.515  1.00  0.00    -0.355 C  
HETATM    5  C   UNL     1     -10.243   8.537  72.103  1.00  0.00    -0.403 C  
HETATM    6  O   UNL     1     -12.809  10.390  70.834  1.00  0.00    -0.357 OA 
HETATM    7  O   UNL     1     -13.187   8.888  72.475  1.00  0.00    -0.426 OA 
ENDROOT
BRANCH   3   8
HETATM    8  C   UNL     1     -10.107   8.700  68.834  1.00  0.00    -0.202 A  
HETATM    9  C   UNL     1     -10.644   8.812  67.551  1.00  0.00    -0.298 A  
HETATM   10  C   UNL     1     -10.062   8.130  66.471  1.00  0.00    -0.286 A  
HETATM   11  C   UNL     1      -8.928   7.323  66.649  1.00  0.00    -0.170 A  
HETATM   12  C   UNL     1      -8.364   7.294  67.931  1.00  0.00    -0.119 A  
HETATM   13  C   UNL     1      -8.918   8.003  68.997  1.00  0.00    -0.145 A  
BRANCH  11  14
HETATM   14  C   UNL     1      -8.381   6.428  65.565  1.00  0.00    -0.147 C  
HETATM   15  C   UNL     1      -7.454   5.275  65.837  1.00  0.00    -0.082 C  
HETATM   16  C   UNL     1      -8.861   4.998  65.394  1.00  0.00    -0.152 C  
HETATM   17 CL   UNL     1      -9.148   4.464  63.740  1.00  0.00    -0.143 Cl 
HETATM   18 CL   UNL     1      -9.903   4.203  66.567  1.00  0.00    -0.233 Cl 
ENDBRANCH  11  14
ENDBRANCH   3   8
TORSDOF 2
ENDMDL
MODEL       78
REMARK 921   NORMALIZED FREE ENERGY PREDICTED BY IDOCK:   -3.98 KCAL/MOL
REMARK 922        TOTAL FREE ENERGY PREDICTED BY IDOCK:   -4.92 KCAL/MOL
REMARK 923 INTER-LIGAND FREE ENERGY PREDICTED BY IDOCK:   -4.71 KCAL/MOL
REMARK 924 INTRA-LIGAND FREE ENERGY PREDICTED BY IDOCK:   -0.21 KCAL/MOL
REMARK 927      BINDING AFFINITY PREDICTED BY RF-SCORE:    0.00 PKD
ROOT
HETATM    1  C   UNL     1      -8.401   8.975  69.690  1.00  0.00    -0.125 C  
HETATM    2  C   UNL     1      -9.581   8.020  69.443  1.00  0.00    -0.160 C  
HETATM    3  O   UNL     1     -10.192   8.126  68.128  1.00  0.00    -0.196 OA 
HETATM    4  C   UNL     1      -8.982   6.594  69.505  1.00  0.00    -0.138 C  
HETATM    5  C   UNL     1     -10.655   8.072  70.535  1.00  0.00    -0.222 C  
HETATM    6  O   UNL     1      -9.197   5.866  68.383  1.00  0.00    -0.118 OA 
HETATM    7  O   UNL     1      -8.380   6.136  70.469  1.00  0.00    -0.124 OA 
ENDROOT
BRANCH   3   8
HETATM    8  C   UNL     1     -10.343   9.347  67.534  1.00  0.00    -0.255 A  
HETATM    9  C   UNL     1     -11.107  10.285  68.231  1.00  0.00    -0.311 A  
HETATM   10  C   UNL     1     -11.427  11.521  67.648  1.00  0.00    -0.357 A  
HETATM   11  C   UNL     1     -10.988  11.849  66.356  1.00  0.00    -0.337 A  
HETATM   12  C   UNL     1     -10.156  10.922  65.714  1.00  0.00    -0.308 A  
HETATM   13  C   UNL     1      -9.805   9.710  66.308  1.00  0.00    -0.323 A  
BRANCH  11  14
HETATM   14  C   UNL     1     -11.458  13.078  65.618  1.00  0.00    -0.365 C  
HETATM   15  C   UNL     1     -12.449  14.054  66.190  1.00  0.00    -0.467 C  
HETATM   16  C   UNL     1     -11.017  14.471  66.027  1.00  0.00    -0.324 C  
HETATM   17 CL   UNL     1     -10.587  15.569  64.719  1.00  0.00    -0.356 Cl 
HETATM   18 CL   UNL     1     -10.125  14.783  67.512  1.00  0.00    -0.224 Cl 
ENDBRANCH  11  14
ENDBRANCH   3   8
TORSDOF 2
ENDMDL
MODEL       79
REMARK 921   NORMALIZED FREE ENERGY PREDICTED BY IDOCK:   -3.96 KCAL/MOL
REMARK 922        TOTAL FREE ENERGY PREDICTED BY IDOCK:   -4.90 KCAL/MOL
REMARK 923 INTER-LIGAND FREE ENERGY PREDICTED BY IDOCK:   -4.29 KCAL/MOL
REMARK 924 INTRA-LIGAND FREE ENERGY PREDICTED BY IDOCK:   -0.61 KCAL/MOL
REMARK 927      BINDING AFFINITY PREDICTED BY RF-SCORE:    0.00 PKD
ROOT
HETATM    1  C   UNL     1     -11.128   7.803  69.977  1.00  0.00    -0.182 C  
HETATM    2  C   UNL     1     -10.914   8.939  70.992  1.00  0.00    -0.276 C  
HETATM    3  O   UNL     1     -10.874  10.275  70.419  1.00  0.00    -0.294 OA 
HETATM    4  C   UNL     1     -12.163   8.920  71.906  1.00  0.00    -0.374 C  
HETATM    5  C   UNL     1      -9.713   8.720  71.918  1.00  0.00    -0.386 C  
HETATM    6  O   UNL     1     -12.831  10.098  71.937  1.00  0.00    -0.413 OA 
HETATM    7  O   UNL     1     -12.528   7.952  72.563  1.00  0.00    -0.218 OA 
ENDROOT
BRANCH   3   8
HETATM    8  C   UNL     1     -10.261  10.491  69.217  1.00  0.00    -0.225 A  
HETATM    9  C   UNL     1     -11.099  10.748  68.132  1.00  0.00    -0.337 A  
HETATM   10  C   UNL     1     -10.575  10.854  66.834  1.00  0.00    -0.312 A  
HETATM   11  C   UNL     1      -9.200  10.710  66.593  1.00  0.00    -0.184 A  
HETATM   12  C   UNL     1      -8.375  10.534  67.711  1.00  0.00    -0.111 A  
HETATM   13  C   UNL     1      -8.890  10.467  69.005  1.00  0.00    -0.174 A  
BRANCH  11  14
HETATM   14  C   UNL     1      -8.616  10.631  65.204  1.00  0.00    -0.173 C  
HETATM   15  C   UNL     1      -7.227  10.127  64.922  1.00  0.00    -0.131 C  
HETATM   16  C   UNL     1      -8.408   9.301  64.502  1.00  0.00    -0.164 C  
HETATM   17 CL   UNL     1      -8.849   9.242  62.798  1.00  0.00    -0.226 Cl 
HETATM   18 CL   UNL     1      -8.607   7.757  65.321  1.00  0.00    -0.111 Cl 
ENDBRANCH  11  14
ENDBRANCH   3   8
TORSDOF 2
ENDMDL
MODEL       80
REMARK 921   NORMALIZED FREE ENERGY PREDICTED BY IDOCK:   -3.94 KCAL/MOL
REMARK 922        TOTAL FREE ENERGY PREDICTED BY IDOCK:   -4.87 KCAL/MOL
REMARK 923 INTER-LIGAND FREE ENERGY PREDICTED BY IDOCK:   -4.49 KCAL/MOL
REMARK 924 INTRA-LIGAND FREE ENERGY PREDICTED BY IDOCK:   -0.38 KCAL/MOL
REMARK 927      BINDING AFFINITY PREDICTED BY RF-SCORE:    0.00 PKD
ROOT
HETATM    1  C   UNL     1      -8.058  11.893  67.011  1.00  0.00    -0.167 C  
HETATM    2  C   UNL     1      -8.657  10.487  66.843  1.00  0.00    -0.125 C  
HETATM    3  O   UNL     1     -10.099  10.409  67.009  1.00  0.00    -0.197 OA 
HETATM    4  C   UNL     1      -8.390  10.094  65.370  1.00  0.00    -0.157 C  
HETATM    5  C   UNL     1      -7.964   9.416  67.694  1.00  0.00    -0.099 C  
HETATM    6  O   UNL     1      -9.513   9.783  64.679  1.00  0.00    -0.280 OA 
HETATM    7  O   UNL     1      -7.278  10.046  64.855  1.00  0.00    -0.131 OA 
ENDROOT
BRANCH   3   8
HETATM    8  C   UNL     1     -10.724  11.160  67.964  1.00  0.00    -0.211 A  
HETATM    9  C   UNL     1     -10.825  10.588  69.233  1.00  0.00    -0.284 A  
HETATM   10  C   UNL     1     -11.561  11.223  70.246  1.00  0.00    -0.366 A  
HETATM   11  C   UNL     1     -12.210  12.445  70.014  1.00  0.00    -0.264 A  
HETATM   12  C   UNL     1     -12.024  13.033  68.756  1.00  0.00    -0.302 A  
HETATM   13  C   UNL     1     -11.260  12.423  67.762  1.00  0.00    -0.327 A  
BRANCH  11  14
HETATM   14  C   UNL     1     -13.161  13.069  71.005  1.00  0.00    -0.100 C  
HETATM   15  C   UNL     1     -12.839  13.233  72.465  1.00  0.00    -0.129 C  
HETATM   16  C   UNL     1     -12.913  14.448  71.588  1.00  0.00    -0.341 C  
HETATM   17 CL   UNL     1     -14.314  15.509  71.707  1.00  0.00    -0.590 Cl 
HETATM   18 CL   UNL     1     -11.405  15.322  71.342  1.00  0.00    -0.419 Cl 
ENDBRANCH  11  14
ENDBRANCH   3   8
TORSDOF 2
ENDMDL
MODEL       81
REMARK 921   NORMALIZED FREE ENERGY PREDICTED BY IDOCK:   -3.89 KCAL/MOL
REMARK 922        TOTAL FREE ENERGY PREDICTED BY IDOCK:   -4.82 KCAL/MOL
REMARK 923 INTER-LIGAND FREE ENERGY PREDICTED BY IDOCK:   -4.91 KCAL/MOL
REMARK 924 INTRA-LIGAND FREE ENERGY PREDICTED BY IDOCK:    0.09 KCAL/MOL
REMARK 927      BINDING AFFINITY PREDICTED BY RF-SCORE:    0.00 PKD
ROOT
HETATM    1  C   UNL     1      -8.007   8.691  70.005  1.00  0.00    -0.106 C  
HETATM    2  C   UNL     1      -9.024   7.958  70.895  1.00  0.00    -0.143 C  
HETATM    3  O   UNL     1     -10.401   8.015  70.431  1.00  0.00    -0.200 OA 
HETATM    4  C   UNL     1      -8.629   6.462  70.833  1.00  0.00    -0.135 C  
HETATM    5  C   UNL     1      -8.944   8.351  72.375  1.00  0.00    -0.309 C  
HETATM    6  O   UNL     1      -9.629   5.655  70.404  1.00  0.00    -0.160 OA 
HETATM    7  O   UNL     1      -7.531   6.021  71.149  1.00  0.00    -0.081 OA 
ENDROOT
BRANCH   3   8
HETATM    8  C   UNL     1     -10.891   9.159  69.868  1.00  0.00    -0.228 A  
HETATM    9  C   UNL     1     -10.866   9.221  68.474  1.00  0.00    -0.119 A  
HETATM   10  C   UNL     1     -11.227  10.402  67.805  1.00  0.00    -0.309 A  
HETATM   11  C   UNL     1     -11.623  11.546  68.515  1.00  0.00    -0.377 A  
HETATM   12  C   UNL     1     -11.715  11.427  69.909  1.00  0.00    -0.424 A  
HETATM   13  C   UNL     1     -11.396  10.243  70.571  1.00  0.00    -0.422 A  
BRANCH  11  14
HETATM   14  C   UNL     1     -11.838  12.886  67.857  1.00  0.00    -0.388 C  
HETATM   15  C   UNL     1     -10.711  13.752  67.364  1.00  0.00    -0.279 C  
HETATM   16  C   UNL     1     -11.618  13.087  66.369  1.00  0.00    -0.363 C  
HETATM   17 CL   UNL     1     -12.824  14.057  65.526  1.00  0.00    -0.534 Cl 
HETATM   18 CL   UNL     1     -10.882  11.859  65.346  1.00  0.00    -0.332 Cl 
ENDBRANCH  11  14
ENDBRANCH   3   8
TORSDOF 2
ENDMDL
MODEL       82
REMARK 921   NORMALIZED FREE ENERGY PREDICTED BY IDOCK:   -3.87 KCAL/MOL
REMARK 922        TOTAL FREE ENERGY PREDICTED BY IDOCK:   -4.80 KCAL/MOL
REMARK 923 INTER-LIGAND FREE ENERGY PREDICTED BY IDOCK:   -4.34 KCAL/MOL
REMARK 924 INTRA-LIGAND FREE ENERGY PREDICTED BY IDOCK:   -0.46 KCAL/MOL
REMARK 927      BINDING AFFINITY PREDICTED BY RF-SCORE:    0.00 PKD
ROOT
HETATM    1  C   UNL     1      -9.091  10.249  69.538  1.00  0.00    -0.187 C  
HETATM    2  C   UNL     1     -10.384  10.053  68.729  1.00  0.00    -0.198 C  
HETATM    3  O   UNL     1     -10.524  10.924  67.573  1.00  0.00    -0.192 OA 
HETATM    4  C   UNL     1     -10.302   8.617  68.156  1.00  0.00    -0.216 C  
HETATM    5  C   UNL     1     -11.657  10.092  69.582  1.00  0.00    -0.216 C  
HETATM    6  O   UNL     1     -10.398   8.565  66.806  1.00  0.00    -0.295 OA 
HETATM    7  O   UNL     1     -10.178   7.605  68.836  1.00  0.00    -0.199 OA 
ENDROOT
BRANCH   3   8
HETATM    8  C   UNL     1     -10.109  12.224  67.635  1.00  0.00    -0.200 A  
HETATM    9  C   UNL     1     -10.997  13.130  68.217  1.00  0.00    -0.278 A  
HETATM   10  C   UNL     1     -10.719  14.506  68.211  1.00  0.00    -0.243 A  
HETATM   11  C   UNL     1      -9.546  15.006  67.627  1.00  0.00    -0.203 A  
HETATM   12  C   UNL     1      -8.636  14.067  67.124  1.00  0.00    -0.220 A  
HETATM   13  C   UNL     1      -8.893  12.697  67.164  1.00  0.00    -0.204 A  
BRANCH  11  14
HETATM   14  C   UNL     1      -9.293  16.481  67.430  1.00  0.00    -0.223 C  
HETATM   15  C   UNL     1      -8.594  17.043  66.223  1.00  0.00    -0.298 C  
HETATM   16  C   UNL     1     -10.063  17.292  66.405  1.00  0.00    -0.316 C  
HETATM   17 CL   UNL     1     -10.605  18.887  66.920  1.00  0.00    -0.486 Cl 
HETATM   18 CL   UNL     1     -11.129  16.550  65.218  1.00  0.00    -0.166 Cl 
ENDBRANCH  11  14
ENDBRANCH   3   8
TORSDOF 2
ENDMDL
MODEL       83
REMARK 921   NORMALIZED FREE ENERGY PREDICTED BY IDOCK:   -3.84 KCAL/MOL
REMARK 922        TOTAL FREE ENERGY PREDICTED BY IDOCK:   -4.76 KCAL/MOL
REMARK 923 INTER-LIGAND FREE ENERGY PREDICTED BY IDOCK:   -4.23 KCAL/MOL
REMARK 924 INTRA-LIGAND FREE ENERGY PREDICTED BY IDOCK:   -0.54 KCAL/MOL
REMARK 927      BINDING AFFINITY PREDICTED BY RF-SCORE:    0.00 PKD
ROOT
HETATM    1  C   UNL     1      -8.183  18.744  68.613  1.00  0.00    -0.363 C  
HETATM    2  C   UNL     1      -6.692  18.400  68.459  1.00  0.00    -0.244 C  
HETATM    3  O   UNL     1      -6.371  17.556  67.319  1.00  0.00    -0.137 OA 
HETATM    4  C   UNL     1      -5.981  19.748  68.187  1.00  0.00    -0.230 C  
HETATM    5  C   UNL     1      -6.053  17.839  69.734  1.00  0.00    -0.213 C  
HETATM    6  O   UNL     1      -5.275  19.765  67.031  1.00  0.00    -0.164 OA 
HETATM    7  O   UNL     1      -6.023  20.718  68.935  1.00  0.00    -0.345 OA 
ENDROOT
BRANCH   3   8
HETATM    8  C   UNL     1      -7.208  16.538  66.958  1.00  0.00    -0.212 A  
HETATM    9  C   UNL     1      -8.149  16.832  65.971  1.00  0.00    -0.144 A  
HETATM   10  C   UNL     1      -9.136  15.895  65.623  1.00  0.00    -0.003 A  
HETATM   11  C   UNL     1      -9.201  14.643  66.253  1.00  0.00    -0.257 A  
HETATM   12  C   UNL     1      -8.194  14.346  67.182  1.00  0.00    -0.202 A  
HETATM   13  C   UNL     1      -7.190  15.261  67.499  1.00  0.00    -0.224 A  
BRANCH  11  14
HETATM   14  C   UNL     1     -10.346  13.682  66.050  1.00  0.00    -0.305 C  
HETATM   15  C   UNL     1     -10.857  12.768  67.131  1.00  0.00    -0.282 C  
HETATM   16  C   UNL     1     -11.707  13.920  66.678  1.00  0.00    -0.395 C  
HETATM   17 CL   UNL     1     -13.105  13.603  65.654  1.00  0.00    -0.307 Cl 
HETATM   18 CL   UNL     1     -11.993  15.187  67.865  1.00  0.00    -0.200 Cl 
ENDBRANCH  11  14
ENDBRANCH   3   8
TORSDOF 2
ENDMDL
MODEL       84
REMARK 921   NORMALIZED FREE ENERGY PREDICTED BY IDOCK:   -3.82 KCAL/MOL
REMARK 922        TOTAL FREE ENERGY PREDICTED BY IDOCK:   -4.74 KCAL/MOL
REMARK 923 INTER-LIGAND FREE ENERGY PREDICTED BY IDOCK:   -4.33 KCAL/MOL
REMARK 924 INTRA-LIGAND FREE ENERGY PREDICTED BY IDOCK:   -0.41 KCAL/MOL
REMARK 927      BINDING AFFINITY PREDICTED BY RF-SCORE:    0.00 PKD
ROOT
HETATM    1  C   UNL     1     -11.645  12.471  67.112  1.00  0.00    -0.437 C  
HETATM    2  C   UNL     1     -11.078  12.700  65.701  1.00  0.00    -0.292 C  
HETATM    3  O   UNL     1     -10.459  11.534  65.091  1.00  0.00    -0.265 OA 
HETATM    4  C   UNL     1     -12.300  13.032  64.810  1.00  0.00    -0.436 C  
HETATM    5  C   UNL     1     -10.145  13.912  65.601  1.00  0.00    -0.332 C  
HETATM    6  O   UNL     1     -12.440  12.200  63.750  1.00  0.00    -0.507 OA 
HETATM    7  O   UNL     1     -13.074  13.960  65.012  1.00  0.00    -0.749 OA 
ENDROOT
BRANCH   3   8
HETATM    8  C   UNL     1      -9.715  10.674  65.847  1.00  0.00    -0.223 A  
HETATM    9  C   UNL     1      -8.386  11.039  66.072  1.00  0.00    -0.147 A  
HETATM   10  C   UNL     1      -7.506  10.162  66.726  1.00  0.00    -0.104 A  
HETATM   11  C   UNL     1      -7.935   8.903  67.172  1.00  0.00    -0.096 A  
HETATM   12  C   UNL     1      -9.293   8.598  67.005  1.00  0.00    -0.202 A  
HETATM   13  C   UNL     1     -10.177   9.485  66.391  1.00  0.00    -0.302 A  
BRANCH  11  14
HETATM   14  C   UNL     1      -6.989   7.857  67.709  1.00  0.00    -0.074 C  
HETATM   15  C   UNL     1      -5.508   8.080  67.850  1.00  0.00    -0.034 C  
HETATM   16  C   UNL     1      -6.358   7.983  69.083  1.00  0.00    -0.039 C  
HETATM   17 CL   UNL     1      -6.299   6.513  70.052  1.00  0.00    -0.038 Cl 
HETATM   18 CL   UNL     1      -6.488   9.445  70.054  1.00  0.00    -0.051 Cl 
ENDBRANCH  11  14
ENDBRANCH   3   8
TORSDOF 2
ENDMDL
MODEL       85
REMARK 921   NORMALIZED FREE ENERGY PREDICTED BY IDOCK:   -3.77 KCAL/MOL
REMARK 922        TOTAL FREE ENERGY PREDICTED BY IDOCK:   -4.69 KCAL/MOL
REMARK 923 INTER-LIGAND FREE ENERGY PREDICTED BY IDOCK:   -4.24 KCAL/MOL
REMARK 924 INTRA-LIGAND FREE ENERGY PREDICTED BY IDOCK:   -0.45 KCAL/MOL
REMARK 927      BINDING AFFINITY PREDICTED BY RF-SCORE:    0.00 PKD
ROOT
HETATM    1  C   UNL     1     -10.523   5.822  69.476  1.00  0.00    -0.364 C  
HETATM    2  C   UNL     1      -9.116   6.223  69.004  1.00  0.00    -0.129 C  
HETATM    3  O   UNL     1      -8.722   7.584  69.331  1.00  0.00    -0.136 OA 
HETATM    4  C   UNL     1      -8.140   5.311  69.787  1.00  0.00    -0.087 C  
HETATM    5  C   UNL     1      -8.858   5.935  67.520  1.00  0.00    -0.106 C  
HETATM    6  O   UNL     1      -7.221   5.996  70.510  1.00  0.00    -0.077 OA 
HETATM    7  O   UNL     1      -8.163   4.086  69.763  1.00  0.00    -0.054 OA 
ENDROOT
BRANCH   3   8
HETATM    8  C   UNL     1      -9.633   8.600  69.261  1.00  0.00    -0.166 A  
HETATM    9  C   UNL     1      -9.961   9.050  67.982  1.00  0.00    -0.213 A  
HETATM   10  C   UNL     1     -10.786  10.173  67.810  1.00  0.00    -0.346 A  
HETATM   11  C   UNL     1     -11.304  10.869  68.913  1.00  0.00    -0.354 A  
HETATM   12  C   UNL     1     -11.023  10.345  70.182  1.00  0.00    -0.365 A  
HETATM   13  C   UNL     1     -10.236   9.206  70.353  1.00  0.00    -0.268 A  
BRANCH  11  14
HETATM   14  C   UNL     1     -12.036  12.181  68.784  1.00  0.00    -0.292 C  
HETATM   15  C   UNL     1     -11.887  13.308  69.770  1.00  0.00    -0.394 C  
HETATM   16  C   UNL     1     -11.318  13.459  68.389  1.00  0.00    -0.294 C  
HETATM   17 CL   UNL     1     -12.147  14.492  67.228  1.00  0.00    -0.377 Cl 
HETATM   18 CL   UNL     1      -9.565  13.564  68.279  1.00  0.00    -0.218 Cl 
ENDBRANCH  11  14
ENDBRANCH   3   8
TORSDOF 2
ENDMDL
MODEL       86
REMARK 921   NORMALIZED FREE ENERGY PREDICTED BY IDOCK:   -3.76 KCAL/MOL
REMARK 922        TOTAL FREE ENERGY PREDICTED BY IDOCK:   -4.67 KCAL/MOL
REMARK 923 INTER-LIGAND FREE ENERGY PREDICTED BY IDOCK:   -4.60 KCAL/MOL
REMARK 924 INTRA-LIGAND FREE ENERGY PREDICTED BY IDOCK:   -0.07 KCAL/MOL
REMARK 927      BINDING AFFINITY PREDICTED BY RF-SCORE:    0.00 PKD
ROOT
HETATM    1  C   UNL     1     -11.224  11.219  66.989  1.00  0.00    -0.324 C  
HETATM    2  C   UNL     1      -9.893  10.837  66.319  1.00  0.00    -0.215 C  
HETATM    3  O   UNL     1      -9.608   9.412  66.288  1.00  0.00    -0.193 OA 
HETATM    4  C   UNL     1     -10.037  11.262  64.837  1.00  0.00    -0.281 C  
HETATM    5  C   UNL     1      -8.686  11.610  66.861  1.00  0.00    -0.185 C  
HETATM    6  O   UNL     1      -9.848  10.247  63.961  1.00  0.00    -0.311 OA 
HETATM    7  O   UNL     1     -10.283  12.403  64.463  1.00  0.00    -0.301 OA 
ENDROOT
BRANCH   3   8
HETATM    8  C   UNL     1      -9.931   8.621  67.353  1.00  0.00    -0.210 A  
HETATM    9  C   UNL     1      -9.373   8.979  68.581  1.00  0.00    -0.136 A  
HETATM   10  C   UNL     1      -9.539   8.158  69.708  1.00  0.00    -0.171 A  
HETATM   11  C   UNL     1     -10.269   6.962  69.632  1.00  0.00    -0.206 A  
HETATM   12  C   UNL     1     -10.885   6.670  68.408  1.00  0.00    -0.320 A  
HETATM   13  C   UNL     1     -10.754   7.505  67.298  1.00  0.00    -0.365 A  
BRANCH  11  14
HETATM   14  C   UNL     1     -10.319   5.959  70.758  1.00  0.00    -0.292 C  
HETATM   15  C   UNL     1      -9.364   5.977  71.920  1.00  0.00    -0.160 C  
HETATM   16  C   UNL     1     -10.803   6.341  72.145  1.00  0.00    -0.242 C  
HETATM   17 CL   UNL     1     -11.864   5.185  72.946  1.00  0.00    -0.255 Cl 
HETATM   18 CL   UNL     1     -11.119   8.008  72.611  1.00  0.00    -0.434 Cl 
ENDBRANCH  11  14
ENDBRANCH   3   8
TORSDOF 2
ENDMDL
MODEL       87
REMARK 921   NORMALIZED FREE ENERGY PREDICTED BY IDOCK:   -3.75 KCAL/MOL
REMARK 922        TOTAL FREE ENERGY PREDICTED BY IDOCK:   -4.66 KCAL/MOL
REMARK 923 INTER-LIGAND FREE ENERGY PREDICTED BY IDOCK:   -4.31 KCAL/MOL
REMARK 924 INTRA-LIGAND FREE ENERGY PREDICTED BY IDOCK:   -0.35 KCAL/MOL
REMARK 927      BINDING AFFINITY PREDICTED BY RF-SCORE:    0.00 PKD
ROOT
HETATM    1  C   UNL     1      -8.922  13.763  66.939  1.00  0.00    -0.234 C  
HETATM    2  C   UNL     1     -10.398  13.909  66.531  1.00  0.00    -0.286 C  
HETATM    3  O   UNL     1     -11.342  13.195  67.376  1.00  0.00    -0.277 OA 
HETATM    4  C   UNL     1     -10.733  15.409  66.713  1.00  0.00    -0.310 C  
HETATM    5  C   UNL     1     -10.663  13.596  65.054  1.00  0.00    -0.374 C  
HETATM    6  O   UNL     1     -11.774  15.635  67.551  1.00  0.00    -0.139 OA 
HETATM    7  O   UNL     1     -10.142  16.325  66.154  1.00  0.00    -0.304 OA 
ENDROOT
BRANCH   3   8
HETATM    8  C   UNL     1     -11.029  11.960  67.869  1.00  0.00    -0.222 A  
HETATM    9  C   UNL     1     -10.904  10.934  66.931  1.00  0.00    -0.307 A  
HETATM   10  C   UNL     1     -10.714   9.606  67.347  1.00  0.00    -0.308 A  
HETATM   11  C   UNL     1     -10.640   9.276  68.709  1.00  0.00    -0.220 A  
HETATM   12  C   UNL     1     -10.688  10.337  69.623  1.00  0.00    -0.299 A  
HETATM   13  C   UNL     1     -10.837  11.661  69.210  1.00  0.00    -0.203 A  
BRANCH  11  14
HETATM   14  C   UNL     1     -10.623   7.852  69.207  1.00  0.00    -0.195 C  
HETATM   15  C   UNL     1     -10.347   6.671  68.318  1.00  0.00    -0.220 C  
HETATM   16  C   UNL     1      -9.330   7.071  69.346  1.00  0.00    -0.146 C  
HETATM   17 CL   UNL     1      -9.157   6.100  70.806  1.00  0.00    -0.151 Cl 
HETATM   18 CL   UNL     1      -7.794   7.667  68.728  1.00  0.00    -0.118 Cl 
ENDBRANCH  11  14
ENDBRANCH   3   8
TORSDOF 2
ENDMDL
MODEL       88
REMARK 921   NORMALIZED FREE ENERGY PREDICTED BY IDOCK:   -3.74 KCAL/MOL
REMARK 922        TOTAL FREE ENERGY PREDICTED BY IDOCK:   -4.66 KCAL/MOL
REMARK 923 INTER-LIGAND FREE ENERGY PREDICTED BY IDOCK:   -4.51 KCAL/MOL
REMARK 924 INTRA-LIGAND FREE ENERGY PREDICTED BY IDOCK:   -0.15 KCAL/MOL
REMARK 927      BINDING AFFINITY PREDICTED BY RF-SCORE:    0.00 PKD
ROOT
HETATM    1  C   UNL     1      -9.564  12.681  66.840  1.00  0.00    -0.232 C  
HETATM    2  C   UNL     1     -11.045  13.076  66.970  1.00  0.00    -0.281 C  
HETATM    3  O   UNL     1     -11.752  12.451  68.075  1.00  0.00    -0.329 OA 
HETATM    4  C   UNL     1     -11.044  14.592  67.286  1.00  0.00    -0.312 C  
HETATM    5  C   UNL     1     -11.842  12.919  65.670  1.00  0.00    -0.464 C  
HETATM    6  O   UNL     1     -11.686  14.907  68.436  1.00  0.00    -0.310 OA 
HETATM    7  O   UNL     1     -10.532  15.448  66.574  1.00  0.00    -0.281 OA 
ENDROOT
BRANCH   3   8
HETATM    8  C   UNL     1     -11.502  11.149  68.406  1.00  0.00    -0.306 A  
HETATM    9  C   UNL     1     -11.623  10.819  69.756  1.00  0.00    -0.393 A  
HETATM   10  C   UNL     1     -11.262   9.542  70.214  1.00  0.00    -0.307 A  
HETATM   11  C   UNL     1     -10.776   8.565  69.332  1.00  0.00    -0.166 A  
HETATM   12  C   UNL     1     -10.742   8.899  67.971  1.00  0.00    -0.168 A  
HETATM   13  C   UNL     1     -11.138  10.154  67.510  1.00  0.00    -0.251 A  
BRANCH  11  14
HETATM   14  C   UNL     1     -10.202   7.250  69.799  1.00  0.00    -0.214 C  
HETATM   15  C   UNL     1      -9.025   6.584  69.142  1.00  0.00    -0.130 C  
HETATM   16  C   UNL     1      -8.866   7.172  70.513  1.00  0.00    -0.154 C  
HETATM   17 CL   UNL     1      -8.786   6.095  71.904  1.00  0.00    -0.136 Cl 
HETATM   18 CL   UNL     1      -7.781   8.552  70.645  1.00  0.00    -0.074 Cl 
ENDBRANCH  11  14
ENDBRANCH   3   8
TORSDOF 2
ENDMDL
MODEL       89
REMARK 921   NORMALIZED FREE ENERGY PREDICTED BY IDOCK:   -3.74 KCAL/MOL
REMARK 922        TOTAL FREE ENERGY PREDICTED BY IDOCK:   -4.66 KCAL/MOL
REMARK 923 INTER-LIGAND FREE ENERGY PREDICTED BY IDOCK:   -4.22 KCAL/MOL
REMARK 924 INTRA-LIGAND FREE ENERGY PREDICTED BY IDOCK:   -0.43 KCAL/MOL
REMARK 927      BINDING AFFINITY PREDICTED BY RF-SCORE:    0.00 PKD
ROOT
HETATM    1  C   UNL     1      -8.646   8.099  65.579  1.00  0.00    -0.173 C  
HETATM    2  C   UNL     1      -8.441   9.608  65.364  1.00  0.00    -0.145 C  
HETATM    3  O   UNL     1      -8.394  10.401  66.581  1.00  0.00    -0.123 OA 
HETATM    4  C   UNL     1      -7.039   9.750  64.724  1.00  0.00    -0.126 C  
HETATM    5  C   UNL     1      -9.423  10.226  64.363  1.00  0.00    -0.360 C  
HETATM    6  O   UNL     1      -6.201  10.549  65.427  1.00  0.00    -0.124 OA 
HETATM    7  O   UNL     1      -6.697   9.215  63.676  1.00  0.00    -0.089 OA 
ENDROOT
BRANCH   3   8
HETATM    8  C   UNL     1      -9.218  10.105  67.630  1.00  0.00    -0.141 A  
HETATM    9  C   UNL     1      -8.621   9.491  68.732  1.00  0.00    -0.123 A  
HETATM   10  C   UNL     1      -9.402   9.030  69.803  1.00  0.00    -0.176 A  
HETATM   11  C   UNL     1     -10.798   9.176  69.798  1.00  0.00    -0.224 A  
HETATM   12  C   UNL     1     -11.360   9.868  68.717  1.00  0.00    -0.049 A  
HETATM   13  C   UNL     1     -10.581  10.361  67.671  1.00  0.00    -0.304 A  
BRANCH  11  14
HETATM   14  C   UNL     1     -11.693   8.535  70.830  1.00  0.00    -0.274 C  
HETATM   15  C   UNL     1     -11.571   8.802  72.306  1.00  0.00    -0.391 C  
HETATM   16  C   UNL     1     -12.762   9.327  71.559  1.00  0.00    -0.350 C  
HETATM   17 CL   UNL     1     -14.321   8.531  71.762  1.00  0.00    -0.518 Cl 
HETATM   18 CL   UNL     1     -12.892  11.078  71.437  1.00  0.00    -0.532 Cl 
ENDBRANCH  11  14
ENDBRANCH   3   8
TORSDOF 2
ENDMDL
MODEL       90
REMARK 921   NORMALIZED FREE ENERGY PREDICTED BY IDOCK:   -3.74 KCAL/MOL
REMARK 922        TOTAL FREE ENERGY PREDICTED BY IDOCK:   -4.65 KCAL/MOL
REMARK 923 INTER-LIGAND FREE ENERGY PREDICTED BY IDOCK:   -4.55 KCAL/MOL
REMARK 924 INTRA-LIGAND FREE ENERGY PREDICTED BY IDOCK:   -0.10 KCAL/MOL
REMARK 927      BINDING AFFINITY PREDICTED BY RF-SCORE:    0.00 PKD
ROOT
HETATM    1  C   UNL     1      -7.442   8.660  64.371  1.00  0.00    -0.108 C  
HETATM    2  C   UNL     1      -7.917   7.985  65.668  1.00  0.00    -0.114 C  
HETATM    3  O   UNL     1      -9.297   8.261  66.035  1.00  0.00    -0.199 OA 
HETATM    4  C   UNL     1      -7.862   6.463  65.388  1.00  0.00    -0.105 C  
HETATM    5  C   UNL     1      -6.989   8.225  66.864  1.00  0.00    -0.070 C  
HETATM    6  O   UNL     1      -9.048   5.834  65.572  1.00  0.00    -0.128 OA 
HETATM    7  O   UNL     1      -6.853   5.856  65.047  1.00  0.00    -0.046 OA 
ENDROOT
BRANCH   3   8
HETATM    8  C   UNL     1      -9.825   9.506  65.841  1.00  0.00    -0.290 A  
HETATM    9  C   UNL     1     -10.237  10.189  66.986  1.00  0.00    -0.290 A  
HETATM   10  C   UNL     1     -10.910  11.417  66.882  1.00  0.00    -0.335 A  
HETATM   11  C   UNL     1     -11.183  11.990  65.631  1.00  0.00    -0.377 A  
HETATM   12  C   UNL     1     -10.687  11.321  64.504  1.00  0.00    -0.390 A  
HETATM   13  C   UNL     1      -9.984  10.122  64.608  1.00  0.00    -0.304 A  
BRANCH  11  14
HETATM   14  C   UNL     1     -12.061  13.205  65.460  1.00  0.00    -0.490 C  
HETATM   15  C   UNL     1     -12.278  14.224  66.546  1.00  0.00    -0.419 C  
HETATM   16  C   UNL     1     -11.476  14.600  65.334  1.00  0.00    -0.352 C  
HETATM   17 CL   UNL     1     -12.202  15.643  64.115  1.00  0.00    -0.165 Cl 
HETATM   18 CL   UNL     1      -9.771  14.939  65.606  1.00  0.00    -0.364 Cl 
ENDBRANCH  11  14
ENDBRANCH   3   8
TORSDOF 2
ENDMDL
MODEL       91
REMARK 921   NORMALIZED FREE ENERGY PREDICTED BY IDOCK:   -3.73 KCAL/MOL
REMARK 922        TOTAL FREE ENERGY PREDICTED BY IDOCK:   -4.65 KCAL/MOL
REMARK 923 INTER-LIGAND FREE ENERGY PREDICTED BY IDOCK:   -4.05 KCAL/MOL
REMARK 924 INTRA-LIGAND FREE ENERGY PREDICTED BY IDOCK:   -0.60 KCAL/MOL
REMARK 927      BINDING AFFINITY PREDICTED BY RF-SCORE:    0.00 PKD
ROOT
HETATM    1  C   UNL     1     -10.260   8.818  66.509  1.00  0.00    -0.314 C  
HETATM    2  C   UNL     1      -9.149   9.881  66.551  1.00  0.00    -0.152 C  
HETATM    3  O   UNL     1      -8.100   9.635  67.527  1.00  0.00    -0.112 OA 
HETATM    4  C   UNL     1      -8.452   9.810  65.170  1.00  0.00    -0.149 C  
HETATM    5  C   UNL     1      -9.673  11.316  66.683  1.00  0.00    -0.222 C  
HETATM    6  O   UNL     1      -7.122   9.570  65.246  1.00  0.00    -0.092 OA 
HETATM    7  O   UNL     1      -9.022   9.967  64.097  1.00  0.00    -0.197 OA 
ENDROOT
BRANCH   3   8
HETATM    8  C   UNL     1      -8.407   9.115  68.753  1.00  0.00    -0.121 A  
HETATM    9  C   UNL     1      -8.117   7.763  68.941  1.00  0.00    -0.126 A  
HETATM   10  C   UNL     1      -8.513   7.105  70.116  1.00  0.00    -0.139 A  
HETATM   11  C   UNL     1      -9.204   7.785  71.131  1.00  0.00    -0.158 A  
HETATM   12  C   UNL     1      -9.408   9.159  70.949  1.00  0.00    -0.335 A  
HETATM   13  C   UNL     1      -8.981   9.822  69.799  1.00  0.00    -0.239 A  
BRANCH  11  14
HETATM   14  C   UNL     1      -9.810   7.084  72.322  1.00  0.00    -0.170 C  
HETATM   15  C   UNL     1     -10.856   7.711  73.203  1.00  0.00    -0.440 C  
HETATM   16  C   UNL     1     -11.238   6.572  72.303  1.00  0.00    -0.273 C  
HETATM   17 CL   UNL     1     -11.506   4.978  73.003  1.00  0.00    -0.377 Cl 
HETATM   18 CL   UNL     1     -12.363   6.953  71.004  1.00  0.00    -0.430 Cl 
ENDBRANCH  11  14
ENDBRANCH   3   8
TORSDOF 2
ENDMDL
MODEL       92
REMARK 921   NORMALIZED FREE ENERGY PREDICTED BY IDOCK:   -3.73 KCAL/MOL
REMARK 922        TOTAL FREE ENERGY PREDICTED BY IDOCK:   -4.65 KCAL/MOL
REMARK 923 INTER-LIGAND FREE ENERGY PREDICTED BY IDOCK:   -4.18 KCAL/MOL
REMARK 924 INTRA-LIGAND FREE ENERGY PREDICTED BY IDOCK:   -0.47 KCAL/MOL
REMARK 927      BINDING AFFINITY PREDICTED BY RF-SCORE:    0.00 PKD
ROOT
HETATM    1  C   UNL     1      -7.817   4.356  71.229  1.00  0.00    -0.080 C  
HETATM    2  C   UNL     1      -8.761   3.849  72.331  1.00  0.00    -0.105 C  
HETATM    3  O   UNL     1     -10.124   4.348  72.251  1.00  0.00    -0.177 OA 
HETATM    4  C   UNL     1      -8.868   2.319  72.116  1.00  0.00    -0.070 C  
HETATM    5  C   UNL     1      -8.209   4.034  73.749  1.00  0.00    -0.088 C  
HETATM    6  O   UNL     1     -10.139   1.884  71.939  1.00  0.00    -0.152 OA 
HETATM    7  O   UNL     1      -7.914   1.550  72.115  1.00  0.00    -0.043 OA 
ENDROOT
BRANCH   3   8
HETATM    8  C   UNL     1     -10.364   5.640  71.876  1.00  0.00    -0.215 A  
HETATM    9  C   UNL     1     -10.218   6.609  72.869  1.00  0.00    -0.215 A  
HETATM   10  C   UNL     1     -10.566   7.946  72.618  1.00  0.00    -0.394 A  
HETATM   11  C   UNL     1     -11.065   8.344  71.369  1.00  0.00    -0.312 A  
HETATM   12  C   UNL     1     -11.124   7.364  70.368  1.00  0.00    -0.284 A  
HETATM   13  C   UNL     1     -10.741   6.044  70.604  1.00  0.00    -0.341 A  
BRANCH  11  14
HETATM   14  C   UNL     1     -11.625   9.720  71.110  1.00  0.00    -0.469 C  
HETATM   15  C   UNL     1     -12.550  10.032  69.966  1.00  0.00     0.133 C  
HETATM   16  C   UNL     1     -13.084  10.049  71.369  1.00  0.00    -0.417 C  
HETATM   17 CL   UNL     1     -13.410  11.597  72.144  1.00  0.00    -0.499 Cl 
HETATM   18 CL   UNL     1     -14.276   8.816  71.760  1.00  0.00    -0.453 Cl 
ENDBRANCH  11  14
ENDBRANCH   3   8
TORSDOF 2
ENDMDL
MODEL       93
REMARK 921   NORMALIZED FREE ENERGY PREDICTED BY IDOCK:   -3.72 KCAL/MOL
REMARK 922        TOTAL FREE ENERGY PREDICTED BY IDOCK:   -4.63 KCAL/MOL
REMARK 923 INTER-LIGAND FREE ENERGY PREDICTED BY IDOCK:   -4.39 KCAL/MOL
REMARK 924 INTRA-LIGAND FREE ENERGY PREDICTED BY IDOCK:   -0.24 KCAL/MOL
REMARK 927      BINDING AFFINITY PREDICTED BY RF-SCORE:    0.00 PKD
ROOT
HETATM    1  C   UNL     1     -10.462   8.219  67.187  1.00  0.00    -0.386 C  
HETATM    2  C   UNL     1      -9.609   8.353  68.459  1.00  0.00    -0.149 C  
HETATM    3  O   UNL     1     -10.009   9.423  69.358  1.00  0.00    -0.170 OA 
HETATM    4  C   UNL     1      -9.835   7.042  69.252  1.00  0.00    -0.159 C  
HETATM    5  C   UNL     1      -8.102   8.423  68.186  1.00  0.00    -0.120 C  
HETATM    6  O   UNL     1     -10.301   7.241  70.507  1.00  0.00    -0.203 OA 
HETATM    7  O   UNL     1      -9.608   5.920  68.815  1.00  0.00    -0.123 OA 
ENDROOT
BRANCH   3   8
HETATM    8  C   UNL     1     -10.437  10.620  68.858  1.00  0.00    -0.210 A  
HETATM    9  C   UNL     1      -9.492  11.371  68.158  1.00  0.00    -0.181 A  
HETATM   10  C   UNL     1      -9.795  12.669  67.718  1.00  0.00    -0.212 A  
HETATM   11  C   UNL     1     -11.052  13.243  67.964  1.00  0.00    -0.282 A  
HETATM   12  C   UNL     1     -12.006  12.435  68.596  1.00  0.00    -0.272 A  
HETATM   13  C   UNL     1     -11.719  11.132  68.999  1.00  0.00    -0.408 A  
BRANCH  11  14
HETATM   14  C   UNL     1     -11.362  14.692  67.677  1.00  0.00    -0.350 C  
HETATM   15  C   UNL     1     -11.884  15.645  68.718  1.00  0.00    -0.336 C  
HETATM   16  C   UNL     1     -10.484  15.813  68.202  1.00  0.00    -0.263 C  
HETATM   17 CL   UNL     1     -10.137  17.124  67.078  1.00  0.00    -0.289 Cl 
HETATM   18 CL   UNL     1      -9.190  15.538  69.363  1.00  0.00    -0.272 Cl 
ENDBRANCH  11  14
ENDBRANCH   3   8
TORSDOF 2
ENDMDL
MODEL       94
REMARK 921   NORMALIZED FREE ENERGY PREDICTED BY IDOCK:   -3.70 KCAL/MOL
REMARK 922        TOTAL FREE ENERGY PREDICTED BY IDOCK:   -4.61 KCAL/MOL
REMARK 923 INTER-LIGAND FREE ENERGY PREDICTED BY IDOCK:   -4.19 KCAL/MOL
REMARK 924 INTRA-LIGAND FREE ENERGY PREDICTED BY IDOCK:   -0.42 KCAL/MOL
REMARK 927      BINDING AFFINITY PREDICTED BY RF-SCORE:    0.00 PKD
ROOT
HETATM    1  C   UNL     1      -9.656  13.367  67.117  1.00  0.00    -0.241 C  
HETATM    2  C   UNL     1     -11.107  13.364  67.626  1.00  0.00    -0.265 C  
HETATM    3  O   UNL     1     -11.398  12.368  68.644  1.00  0.00    -0.243 OA 
HETATM    4  C   UNL     1     -11.307  14.734  68.319  1.00  0.00    -0.301 C  
HETATM    5  C   UNL     1     -12.152  13.303  66.507  1.00  0.00    -0.435 C  
HETATM    6  O   UNL     1     -11.698  14.635  69.612  1.00  0.00    -0.278 OA 
HETATM    7  O   UNL     1     -11.150  15.818  67.771  1.00  0.00    -0.331 OA 
ENDROOT
BRANCH   3   8
HETATM    8  C   UNL     1     -10.841  11.123  68.570  1.00  0.00    -0.203 A  
HETATM    9  C   UNL     1     -10.091  10.714  69.673  1.00  0.00    -0.120 A  
HETATM   10  C   UNL     1      -9.373   9.508  69.641  1.00  0.00    -0.213 A  
HETATM   11  C   UNL     1      -9.392   8.682  68.507  1.00  0.00    -0.138 A  
HETATM   12  C   UNL     1     -10.218   9.079  67.446  1.00  0.00    -0.308 A  
HETATM   13  C   UNL     1     -10.963  10.257  67.493  1.00  0.00    -0.344 A  
BRANCH  11  14
HETATM   14  C   UNL     1      -8.495   7.479  68.353  1.00  0.00    -0.125 C  
HETATM   15  C   UNL     1      -8.346   6.421  69.413  1.00  0.00    -0.122 C  
HETATM   16  C   UNL     1      -9.060   6.087  68.135  1.00  0.00    -0.118 C  
HETATM   17 CL   UNL     1      -8.242   5.093  66.932  1.00  0.00    -0.108 Cl 
HETATM   18 CL   UNL     1     -10.777   5.729  68.275  1.00  0.00    -0.296 Cl 
ENDBRANCH  11  14
ENDBRANCH   3   8
TORSDOF 2
ENDMDL
MODEL       95
REMARK 921   NORMALIZED FREE ENERGY PREDICTED BY IDOCK:   -3.67 KCAL/MOL
REMARK 922        TOTAL FREE ENERGY PREDICTED BY IDOCK:   -4.58 KCAL/MOL
REMARK 923 INTER-LIGAND FREE ENERGY PREDICTED BY IDOCK:   -4.16 KCAL/MOL
REMARK 924 INTRA-LIGAND FREE ENERGY PREDICTED BY IDOCK:   -0.42 KCAL/MOL
REMARK 927      BINDING AFFINITY PREDICTED BY RF-SCORE:    0.00 PKD
ROOT
HETATM    1  C   UNL     1      -8.038   9.137  65.652  1.00  0.00    -0.113 C  
HETATM    2  C   UNL     1      -8.848   8.900  66.937  1.00  0.00    -0.127 C  
HETATM    3  O   UNL     1      -9.916   9.857  67.175  1.00  0.00    -0.180 OA 
HETATM    4  C   UNL     1      -9.553   7.535  66.739  1.00  0.00    -0.206 C  
HETATM    5  C   UNL     1      -7.982   8.745  68.192  1.00  0.00    -0.106 C  
HETATM    6  O   UNL     1     -10.901   7.600  66.854  1.00  0.00    -0.328 OA 
HETATM    7  O   UNL     1      -8.971   6.481  66.513  1.00  0.00    -0.134 OA 
ENDROOT
BRANCH   3   8
HETATM    8  C   UNL     1      -9.737  11.178  66.876  1.00  0.00    -0.191 A  
HETATM    9  C   UNL     1      -8.856  11.884  67.696  1.00  0.00    -0.169 A  
HETATM   10  C   UNL     1      -8.703  13.272  67.552  1.00  0.00    -0.202 A  
HETATM   11  C   UNL     1      -9.426  13.985  66.584  1.00  0.00    -0.300 A  
HETATM   12  C   UNL     1     -10.242  13.238  65.723  1.00  0.00    -0.296 A  
HETATM   13  C   UNL     1     -10.364  11.853  65.839  1.00  0.00    -0.277 A  
BRANCH  11  14
HETATM   14  C   UNL     1      -9.438  15.492  66.514  1.00  0.00    -0.299 C  
HETATM   15  C   UNL     1     -10.597  16.283  65.972  1.00  0.00    -0.288 C  
HETATM   16  C   UNL     1     -10.301  16.326  67.443  1.00  0.00    -0.285 C  
HETATM   17 CL   UNL     1      -9.548  17.766  68.124  1.00  0.00    -0.291 Cl 
HETATM   18 CL   UNL     1     -11.513  15.615  68.501  1.00  0.00    -0.364 Cl 
ENDBRANCH  11  14
ENDBRANCH   3   8
TORSDOF 2
ENDMDL
MODEL       96
REMARK 921   NORMALIZED FREE ENERGY PREDICTED BY IDOCK:   -3.67 KCAL/MOL
REMARK 922        TOTAL FREE ENERGY PREDICTED BY IDOCK:   -4.57 KCAL/MOL
REMARK 923 INTER-LIGAND FREE ENERGY PREDICTED BY IDOCK:   -4.19 KCAL/MOL
REMARK 924 INTRA-LIGAND FREE ENERGY PREDICTED BY IDOCK:   -0.38 KCAL/MOL
REMARK 927      BINDING AFFINITY PREDICTED BY RF-SCORE:    0.00 PKD
ROOT
HETATM    1  C   UNL     1      -7.535   4.866  66.564  1.00  0.00    -0.087 C  
HETATM    2  C   UNL     1      -8.544   5.524  65.608  1.00  0.00    -0.148 C  
HETATM    3  O   UNL     1      -9.174   6.732  66.116  1.00  0.00    -0.154 OA 
HETATM    4  C   UNL     1      -7.719   5.975  64.378  1.00  0.00    -0.104 C  
HETATM    5  C   UNL     1      -9.603   4.556  65.069  1.00  0.00    -0.150 C  
HETATM    6  O   UNL     1      -7.819   7.300  64.114  1.00  0.00    -0.122 OA 
HETATM    7  O   UNL     1      -7.042   5.226  63.683  1.00  0.00    -0.046 OA 
ENDROOT
BRANCH   3   8
HETATM    8  C   UNL     1      -9.527   6.823  67.432  1.00  0.00    -0.134 A  
HETATM    9  C   UNL     1     -10.712   6.184  67.801  1.00  0.00    -0.382 A  
HETATM   10  C   UNL     1     -11.226   6.328  69.099  1.00  0.00    -0.439 A  
HETATM   11  C   UNL     1     -10.567   7.112  70.058  1.00  0.00    -0.248 A  
HETATM   12  C   UNL     1      -9.340   7.674  69.683  1.00  0.00    -0.156 A  
HETATM   13  C   UNL     1      -8.807   7.499  68.406  1.00  0.00    -0.126 A  
BRANCH  11  14
HETATM   14  C   UNL     1     -11.171   7.447  71.399  1.00  0.00    -0.272 C  
HETATM   15  C   UNL     1     -10.487   8.317  72.418  1.00  0.00    -0.404 C  
HETATM   16  C   UNL     1     -11.705   8.834  71.708  1.00  0.00    -0.346 C  
HETATM   17 CL   UNL     1     -13.236   8.905  72.576  1.00  0.00    -0.470 Cl 
HETATM   18 CL   UNL     1     -11.455  10.205  70.634  1.00  0.00    -0.402 Cl 
ENDBRANCH  11  14
ENDBRANCH   3   8
TORSDOF 2
ENDMDL
MODEL       97
REMARK 921   NORMALIZED FREE ENERGY PREDICTED BY IDOCK:   -3.66 KCAL/MOL
REMARK 922        TOTAL FREE ENERGY PREDICTED BY IDOCK:   -4.56 KCAL/MOL
REMARK 923 INTER-LIGAND FREE ENERGY PREDICTED BY IDOCK:   -3.96 KCAL/MOL
REMARK 924 INTRA-LIGAND FREE ENERGY PREDICTED BY IDOCK:   -0.60 KCAL/MOL
REMARK 927      BINDING AFFINITY PREDICTED BY RF-SCORE:    0.00 PKD
ROOT
HETATM    1  C   UNL     1      -7.510   6.857  67.240  1.00  0.00    -0.096 C  
HETATM    2  C   UNL     1      -8.607   6.929  66.165  1.00  0.00    -0.143 C  
HETATM    3  O   UNL     1      -9.855   7.534  66.601  1.00  0.00    -0.214 OA 
HETATM    4  C   UNL     1      -8.053   7.871  65.068  1.00  0.00    -0.144 C  
HETATM    5  C   UNL     1      -8.879   5.590  65.470  1.00  0.00    -0.147 C  
HETATM    6  O   UNL     1      -8.851   8.935  64.814  1.00  0.00    -0.173 OA 
HETATM    7  O   UNL     1      -7.005   7.688  64.461  1.00  0.00    -0.053 OA 
ENDROOT
BRANCH   3   8
HETATM    8  C   UNL     1     -10.335   7.296  67.858  1.00  0.00    -0.201 A  
HETATM    9  C   UNL     1     -10.313   8.374  68.744  1.00  0.00    -0.225 A  
HETATM   10  C   UNL     1     -10.662   8.198  70.092  1.00  0.00    -0.243 A  
HETATM   11  C   UNL     1     -11.044   6.941  70.584  1.00  0.00    -0.322 A  
HETATM   12  C   UNL     1     -11.135   5.896  69.654  1.00  0.00    -0.414 A  
HETATM   13  C   UNL     1     -10.826   6.079  68.307  1.00  0.00    -0.366 A  
BRANCH  11  14
HETATM   14  C   UNL     1     -11.247   6.662  72.053  1.00  0.00    -0.301 C  
HETATM   15  C   UNL     1     -11.344   5.273  72.623  1.00  0.00    -0.296 C  
HETATM   16  C   UNL     1     -10.131   6.107  72.920  1.00  0.00    -0.182 C  
HETATM   17 CL   UNL     1      -9.956   6.825  74.519  1.00  0.00    -0.318 Cl 
HETATM   18 CL   UNL     1      -8.610   5.531  72.250  1.00  0.00    -0.125 Cl 
ENDBRANCH  11  14
ENDBRANCH   3   8
TORSDOF 2
ENDMDL
MODEL       98
REMARK 921   NORMALIZED FREE ENERGY PREDICTED BY IDOCK:   -3.66 KCAL/MOL
REMARK 922        TOTAL FREE ENERGY PREDICTED BY IDOCK:   -4.56 KCAL/MOL
REMARK 923 INTER-LIGAND FREE ENERGY PREDICTED BY IDOCK:   -4.89 KCAL/MOL
REMARK 924 INTRA-LIGAND FREE ENERGY PREDICTED BY IDOCK:    0.33 KCAL/MOL
REMARK 927      BINDING AFFINITY PREDICTED BY RF-SCORE:    0.00 PKD
ROOT
HETATM    1  C   UNL     1     -11.770  12.190  65.308  1.00  0.00    -0.364 C  
HETATM    2  C   UNL     1     -10.235  12.272  65.308  1.00  0.00    -0.278 C  
HETATM    3  O   UNL     1      -9.572  11.384  66.250  1.00  0.00    -0.201 OA 
HETATM    4  C   UNL     1      -9.793  11.789  63.905  1.00  0.00    -0.274 C  
HETATM    5  C   UNL     1      -9.694  13.699  65.450  1.00  0.00    -0.055 C  
HETATM    6  O   UNL     1      -8.939  10.739  63.937  1.00  0.00    -0.183 OA 
HETATM    7  O   UNL     1     -10.153  12.299  62.850  1.00  0.00    -0.168 OA 
ENDROOT
BRANCH   3   8
HETATM    8  C   UNL     1     -10.108  11.168  67.487  1.00  0.00    -0.183 A  
HETATM    9  C   UNL     1      -9.263  10.589  68.435  1.00  0.00    -0.154 A  
HETATM   10  C   UNL     1      -9.756  10.208  69.693  1.00  0.00    -0.250 A  
HETATM   11  C   UNL     1     -11.104  10.401  70.033  1.00  0.00    -0.379 A  
HETATM   12  C   UNL     1     -11.909  11.057  69.092  1.00  0.00    -0.407 A  
HETATM   13  C   UNL     1     -11.411  11.472  67.857  1.00  0.00    -0.372 A  
BRANCH  11  14
HETATM   14  C   UNL     1     -11.720   9.843  71.292  1.00  0.00    -0.472 C  
HETATM   15  C   UNL     1     -13.129   9.320  71.359  1.00  0.00    -0.387 C  
HETATM   16  C   UNL     1     -11.982   8.358  71.460  1.00  0.00    -0.299 C  
HETATM   17 CL   UNL     1     -11.579   7.667  73.030  1.00  0.00    -0.287 Cl 
HETATM   18 CL   UNL     1     -11.812   7.210  70.137  1.00  0.00    -0.172 Cl 
ENDBRANCH  11  14
ENDBRANCH   3   8
TORSDOF 2
ENDMDL
MODEL       99
REMARK 921   NORMALIZED FREE ENERGY PREDICTED BY IDOCK:   -3.63 KCAL/MOL
REMARK 922        TOTAL FREE ENERGY PREDICTED BY IDOCK:   -4.54 KCAL/MOL
REMARK 923 INTER-LIGAND FREE ENERGY PREDICTED BY IDOCK:   -4.27 KCAL/MOL
REMARK 924 INTRA-LIGAND FREE ENERGY PREDICTED BY IDOCK:   -0.27 KCAL/MOL
REMARK 927      BINDING AFFINITY PREDICTED BY RF-SCORE:    0.00 PKD
ROOT
HETATM    1  C   UNL     1     -12.178   6.792  71.029  1.00  0.00    -0.405 C  
HETATM    2  C   UNL     1     -10.799   6.365  71.560  1.00  0.00    -0.254 C  
HETATM    3  O   UNL     1      -9.822   7.437  71.664  1.00  0.00    -0.166 OA 
HETATM    4  C   UNL     1     -11.042   5.886  73.012  1.00  0.00    -0.254 C  
HETATM    5  C   UNL     1     -10.197   5.166  70.818  1.00  0.00    -0.308 C  
HETATM    6  O   UNL     1     -10.302   6.549  73.932  1.00  0.00    -0.286 OA 
HETATM    7  O   UNL     1     -11.813   4.986  73.325  1.00  0.00    -0.245 OA 
ENDROOT
BRANCH   3   8
HETATM    8  C   UNL     1      -9.763   8.411  70.708  1.00  0.00    -0.176 A  
HETATM    9  C   UNL     1      -8.882   8.187  69.649  1.00  0.00    -0.143 A  
HETATM   10  C   UNL     1      -8.654   9.183  68.686  1.00  0.00    -0.128 A  
HETATM   11  C   UNL     1      -9.304  10.425  68.759  1.00  0.00    -0.175 A  
HETATM   12  C   UNL     1     -10.242  10.591  69.787  1.00  0.00    -0.168 A  
HETATM   13  C   UNL     1     -10.499   9.587  70.721  1.00  0.00    -0.384 A  
BRANCH  11  14
HETATM   14  C   UNL     1      -8.954  11.587  67.863  1.00  0.00    -0.159 C  
HETATM   15  C   UNL     1      -9.055  11.530  66.363  1.00  0.00    -0.206 C  
HETATM   16  C   UNL     1     -10.022  12.381  67.134  1.00  0.00    -0.207 C  
HETATM   17 CL   UNL     1      -9.823  14.131  67.123  1.00  0.00    -0.248 Cl 
HETATM   18 CL   UNL     1     -11.708  11.877  67.086  1.00  0.00    -0.358 Cl 
ENDBRANCH  11  14
ENDBRANCH   3   8
TORSDOF 2
ENDMDL
MODEL      100
REMARK 921   NORMALIZED FREE ENERGY PREDICTED BY IDOCK:   -3.61 KCAL/MOL
REMARK 922        TOTAL FREE ENERGY PREDICTED BY IDOCK:   -4.51 KCAL/MOL
REMARK 923 INTER-LIGAND FREE ENERGY PREDICTED BY IDOCK:   -4.05 KCAL/MOL
REMARK 924 INTRA-LIGAND FREE ENERGY PREDICTED BY IDOCK:   -0.46 KCAL/MOL
REMARK 927      BINDING AFFINITY PREDICTED BY RF-SCORE:    0.00 PKD
ROOT
HETATM    1  C   UNL     1     -11.771   7.091  70.622  1.00  0.00    -0.384 C  
HETATM    2  C   UNL     1     -11.279   8.502  70.983  1.00  0.00    -0.268 C  
HETATM    3  O   UNL     1     -10.804   9.293  69.859  1.00  0.00    -0.229 OA 
HETATM    4  C   UNL     1     -12.523   9.252  71.519  1.00  0.00    -0.355 C  
HETATM    5  C   UNL     1     -10.253   8.525  72.121  1.00  0.00    -0.403 C  
HETATM    6  O   UNL     1     -12.803  10.391  70.841  1.00  0.00    -0.357 OA 
HETATM    7  O   UNL     1     -13.199   8.882  72.472  1.00  0.00    -0.426 OA 
ENDROOT
BRANCH   3   8
HETATM    8  C   UNL     1     -10.090   8.704  68.854  1.00  0.00    -0.202 A  
HETATM    9  C   UNL     1      -8.738   8.471  69.111  1.00  0.00    -0.134 A  
HETATM   10  C   UNL     1      -7.891   7.991  68.099  1.00  0.00    -0.126 A  
HETATM   11  C   UNL     1      -8.378   7.728  66.809  1.00  0.00    -0.125 A  
HETATM   12  C   UNL     1      -9.755   7.894  66.605  1.00  0.00    -0.305 A  
HETATM   13  C   UNL     1     -10.604   8.334  67.620  1.00  0.00    -0.264 A  
BRANCH  11  14
HETATM   14  C   UNL     1      -7.479   7.392  65.646  1.00  0.00    -0.084 C  
HETATM   15  C   UNL     1      -7.909   7.513  64.210  1.00  0.00    -0.133 C  
HETATM   16  C   UNL     1      -6.890   8.471  64.756  1.00  0.00    -0.072 C  
HETATM   17 CL   UNL     1      -5.198   8.272  64.305  1.00  0.00    -0.040 Cl 
HETATM   18 CL   UNL     1      -7.384  10.156  64.858  1.00  0.00    -0.140 Cl 
ENDBRANCH  11  14
ENDBRANCH   3   8
TORSDOF 2
ENDMDL
MODEL      101
REMARK 921   NORMALIZED FREE ENERGY PREDICTED BY IDOCK:   -3.59 KCAL/MOL
REMARK 922        TOTAL FREE ENERGY PREDICTED BY IDOCK:   -4.49 KCAL/MOL
REMARK 923 INTER-LIGAND FREE ENERGY PREDICTED BY IDOCK:   -4.26 KCAL/MOL
REMARK 924 INTRA-LIGAND FREE ENERGY PREDICTED BY IDOCK:   -0.23 KCAL/MOL
REMARK 927      BINDING AFFINITY PREDICTED BY RF-SCORE:    0.00 PKD
ROOT
HETATM    1  C   UNL     1      -9.941   5.352  71.063  1.00  0.00    -0.261 C  
HETATM    2  C   UNL     1      -9.363   6.019  72.322  1.00  0.00    -0.143 C  
HETATM    3  O   UNL     1      -9.867   7.355  72.597  1.00  0.00    -0.159 OA 
HETATM    4  C   UNL     1      -9.838   5.147  73.510  1.00  0.00    -0.156 C  
HETATM    5  C   UNL     1      -7.831   6.006  72.379  1.00  0.00    -0.102 C  
HETATM    6  O   UNL     1     -10.540   5.835  74.441  1.00  0.00    -0.230 OA 
HETATM    7  O   UNL     1      -9.603   3.950  73.630  1.00  0.00    -0.102 OA 
ENDROOT
BRANCH   3   8
HETATM    8  C   UNL     1     -10.098   8.228  71.572  1.00  0.00    -0.208 A  
HETATM    9  C   UNL     1      -8.970   8.788  70.969  1.00  0.00    -0.269 A  
HETATM   10  C   UNL     1      -9.104   9.791  69.997  1.00  0.00    -0.258 A  
HETATM   11  C   UNL     1     -10.368  10.256  69.603  1.00  0.00    -0.281 A  
HETATM   12  C   UNL     1     -11.482   9.619  70.166  1.00  0.00    -0.238 A  
HETATM   13  C   UNL     1     -11.351   8.594  71.103  1.00  0.00    -0.329 A  
BRANCH  11  14
HETATM   14  C   UNL     1     -10.559  11.454  68.705  1.00  0.00    -0.235 C  
HETATM   15  C   UNL     1     -11.883  11.825  68.096  1.00  0.00    -0.324 C  
HETATM   16  C   UNL     1     -11.301  12.691  69.175  1.00  0.00    -0.282 C  
HETATM   17 CL   UNL     1     -10.588  14.242  68.738  1.00  0.00    -0.248 Cl 
HETATM   18 CL   UNL     1     -12.189  12.743  70.693  1.00  0.00    -0.439 Cl 
ENDBRANCH  11  14
ENDBRANCH   3   8
TORSDOF 2
ENDMDL
MODEL      102
REMARK 921   NORMALIZED FREE ENERGY PREDICTED BY IDOCK:   -3.57 KCAL/MOL
REMARK 922        TOTAL FREE ENERGY PREDICTED BY IDOCK:   -4.47 KCAL/MOL
REMARK 923 INTER-LIGAND FREE ENERGY PREDICTED BY IDOCK:   -3.95 KCAL/MOL
REMARK 924 INTRA-LIGAND FREE ENERGY PREDICTED BY IDOCK:   -0.51 KCAL/MOL
REMARK 927      BINDING AFFINITY PREDICTED BY RF-SCORE:    0.00 PKD
ROOT
HETATM    1  C   UNL     1      -9.072   7.273  70.962  1.00  0.00    -0.153 C  
HETATM    2  C   UNL     1     -10.551   7.688  70.878  1.00  0.00    -0.213 C  
HETATM    3  O   UNL     1     -11.344   6.944  69.912  1.00  0.00    -0.294 OA 
HETATM    4  C   UNL     1     -11.157   7.345  72.261  1.00  0.00    -0.266 C  
HETATM    5  C   UNL     1     -10.758   9.195  70.691  1.00  0.00    -0.313 C  
HETATM    6  O   UNL     1     -12.218   6.506  72.195  1.00  0.00    -0.308 OA 
HETATM    7  O   UNL     1     -10.747   7.788  73.327  1.00  0.00    -0.374 OA 
ENDROOT
BRANCH   3   8
HETATM    8  C   UNL     1     -10.806   6.588  68.708  1.00  0.00    -0.299 A  
HETATM    9  C   UNL     1     -10.338   5.277  68.604  1.00  0.00    -0.193 A  
HETATM   10  C   UNL     1      -9.653   4.853  67.454  1.00  0.00    -0.175 A  
HETATM   11  C   UNL     1      -9.424   5.729  66.382  1.00  0.00    -0.172 A  
HETATM   12  C   UNL     1      -9.976   7.013  66.482  1.00  0.00    -0.163 A  
HETATM   13  C   UNL     1     -10.691   7.423  67.607  1.00  0.00    -0.278 A  
BRANCH  11  14
HETATM   14  C   UNL     1      -8.537   5.380  65.212  1.00  0.00    -0.151 C  
HETATM   15  C   UNL     1      -7.963   4.006  64.995  1.00  0.00    -0.093 C  
HETATM   16  C   UNL     1      -9.030   4.513  64.069  1.00  0.00    -0.138 C  
HETATM   17 CL   UNL     1      -8.582   5.032  62.446  1.00  0.00    -0.111 Cl 
HETATM   18 CL   UNL     1     -10.571   3.665  64.121  1.00  0.00    -0.262 Cl 
ENDBRANCH  11  14
ENDBRANCH   3   8
TORSDOF 2
ENDMDL
MODEL      103
REMARK 921   NORMALIZED FREE ENERGY PREDICTED BY IDOCK:   -3.52 KCAL/MOL
REMARK 922        TOTAL FREE ENERGY PREDICTED BY IDOCK:   -4.41 KCAL/MOL
REMARK 923 INTER-LIGAND FREE ENERGY PREDICTED BY IDOCK:   -3.99 KCAL/MOL
REMARK 924 INTRA-LIGAND FREE ENERGY PREDICTED BY IDOCK:   -0.42 KCAL/MOL
REMARK 927      BINDING AFFINITY PREDICTED BY RF-SCORE:    0.00 PKD
ROOT
HETATM    1  C   UNL     1      -7.446   6.782  68.099  1.00  0.00    -0.099 C  
HETATM    2  C   UNL     1      -8.567   7.009  69.126  1.00  0.00    -0.133 C  
HETATM    3  O   UNL     1      -9.750   7.678  68.609  1.00  0.00    -0.151 OA 
HETATM    4  C   UNL     1      -9.042   5.595  69.542  1.00  0.00    -0.125 C  
HETATM    5  C   UNL     1      -8.093   7.687  70.417  1.00  0.00    -0.113 C  
HETATM    6  O   UNL     1     -10.365   5.385  69.338  1.00  0.00    -0.242 OA 
HETATM    7  O   UNL     1      -8.317   4.733  70.025  1.00  0.00    -0.068 OA 
ENDROOT
BRANCH   3   8
HETATM    8  C   UNL     1      -9.626   8.692  67.701  1.00  0.00    -0.155 A  
HETATM    9  C   UNL     1      -9.217   9.927  68.206  1.00  0.00    -0.130 A  
HETATM   10  C   UNL     1      -9.185  11.061  67.378  1.00  0.00    -0.157 A  
HETATM   11  C   UNL     1      -9.558  10.984  66.028  1.00  0.00    -0.249 A  
HETATM   12  C   UNL     1      -9.886   9.716  65.531  1.00  0.00    -0.352 A  
HETATM   13  C   UNL     1      -9.880   8.581  66.342  1.00  0.00    -0.327 A  
BRANCH  11  14
HETATM   14  C   UNL     1      -9.719  12.201  65.151  1.00  0.00    -0.133 C  
HETATM   15  C   UNL     1     -10.882  12.397  64.218  1.00  0.00    -0.395 C  
HETATM   16  C   UNL     1     -10.767  13.259  65.441  1.00  0.00    -0.297 C  
HETATM   17 CL   UNL     1     -10.254  14.936  65.264  1.00  0.00    -0.398 Cl 
HETATM   18 CL   UNL     1     -12.016  13.045  66.663  1.00  0.00    -0.463 Cl 
ENDBRANCH  11  14
ENDBRANCH   3   8
TORSDOF 2
ENDMDL
MODEL      104
REMARK 921   NORMALIZED FREE ENERGY PREDICTED BY IDOCK:   -3.51 KCAL/MOL
REMARK 922        TOTAL FREE ENERGY PREDICTED BY IDOCK:   -4.40 KCAL/MOL
REMARK 923 INTER-LIGAND FREE ENERGY PREDICTED BY IDOCK:   -4.62 KCAL/MOL
REMARK 924 INTRA-LIGAND FREE ENERGY PREDICTED BY IDOCK:    0.23 KCAL/MOL
REMARK 927      BINDING AFFINITY PREDICTED BY RF-SCORE:    0.00 PKD
ROOT
HETATM    1  C   UNL     1     -10.289  13.653  69.192  1.00  0.00     0.042 C  
HETATM    2  C   UNL     1     -11.598  14.211  69.774  1.00  0.00    -0.290 C  
HETATM    3  O   UNL     1     -12.203  13.399  70.817  1.00  0.00    -0.358 OA 
HETATM    4  C   UNL     1     -11.214  15.545  70.460  1.00  0.00    -0.342 C  
HETATM    5  C   UNL     1     -12.641  14.573  68.710  1.00  0.00     0.335 C  
HETATM    6  O   UNL     1     -11.545  15.595  71.772  1.00  0.00    -0.382 OA 
HETATM    7  O   UNL     1     -10.674  16.487  69.892  1.00  0.00    -0.329 OA 
ENDROOT
BRANCH   3   8
HETATM    8  C   UNL     1     -12.180  12.036  70.729  1.00  0.00    -0.286 A  
HETATM    9  C   UNL     1     -12.728  11.337  71.806  1.00  0.00    -0.379 A  
HETATM   10  C   UNL     1     -12.636   9.938  71.870  1.00  0.00    -0.471 A  
HETATM   11  C   UNL     1     -11.996   9.205  70.858  1.00  0.00    -0.299 A  
HETATM   12  C   UNL     1     -11.528   9.927  69.752  1.00  0.00    -0.194 A  
HETATM   13  C   UNL     1     -11.654  11.313  69.668  1.00  0.00    -0.401 A  
BRANCH  11  14
HETATM   14  C   UNL     1     -11.709   7.729  70.972  1.00  0.00    -0.299 C  
HETATM   15  C   UNL     1     -10.599   7.045  70.220  1.00  0.00    -0.247 C  
HETATM   16  C   UNL     1     -10.488   7.209  71.708  1.00  0.00    -0.197 C  
HETATM   17 CL   UNL     1     -10.740   5.808  72.746  1.00  0.00    -0.259 Cl 
HETATM   18 CL   UNL     1      -9.204   8.269  72.279  1.00  0.00    -0.270 Cl 
ENDBRANCH  11  14
ENDBRANCH   3   8
TORSDOF 2
ENDMDL
MODEL      105
REMARK 921   NORMALIZED FREE ENERGY PREDICTED BY IDOCK:   -3.51 KCAL/MOL
REMARK 922        TOTAL FREE ENERGY PREDICTED BY IDOCK:   -4.39 KCAL/MOL
REMARK 923 INTER-LIGAND FREE ENERGY PREDICTED BY IDOCK:   -3.85 KCAL/MOL
REMARK 924 INTRA-LIGAND FREE ENERGY PREDICTED BY IDOCK:   -0.55 KCAL/MOL
REMARK 927      BINDING AFFINITY PREDICTED BY RF-SCORE:    0.00 PKD
ROOT
HETATM    1  C   UNL     1     -10.093  10.214  65.788  1.00  0.00    -0.324 C  
HETATM    2  C   UNL     1      -9.424   9.741  67.090  1.00  0.00    -0.154 C  
HETATM    3  O   UNL     1      -9.438  10.709  68.175  1.00  0.00    -0.147 OA 
HETATM    4  C   UNL     1     -10.280   8.551  67.587  1.00  0.00    -0.236 C  
HETATM    5  C   UNL     1      -8.010   9.186  66.889  1.00  0.00    -0.105 C  
HETATM    6  O   UNL     1     -10.766   8.719  68.840  1.00  0.00    -0.187 OA 
HETATM    7  O   UNL     1     -10.500   7.535  66.938  1.00  0.00    -0.309 OA 
ENDROOT
BRANCH   3   8
HETATM    8  C   UNL     1      -9.253  12.038  67.916  1.00  0.00    -0.190 A  
HETATM    9  C   UNL     1     -10.392  12.842  67.966  1.00  0.00    -0.230 A  
HETATM   10  C   UNL     1     -10.329  14.193  67.590  1.00  0.00    -0.241 A  
HETATM   11  C   UNL     1      -9.126  14.771  67.157  1.00  0.00    -0.231 A  
HETATM   12  C   UNL     1      -7.984  13.960  67.194  1.00  0.00    -0.072 A  
HETATM   13  C   UNL     1      -8.037  12.628  67.606  1.00  0.00    -0.173 A  
BRANCH  11  14
HETATM   14  C   UNL     1      -9.047  16.157  66.569  1.00  0.00    -0.311 C  
HETATM   15  C   UNL     1      -9.901  17.303  67.039  1.00  0.00    -0.281 C  
HETATM   16  C   UNL     1      -8.429  17.314  67.333  1.00  0.00    -0.200 C  
HETATM   17 CL   UNL     1      -7.379  18.386  66.411  1.00  0.00    -0.262 Cl 
HETATM   18 CL   UNL     1      -7.974  17.192  69.029  1.00  0.00    -0.192 Cl 
ENDBRANCH  11  14
ENDBRANCH   3   8
TORSDOF 2
ENDMDL
MODEL      106
REMARK 921   NORMALIZED FREE ENERGY PREDICTED BY IDOCK:   -3.50 KCAL/MOL
REMARK 922        TOTAL FREE ENERGY PREDICTED BY IDOCK:   -4.39 KCAL/MOL
REMARK 923 INTER-LIGAND FREE ENERGY PREDICTED BY IDOCK:   -3.84 KCAL/MOL
REMARK 924 INTRA-LIGAND FREE ENERGY PREDICTED BY IDOCK:   -0.55 KCAL/MOL
REMARK 927      BINDING AFFINITY PREDICTED BY RF-SCORE:    0.00 PKD
ROOT
HETATM    1  C   UNL     1      -9.457  10.179  69.091  1.00  0.00    -0.215 C  
HETATM    2  C   UNL     1      -9.857  10.857  67.770  1.00  0.00    -0.175 C  
HETATM    3  O   UNL     1     -10.441   9.970  66.777  1.00  0.00    -0.232 OA 
HETATM    4  C   UNL     1     -10.978  11.858  68.140  1.00  0.00    -0.227 C  
HETATM    5  C   UNL     1      -8.737  11.695  67.143  1.00  0.00    -0.164 C  
HETATM    6  O   UNL     1     -12.132  11.657  67.458  1.00  0.00    -0.611 OA 
HETATM    7  O   UNL     1     -10.858  12.765  68.956  1.00  0.00    -0.225 OA 
ENDROOT
BRANCH   3   8
HETATM    8  C   UNL     1      -9.960   8.702  66.617  1.00  0.00    -0.287 A  
HETATM    9  C   UNL     1     -10.784   7.667  67.064  1.00  0.00    -0.340 A  
HETATM   10  C   UNL     1     -10.326   6.340  67.063  1.00  0.00    -0.300 A  
HETATM   11  C   UNL     1      -9.037   6.017  66.613  1.00  0.00    -0.142 A  
HETATM   12  C   UNL     1      -8.264   7.065  66.096  1.00  0.00    -0.125 A  
HETATM   13  C   UNL     1      -8.732   8.378  66.059  1.00  0.00    -0.183 A  
BRANCH  11  14
HETATM   14  C   UNL     1      -8.436   4.642  66.766  1.00  0.00    -0.105 C  
HETATM   15  C   UNL     1      -9.260   3.386  66.846  1.00  0.00    -0.202 C  
HETATM   16  C   UNL     1      -8.429   3.643  65.623  1.00  0.00    -0.110 C  
HETATM   17 CL   UNL     1      -6.940   2.732  65.391  1.00  0.00    -0.051 Cl 
HETATM   18 CL   UNL     1      -9.314   3.913  64.126  1.00  0.00    -0.143 Cl 
ENDBRANCH  11  14
ENDBRANCH   3   8
TORSDOF 2
ENDMDL
MODEL      107
REMARK 921   NORMALIZED FREE ENERGY PREDICTED BY IDOCK:   -3.47 KCAL/MOL
REMARK 922        TOTAL FREE ENERGY PREDICTED BY IDOCK:   -4.36 KCAL/MOL
REMARK 923 INTER-LIGAND FREE ENERGY PREDICTED BY IDOCK:   -3.98 KCAL/MOL
REMARK 924 INTRA-LIGAND FREE ENERGY PREDICTED BY IDOCK:   -0.38 KCAL/MOL
REMARK 927      BINDING AFFINITY PREDICTED BY RF-SCORE:    0.00 PKD
ROOT
HETATM    1  C   UNL     1     -12.002   6.997  70.736  1.00  0.00    -0.392 C  
HETATM    2  C   UNL     1     -11.549   8.421  71.099  1.00  0.00    -0.279 C  
HETATM    3  O   UNL     1     -11.060   9.213  69.982  1.00  0.00    -0.235 OA 
HETATM    4  C   UNL     1     -12.822   9.149  71.595  1.00  0.00    -0.363 C  
HETATM    5  C   UNL     1     -10.555   8.473  72.265  1.00  0.00    -0.408 C  
HETATM    6  O   UNL     1     -13.107  10.276  70.901  1.00  0.00    -0.386 OA 
HETATM    7  O   UNL     1     -13.516   8.772  72.532  1.00  0.00    -0.397 OA 
ENDROOT
BRANCH   3   8
HETATM    8  C   UNL     1     -10.306   8.631  69.002  1.00  0.00    -0.213 A  
HETATM    9  C   UNL     1     -10.724   8.850  67.689  1.00  0.00    -0.221 A  
HETATM   10  C   UNL     1     -10.095   8.191  66.621  1.00  0.00    -0.344 A  
HETATM   11  C   UNL     1      -9.032   7.302  66.841  1.00  0.00    -0.148 A  
HETATM   12  C   UNL     1      -8.583   7.165  68.162  1.00  0.00    -0.129 A  
HETATM   13  C   UNL     1      -9.181   7.849  69.219  1.00  0.00    -0.148 A  
BRANCH  11  14
HETATM   14  C   UNL     1      -8.450   6.434  65.754  1.00  0.00    -0.148 C  
HETATM   15  C   UNL     1      -8.140   6.941  64.372  1.00  0.00    -0.052 C  
HETATM   16  C   UNL     1      -7.011   6.587  65.296  1.00  0.00    -0.052 C  
HETATM   17 CL   UNL     1      -6.116   5.094  65.023  1.00  0.00    -0.025 Cl 
HETATM   18 CL   UNL     1      -5.988   7.920  65.819  1.00  0.00    -0.038 Cl 
ENDBRANCH  11  14
ENDBRANCH   3   8
TORSDOF 2
ENDMDL
MODEL      108
REMARK 921   NORMALIZED FREE ENERGY PREDICTED BY IDOCK:   -3.47 KCAL/MOL
REMARK 922        TOTAL FREE ENERGY PREDICTED BY IDOCK:   -4.36 KCAL/MOL
REMARK 923 INTER-LIGAND FREE ENERGY PREDICTED BY IDOCK:   -3.78 KCAL/MOL
REMARK 924 INTRA-LIGAND FREE ENERGY PREDICTED BY IDOCK:   -0.58 KCAL/MOL
REMARK 927      BINDING AFFINITY PREDICTED BY RF-SCORE:    0.00 PKD
ROOT
HETATM    1  C   UNL     1      -9.948  10.023  70.627  1.00  0.00     0.063 C  
HETATM    2  C   UNL     1     -11.427  10.027  70.204  1.00  0.00    -0.277 C  
HETATM    3  O   UNL     1     -12.277   9.101  70.933  1.00  0.00    -0.274 OA 
HETATM    4  C   UNL     1     -11.956  11.439  70.557  1.00  0.00    -0.356 C  
HETATM    5  C   UNL     1     -11.636   9.867  68.694  1.00  0.00     0.174 C  
HETATM    6  O   UNL     1     -13.024  11.424  71.391  1.00  0.00    -0.412 OA 
HETATM    7  O   UNL     1     -11.484  12.485  70.127  1.00  0.00    -0.130 OA 
ENDROOT
BRANCH   3   8
HETATM    8  C   UNL     1     -11.810   7.864  71.280  1.00  0.00    -0.296 A  
HETATM    9  C   UNL     1     -11.363   7.718  72.593  1.00  0.00    -0.449 A  
HETATM   10  C   UNL     1     -10.747   6.528  73.010  1.00  0.00    -0.291 A  
HETATM   11  C   UNL     1     -10.567   5.455  72.123  1.00  0.00    -0.284 A  
HETATM   12  C   UNL     1     -11.099   5.601  70.834  1.00  0.00    -0.200 A  
HETATM   13  C   UNL     1     -11.747   6.769  70.431  1.00  0.00    -0.418 A  
BRANCH  11  14
HETATM   14  C   UNL     1      -9.750   4.235  72.467  1.00  0.00    -0.200 C  
HETATM   15  C   UNL     1      -9.256   3.256  71.436  1.00  0.00    -0.192 C  
HETATM   16  C   UNL     1      -8.271   4.147  72.137  1.00  0.00    -0.101 C  
HETATM   17 CL   UNL     1      -7.233   3.462  73.384  1.00  0.00    -0.053 Cl 
HETATM   18 CL   UNL     1      -7.453   5.339  71.134  1.00  0.00    -0.081 Cl 
ENDBRANCH  11  14
ENDBRANCH   3   8
TORSDOF 2
ENDMDL
MODEL      109
REMARK 921   NORMALIZED FREE ENERGY PREDICTED BY IDOCK:   -3.47 KCAL/MOL
REMARK 922        TOTAL FREE ENERGY PREDICTED BY IDOCK:   -4.35 KCAL/MOL
REMARK 923 INTER-LIGAND FREE ENERGY PREDICTED BY IDOCK:   -3.81 KCAL/MOL
REMARK 924 INTRA-LIGAND FREE ENERGY PREDICTED BY IDOCK:   -0.54 KCAL/MOL
REMARK 927      BINDING AFFINITY PREDICTED BY RF-SCORE:    0.00 PKD
ROOT
HETATM    1  C   UNL     1      -9.920  10.099  64.964  1.00  0.00    -0.375 C  
HETATM    2  C   UNL     1      -8.520   9.499  64.747  1.00  0.00    -0.159 C  
HETATM    3  O   UNL     1      -8.289   8.225  65.408  1.00  0.00    -0.146 OA 
HETATM    4  C   UNL     1      -8.426   9.200  63.231  1.00  0.00    -0.195 C  
HETATM    5  C   UNL     1      -7.377  10.474  65.054  1.00  0.00    -0.003 C  
HETATM    6  O   UNL     1      -8.150   7.905  62.950  1.00  0.00    -0.157 OA 
HETATM    7  O   UNL     1      -8.569  10.038  62.348  1.00  0.00    -0.155 OA 
ENDROOT
BRANCH   3   8
HETATM    8  C   UNL     1      -8.797   7.994  66.655  1.00  0.00    -0.145 A  
HETATM    9  C   UNL     1      -9.899   7.141  66.725  1.00  0.00    -0.272 A  
HETATM   10  C   UNL     1     -10.572   6.943  67.942  1.00  0.00    -0.286 A  
HETATM   11  C   UNL     1     -10.155   7.590  69.115  1.00  0.00    -0.192 A  
HETATM   12  C   UNL     1      -8.998   8.375  69.030  1.00  0.00    -0.147 A  
HETATM   13  C   UNL     1      -8.306   8.541  67.831  1.00  0.00    -0.126 A  
BRANCH  11  14
HETATM   14  C   UNL     1     -10.951   7.556  70.396  1.00  0.00    -0.264 C  
HETATM   15  C   UNL     1     -12.156   6.678  70.596  1.00  0.00    -0.342 C  
HETATM   16  C   UNL     1     -10.891   6.370  71.341  1.00  0.00    -0.253 C  
HETATM   17 CL   UNL     1     -10.795   6.746  73.060  1.00  0.00    -0.300 Cl 
HETATM   18 CL   UNL     1     -10.087   4.863  70.918  1.00  0.00    -0.295 Cl 
ENDBRANCH  11  14
ENDBRANCH   3   8
TORSDOF 2
ENDMDL
MODEL      110
REMARK 921   NORMALIZED FREE ENERGY PREDICTED BY IDOCK:   -3.47 KCAL/MOL
REMARK 922        TOTAL FREE ENERGY PREDICTED BY IDOCK:   -4.35 KCAL/MOL
REMARK 923 INTER-LIGAND FREE ENERGY PREDICTED BY IDOCK:   -3.93 KCAL/MOL
REMARK 924 INTRA-LIGAND FREE ENERGY PREDICTED BY IDOCK:   -0.42 KCAL/MOL
REMARK 927      BINDING AFFINITY PREDICTED BY RF-SCORE:    0.00 PKD
ROOT
HETATM    1  C   UNL     1     -11.241  11.709  68.849  1.00  0.00    -0.306 C  
HETATM    2  C   UNL     1     -10.627  12.098  67.494  1.00  0.00    -0.214 C  
HETATM    3  O   UNL     1     -10.375  10.986  66.592  1.00  0.00    -0.223 OA 
HETATM    4  C   UNL     1     -11.695  12.969  66.788  1.00  0.00    -0.382 C  
HETATM    5  C   UNL     1      -9.379  12.981  67.613  1.00  0.00    -0.202 C  
HETATM    6  O   UNL     1     -12.070  12.491  65.577  1.00  0.00    -0.442 OA 
HETATM    7  O   UNL     1     -12.164  14.002  67.250  1.00  0.00    -0.405 OA 
ENDROOT
BRANCH   3   8
HETATM    8  C   UNL     1      -9.918   9.794  67.078  1.00  0.00    -0.203 A  
HETATM    9  C   UNL     1     -10.842   8.749  67.121  1.00  0.00    -0.062 A  
HETATM   10  C   UNL     1     -10.507   7.525  67.722  1.00  0.00    -0.288 A  
HETATM   11  C   UNL     1      -9.241   7.318  68.291  1.00  0.00    -0.133 A  
HETATM   12  C   UNL     1      -8.309   8.357  68.160  1.00  0.00    -0.128 A  
HETATM   13  C   UNL     1      -8.627   9.558  67.528  1.00  0.00    -0.126 A  
BRANCH  11  14
HETATM   14  C   UNL     1      -8.899   6.097  69.108  1.00  0.00    -0.123 C  
HETATM   15  C   UNL     1      -9.930   5.120  69.602  1.00  0.00    -0.313 C  
HETATM   16  C   UNL     1      -8.977   4.699  68.522  1.00  0.00    -0.110 C  
HETATM   17 CL   UNL     1      -7.653   3.609  68.925  1.00  0.00    -0.053 Cl 
HETATM   18 CL   UNL     1      -9.685   4.372  66.945  1.00  0.00    -0.218 Cl 
ENDBRANCH  11  14
ENDBRANCH   3   8
TORSDOF 2
ENDMDL
MODEL      111
REMARK 921   NORMALIZED FREE ENERGY PREDICTED BY IDOCK:   -3.46 KCAL/MOL
REMARK 922        TOTAL FREE ENERGY PREDICTED BY IDOCK:   -4.35 KCAL/MOL
REMARK 923 INTER-LIGAND FREE ENERGY PREDICTED BY IDOCK:   -3.78 KCAL/MOL
REMARK 924 INTRA-LIGAND FREE ENERGY PREDICTED BY IDOCK:   -0.57 KCAL/MOL
REMARK 927      BINDING AFFINITY PREDICTED BY RF-SCORE:    0.00 PKD
ROOT
HETATM    1  C   UNL     1      -7.793  10.615  69.164  1.00  0.00    -0.142 C  
HETATM    2  C   UNL     1      -8.701  10.815  67.939  1.00  0.00    -0.129 C  
HETATM    3  O   UNL     1     -10.117  10.596  68.181  1.00  0.00    -0.152 OA 
HETATM    4  C   UNL     1      -8.572  12.312  67.566  1.00  0.00    -0.174 C  
HETATM    5  C   UNL     1      -8.246  10.034  66.700  1.00  0.00    -0.122 C  
HETATM    6  O   UNL     1      -9.756  12.970  67.549  1.00  0.00    -0.198 OA 
HETATM    7  O   UNL     1      -7.516  12.871  67.292  1.00  0.00    -0.147 OA 
ENDROOT
BRANCH   3   8
HETATM    8  C   UNL     1     -10.528   9.589  69.008  1.00  0.00    -0.213 A  
HETATM    9  C   UNL     1     -11.095   9.978  70.222  1.00  0.00    -0.381 A  
HETATM   10  C   UNL     1     -11.429   9.020  71.194  1.00  0.00    -0.376 A  
HETATM   11  C   UNL     1     -11.205   7.653  70.971  1.00  0.00    -0.283 A  
HETATM   12  C   UNL     1     -10.710   7.287  69.712  1.00  0.00    -0.253 A  
HETATM   13  C   UNL     1     -10.415   8.234  68.732  1.00  0.00    -0.200 A  
BRANCH  11  14
HETATM   14  C   UNL     1     -11.371   6.609  72.048  1.00  0.00    -0.317 C  
HETATM   15  C   UNL     1     -10.971   5.170  71.870  1.00  0.00    -0.112 C  
HETATM   16  C   UNL     1     -10.181   6.044  72.800  1.00  0.00    -0.188 C  
HETATM   17 CL   UNL     1     -10.380   5.845  74.539  1.00  0.00    -0.276 Cl 
HETATM   18 CL   UNL     1      -8.519   6.377  72.329  1.00  0.00    -0.111 Cl 
ENDBRANCH  11  14
ENDBRANCH   3   8
TORSDOF 2
ENDMDL
MODEL      112
REMARK 921   NORMALIZED FREE ENERGY PREDICTED BY IDOCK:   -3.46 KCAL/MOL
REMARK 922        TOTAL FREE ENERGY PREDICTED BY IDOCK:   -4.35 KCAL/MOL
REMARK 923 INTER-LIGAND FREE ENERGY PREDICTED BY IDOCK:   -3.80 KCAL/MOL
REMARK 924 INTRA-LIGAND FREE ENERGY PREDICTED BY IDOCK:   -0.55 KCAL/MOL
REMARK 927      BINDING AFFINITY PREDICTED BY RF-SCORE:    0.00 PKD
ROOT
HETATM    1  C   UNL     1      -9.117  12.000  67.959  1.00  0.00    -0.188 C  
HETATM    2  C   UNL     1      -9.980  11.457  66.808  1.00  0.00    -0.208 C  
HETATM    3  O   UNL     1     -10.795  10.300  67.143  1.00  0.00    -0.262 OA 
HETATM    4  C   UNL     1     -10.985  12.586  66.473  1.00  0.00    -0.266 C  
HETATM    5  C   UNL     1      -9.194  11.199  65.517  1.00  0.00    -0.236 C  
HETATM    6  O   UNL     1     -12.281  12.203  66.561  1.00  0.00    -0.584 OA 
HETATM    7  O   UNL     1     -10.666  13.723  66.143  1.00  0.00    -0.280 OA 
ENDROOT
BRANCH   3   8
HETATM    8  C   UNL     1     -10.304   9.326  67.965  1.00  0.00    -0.221 A  
HETATM    9  C   UNL     1     -10.895   9.224  69.225  1.00  0.00    -0.170 A  
HETATM   10  C   UNL     1     -10.376   8.344  70.188  1.00  0.00    -0.214 A  
HETATM   11  C   UNL     1      -9.257   7.543  69.911  1.00  0.00    -0.147 A  
HETATM   12  C   UNL     1      -8.736   7.608  68.612  1.00  0.00    -0.128 A  
HETATM   13  C   UNL     1      -9.275   8.453  67.642  1.00  0.00    -0.147 A  
BRANCH  11  14
HETATM   14  C   UNL     1      -8.554   6.725  70.966  1.00  0.00    -0.136 C  
HETATM   15  C   UNL     1      -9.274   6.044  72.097  1.00  0.00    -0.148 C  
HETATM   16  C   UNL     1      -8.665   5.212  71.006  1.00  0.00    -0.128 C  
HETATM   17 CL   UNL     1      -7.176   4.329  71.332  1.00  0.00    -0.042 Cl 
HETATM   18 CL   UNL     1      -9.791   4.318  69.991  1.00  0.00    -0.294 Cl 
ENDBRANCH  11  14
ENDBRANCH   3   8
TORSDOF 2
ENDMDL
MODEL      113
REMARK 921   NORMALIZED FREE ENERGY PREDICTED BY IDOCK:   -3.46 KCAL/MOL
REMARK 922        TOTAL FREE ENERGY PREDICTED BY IDOCK:   -4.34 KCAL/MOL
REMARK 923 INTER-LIGAND FREE ENERGY PREDICTED BY IDOCK:   -4.32 KCAL/MOL
REMARK 924 INTRA-LIGAND FREE ENERGY PREDICTED BY IDOCK:   -0.02 KCAL/MOL
REMARK 927      BINDING AFFINITY PREDICTED BY RF-SCORE:    0.00 PKD
ROOT
HETATM    1  C   UNL     1     -11.287  14.755  71.587  1.00  0.00    -0.045 C  
HETATM    2  C   UNL     1     -12.727  14.459  71.133  1.00  0.00    -0.352 C  
HETATM    3  O   UNL     1     -12.990  13.071  70.793  1.00  0.00    -0.121 OA 
HETATM    4  C   UNL     1     -13.620  14.760  72.362  1.00  0.00    -0.446 C  
HETATM    5  C   UNL     1     -13.224  15.385  70.017  1.00  0.00     0.263 C  
HETATM    6  O   UNL     1     -14.378  13.708  72.751  1.00  0.00    -0.622 OA 
HETATM    7  O   UNL     1     -13.668  15.841  72.937  1.00  0.00    -0.573 OA 
ENDROOT
BRANCH   3   8
HETATM    8  C   UNL     1     -12.047  12.330  70.139  1.00  0.00    -0.287 A  
HETATM    9  C   UNL     1     -11.560  12.864  68.945  1.00  0.00    -0.360 A  
HETATM   10  C   UNL     1     -10.686  12.122  68.135  1.00  0.00    -0.238 A  
HETATM   11  C   UNL     1     -10.278  10.831  68.501  1.00  0.00    -0.192 A  
HETATM   12  C   UNL     1     -10.719  10.354  69.743  1.00  0.00    -0.325 A  
HETATM   13  C   UNL     1     -11.555  11.106  70.568  1.00  0.00    -0.287 A  
BRANCH  11  14
HETATM   14  C   UNL     1      -9.495   9.926  67.582  1.00  0.00    -0.167 C  
HETATM   15  C   UNL     1      -9.340  10.184  66.108  1.00  0.00    -0.217 C  
HETATM   16  C   UNL     1      -8.151  10.340  67.011  1.00  0.00    -0.121 C  
HETATM   17 CL   UNL     1      -6.896   9.104  66.996  1.00  0.00    -0.079 Cl 
HETATM   18 CL   UNL     1      -7.513  11.971  67.180  1.00  0.00    -0.148 Cl 
ENDBRANCH  11  14
ENDBRANCH   3   8
TORSDOF 2
ENDMDL
MODEL      114
REMARK 921   NORMALIZED FREE ENERGY PREDICTED BY IDOCK:   -3.44 KCAL/MOL
REMARK 922        TOTAL FREE ENERGY PREDICTED BY IDOCK:   -4.32 KCAL/MOL
REMARK 923 INTER-LIGAND FREE ENERGY PREDICTED BY IDOCK:   -3.94 KCAL/MOL
REMARK 924 INTRA-LIGAND FREE ENERGY PREDICTED BY IDOCK:   -0.38 KCAL/MOL
REMARK 927      BINDING AFFINITY PREDICTED BY RF-SCORE:    0.00 PKD
ROOT
HETATM    1  C   UNL     1      -7.055   7.896  71.628  1.00  0.00    -0.067 C  
HETATM    2  C   UNL     1      -8.263   7.165  72.238  1.00  0.00    -0.101 C  
HETATM    3  O   UNL     1      -9.418   7.048  71.362  1.00  0.00    -0.159 OA 
HETATM    4  C   UNL     1      -7.787   5.714  72.490  1.00  0.00    -0.103 C  
HETATM    5  C   UNL     1      -8.686   7.710  73.607  1.00  0.00    -0.283 C  
HETATM    6  O   UNL     1      -8.549   4.779  71.872  1.00  0.00    -0.119 OA 
HETATM    7  O   UNL     1      -6.827   5.409  73.187  1.00  0.00    -0.074 OA 
ENDROOT
BRANCH   3   8
HETATM    8  C   UNL     1      -9.763   8.080  70.535  1.00  0.00    -0.178 A  
HETATM    9  C   UNL     1     -10.374   9.179  71.139  1.00  0.00    -0.387 A  
HETATM   10  C   UNL     1     -10.882  10.231  70.360  1.00  0.00    -0.320 A  
HETATM   11  C   UNL     1     -10.786  10.209  68.961  1.00  0.00    -0.257 A  
HETATM   12  C   UNL     1     -10.096   9.132  68.389  1.00  0.00    -0.220 A  
HETATM   13  C   UNL     1      -9.556   8.106  69.164  1.00  0.00    -0.157 A  
BRANCH  11  14
HETATM   14  C   UNL     1     -11.477  11.217  68.076  1.00  0.00    -0.366 C  
HETATM   15  C   UNL     1     -11.414  12.701  68.312  1.00  0.00    -0.356 C  
HETATM   16  C   UNL     1     -10.698  12.114  67.131  1.00  0.00    -0.232 C  
HETATM   17 CL   UNL     1     -11.379  12.330  65.521  1.00  0.00    -0.378 Cl 
HETATM   18 CL   UNL     1      -8.941  12.218  67.158  1.00  0.00    -0.185 Cl 
ENDBRANCH  11  14
ENDBRANCH   3   8
TORSDOF 2
ENDMDL
MODEL      115
REMARK 921   NORMALIZED FREE ENERGY PREDICTED BY IDOCK:   -3.44 KCAL/MOL
REMARK 922        TOTAL FREE ENERGY PREDICTED BY IDOCK:   -4.32 KCAL/MOL
REMARK 923 INTER-LIGAND FREE ENERGY PREDICTED BY IDOCK:   -3.76 KCAL/MOL
REMARK 924 INTRA-LIGAND FREE ENERGY PREDICTED BY IDOCK:   -0.56 KCAL/MOL
REMARK 927      BINDING AFFINITY PREDICTED BY RF-SCORE:    0.00 PKD
ROOT
HETATM    1  C   UNL     1     -10.424   8.885  70.897  1.00  0.00    -0.299 C  
HETATM    2  C   UNL     1     -10.881   7.419  70.988  1.00  0.00    -0.239 C  
HETATM    3  O   UNL     1     -10.192   6.503  70.094  1.00  0.00    -0.185 OA 
HETATM    4  C   UNL     1     -10.510   6.957  72.419  1.00  0.00    -0.208 C  
HETATM    5  C   UNL     1     -12.399   7.238  70.870  1.00  0.00    -0.287 C  
HETATM    6  O   UNL     1      -9.702   5.870  72.445  1.00  0.00    -0.159 OA 
HETATM    7  O   UNL     1     -10.907   7.494  73.446  1.00  0.00    -0.394 OA 
ENDROOT
BRANCH   3   8
HETATM    8  C   UNL     1      -9.860   6.895  68.828  1.00  0.00    -0.149 A  
HETATM    9  C   UNL     1      -8.499   6.911  68.522  1.00  0.00    -0.123 A  
HETATM   10  C   UNL     1      -8.049   7.421  67.293  1.00  0.00    -0.112 A  
HETATM   11  C   UNL     1      -8.951   7.923  66.342  1.00  0.00    -0.200 A  
HETATM   12  C   UNL     1     -10.315   7.819  66.645  1.00  0.00    -0.262 A  
HETATM   13  C   UNL     1     -10.765   7.277  67.848  1.00  0.00    -0.239 A  
BRANCH  11  14
HETATM   14  C   UNL     1      -8.508   8.647  65.095  1.00  0.00    -0.197 C  
HETATM   15  C   UNL     1      -9.214   9.859  64.552  1.00  0.00    -0.315 C  
HETATM   16  C   UNL     1      -7.849  10.013  65.158  1.00  0.00    -0.136 C  
HETATM   17 CL   UNL     1      -6.463  10.260  64.099  1.00  0.00    -0.117 Cl 
HETATM   18 CL   UNL     1      -7.760  10.953  66.643  1.00  0.00    -0.140 Cl 
ENDBRANCH  11  14
ENDBRANCH   3   8
TORSDOF 2
ENDMDL
MODEL      116
REMARK 921   NORMALIZED FREE ENERGY PREDICTED BY IDOCK:   -3.42 KCAL/MOL
REMARK 922        TOTAL FREE ENERGY PREDICTED BY IDOCK:   -4.30 KCAL/MOL
REMARK 923 INTER-LIGAND FREE ENERGY PREDICTED BY IDOCK:   -3.91 KCAL/MOL
REMARK 924 INTRA-LIGAND FREE ENERGY PREDICTED BY IDOCK:   -0.38 KCAL/MOL
REMARK 927      BINDING AFFINITY PREDICTED BY RF-SCORE:    0.00 PKD
ROOT
HETATM    1  C   UNL     1      -8.003   5.894  70.867  1.00  0.00    -0.111 C  
HETATM    2  C   UNL     1      -9.363   5.388  71.376  1.00  0.00    -0.147 C  
HETATM    3  O   UNL     1     -10.439   5.430  70.400  1.00  0.00    -0.266 OA 
HETATM    4  C   UNL     1      -9.155   3.888  71.697  1.00  0.00    -0.116 C  
HETATM    5  C   UNL     1      -9.810   6.039  72.690  1.00  0.00    -0.180 C  
HETATM    6  O   UNL     1     -10.001   3.068  71.029  1.00  0.00    -0.090 OA 
HETATM    7  O   UNL     1      -8.322   3.455  72.486  1.00  0.00    -0.081 OA 
ENDROOT
BRANCH   3   8
HETATM    8  C   UNL     1     -10.537   6.475  69.526  1.00  0.00    -0.246 A  
HETATM    9  C   UNL     1     -10.661   6.144  68.176  1.00  0.00    -0.367 A  
HETATM   10  C   UNL     1     -10.638   7.143  67.191  1.00  0.00    -0.417 A  
HETATM   11  C   UNL     1     -10.493   8.496  67.533  1.00  0.00    -0.328 A  
HETATM   12  C   UNL     1     -10.451   8.805  68.899  1.00  0.00    -0.217 A  
HETATM   13  C   UNL     1     -10.514   7.816  69.881  1.00  0.00    -0.232 A  
BRANCH  11  14
HETATM   14  C   UNL     1     -10.275   9.582  66.508  1.00  0.00    -0.307 C  
HETATM   15  C   UNL     1      -9.184  10.612  66.617  1.00  0.00    -0.184 C  
HETATM   16  C   UNL     1      -9.095   9.554  65.555  1.00  0.00    -0.212 C  
HETATM   17 CL   UNL     1      -9.432   9.989  63.882  1.00  0.00    -0.321 Cl 
HETATM   18 CL   UNL     1      -7.775   8.401  65.717  1.00  0.00    -0.091 Cl 
ENDBRANCH  11  14
ENDBRANCH   3   8
TORSDOF 2
ENDMDL
MODEL      117
REMARK 921   NORMALIZED FREE ENERGY PREDICTED BY IDOCK:   -3.40 KCAL/MOL
REMARK 922        TOTAL FREE ENERGY PREDICTED BY IDOCK:   -4.28 KCAL/MOL
REMARK 923 INTER-LIGAND FREE ENERGY PREDICTED BY IDOCK:   -3.99 KCAL/MOL
REMARK 924 INTRA-LIGAND FREE ENERGY PREDICTED BY IDOCK:   -0.29 KCAL/MOL
REMARK 927      BINDING AFFINITY PREDICTED BY RF-SCORE:    0.00 PKD
ROOT
HETATM    1  C   UNL     1      -9.288   6.766  71.253  1.00  0.00    -0.165 C  
HETATM    2  C   UNL     1     -10.717   7.239  70.939  1.00  0.00    -0.234 C  
HETATM    3  O   UNL     1     -11.465   6.380  70.036  1.00  0.00    -0.401 OA 
HETATM    4  C   UNL     1     -11.479   7.185  72.285  1.00  0.00    -0.271 C  
HETATM    5  C   UNL     1     -10.795   8.697  70.472  1.00  0.00    -0.257 C  
HETATM    6  O   UNL     1     -12.587   6.407  72.251  1.00  0.00    -0.204 OA 
HETATM    7  O   UNL     1     -11.144   7.789  73.297  1.00  0.00    -0.373 OA 
ENDROOT
BRANCH   3   8
HETATM    8  C   UNL     1     -10.840   5.783  68.977  1.00  0.00    -0.260 A  
HETATM    9  C   UNL     1     -11.095   6.331  67.719  1.00  0.00    -0.361 A  
HETATM   10  C   UNL     1     -10.606   5.713  66.558  1.00  0.00    -0.320 A  
HETATM   11  C   UNL     1      -9.848   4.534  66.629  1.00  0.00    -0.244 A  
HETATM   12  C   UNL     1      -9.540   4.053  67.908  1.00  0.00    -0.199 A  
HETATM   13  C   UNL     1      -9.993   4.689  69.064  1.00  0.00    -0.186 A  
BRANCH  11  14
HETATM   14  C   UNL     1      -9.460   3.734  65.410  1.00  0.00    -0.168 C  
HETATM   15  C   UNL     1      -9.483   4.295  64.014  1.00  0.00    -0.127 C  
HETATM   16  C   UNL     1      -8.164   3.994  64.664  1.00  0.00    -0.097 C  
HETATM   17 CL   UNL     1      -7.260   2.572  64.151  1.00  0.00    -0.055 Cl 
HETATM   18 CL   UNL     1      -7.136   5.379  65.010  1.00  0.00    -0.063 Cl 
ENDBRANCH  11  14
ENDBRANCH   3   8
TORSDOF 2
ENDMDL
MODEL      118
REMARK 921   NORMALIZED FREE ENERGY PREDICTED BY IDOCK:   -3.40 KCAL/MOL
REMARK 922        TOTAL FREE ENERGY PREDICTED BY IDOCK:   -4.27 KCAL/MOL
REMARK 923 INTER-LIGAND FREE ENERGY PREDICTED BY IDOCK:   -3.82 KCAL/MOL
REMARK 924 INTRA-LIGAND FREE ENERGY PREDICTED BY IDOCK:   -0.45 KCAL/MOL
REMARK 927      BINDING AFFINITY PREDICTED BY RF-SCORE:    0.00 PKD
ROOT
HETATM    1  C   UNL     1     -12.107  13.882  67.527  1.00  0.00    -0.366 C  
HETATM    2  C   UNL     1     -11.222  13.942  68.783  1.00  0.00    -0.272 C  
HETATM    3  O   UNL     1      -9.940  13.265  68.664  1.00  0.00    -0.210 OA 
HETATM    4  C   UNL     1     -10.881  15.439  68.981  1.00  0.00    -0.244 C  
HETATM    5  C   UNL     1     -11.939  13.502  70.065  1.00  0.00    -0.410 C  
HETATM    6  O   UNL     1      -9.551  15.694  69.007  1.00  0.00    -0.209 OA 
HETATM    7  O   UNL     1     -11.714  16.328  69.119  1.00  0.00    -0.281 OA 
ENDROOT
BRANCH   3   8
HETATM    8  C   UNL     1      -9.845  12.085  67.983  1.00  0.00    -0.199 A  
HETATM    9  C   UNL     1     -10.074  10.923  68.721  1.00  0.00    -0.205 A  
HETATM   10  C   UNL     1      -9.873   9.659  68.144  1.00  0.00    -0.172 A  
HETATM   11  C   UNL     1      -9.441   9.529  66.816  1.00  0.00    -0.217 A  
HETATM   12  C   UNL     1      -9.297  10.710  66.076  1.00  0.00    -0.219 A  
HETATM   13  C   UNL     1      -9.535  11.965  66.636  1.00  0.00    -0.217 A  
BRANCH  11  14
HETATM   14  C   UNL     1      -9.034   8.207  66.213  1.00  0.00    -0.215 C  
HETATM   15  C   UNL     1      -8.065   8.087  65.068  1.00  0.00    -0.145 C  
HETATM   16  C   UNL     1      -7.651   7.622  66.434  1.00  0.00    -0.088 C  
HETATM   17 CL   UNL     1      -7.579   5.894  66.766  1.00  0.00    -0.097 Cl 
HETATM   18 CL   UNL     1      -6.353   8.528  67.203  1.00  0.00    -0.056 Cl 
ENDBRANCH  11  14
ENDBRANCH   3   8
TORSDOF 2
ENDMDL
MODEL      119
REMARK 921   NORMALIZED FREE ENERGY PREDICTED BY IDOCK:   -3.32 KCAL/MOL
REMARK 922        TOTAL FREE ENERGY PREDICTED BY IDOCK:   -4.19 KCAL/MOL
REMARK 923 INTER-LIGAND FREE ENERGY PREDICTED BY IDOCK:   -3.82 KCAL/MOL
REMARK 924 INTRA-LIGAND FREE ENERGY PREDICTED BY IDOCK:   -0.36 KCAL/MOL
REMARK 927      BINDING AFFINITY PREDICTED BY RF-SCORE:    0.00 PKD
ROOT
HETATM    1  C   UNL     1      -8.034   8.847  67.721  1.00  0.00    -0.102 C  
HETATM    2  C   UNL     1      -9.147   8.818  66.660  1.00  0.00    -0.158 C  
HETATM    3  O   UNL     1      -9.431  10.098  66.032  1.00  0.00    -0.175 OA 
HETATM    4  C   UNL     1      -8.614   7.910  65.524  1.00  0.00    -0.116 C  
HETATM    5  C   UNL     1     -10.445   8.163  67.146  1.00  0.00    -0.396 C  
HETATM    6  O   UNL     1      -8.579   8.519  64.315  1.00  0.00    -0.108 OA 
HETATM    7  O   UNL     1      -8.265   6.745  65.673  1.00  0.00    -0.122 OA 
ENDROOT
BRANCH   3   8
HETATM    8  C   UNL     1      -9.409  11.247  66.770  1.00  0.00    -0.177 A  
HETATM    9  C   UNL     1     -10.639  11.700  67.247  1.00  0.00    -0.265 A  
HETATM   10  C   UNL     1     -10.739  12.937  67.904  1.00  0.00    -0.235 A  
HETATM   11  C   UNL     1      -9.610  13.748  68.100  1.00  0.00    -0.216 A  
HETATM   12  C   UNL     1      -8.377  13.230  67.681  1.00  0.00    -0.181 A  
HETATM   13  C   UNL     1      -8.271  11.984  67.065  1.00  0.00    -0.169 A  
BRANCH  11  14
HETATM   14  C   UNL     1      -9.696  15.158  68.628  1.00  0.00    -0.216 C  
HETATM   15  C   UNL     1      -8.517  16.091  68.682  1.00  0.00    -0.208 C  
HETATM   16  C   UNL     1      -9.624  16.361  67.705  1.00  0.00    -0.231 C  
HETATM   17 CL   UNL     1     -10.759  17.667  68.036  1.00  0.00    -0.377 Cl 
HETATM   18 CL   UNL     1      -9.207  16.222  66.001  1.00  0.00    -0.370 Cl 
ENDBRANCH  11  14
ENDBRANCH   3   8
TORSDOF 2
ENDMDL
MODEL      120
REMARK 921   NORMALIZED FREE ENERGY PREDICTED BY IDOCK:   -3.31 KCAL/MOL
REMARK 922        TOTAL FREE ENERGY PREDICTED BY IDOCK:   -4.17 KCAL/MOL
REMARK 923 INTER-LIGAND FREE ENERGY PREDICTED BY IDOCK:   -3.74 KCAL/MOL
REMARK 924 INTRA-LIGAND FREE ENERGY PREDICTED BY IDOCK:   -0.43 KCAL/MOL
REMARK 927      BINDING AFFINITY PREDICTED BY RF-SCORE:    0.00 PKD
ROOT
HETATM    1  C   UNL     1      -6.960   4.880  66.519  1.00  0.00    -0.067 C  
HETATM    2  C   UNL     1      -7.824   3.791  65.862  1.00  0.00    -0.090 C  
HETATM    3  O   UNL     1      -9.259   4.004  65.955  1.00  0.00    -0.135 OA 
HETATM    4  C   UNL     1      -7.494   3.854  64.350  1.00  0.00    -0.071 C  
HETATM    5  C   UNL     1      -7.467   2.368  66.309  1.00  0.00    -0.067 C  
HETATM    6  O   UNL     1      -8.579   4.062  63.567  1.00  0.00    -0.093 OA 
HETATM    7  O   UNL     1      -6.371   3.719  63.879  1.00  0.00    -0.028 OA 
ENDROOT
BRANCH   3   8
HETATM    8  C   UNL     1      -9.806   4.523  67.094  1.00  0.00    -0.189 A  
HETATM    9  C   UNL     1     -10.638   5.631  66.931  1.00  0.00    -0.367 A  
HETATM   10  C   UNL     1     -11.144   6.315  68.049  1.00  0.00    -0.365 A  
HETATM   11  C   UNL     1     -10.831   5.903  69.353  1.00  0.00    -0.422 A  
HETATM   12  C   UNL     1     -10.061   4.740  69.485  1.00  0.00    -0.260 A  
HETATM   13  C   UNL     1      -9.591   4.037  68.375  1.00  0.00    -0.186 A  
BRANCH  11  14
HETATM   14  C   UNL     1     -11.194   6.709  70.576  1.00  0.00    -0.388 C  
HETATM   15  C   UNL     1     -10.711   6.369  71.960  1.00  0.00    -0.261 C  
HETATM   16  C   UNL     1     -10.180   7.595  71.276  1.00  0.00    -0.187 C  
HETATM   17 CL   UNL     1     -10.753   9.180  71.790  1.00  0.00    -0.436 Cl 
HETATM   18 CL   UNL     1      -8.468   7.578  70.870  1.00  0.00    -0.124 Cl 
ENDBRANCH  11  14
ENDBRANCH   3   8
TORSDOF 2
ENDMDL
MODEL      121
REMARK 921   NORMALIZED FREE ENERGY PREDICTED BY IDOCK:   -3.27 KCAL/MOL
REMARK 922        TOTAL FREE ENERGY PREDICTED BY IDOCK:   -4.12 KCAL/MOL
REMARK 923 INTER-LIGAND FREE ENERGY PREDICTED BY IDOCK:   -4.09 KCAL/MOL
REMARK 924 INTRA-LIGAND FREE ENERGY PREDICTED BY IDOCK:   -0.03 KCAL/MOL
REMARK 927      BINDING AFFINITY PREDICTED BY RF-SCORE:    0.00 PKD
ROOT
HETATM    1  C   UNL     1      -7.787   6.708  69.137  1.00  0.00    -0.111 C  
HETATM    2  C   UNL     1      -9.033   5.846  69.400  1.00  0.00    -0.121 C  
HETATM    3  O   UNL     1     -10.271   6.370  68.845  1.00  0.00    -0.162 OA 
HETATM    4  C   UNL     1      -8.780   4.512  68.658  1.00  0.00    -0.098 C  
HETATM    5  C   UNL     1      -9.226   5.475  70.875  1.00  0.00    -0.179 C  
HETATM    6  O   UNL     1      -9.740   4.203  67.754  1.00  0.00    -0.166 OA 
HETATM    7  O   UNL     1      -7.819   3.778  68.858  1.00  0.00    -0.053 OA 
ENDROOT
BRANCH   3   8
HETATM    8  C   UNL     1     -10.521   7.713  68.863  1.00  0.00    -0.199 A  
HETATM    9  C   UNL     1     -10.525   8.358  67.625  1.00  0.00    -0.307 A  
HETATM   10  C   UNL     1     -10.642   9.754  67.548  1.00  0.00    -0.335 A  
HETATM   11  C   UNL     1     -10.762  10.537  68.707  1.00  0.00    -0.249 A  
HETATM   12  C   UNL     1     -10.837   9.855  69.929  1.00  0.00    -0.316 A  
HETATM   13  C   UNL     1     -10.760   8.465  70.004  1.00  0.00    -0.236 A  
BRANCH  11  14
HETATM   14  C   UNL     1     -10.704  12.045  68.687  1.00  0.00    -0.266 C  
HETATM   15  C   UNL     1      -9.633  12.819  67.968  1.00  0.00    -0.217 C  
HETATM   16  C   UNL     1     -11.037  12.839  67.438  1.00  0.00    -0.275 C  
HETATM   17 CL   UNL     1     -12.021  14.282  67.670  1.00  0.00    -0.420 Cl 
HETATM   18 CL   UNL     1     -11.286  12.078  65.871  1.00  0.00    -0.388 Cl 
ENDBRANCH  11  14
ENDBRANCH   3   8
TORSDOF 2
ENDMDL
MODEL      122
REMARK 921   NORMALIZED FREE ENERGY PREDICTED BY IDOCK:   -3.25 KCAL/MOL
REMARK 922        TOTAL FREE ENERGY PREDICTED BY IDOCK:   -4.10 KCAL/MOL
REMARK 923 INTER-LIGAND FREE ENERGY PREDICTED BY IDOCK:   -4.26 KCAL/MOL
REMARK 924 INTRA-LIGAND FREE ENERGY PREDICTED BY IDOCK:    0.16 KCAL/MOL
REMARK 927      BINDING AFFINITY PREDICTED BY RF-SCORE:    0.00 PKD
ROOT
HETATM    1  C   UNL     1     -10.227  13.868  68.817  1.00  0.00    -0.188 C  
HETATM    2  C   UNL     1      -9.391  13.151  67.743  1.00  0.00    -0.206 C  
HETATM    3  O   UNL     1      -9.660  11.729  67.602  1.00  0.00    -0.177 OA 
HETATM    4  C   UNL     1      -9.813  13.786  66.395  1.00  0.00    -0.298 C  
HETATM    5  C   UNL     1      -7.884  13.398  67.869  1.00  0.00    -0.152 C  
HETATM    6  O   UNL     1     -10.276  12.887  65.494  1.00  0.00    -0.284 OA 
HETATM    7  O   UNL     1      -9.734  14.981  66.136  1.00  0.00    -0.268 OA 
ENDROOT
BRANCH   3   8
HETATM    8  C   UNL     1      -9.908  10.962  68.705  1.00  0.00    -0.196 A  
HETATM    9  C   UNL     1      -8.855  10.163  69.153  1.00  0.00    -0.179 A  
HETATM   10  C   UNL     1      -9.049   9.245  70.197  1.00  0.00    -0.248 A  
HETATM   11  C   UNL     1     -10.299   9.108  70.820  1.00  0.00    -0.323 A  
HETATM   12  C   UNL     1     -11.314   9.979  70.404  1.00  0.00    -0.392 A  
HETATM   13  C   UNL     1     -11.112  10.919  69.394  1.00  0.00    -0.317 A  
BRANCH  11  14
HETATM   14  C   UNL     1     -10.605   8.013  71.811  1.00  0.00    -0.296 C  
HETATM   15  C   UNL     1     -11.172   6.677  71.416  1.00  0.00    -0.318 C  
HETATM   16  C   UNL     1      -9.754   6.759  71.902  1.00  0.00    -0.155 C  
HETATM   17 CL   UNL     1      -9.371   6.192  73.525  1.00  0.00    -0.131 Cl 
HETATM   18 CL   UNL     1      -8.505   6.376  70.723  1.00  0.00    -0.133 Cl 
ENDBRANCH  11  14
ENDBRANCH   3   8
TORSDOF 2
ENDMDL
MODEL      123
REMARK 921   NORMALIZED FREE ENERGY PREDICTED BY IDOCK:   -3.24 KCAL/MOL
REMARK 922        TOTAL FREE ENERGY PREDICTED BY IDOCK:   -4.10 KCAL/MOL
REMARK 923 INTER-LIGAND FREE ENERGY PREDICTED BY IDOCK:   -3.89 KCAL/MOL
REMARK 924 INTRA-LIGAND FREE ENERGY PREDICTED BY IDOCK:   -0.20 KCAL/MOL
REMARK 927      BINDING AFFINITY PREDICTED BY RF-SCORE:    0.00 PKD
ROOT
HETATM    1  C   UNL     1      -8.027   8.580  68.298  1.00  0.00    -0.114 C  
HETATM    2  C   UNL     1      -9.277   7.751  68.636  1.00  0.00    -0.138 C  
HETATM    3  O   UNL     1     -10.534   8.319  68.175  1.00  0.00    -0.211 OA 
HETATM    4  C   UNL     1      -9.117   6.421  67.860  1.00  0.00    -0.112 C  
HETATM    5  C   UNL     1      -9.379   7.363  70.115  1.00  0.00    -0.158 C  
HETATM    6  O   UNL     1     -10.147   6.155  67.021  1.00  0.00    -0.145 OA 
HETATM    7  O   UNL     1      -8.167   5.656  67.983  1.00  0.00    -0.100 OA 
ENDROOT
BRANCH   3   8
HETATM    8  C   UNL     1     -10.741   9.668  68.229  1.00  0.00    -0.217 A  
HETATM    9  C   UNL     1     -10.931  10.314  67.006  1.00  0.00    -0.189 A  
HETATM   10  C   UNL     1     -11.022  11.713  66.944  1.00  0.00    -0.342 A  
HETATM   11  C   UNL     1     -10.928  12.499  68.103  1.00  0.00    -0.260 A  
HETATM   12  C   UNL     1     -10.818  11.818  69.323  1.00  0.00    -0.185 A  
HETATM   13  C   UNL     1     -10.767  10.426  69.390  1.00  0.00    -0.277 A  
BRANCH  11  14
HETATM   14  C   UNL     1     -10.832  14.004  68.068  1.00  0.00    -0.257 C  
HETATM   15  C   UNL     1     -12.007  14.898  67.782  1.00  0.00    -0.192 C  
HETATM   16  C   UNL     1     -11.428  14.866  69.166  1.00  0.00    -0.302 C  
HETATM   17 CL   UNL     1     -10.445  16.220  69.715  1.00  0.00    -0.279 Cl 
HETATM   18 CL   UNL     1     -12.465  14.209  70.427  1.00  0.00    -0.412 Cl 
ENDBRANCH  11  14
ENDBRANCH   3   8
TORSDOF 2
ENDMDL
MODEL      124
REMARK 921   NORMALIZED FREE ENERGY PREDICTED BY IDOCK:   -3.24 KCAL/MOL
REMARK 922        TOTAL FREE ENERGY PREDICTED BY IDOCK:   -4.10 KCAL/MOL
REMARK 923 INTER-LIGAND FREE ENERGY PREDICTED BY IDOCK:   -3.82 KCAL/MOL
REMARK 924 INTRA-LIGAND FREE ENERGY PREDICTED BY IDOCK:   -0.28 KCAL/MOL
REMARK 927      BINDING AFFINITY PREDICTED BY RF-SCORE:    0.00 PKD
ROOT
HETATM    1  C   UNL     1      -9.046  10.060  69.736  1.00  0.00    -0.219 C  
HETATM    2  C   UNL     1      -9.733   9.772  68.391  1.00  0.00    -0.149 C  
HETATM    3  O   UNL     1     -10.746   8.729  68.429  1.00  0.00    -0.169 OA 
HETATM    4  C   UNL     1     -10.492  11.071  68.024  1.00  0.00    -0.189 C  
HETATM    5  C   UNL     1      -8.753   9.520  67.240  1.00  0.00    -0.132 C  
HETATM    6  O   UNL     1     -11.820  10.887  67.831  1.00  0.00    -0.590 OA 
HETATM    7  O   UNL     1      -9.965  12.170  67.900  1.00  0.00    -0.189 OA 
ENDROOT
BRANCH   3   8
HETATM    8  C   UNL     1     -10.560   7.616  69.199  1.00  0.00    -0.186 A  
HETATM    9  C   UNL     1      -9.557   6.738  68.786  1.00  0.00    -0.132 A  
HETATM   10  C   UNL     1      -9.375   5.506  69.433  1.00  0.00    -0.154 A  
HETATM   11  C   UNL     1     -10.190   5.125  70.510  1.00  0.00    -0.330 A  
HETATM   12  C   UNL     1     -11.135   6.060  70.953  1.00  0.00    -0.352 A  
HETATM   13  C   UNL     1     -11.290   7.301  70.336  1.00  0.00    -0.299 A  
BRANCH  11  14
HETATM   14  C   UNL     1     -10.158   3.743  71.114  1.00  0.00    -0.026 C  
HETATM   15  C   UNL     1      -8.903   3.103  71.642  1.00  0.00    -0.126 C  
HETATM   16  C   UNL     1      -9.973   3.528  72.605  1.00  0.00    -0.160 C  
HETATM   17 CL   UNL     1     -10.994   2.301  73.349  1.00  0.00    -0.278 Cl 
HETATM   18 CL   UNL     1      -9.553   4.837  73.704  1.00  0.00    -0.136 Cl 
ENDBRANCH  11  14
ENDBRANCH   3   8
TORSDOF 2
ENDMDL
MODEL      125
REMARK 921   NORMALIZED FREE ENERGY PREDICTED BY IDOCK:   -3.24 KCAL/MOL
REMARK 922        TOTAL FREE ENERGY PREDICTED BY IDOCK:   -4.09 KCAL/MOL
REMARK 923 INTER-LIGAND FREE ENERGY PREDICTED BY IDOCK:   -3.65 KCAL/MOL
REMARK 924 INTRA-LIGAND FREE ENERGY PREDICTED BY IDOCK:   -0.44 KCAL/MOL
REMARK 927      BINDING AFFINITY PREDICTED BY RF-SCORE:    0.00 PKD
ROOT
HETATM    1  C   UNL     1      -8.193  11.560  68.224  1.00  0.00    -0.152 C  
HETATM    2  C   UNL     1      -6.903  10.727  68.289  1.00  0.00    -0.067 C  
HETATM    3  O   UNL     1      -7.102   9.301  68.491  1.00  0.00    -0.070 OA 
HETATM    4  C   UNL     1      -6.251  10.859  66.892  1.00  0.00    -0.087 C  
HETATM    5  C   UNL     1      -5.870  11.267  69.286  1.00  0.00    -0.049 C  
HETATM    6  O   UNL     1      -6.037   9.670  66.278  1.00  0.00    -0.061 OA 
HETATM    7  O   UNL     1      -5.934  11.922  66.371  1.00  0.00    -0.171 OA 
ENDROOT
BRANCH   3   8
HETATM    8  C   UNL     1      -8.085   8.853  69.327  1.00  0.00    -0.109 A  
HETATM    9  C   UNL     1      -8.960   7.903  68.799  1.00  0.00    -0.141 A  
HETATM   10  C   UNL     1     -10.079   7.478  69.533  1.00  0.00    -0.189 A  
HETATM   11  C   UNL     1     -10.346   7.991  70.811  1.00  0.00    -0.214 A  
HETATM   12  C   UNL     1      -9.407   8.882  71.346  1.00  0.00    -0.338 A  
HETATM   13  C   UNL     1      -8.274   9.275  70.635  1.00  0.00    -0.224 A  
BRANCH  11  14
HETATM   14  C   UNL     1     -11.627   7.708  71.557  1.00  0.00    -0.304 C  
HETATM   15  C   UNL     1     -12.031   8.439  72.808  1.00  0.00    -0.214 C  
HETATM   16  C   UNL     1     -12.792   8.680  71.537  1.00  0.00    -0.319 C  
HETATM   17 CL   UNL     1     -14.395   7.973  71.350  1.00  0.00    -0.495 Cl 
HETATM   18 CL   UNL     1     -12.666  10.295  70.850  1.00  0.00    -0.442 Cl 
ENDBRANCH  11  14
ENDBRANCH   3   8
TORSDOF 2
ENDMDL
MODEL      126
REMARK 921   NORMALIZED FREE ENERGY PREDICTED BY IDOCK:   -3.17 KCAL/MOL
REMARK 922        TOTAL FREE ENERGY PREDICTED BY IDOCK:   -4.02 KCAL/MOL
REMARK 923 INTER-LIGAND FREE ENERGY PREDICTED BY IDOCK:   -3.76 KCAL/MOL
REMARK 924 INTRA-LIGAND FREE ENERGY PREDICTED BY IDOCK:   -0.26 KCAL/MOL
REMARK 927      BINDING AFFINITY PREDICTED BY RF-SCORE:    0.00 PKD
ROOT
HETATM    1  C   UNL     1      -7.692   6.504  68.948  1.00  0.00    -0.109 C  
HETATM    2  C   UNL     1      -8.299   5.394  68.073  1.00  0.00    -0.098 C  
HETATM    3  O   UNL     1      -8.688   5.810  66.735  1.00  0.00    -0.115 OA 
HETATM    4  C   UNL     1      -7.166   4.358  67.870  1.00  0.00    -0.065 C  
HETATM    5  C   UNL     1      -9.446   4.633  68.749  1.00  0.00    -0.214 C  
HETATM    6  O   UNL     1      -6.875   4.121  66.569  1.00  0.00    -0.052 OA 
HETATM    7  O   UNL     1      -6.582   3.782  68.780  1.00  0.00    -0.039 OA 
ENDROOT
BRANCH   3   8
HETATM    8  C   UNL     1      -9.252   7.037  66.532  1.00  0.00    -0.164 A  
HETATM    9  C   UNL     1      -8.615   7.866  65.608  1.00  0.00    -0.159 A  
HETATM   10  C   UNL     1      -9.040   9.191  65.424  1.00  0.00    -0.271 A  
HETATM   11  C   UNL     1     -10.114   9.716  66.158  1.00  0.00    -0.328 A  
HETATM   12  C   UNL     1     -10.785   8.837  67.018  1.00  0.00    -0.186 A  
HETATM   13  C   UNL     1     -10.389   7.509  67.172  1.00  0.00    -0.384 A  
BRANCH  11  14
HETATM   14  C   UNL     1     -10.487  11.178  66.133  1.00  0.00    -0.307 C  
HETATM   15  C   UNL     1      -9.557  12.258  65.652  1.00  0.00    -0.148 C  
HETATM   16  C   UNL     1     -10.764  11.908  64.832  1.00  0.00    -0.301 C  
HETATM   17 CL   UNL     1     -12.145  13.001  64.829  1.00  0.00    -0.437 Cl 
HETATM   18 CL   UNL     1     -10.451  11.187  63.257  1.00  0.00    -0.380 Cl 
ENDBRANCH  11  14
ENDBRANCH   3   8
TORSDOF 2
ENDMDL
MODEL      127
REMARK 921   NORMALIZED FREE ENERGY PREDICTED BY IDOCK:   -3.17 KCAL/MOL
REMARK 922        TOTAL FREE ENERGY PREDICTED BY IDOCK:   -4.02 KCAL/MOL
REMARK 923 INTER-LIGAND FREE ENERGY PREDICTED BY IDOCK:   -3.47 KCAL/MOL
REMARK 924 INTRA-LIGAND FREE ENERGY PREDICTED BY IDOCK:   -0.55 KCAL/MOL
REMARK 927      BINDING AFFINITY PREDICTED BY RF-SCORE:    0.00 PKD
ROOT
HETATM    1  C   UNL     1      -7.448   6.016  67.796  1.00  0.00    -0.085 C  
HETATM    2  C   UNL     1      -8.488   5.365  66.868  1.00  0.00    -0.107 C  
HETATM    3  O   UNL     1      -9.212   6.290  66.011  1.00  0.00    -0.152 OA 
HETATM    4  C   UNL     1      -7.679   4.460  65.907  1.00  0.00    -0.094 C  
HETATM    5  C   UNL     1      -9.467   4.435  67.595  1.00  0.00    -0.204 C  
HETATM    6  O   UNL     1      -7.872   4.750  64.598  1.00  0.00    -0.083 OA 
HETATM    7  O   UNL     1      -6.940   3.551  66.267  1.00  0.00    -0.059 OA 
ENDROOT
BRANCH   3   8
HETATM    8  C   UNL     1      -9.590   7.515  66.484  1.00  0.00    -0.173 A  
HETATM    9  C   UNL     1      -8.860   8.610  66.020  1.00  0.00    -0.213 A  
HETATM   10  C   UNL     1      -9.086   9.893  66.544  1.00  0.00    -0.179 A  
HETATM   11  C   UNL     1     -10.050  10.109  67.542  1.00  0.00    -0.244 A  
HETATM   12  C   UNL     1     -10.822   9.006  67.929  1.00  0.00    -0.118 A  
HETATM   13  C   UNL     1     -10.625   7.739  67.381  1.00  0.00    -0.345 A  
BRANCH  11  14
HETATM   14  C   UNL     1     -10.199  11.425  68.265  1.00  0.00    -0.204 C  
HETATM   15  C   UNL     1      -9.528  12.694  67.814  1.00  0.00    -0.198 C  
HETATM   16  C   UNL     1     -11.018  12.564  67.686  1.00  0.00    -0.242 C  
HETATM   17 CL   UNL     1     -12.055  13.432  68.815  1.00  0.00    -0.345 Cl 
HETATM   18 CL   UNL     1     -11.657  12.533  66.046  1.00  0.00    -0.430 Cl 
ENDBRANCH  11  14
ENDBRANCH   3   8
TORSDOF 2
ENDMDL
MODEL      128
REMARK 921   NORMALIZED FREE ENERGY PREDICTED BY IDOCK:   -3.16 KCAL/MOL
REMARK 922        TOTAL FREE ENERGY PREDICTED BY IDOCK:   -4.00 KCAL/MOL
REMARK 923 INTER-LIGAND FREE ENERGY PREDICTED BY IDOCK:   -3.58 KCAL/MOL
REMARK 924 INTRA-LIGAND FREE ENERGY PREDICTED BY IDOCK:   -0.42 KCAL/MOL
REMARK 927      BINDING AFFINITY PREDICTED BY RF-SCORE:    0.00 PKD
ROOT
HETATM    1  C   UNL     1     -10.091   4.843  69.658  1.00  0.00    -0.300 C  
HETATM    2  C   UNL     1      -8.714   5.149  70.270  1.00  0.00    -0.116 C  
HETATM    3  O   UNL     1      -8.601   6.451  70.908  1.00  0.00    -0.133 OA 
HETATM    4  C   UNL     1      -8.525   4.115  71.406  1.00  0.00    -0.097 C  
HETATM    5  C   UNL     1      -7.546   4.928  69.303  1.00  0.00    -0.060 C  
HETATM    6  O   UNL     1      -8.298   4.676  72.618  1.00  0.00    -0.111 OA 
HETATM    7  O   UNL     1      -8.556   2.900  71.251  1.00  0.00    -0.062 OA 
ENDROOT
BRANCH   3   8
HETATM    8  C   UNL     1      -9.212   7.543  70.359  1.00  0.00    -0.157 A  
HETATM    9  C   UNL     1     -10.137   8.206  71.167  1.00  0.00    -0.222 A  
HETATM   10  C   UNL     1     -10.910   9.258  70.652  1.00  0.00    -0.339 A  
HETATM   11  C   UNL     1     -10.774   9.673  69.318  1.00  0.00    -0.246 A  
HETATM   12  C   UNL     1      -9.781   9.043  68.556  1.00  0.00    -0.171 A  
HETATM   13  C   UNL     1      -8.984   8.024  69.078  1.00  0.00    -0.145 A  
BRANCH  11  14
HETATM   14  C   UNL     1     -11.706  10.666  68.669  1.00  0.00    -0.228 C  
HETATM   15  C   UNL     1     -12.017  12.013  69.261  1.00  0.00    -0.329 C  
HETATM   16  C   UNL     1     -11.189  11.932  68.011  1.00  0.00    -0.257 C  
HETATM   17 CL   UNL     1     -11.921  12.365  66.468  1.00  0.00    -0.401 Cl 
HETATM   18 CL   UNL     1      -9.515  12.457  68.153  1.00  0.00    -0.210 Cl 
ENDBRANCH  11  14
ENDBRANCH   3   8
TORSDOF 2
ENDMDL
MODEL      129
REMARK 921   NORMALIZED FREE ENERGY PREDICTED BY IDOCK:   -3.14 KCAL/MOL
REMARK 922        TOTAL FREE ENERGY PREDICTED BY IDOCK:   -3.98 KCAL/MOL
REMARK 923 INTER-LIGAND FREE ENERGY PREDICTED BY IDOCK:   -3.67 KCAL/MOL
REMARK 924 INTRA-LIGAND FREE ENERGY PREDICTED BY IDOCK:   -0.32 KCAL/MOL
REMARK 927      BINDING AFFINITY PREDICTED BY RF-SCORE:    0.00 PKD
ROOT
HETATM    1  C   UNL     1      -7.669   8.934  67.681  1.00  0.00    -0.101 C  
HETATM    2  C   UNL     1      -8.427   8.807  66.349  1.00  0.00    -0.121 C  
HETATM    3  O   UNL     1      -8.795  10.069  65.729  1.00  0.00    -0.141 OA 
HETATM    4  C   UNL     1      -7.434   8.139  65.367  1.00  0.00    -0.082 C  
HETATM    5  C   UNL     1      -9.641   7.873  66.417  1.00  0.00    -0.251 C  
HETATM    6  O   UNL     1      -7.206   8.866  64.248  1.00  0.00    -0.089 OA 
HETATM    7  O   UNL     1      -6.901   7.050  65.552  1.00  0.00    -0.050 OA 
ENDROOT
BRANCH   3   8
HETATM    8  C   UNL     1      -9.210  11.120  66.498  1.00  0.00    -0.179 A  
HETATM    9  C   UNL     1     -10.586  11.231  66.702  1.00  0.00    -0.309 A  
HETATM   10  C   UNL     1     -11.122  12.345  67.367  1.00  0.00    -0.320 A  
HETATM   11  C   UNL     1     -10.293  13.371  67.846  1.00  0.00    -0.238 A  
HETATM   12  C   UNL     1      -8.911  13.192  67.698  1.00  0.00    -0.191 A  
HETATM   13  C   UNL     1      -8.375  12.067  67.073  1.00  0.00    -0.178 A  
BRANCH  11  14
HETATM   14  C   UNL     1     -10.830  14.669  68.397  1.00  0.00    -0.250 C  
HETATM   15  C   UNL     1     -12.285  15.046  68.348  1.00  0.00    -0.009 C  
HETATM   16  C   UNL     1     -11.656  14.713  69.669  1.00  0.00    -0.307 C  
HETATM   17 CL   UNL     1     -11.286  16.017  70.795  1.00  0.00    -0.415 Cl 
HETATM   18 CL   UNL     1     -12.245  13.259  70.466  1.00  0.00    -0.436 Cl 
ENDBRANCH  11  14
ENDBRANCH   3   8
TORSDOF 2
ENDMDL
MODEL      130
REMARK 921   NORMALIZED FREE ENERGY PREDICTED BY IDOCK:   -3.13 KCAL/MOL
REMARK 922        TOTAL FREE ENERGY PREDICTED BY IDOCK:   -3.98 KCAL/MOL
REMARK 923 INTER-LIGAND FREE ENERGY PREDICTED BY IDOCK:   -4.02 KCAL/MOL
REMARK 924 INTRA-LIGAND FREE ENERGY PREDICTED BY IDOCK:    0.05 KCAL/MOL
REMARK 927      BINDING AFFINITY PREDICTED BY RF-SCORE:    0.00 PKD
ROOT
HETATM    1  C   UNL     1     -10.270   4.518  65.841  1.00  0.00    -0.289 C  
HETATM    2  C   UNL     1      -8.790   4.872  66.061  1.00  0.00    -0.126 C  
HETATM    3  O   UNL     1      -8.402   5.060  67.450  1.00  0.00    -0.106 OA 
HETATM    4  C   UNL     1      -7.990   3.640  65.572  1.00  0.00    -0.093 C  
HETATM    5  C   UNL     1      -8.304   6.051  65.209  1.00  0.00    -0.148 C  
HETATM    6  O   UNL     1      -7.176   3.112  66.518  1.00  0.00    -0.060 OA 
HETATM    7  O   UNL     1      -8.056   3.174  64.441  1.00  0.00    -0.082 OA 
ENDROOT
BRANCH   3   8
HETATM    8  C   UNL     1      -9.249   5.680  68.324  1.00  0.00    -0.110 A  
HETATM    9  C   UNL     1      -9.070   7.054  68.489  1.00  0.00    -0.131 A  
HETATM   10  C   UNL     1      -9.802   7.759  69.458  1.00  0.00    -0.179 A  
HETATM   11  C   UNL     1     -10.733   7.105  70.281  1.00  0.00    -0.258 A  
HETATM   12  C   UNL     1     -10.949   5.743  70.037  1.00  0.00    -0.382 A  
HETATM   13  C   UNL     1     -10.251   5.050  69.047  1.00  0.00    -0.207 A  
BRANCH  11  14
HETATM   14  C   UNL     1     -11.403   7.777  71.454  1.00  0.00    -0.281 C  
HETATM   15  C   UNL     1     -10.687   8.715  72.386  1.00  0.00    -0.311 C  
HETATM   16  C   UNL     1     -11.723   9.260  71.447  1.00  0.00    -0.361 C  
HETATM   17 CL   UNL     1     -13.300   9.720  72.084  1.00  0.00    -0.538 Cl 
HETATM   18 CL   UNL     1     -11.140  10.348  70.193  1.00  0.00    -0.362 Cl 
ENDBRANCH  11  14
ENDBRANCH   3   8
TORSDOF 2
ENDMDL
MODEL      131
REMARK 921   NORMALIZED FREE ENERGY PREDICTED BY IDOCK:   -3.10 KCAL/MOL
REMARK 922        TOTAL FREE ENERGY PREDICTED BY IDOCK:   -3.94 KCAL/MOL
REMARK 923 INTER-LIGAND FREE ENERGY PREDICTED BY IDOCK:   -4.02 KCAL/MOL
REMARK 924 INTRA-LIGAND FREE ENERGY PREDICTED BY IDOCK:    0.08 KCAL/MOL
REMARK 927      BINDING AFFINITY PREDICTED BY RF-SCORE:    0.00 PKD
ROOT
HETATM    1  C   UNL     1     -11.188  14.569  71.386  1.00  0.00     0.379 C  
HETATM    2  C   UNL     1     -12.644  14.403  70.919  1.00  0.00    -0.352 C  
HETATM    3  O   UNL     1     -13.055  13.032  70.664  1.00  0.00     0.035 OA 
HETATM    4  C   UNL     1     -13.518  14.882  72.104  1.00  0.00    -0.393 C  
HETATM    5  C   UNL     1     -13.017  15.301  69.734  1.00  0.00     0.191 C  
HETATM    6  O   UNL     1     -14.394  13.948  72.544  1.00  0.00    -0.661 OA 
HETATM    7  O   UNL     1     -13.455  15.998  72.606  1.00  0.00    -0.475 OA 
ENDROOT
BRANCH   3   8
HETATM    8  C   UNL     1     -12.189  12.150  70.081  1.00  0.00    -0.231 A  
HETATM    9  C   UNL     1     -11.886  12.377  68.738  1.00  0.00    -0.358 A  
HETATM   10  C   UNL     1     -11.110  11.456  68.016  1.00  0.00    -0.317 A  
HETATM   11  C   UNL     1     -10.618  10.290  68.621  1.00  0.00    -0.232 A  
HETATM   12  C   UNL     1     -10.871  10.130  69.990  1.00  0.00    -0.361 A  
HETATM   13  C   UNL     1     -11.608  11.064  70.719  1.00  0.00    -0.159 A  
BRANCH  11  14
HETATM   14  C   UNL     1      -9.944   9.185  67.846  1.00  0.00    -0.228 C  
HETATM   15  C   UNL     1      -8.870   8.307  68.427  1.00  0.00    -0.137 C  
HETATM   16  C   UNL     1     -10.222   7.722  68.138  1.00  0.00    -0.202 C  
HETATM   17 CL   UNL     1     -10.419   6.671  66.737  1.00  0.00    -0.312 Cl 
HETATM   18 CL   UNL     1     -11.156   7.196  69.533  1.00  0.00    -0.206 Cl 
ENDBRANCH  11  14
ENDBRANCH   3   8
TORSDOF 2
ENDMDL
MODEL      132
REMARK 921   NORMALIZED FREE ENERGY PREDICTED BY IDOCK:   -3.04 KCAL/MOL
REMARK 922        TOTAL FREE ENERGY PREDICTED BY IDOCK:   -3.87 KCAL/MOL
REMARK 923 INTER-LIGAND FREE ENERGY PREDICTED BY IDOCK:   -3.44 KCAL/MOL
REMARK 924 INTRA-LIGAND FREE ENERGY PREDICTED BY IDOCK:   -0.44 KCAL/MOL
REMARK 927      BINDING AFFINITY PREDICTED BY RF-SCORE:    0.00 PKD
ROOT
HETATM    1  C   UNL     1      -8.072   6.662  68.372  1.00  0.00    -0.115 C  
HETATM    2  C   UNL     1      -8.283   6.457  66.862  1.00  0.00    -0.110 C  
HETATM    3  O   UNL     1      -8.192   7.665  66.059  1.00  0.00    -0.114 OA 
HETATM    4  C   UNL     1      -7.108   5.562  66.397  1.00  0.00    -0.069 C  
HETATM    5  C   UNL     1      -9.561   5.684  66.518  1.00  0.00    -0.171 C  
HETATM    6  O   UNL     1      -6.367   6.113  65.406  1.00  0.00    -0.036 OA 
HETATM    7  O   UNL     1      -6.859   4.452  66.852  1.00  0.00    -0.050 OA 
ENDROOT
BRANCH   3   8
HETATM    8  C   UNL     1      -8.699   8.844  66.527  1.00  0.00    -0.130 A  
HETATM    9  C   UNL     1     -10.068   9.046  66.341  1.00  0.00    -0.351 A  
HETATM   10  C   UNL     1     -10.659  10.276  66.669  1.00  0.00    -0.232 A  
HETATM   11  C   UNL     1      -9.897  11.330  67.194  1.00  0.00    -0.213 A  
HETATM   12  C   UNL     1      -8.543  11.071  67.445  1.00  0.00    -0.132 A  
HETATM   13  C   UNL     1      -7.962   9.836  67.156  1.00  0.00    -0.102 A  
BRANCH  11  14
HETATM   14  C   UNL     1     -10.446  12.723  67.386  1.00  0.00    -0.234 C  
HETATM   15  C   UNL     1     -11.900  13.066  67.214  1.00  0.00    -0.419 C  
HETATM   16  C   UNL     1     -11.298  13.084  68.589  1.00  0.00    -0.291 C  
HETATM   17 CL   UNL     1     -10.952  14.633  69.353  1.00  0.00    -0.269 Cl 
HETATM   18 CL   UNL     1     -11.903  11.877  69.717  1.00  0.00    -0.399 Cl 
ENDBRANCH  11  14
ENDBRANCH   3   8
TORSDOF 2
ENDMDL
MODEL      133
REMARK 921   NORMALIZED FREE ENERGY PREDICTED BY IDOCK:   -3.01 KCAL/MOL
REMARK 922        TOTAL FREE ENERGY PREDICTED BY IDOCK:   -3.84 KCAL/MOL
REMARK 923 INTER-LIGAND FREE ENERGY PREDICTED BY IDOCK:   -3.24 KCAL/MOL
REMARK 924 INTRA-LIGAND FREE ENERGY PREDICTED BY IDOCK:   -0.60 KCAL/MOL
REMARK 927      BINDING AFFINITY PREDICTED BY RF-SCORE:    0.00 PKD
ROOT
HETATM    1  C   UNL     1     -11.170   9.118  70.214  1.00  0.00    -0.249 C  
HETATM    2  C   UNL     1     -10.915   7.817  70.994  1.00  0.00    -0.244 C  
HETATM    3  O   UNL     1      -9.552   7.316  70.924  1.00  0.00    -0.170 OA 
HETATM    4  C   UNL     1     -11.148   8.173  72.483  1.00  0.00    -0.377 C  
HETATM    5  C   UNL     1     -11.911   6.698  70.670  1.00  0.00    -0.443 C  
HETATM    6  O   UNL     1     -10.080   7.916  73.275  1.00  0.00    -0.313 OA 
HETATM    7  O   UNL     1     -12.192   8.631  72.932  1.00  0.00    -0.245 OA 
ENDROOT
BRANCH   3   8
HETATM    8  C   UNL     1      -8.845   7.403  69.758  1.00  0.00    -0.141 A  
HETATM    9  C   UNL     1      -7.755   8.275  69.759  1.00  0.00    -0.098 A  
HETATM   10  C   UNL     1      -7.045   8.532  68.576  1.00  0.00    -0.073 A  
HETATM   11  C   UNL     1      -7.407   7.920  67.366  1.00  0.00    -0.092 A  
HETATM   12  C   UNL     1      -8.453   6.989  67.413  1.00  0.00    -0.122 A  
HETATM   13  C   UNL     1      -9.133   6.703  68.596  1.00  0.00    -0.126 A  
BRANCH  11  14
HETATM   14  C   UNL     1      -6.798   8.304  66.039  1.00  0.00    -0.064 C  
HETATM   15  C   UNL     1      -7.558   8.264  64.742  1.00  0.00    -0.103 C  
HETATM   16  C   UNL     1      -7.178   9.591  65.331  1.00  0.00    -0.095 C  
HETATM   17 CL   UNL     1      -5.855  10.503  64.607  1.00  0.00    -0.117 Cl 
HETATM   18 CL   UNL     1      -8.507  10.611  65.869  1.00  0.00    -0.162 Cl 
ENDBRANCH  11  14
ENDBRANCH   3   8
TORSDOF 2
ENDMDL
MODEL      134
REMARK 921   NORMALIZED FREE ENERGY PREDICTED BY IDOCK:   -3.00 KCAL/MOL
REMARK 922        TOTAL FREE ENERGY PREDICTED BY IDOCK:   -3.83 KCAL/MOL
REMARK 923 INTER-LIGAND FREE ENERGY PREDICTED BY IDOCK:   -3.58 KCAL/MOL
REMARK 924 INTRA-LIGAND FREE ENERGY PREDICTED BY IDOCK:   -0.25 KCAL/MOL
REMARK 927      BINDING AFFINITY PREDICTED BY RF-SCORE:    0.00 PKD
ROOT
HETATM    1  C   UNL     1      -8.124  11.754  68.128  1.00  0.00    -0.150 C  
HETATM    2  C   UNL     1      -6.783  11.159  68.590  1.00  0.00    -0.062 C  
HETATM    3  O   UNL     1      -6.844   9.776  69.034  1.00  0.00    -0.049 OA 
HETATM    4  C   UNL     1      -5.877  11.150  67.335  1.00  0.00    -0.052 C  
HETATM    5  C   UNL     1      -6.053  12.019  69.628  1.00  0.00    -0.129 C  
HETATM    6  O   UNL     1      -5.398   9.923  67.021  1.00  0.00    -0.041 OA 
HETATM    7  O   UNL     1      -5.591  12.145  66.679  1.00  0.00    -0.311 OA 
ENDROOT
BRANCH   3   8
HETATM    8  C   UNL     1      -7.918   9.329  69.751  1.00  0.00    -0.103 A  
HETATM    9  C   UNL     1      -7.691   9.057  71.101  1.00  0.00    -0.143 A  
HETATM   10  C   UNL     1      -8.694   8.473  71.890  1.00  0.00    -0.270 A  
HETATM   11  C   UNL     1      -9.947   8.150  71.348  1.00  0.00    -0.230 A  
HETATM   12  C   UNL     1     -10.173   8.509  70.013  1.00  0.00    -0.201 A  
HETATM   13  C   UNL     1      -9.191   9.126  69.238  1.00  0.00    -0.146 A  
BRANCH  11  14
HETATM   14  C   UNL     1     -10.986   7.356  72.101  1.00  0.00    -0.284 C  
HETATM   15  C   UNL     1     -12.219   6.788  71.453  1.00  0.00    -0.413 C  
HETATM   16  C   UNL     1     -11.135   5.857  71.912  1.00  0.00    -0.268 C  
HETATM   17 CL   UNL     1     -11.383   4.907  73.374  1.00  0.00    -0.411 Cl 
HETATM   18 CL   UNL     1     -10.284   4.974  70.650  1.00  0.00    -0.316 Cl 
ENDBRANCH  11  14
ENDBRANCH   3   8
TORSDOF 2
ENDMDL
MODEL      135
REMARK 921   NORMALIZED FREE ENERGY PREDICTED BY IDOCK:   -2.94 KCAL/MOL
REMARK 922        TOTAL FREE ENERGY PREDICTED BY IDOCK:   -3.76 KCAL/MOL
REMARK 923 INTER-LIGAND FREE ENERGY PREDICTED BY IDOCK:   -3.47 KCAL/MOL
REMARK 924 INTRA-LIGAND FREE ENERGY PREDICTED BY IDOCK:   -0.29 KCAL/MOL
REMARK 927      BINDING AFFINITY PREDICTED BY RF-SCORE:    0.00 PKD
ROOT
HETATM    1  C   UNL     1      -8.108   6.397  67.963  1.00  0.00    -0.116 C  
HETATM    2  C   UNL     1      -7.731   6.363  66.473  1.00  0.00    -0.099 C  
HETATM    3  O   UNL     1      -7.415   7.656  65.889  1.00  0.00    -0.078 OA 
HETATM    4  C   UNL     1      -6.420   5.543  66.395  1.00  0.00    -0.047 C  
HETATM    5  C   UNL     1      -8.745   5.617  65.598  1.00  0.00    -0.151 C  
HETATM    6  O   UNL     1      -5.395   6.213  65.816  1.00  0.00    -0.012 OA 
HETATM    7  O   UNL     1      -6.297   4.391  66.796  1.00  0.00    -0.035 OA 
ENDROOT
BRANCH   3   8
HETATM    8  C   UNL     1      -8.124   8.767  66.249  1.00  0.00    -0.107 A  
HETATM    9  C   UNL     1      -9.473   8.782  65.890  1.00  0.00    -0.278 A  
HETATM   10  C   UNL     1     -10.254   9.930  66.099  1.00  0.00    -0.277 A  
HETATM   11  C   UNL     1      -9.705  11.086  66.674  1.00  0.00    -0.226 A  
HETATM   12  C   UNL     1      -8.371  11.013  67.097  1.00  0.00    -0.132 A  
HETATM   13  C   UNL     1      -7.605   9.860  66.926  1.00  0.00    -0.095 A  
BRANCH  11  14
HETATM   14  C   UNL     1     -10.448  12.398  66.747  1.00  0.00    -0.242 C  
HETATM   15  C   UNL     1      -9.866  13.702  66.276  1.00  0.00    -0.310 C  
HETATM   16  C   UNL     1     -10.990  13.076  65.503  1.00  0.00    -0.274 C  
HETATM   17 CL   UNL     1     -12.607  13.766  65.633  1.00  0.00    -0.545 Cl 
HETATM   18 CL   UNL     1     -10.603  12.524  63.878  1.00  0.00    -0.444 Cl 
ENDBRANCH  11  14
ENDBRANCH   3   8
TORSDOF 2
ENDMDL
MODEL      136
REMARK 921   NORMALIZED FREE ENERGY PREDICTED BY IDOCK:   -2.85 KCAL/MOL
REMARK 922        TOTAL FREE ENERGY PREDICTED BY IDOCK:   -3.67 KCAL/MOL
REMARK 923 INTER-LIGAND FREE ENERGY PREDICTED BY IDOCK:   -3.40 KCAL/MOL
REMARK 924 INTRA-LIGAND FREE ENERGY PREDICTED BY IDOCK:   -0.27 KCAL/MOL
REMARK 927      BINDING AFFINITY PREDICTED BY RF-SCORE:    0.00 PKD
ROOT
HETATM    1  C   UNL     1     -11.286   5.953  72.188  1.00  0.00    -0.342 C  
HETATM    2  C   UNL     1     -10.008   5.349  71.582  1.00  0.00    -0.186 C  
HETATM    3  O   UNL     1      -9.068   6.317  71.041  1.00  0.00    -0.152 OA 
HETATM    4  C   UNL     1      -9.269   4.670  72.761  1.00  0.00    -0.128 C  
HETATM    5  C   UNL     1     -10.276   4.238  70.560  1.00  0.00     0.009 C  
HETATM    6  O   UNL     1      -8.007   5.127  72.945  1.00  0.00    -0.100 OA 
HETATM    7  O   UNL     1      -9.749   3.792  73.468  1.00  0.00    -0.106 OA 
ENDROOT
BRANCH   3   8
HETATM    8  C   UNL     1      -9.521   7.421  70.375  1.00  0.00    -0.165 A  
HETATM    9  C   UNL     1     -10.180   7.187  69.167  1.00  0.00    -0.196 A  
HETATM   10  C   UNL     1     -10.568   8.258  68.347  1.00  0.00    -0.148 A  
HETATM   11  C   UNL     1     -10.309   9.587  68.718  1.00  0.00    -0.228 A  
HETATM   12  C   UNL     1      -9.720   9.792  69.972  1.00  0.00    -0.292 A  
HETATM   13  C   UNL     1      -9.369   8.731  70.806  1.00  0.00    -0.253 A  
BRANCH  11  14
HETATM   14  C   UNL     1     -10.537  10.755  67.791  1.00  0.00    -0.266 C  
HETATM   15  C   UNL     1      -9.476  11.772  67.470  1.00  0.00    -0.174 C  
HETATM   16  C   UNL     1      -9.916  10.808  66.407  1.00  0.00    -0.216 C  
HETATM   17 CL   UNL     1     -10.956  11.383  65.107  1.00  0.00    -0.299 Cl 
HETATM   18 CL   UNL     1      -8.711   9.645  65.866  1.00  0.00    -0.152 Cl 
ENDBRANCH  11  14
ENDBRANCH   3   8
TORSDOF 2
ENDMDL
MODEL      137
REMARK 921   NORMALIZED FREE ENERGY PREDICTED BY IDOCK:   -2.85 KCAL/MOL
REMARK 922        TOTAL FREE ENERGY PREDICTED BY IDOCK:   -3.66 KCAL/MOL
REMARK 923 INTER-LIGAND FREE ENERGY PREDICTED BY IDOCK:   -3.23 KCAL/MOL
REMARK 924 INTRA-LIGAND FREE ENERGY PREDICTED BY IDOCK:   -0.43 KCAL/MOL
REMARK 927      BINDING AFFINITY PREDICTED BY RF-SCORE:    0.00 PKD
ROOT
HETATM    1  C   UNL     1      -6.732   5.217  67.135  1.00  0.00    -0.059 C  
HETATM    2  C   UNL     1      -7.938   4.426  66.600  1.00  0.00    -0.099 C  
HETATM    3  O   UNL     1      -8.832   5.179  65.735  1.00  0.00    -0.133 OA 
HETATM    4  C   UNL     1      -7.341   3.311  65.708  1.00  0.00    -0.072 C  
HETATM    5  C   UNL     1      -8.736   3.706  67.693  1.00  0.00    -0.125 C  
HETATM    6  O   UNL     1      -7.805   3.328  64.435  1.00  0.00    -0.080 OA 
HETATM    7  O   UNL     1      -6.536   2.471  66.092  1.00  0.00    -0.030 OA 
ENDROOT
BRANCH   3   8
HETATM    8  C   UNL     1      -9.112   6.488  66.005  1.00  0.00    -0.086 A  
HETATM    9  C   UNL     1     -10.132   6.725  66.928  1.00  0.00    -0.268 A  
HETATM   10  C   UNL     1     -10.582   8.031  67.175  1.00  0.00    -0.367 A  
HETATM   11  C   UNL     1     -10.019   9.131  66.509  1.00  0.00    -0.359 A  
HETATM   12  C   UNL     1      -8.944   8.870  65.649  1.00  0.00    -0.249 A  
HETATM   13  C   UNL     1      -8.470   7.576  65.432  1.00  0.00    -0.105 A  
BRANCH  11  14
HETATM   14  C   UNL     1     -10.590  10.524  66.600  1.00  0.00    -0.263 C  
HETATM   15  C   UNL     1     -11.081  11.132  67.886  1.00  0.00    -0.331 C  
HETATM   16  C   UNL     1      -9.824  11.658  67.256  1.00  0.00    -0.187 C  
HETATM   17 CL   UNL     1      -9.866  13.212  66.427  1.00  0.00    -0.274 Cl 
HETATM   18 CL   UNL     1      -8.335  11.397  68.158  1.00  0.00    -0.142 Cl 
ENDBRANCH  11  14
ENDBRANCH   3   8
TORSDOF 2
ENDMDL
MODEL      138
REMARK 921   NORMALIZED FREE ENERGY PREDICTED BY IDOCK:   -2.79 KCAL/MOL
REMARK 922        TOTAL FREE ENERGY PREDICTED BY IDOCK:   -3.59 KCAL/MOL
REMARK 923 INTER-LIGAND FREE ENERGY PREDICTED BY IDOCK:   -3.15 KCAL/MOL
REMARK 924 INTRA-LIGAND FREE ENERGY PREDICTED BY IDOCK:   -0.44 KCAL/MOL
REMARK 927      BINDING AFFINITY PREDICTED BY RF-SCORE:    0.00 PKD
ROOT
HETATM    1  C   UNL     1      -8.879   9.633  69.543  1.00  0.00    -0.197 C  
HETATM    2  C   UNL     1      -9.836   9.455  68.352  1.00  0.00    -0.160 C  
HETATM    3  O   UNL     1     -10.708   8.294  68.432  1.00  0.00    -0.143 OA 
HETATM    4  C   UNL     1     -10.779  10.683  68.389  1.00  0.00    -0.222 C  
HETATM    5  C   UNL     1      -9.138   9.504  66.988  1.00  0.00    -0.154 C  
HETATM    6  O   UNL     1     -12.091  10.356  68.463  1.00  0.00    -0.220 OA 
HETATM    7  O   UNL     1     -10.403  11.848  68.342  1.00  0.00    -0.198 OA 
ENDROOT
BRANCH   3   8
HETATM    8  C   UNL     1     -10.241   7.115  68.940  1.00  0.00    -0.186 A  
HETATM    9  C   UNL     1     -10.937   6.593  70.031  1.00  0.00    -0.363 A  
HETATM   10  C   UNL     1     -10.460   5.457  70.704  1.00  0.00    -0.329 A  
HETATM   11  C   UNL     1      -9.279   4.816  70.300  1.00  0.00    -0.191 A  
HETATM   12  C   UNL     1      -8.647   5.315  69.153  1.00  0.00    -0.102 A  
HETATM   13  C   UNL     1      -9.141   6.420  68.460  1.00  0.00    -0.126 A  
BRANCH  11  14
HETATM   14  C   UNL     1      -8.630   3.713  71.098  1.00  0.00    -0.108 C  
HETATM   15  C   UNL     1      -9.393   2.548  71.667  1.00  0.00    -0.190 C  
HETATM   16  C   UNL     1      -8.444   2.319  70.528  1.00  0.00    -0.050 C  
HETATM   17 CL   UNL     1      -6.893   1.546  70.846  1.00  0.00    -0.027 Cl 
HETATM   18 CL   UNL     1      -9.167   1.816  69.004  1.00  0.00    -0.177 Cl 
ENDBRANCH  11  14
ENDBRANCH   3   8
TORSDOF 2
ENDMDL
MODEL      139
REMARK 921   NORMALIZED FREE ENERGY PREDICTED BY IDOCK:   -2.72 KCAL/MOL
REMARK 922        TOTAL FREE ENERGY PREDICTED BY IDOCK:   -3.52 KCAL/MOL
REMARK 923 INTER-LIGAND FREE ENERGY PREDICTED BY IDOCK:   -3.08 KCAL/MOL
REMARK 924 INTRA-LIGAND FREE ENERGY PREDICTED BY IDOCK:   -0.44 KCAL/MOL
REMARK 927      BINDING AFFINITY PREDICTED BY RF-SCORE:    0.00 PKD
ROOT
HETATM    1  C   UNL     1     -11.513   7.406  71.262  1.00  0.00    -0.297 C  
HETATM    2  C   UNL     1     -10.463   6.282  71.249  1.00  0.00    -0.218 C  
HETATM    3  O   UNL     1      -9.082   6.732  71.194  1.00  0.00    -0.150 OA 
HETATM    4  C   UNL     1     -10.609   5.561  72.611  1.00  0.00    -0.226 C  
HETATM    5  C   UNL     1     -10.717   5.213  70.179  1.00  0.00    -0.105 C  
HETATM    6  O   UNL     1      -9.464   5.531  73.334  1.00  0.00    -0.138 OA 
HETATM    7  O   UNL     1     -11.644   5.044  73.015  1.00  0.00    -0.312 OA 
ENDROOT
BRANCH   3   8
HETATM    8  C   UNL     1      -8.738   7.812  70.430  1.00  0.00    -0.139 A  
HETATM    9  C   UNL     1      -8.583   7.578  69.063  1.00  0.00    -0.136 A  
HETATM   10  C   UNL     1      -8.107   8.590  68.215  1.00  0.00    -0.119 A  
HETATM   11  C   UNL     1      -7.778   9.860  68.714  1.00  0.00    -0.086 A  
HETATM   12  C   UNL     1      -8.020  10.089  70.075  1.00  0.00    -0.166 A  
HETATM   13  C   UNL     1      -8.531   9.096  70.911  1.00  0.00    -0.251 A  
BRANCH  11  14
HETATM   14  C   UNL     1      -7.091  10.915  67.883  1.00  0.00    -0.081 C  
HETATM   15  C   UNL     1      -7.334  11.091  66.410  1.00  0.00    -0.128 C  
HETATM   16  C   UNL     1      -7.834  12.133  67.368  1.00  0.00    -0.168 C  
HETATM   17 CL   UNL     1      -6.984  13.672  67.481  1.00  0.00    -0.178 Cl 
HETATM   18 CL   UNL     1      -9.582  12.298  67.493  1.00  0.00    -0.181 Cl 
ENDBRANCH  11  14
ENDBRANCH   3   8
TORSDOF 2
ENDMDL
MODEL      140
REMARK 921   NORMALIZED FREE ENERGY PREDICTED BY IDOCK:   -2.70 KCAL/MOL
REMARK 922        TOTAL FREE ENERGY PREDICTED BY IDOCK:   -3.50 KCAL/MOL
REMARK 923 INTER-LIGAND FREE ENERGY PREDICTED BY IDOCK:   -2.90 KCAL/MOL
REMARK 924 INTRA-LIGAND FREE ENERGY PREDICTED BY IDOCK:   -0.60 KCAL/MOL
REMARK 927      BINDING AFFINITY PREDICTED BY RF-SCORE:    0.00 PKD
ROOT
HETATM    1  C   UNL     1      -8.083   6.515  71.392  1.00  0.00    -0.112 C  
HETATM    2  C   UNL     1      -9.419   7.087  71.897  1.00  0.00    -0.140 C  
HETATM    3  O   UNL     1     -10.506   7.051  70.932  1.00  0.00    -0.212 OA 
HETATM    4  C   UNL     1      -9.860   6.154  73.051  1.00  0.00    -0.168 C  
HETATM    5  C   UNL     1      -9.298   8.486  72.511  1.00  0.00    -0.316 C  
HETATM    6  O   UNL     1     -11.083   5.603  72.866  1.00  0.00    -0.259 OA 
HETATM    7  O   UNL     1      -9.193   5.930  74.055  1.00  0.00    -0.126 OA 
ENDROOT
BRANCH   3   8
HETATM    8  C   UNL     1     -10.266   7.306  69.612  1.00  0.00    -0.211 A  
HETATM    9  C   UNL     1     -10.289   6.206  68.754  1.00  0.00    -0.256 A  
HETATM   10  C   UNL     1      -9.928   6.344  67.405  1.00  0.00    -0.172 A  
HETATM   11  C   UNL     1      -9.538   7.587  66.882  1.00  0.00    -0.242 A  
HETATM   12  C   UNL     1      -9.602   8.688  67.747  1.00  0.00    -0.178 A  
HETATM   13  C   UNL     1      -9.999   8.558  69.078  1.00  0.00    -0.197 A  
BRANCH  11  14
HETATM   14  C   UNL     1      -8.965   7.750  65.496  1.00  0.00     0.015 C  
HETATM   15  C   UNL     1      -7.837   8.691  65.176  1.00  0.00    -0.110 C  
HETATM   16  C   UNL     1      -7.594   7.211  65.132  1.00  0.00    -0.102 C  
HETATM   17 CL   UNL     1      -7.461   6.410  63.568  1.00  0.00    -0.074 Cl 
HETATM   18 CL   UNL     1      -6.479   6.570  66.333  1.00  0.00    -0.042 Cl 
ENDBRANCH  11  14
ENDBRANCH   3   8
TORSDOF 2
ENDMDL
MODEL      141
REMARK 921   NORMALIZED FREE ENERGY PREDICTED BY IDOCK:   -2.59 KCAL/MOL
REMARK 922        TOTAL FREE ENERGY PREDICTED BY IDOCK:   -3.37 KCAL/MOL
REMARK 923 INTER-LIGAND FREE ENERGY PREDICTED BY IDOCK:   -3.99 KCAL/MOL
REMARK 924 INTRA-LIGAND FREE ENERGY PREDICTED BY IDOCK:    0.62 KCAL/MOL
REMARK 927      BINDING AFFINITY PREDICTED BY RF-SCORE:    0.00 PKD
ROOT
HETATM    1  C   UNL     1      -9.310  12.434  66.360  1.00  0.00    -0.219 C  
HETATM    2  C   UNL     1     -10.842  12.312  66.421  1.00  0.00    -0.264 C  
HETATM    3  O   UNL     1     -11.351  11.492  67.508  1.00  0.00    -0.280 OA 
HETATM    4  C   UNL     1     -11.362  13.742  66.705  1.00  0.00    -0.330 C  
HETATM    5  C   UNL     1     -11.480  11.891  65.092  1.00  0.00    -0.304 C  
HETATM    6  O   UNL     1     -12.125  13.830  67.821  1.00  0.00    -0.362 OA 
HETATM    7  O   UNL     1     -11.133  14.717  65.998  1.00  0.00    -0.321 OA 
ENDROOT
BRANCH   3   8
HETATM    8  C   UNL     1     -10.696  10.350  67.875  1.00  0.00    -0.261 A  
HETATM    9  C   UNL     1      -9.998   9.686  66.865  1.00  0.00    -0.272 A  
HETATM   10  C   UNL     1      -9.402   8.439  67.111  1.00  0.00    -0.192 A  
HETATM   11  C   UNL     1      -9.487   7.830  68.373  1.00  0.00    -0.148 A  
HETATM   12  C   UNL     1     -10.124   8.557  69.387  1.00  0.00    -0.205 A  
HETATM   13  C   UNL     1     -10.682   9.814  69.154  1.00  0.00    -0.242 A  
BRANCH  11  14
HETATM   14  C   UNL     1      -9.028   6.416  68.633  1.00  0.00    -0.125 C  
HETATM   15  C   UNL     1      -7.579   6.027  68.737  1.00  0.00    -0.091 C  
HETATM   16  C   UNL     1      -8.437   6.004  69.969  1.00  0.00    -0.131 C  
HETATM   17 CL   UNL     1      -8.971   4.454  70.614  1.00  0.00    -0.146 Cl 
HETATM   18 CL   UNL     1      -8.026   7.169  71.222  1.00  0.00    -0.101 Cl 
ENDBRANCH  11  14
ENDBRANCH   3   8
TORSDOF 2
ENDMDL
MODEL      142
REMARK 921   NORMALIZED FREE ENERGY PREDICTED BY IDOCK:   -2.45 KCAL/MOL
REMARK 922        TOTAL FREE ENERGY PREDICTED BY IDOCK:   -3.22 KCAL/MOL
REMARK 923 INTER-LIGAND FREE ENERGY PREDICTED BY IDOCK:   -2.70 KCAL/MOL
REMARK 924 INTRA-LIGAND FREE ENERGY PREDICTED BY IDOCK:   -0.52 KCAL/MOL
REMARK 927      BINDING AFFINITY PREDICTED BY RF-SCORE:    0.00 PKD
ROOT
HETATM    1  C   UNL     1      -8.614   8.586  65.156  1.00  0.00    -0.179 C  
HETATM    2  C   UNL     1      -7.086   8.629  65.329  1.00  0.00    -0.082 C  
HETATM    3  O   UNL     1      -6.570   7.834  66.431  1.00  0.00    -0.048 OA 
HETATM    4  C   UNL     1      -6.504   7.986  64.047  1.00  0.00    -0.066 C  
HETATM    5  C   UNL     1      -6.512  10.050  65.383  1.00  0.00    -0.106 C  
HETATM    6  O   UNL     1      -5.699   6.924  64.291  1.00  0.00    -0.031 OA 
HETATM    7  O   UNL     1      -6.721   8.386  62.910  1.00  0.00    -0.089 OA 
ENDROOT
BRANCH   3   8
HETATM    8  C   UNL     1      -7.254   7.767  67.612  1.00  0.00    -0.091 A  
HETATM    9  C   UNL     1      -8.087   6.660  67.783  1.00  0.00    -0.116 A  
HETATM   10  C   UNL     1      -8.928   6.566  68.903  1.00  0.00    -0.128 A  
HETATM   11  C   UNL     1      -8.952   7.574  69.879  1.00  0.00    -0.141 A  
HETATM   12  C   UNL     1      -8.047   8.631  69.722  1.00  0.00    -0.114 A  
HETATM   13  C   UNL     1      -7.182   8.707  68.630  1.00  0.00    -0.076 A  
BRANCH  11  14
HETATM   14  C   UNL     1      -9.965   7.609  70.996  1.00  0.00    -0.188 C  
HETATM   15  C   UNL     1     -10.086   8.754  71.964  1.00  0.00    -0.397 C  
HETATM   16  C   UNL     1     -11.170   8.530  70.951  1.00  0.00    -0.266 C  
HETATM   17 CL   UNL     1     -12.703   7.837  71.474  1.00  0.00    -0.349 Cl 
HETATM   18 CL   UNL     1     -11.359   9.780  69.727  1.00  0.00    -0.232 Cl 
ENDBRANCH  11  14
ENDBRANCH   3   8
TORSDOF 2
ENDMDL
MODEL      143
REMARK 921   NORMALIZED FREE ENERGY PREDICTED BY IDOCK:   -2.44 KCAL/MOL
REMARK 922        TOTAL FREE ENERGY PREDICTED BY IDOCK:   -3.21 KCAL/MOL
REMARK 923 INTER-LIGAND FREE ENERGY PREDICTED BY IDOCK:   -2.70 KCAL/MOL
REMARK 924 INTRA-LIGAND FREE ENERGY PREDICTED BY IDOCK:   -0.50 KCAL/MOL
REMARK 927      BINDING AFFINITY PREDICTED BY RF-SCORE:    0.00 PKD
ROOT
HETATM    1  C   UNL     1      -9.412   9.602  65.434  1.00  0.00    -0.343 C  
HETATM    2  C   UNL     1      -7.886   9.747  65.559  1.00  0.00    -0.120 C  
HETATM    3  O   UNL     1      -7.215   8.637  66.215  1.00  0.00    -0.077 OA 
HETATM    4  C   UNL     1      -7.349   9.755  64.107  1.00  0.00    -0.128 C  
HETATM    5  C   UNL     1      -7.442  11.078  66.176  1.00  0.00    -0.076 C  
HETATM    6  O   UNL     1      -6.433   8.787  63.862  1.00  0.00    -0.076 OA 
HETATM    7  O   UNL     1      -7.690  10.556  63.245  1.00  0.00    -0.123 OA 
ENDROOT
BRANCH   3   8
HETATM    8  C   UNL     1      -7.795   8.016  67.284  1.00  0.00    -0.109 A  
HETATM    9  C   UNL     1      -8.074   6.657  67.133  1.00  0.00    -0.113 A  
HETATM   10  C   UNL     1      -8.785   5.960  68.123  1.00  0.00    -0.111 A  
HETATM   11  C   UNL     1      -9.230   6.605  69.287  1.00  0.00    -0.140 A  
HETATM   12  C   UNL     1      -8.865   7.949  69.447  1.00  0.00    -0.145 A  
HETATM   13  C   UNL     1      -8.124   8.632  68.483  1.00  0.00    -0.117 A  
BRANCH  11  14
HETATM   14  C   UNL     1     -10.153   5.951  70.285  1.00  0.00    -0.260 C  
HETATM   15  C   UNL     1     -10.111   4.482  70.607  1.00  0.00    -0.232 C  
HETATM   16  C   UNL     1      -9.655   5.475  71.637  1.00  0.00    -0.152 C  
HETATM   17 CL   UNL     1     -10.696   5.817  73.017  1.00  0.00    -0.270 Cl 
HETATM   18 CL   UNL     1      -7.946   5.432  72.055  1.00  0.00    -0.112 Cl 
ENDBRANCH  11  14
ENDBRANCH   3   8
TORSDOF 2
ENDMDL
MODEL      144
REMARK 921   NORMALIZED FREE ENERGY PREDICTED BY IDOCK:   -2.40 KCAL/MOL
REMARK 922        TOTAL FREE ENERGY PREDICTED BY IDOCK:   -3.16 KCAL/MOL
REMARK 923 INTER-LIGAND FREE ENERGY PREDICTED BY IDOCK:   -2.67 KCAL/MOL
REMARK 924 INTRA-LIGAND FREE ENERGY PREDICTED BY IDOCK:   -0.49 KCAL/MOL
REMARK 927      BINDING AFFINITY PREDICTED BY RF-SCORE:    0.00 PKD
ROOT
HETATM    1  C   UNL     1      -8.783  11.071  68.678  1.00  0.00    -0.161 C  
HETATM    2  C   UNL     1      -9.055  11.867  67.391  1.00  0.00    -0.178 C  
HETATM    3  O   UNL     1      -9.896  11.192  66.417  1.00  0.00    -0.200 OA 
HETATM    4  C   UNL     1      -9.859  13.114  67.837  1.00  0.00    -0.231 C  
HETATM    5  C   UNL     1      -7.787  12.405  66.719  1.00  0.00     0.074 C  
HETATM    6  O   UNL     1     -11.055  13.238  67.214  1.00  0.00    -0.267 OA 
HETATM    7  O   UNL     1      -9.468  13.934  68.659  1.00  0.00    -0.199 OA 
ENDROOT
BRANCH   3   8
HETATM    8  C   UNL     1      -9.770   9.847  66.212  1.00  0.00    -0.222 A  
HETATM    9  C   UNL     1     -10.703   9.033  66.854  1.00  0.00    -0.150 A  
HETATM   10  C   UNL     1     -10.581   7.635  66.812  1.00  0.00    -0.256 A  
HETATM   11  C   UNL     1      -9.524   7.020  66.123  1.00  0.00    -0.055 A  
HETATM   12  C   UNL     1      -8.650   7.861  65.421  1.00  0.00    -0.118 A  
HETATM   13  C   UNL     1      -8.794   9.248  65.430  1.00  0.00    -0.230 A  
BRANCH  11  14
HETATM   14  C   UNL     1      -9.244   5.540  66.203  1.00  0.00    -0.166 C  
HETATM   15  C   UNL     1      -7.896   4.974  66.556  1.00  0.00    -0.100 C  
HETATM   16  C   UNL     1      -9.029   4.840  67.532  1.00  0.00    -0.110 C  
HETATM   17 CL   UNL     1      -9.813   3.275  67.727  1.00  0.00     0.007 Cl 
HETATM   18 CL   UNL     1      -8.856   5.719  69.047  1.00  0.00    -0.111 Cl 
ENDBRANCH  11  14
ENDBRANCH   3   8
TORSDOF 2
ENDMDL
MODEL      145
REMARK 921   NORMALIZED FREE ENERGY PREDICTED BY IDOCK:   -2.38 KCAL/MOL
REMARK 922        TOTAL FREE ENERGY PREDICTED BY IDOCK:   -3.13 KCAL/MOL
REMARK 923 INTER-LIGAND FREE ENERGY PREDICTED BY IDOCK:   -2.67 KCAL/MOL
REMARK 924 INTRA-LIGAND FREE ENERGY PREDICTED BY IDOCK:   -0.46 KCAL/MOL
REMARK 927      BINDING AFFINITY PREDICTED BY RF-SCORE:    0.00 PKD
ROOT
HETATM    1  C   UNL     1     -11.009   9.222  69.387  1.00  0.00    -0.138 C  
HETATM    2  C   UNL     1     -10.424   8.012  70.134  1.00  0.00    -0.225 C  
HETATM    3  O   UNL     1      -9.129   7.560  69.652  1.00  0.00    -0.141 OA 
HETATM    4  C   UNL     1     -10.180   8.496  71.584  1.00  0.00    -0.266 C  
HETATM    5  C   UNL     1     -11.393   6.829  70.245  1.00  0.00    -0.404 C  
HETATM    6  O   UNL     1      -8.896   8.356  71.993  1.00  0.00    -0.173 OA 
HETATM    7  O   UNL     1     -11.048   8.952  72.319  1.00  0.00    -0.339 OA 
ENDROOT
BRANCH   3   8
HETATM    8  C   UNL     1      -8.851   7.565  68.315  1.00  0.00    -0.125 A  
HETATM    9  C   UNL     1      -9.403   6.527  67.564  1.00  0.00    -0.124 A  
HETATM   10  C   UNL     1      -9.071   6.371  66.209  1.00  0.00    -0.167 A  
HETATM   11  C   UNL     1      -8.182   7.251  65.573  1.00  0.00    -0.139 A  
HETATM   12  C   UNL     1      -7.707   8.330  66.331  1.00  0.00    -0.091 A  
HETATM   13  C   UNL     1      -8.067   8.509  67.666  1.00  0.00    -0.107 A  
BRANCH  11  14
HETATM   14  C   UNL     1      -7.653   7.018  64.180  1.00  0.00    -0.112 C  
HETATM   15  C   UNL     1      -6.361   7.604  63.680  1.00  0.00    -0.054 C  
HETATM   16  C   UNL     1      -6.452   6.126  63.923  1.00  0.00    -0.030 C  
HETATM   17 CL   UNL     1      -6.571   5.036  62.543  1.00  0.00    -0.025 Cl 
HETATM   18 CL   UNL     1      -5.451   5.489  65.222  1.00  0.00    -0.013 Cl 
ENDBRANCH  11  14
ENDBRANCH   3   8
TORSDOF 2
ENDMDL
MODEL      146
REMARK 921   NORMALIZED FREE ENERGY PREDICTED BY IDOCK:   -2.32 KCAL/MOL
REMARK 922        TOTAL FREE ENERGY PREDICTED BY IDOCK:   -3.07 KCAL/MOL
REMARK 923 INTER-LIGAND FREE ENERGY PREDICTED BY IDOCK:   -2.99 KCAL/MOL
REMARK 924 INTRA-LIGAND FREE ENERGY PREDICTED BY IDOCK:   -0.09 KCAL/MOL
REMARK 927      BINDING AFFINITY PREDICTED BY RF-SCORE:    0.00 PKD
ROOT
HETATM    1  C   UNL     1      -5.790   4.948  68.126  1.00  0.00    -0.021 C  
HETATM    2  C   UNL     1      -6.864   4.151  67.368  1.00  0.00    -0.051 C  
HETATM    3  O   UNL     1      -8.181   4.767  67.339  1.00  0.00    -0.105 OA 
HETATM    4  C   UNL     1      -6.393   4.116  65.893  1.00  0.00    -0.033 C  
HETATM    5  C   UNL     1      -6.971   2.687  67.809  1.00  0.00    -0.048 C  
HETATM    6  O   UNL     1      -7.298   4.624  65.023  1.00  0.00    -0.069 OA 
HETATM    7  O   UNL     1      -5.317   3.663  65.519  1.00  0.00    -0.009 OA 
ENDROOT
BRANCH   3   8
HETATM    8  C   UNL     1      -8.659   5.422  68.438  1.00  0.00    -0.095 A  
HETATM    9  C   UNL     1      -9.768   4.851  69.065  1.00  0.00    -0.245 A  
HETATM   10  C   UNL     1     -10.411   5.516  70.122  1.00  0.00    -0.370 A  
HETATM   11  C   UNL     1      -9.959   6.764  70.577  1.00  0.00    -0.197 A  
HETATM   12  C   UNL     1      -8.797   7.273  69.982  1.00  0.00    -0.141 A  
HETATM   13  C   UNL     1      -8.134   6.596  68.959  1.00  0.00    -0.116 A  
BRANCH  11  14
HETATM   14  C   UNL     1     -10.722   7.598  71.575  1.00  0.00    -0.249 C  
HETATM   15  C   UNL     1     -10.234   8.927  72.083  1.00  0.00    -0.292 C  
HETATM   16  C   UNL     1     -11.425   8.881  71.171  1.00  0.00    -0.301 C  
HETATM   17 CL   UNL     1     -13.032   9.136  71.845  1.00  0.00    -0.431 Cl 
HETATM   18 CL   UNL     1     -11.217   9.614  69.585  1.00  0.00    -0.213 Cl 
ENDBRANCH  11  14
ENDBRANCH   3   8
TORSDOF 2
ENDMDL
MODEL      147
REMARK 921   NORMALIZED FREE ENERGY PREDICTED BY IDOCK:   -2.32 KCAL/MOL
REMARK 922        TOTAL FREE ENERGY PREDICTED BY IDOCK:   -3.06 KCAL/MOL
REMARK 923 INTER-LIGAND FREE ENERGY PREDICTED BY IDOCK:   -2.68 KCAL/MOL
REMARK 924 INTRA-LIGAND FREE ENERGY PREDICTED BY IDOCK:   -0.38 KCAL/MOL
REMARK 927      BINDING AFFINITY PREDICTED BY RF-SCORE:    0.00 PKD
ROOT
HETATM    1  C   UNL     1     -10.767  11.166  67.771  1.00  0.00    -0.267 C  
HETATM    2  C   UNL     1      -9.440  11.404  67.032  1.00  0.00    -0.173 C  
HETATM    3  O   UNL     1      -8.949  10.266  66.271  1.00  0.00    -0.148 OA 
HETATM    4  C   UNL     1      -9.739  12.503  65.984  1.00  0.00    -0.241 C  
HETATM    5  C   UNL     1      -8.329  11.967  67.925  1.00  0.00    -0.155 C  
HETATM    6  O   UNL     1      -9.458  12.131  64.712  1.00  0.00    -0.023 OA 
HETATM    7  O   UNL     1     -10.175  13.617  66.251  1.00  0.00    -0.282 OA 
ENDROOT
BRANCH   3   8
HETATM    8  C   UNL     1      -9.082   8.999  66.762  1.00  0.00    -0.145 A  
HETATM    9  C   UNL     1      -7.960   8.457  67.390  1.00  0.00    -0.106 A  
HETATM   10  C   UNL     1      -7.954   7.118  67.812  1.00  0.00    -0.114 A  
HETATM   11  C   UNL     1      -9.072   6.292  67.619  1.00  0.00    -0.117 A  
HETATM   12  C   UNL     1     -10.211   6.886  67.060  1.00  0.00    -0.317 A  
HETATM   13  C   UNL     1     -10.231   8.227  66.676  1.00  0.00    -0.333 A  
BRANCH  11  14
HETATM   14  C   UNL     1      -9.049   4.807  67.883  1.00  0.00    -0.133 C  
HETATM   15  C   UNL     1      -9.970   3.834  67.200  1.00  0.00     0.135 C  
HETATM   16  C   UNL     1      -8.508   3.824  66.862  1.00  0.00    -0.105 C  
HETATM   17 CL   UNL     1      -7.492   2.528  67.488  1.00  0.00    -0.056 Cl 
HETATM   18 CL   UNL     1      -8.086   4.300  65.221  1.00  0.00    -0.100 Cl 
ENDBRANCH  11  14
ENDBRANCH   3   8
TORSDOF 2
ENDMDL
MODEL      148
REMARK 921   NORMALIZED FREE ENERGY PREDICTED BY IDOCK:   -2.30 KCAL/MOL
REMARK 922        TOTAL FREE ENERGY PREDICTED BY IDOCK:   -3.04 KCAL/MOL
REMARK 923 INTER-LIGAND FREE ENERGY PREDICTED BY IDOCK:   -2.82 KCAL/MOL
REMARK 924 INTRA-LIGAND FREE ENERGY PREDICTED BY IDOCK:   -0.22 KCAL/MOL
REMARK 927      BINDING AFFINITY PREDICTED BY RF-SCORE:    0.00 PKD
ROOT
HETATM    1  C   UNL     1     -10.252  10.443  70.503  1.00  0.00     0.323 C  
HETATM    2  C   UNL     1     -11.766  10.179  70.556  1.00  0.00    -0.322 C  
HETATM    3  O   UNL     1     -12.180   9.166  71.512  1.00  0.00    -0.309 OA 
HETATM    4  C   UNL     1     -12.401  11.501  71.054  1.00  0.00    -0.329 C  
HETATM    5  C   UNL     1     -12.393   9.904  69.184  1.00  0.00     1.071 C  
HETATM    6  O   UNL     1     -13.146  11.355  72.176  1.00  0.00    -0.462 OA 
HETATM    7  O   UNL     1     -12.272  12.585  70.498  1.00  0.00    -0.365 OA 
ENDROOT
BRANCH   3   8
HETATM    8  C   UNL     1     -11.423   8.045  71.700  1.00  0.00    -0.266 A  
HETATM    9  C   UNL     1     -11.211   7.246  70.576  1.00  0.00    -0.305 A  
HETATM   10  C   UNL     1     -10.557   6.009  70.692  1.00  0.00    -0.322 A  
HETATM   11  C   UNL     1     -10.096   5.545  71.934  1.00  0.00    -0.239 A  
HETATM   12  C   UNL     1     -10.251   6.405  73.029  1.00  0.00    -0.216 A  
HETATM   13  C   UNL     1     -10.866   7.651  72.908  1.00  0.00    -0.446 A  
BRANCH  11  14
HETATM   14  C   UNL     1      -9.558   4.151  72.140  1.00  0.00    -0.206 C  
HETATM   15  C   UNL     1      -9.144   3.618  73.484  1.00  0.00    -0.099 C  
HETATM   16  C   UNL     1     -10.378   3.074  72.825  1.00  0.00    -0.148 C  
HETATM   17 CL   UNL     1     -10.325   1.471  72.097  1.00  0.00    -0.228 Cl 
HETATM   18 CL   UNL     1     -11.905   3.416  73.632  1.00  0.00     0.047 Cl 
ENDBRANCH  11  14
ENDBRANCH   3   8
TORSDOF 2
ENDMDL
MODEL      149
REMARK 921   NORMALIZED FREE ENERGY PREDICTED BY IDOCK:   -2.29 KCAL/MOL
REMARK 922        TOTAL FREE ENERGY PREDICTED BY IDOCK:   -3.03 KCAL/MOL
REMARK 923 INTER-LIGAND FREE ENERGY PREDICTED BY IDOCK:   -3.01 KCAL/MOL
REMARK 924 INTRA-LIGAND FREE ENERGY PREDICTED BY IDOCK:   -0.02 KCAL/MOL
REMARK 927      BINDING AFFINITY PREDICTED BY RF-SCORE:    0.00 PKD
ROOT
HETATM    1  C   UNL     1      -6.661   9.743  69.901  1.00  0.00    -0.071 C  
HETATM    2  C   UNL     1      -7.413   8.411  69.745  1.00  0.00    -0.072 C  
HETATM    3  O   UNL     1      -8.407   8.387  68.684  1.00  0.00    -0.118 OA 
HETATM    4  C   UNL     1      -6.340   7.375  69.328  1.00  0.00    -0.036 C  
HETATM    5  C   UNL     1      -8.016   7.887  71.053  1.00  0.00    -0.090 C  
HETATM    6  O   UNL     1      -6.617   6.748  68.160  1.00  0.00    -0.053 OA 
HETATM    7  O   UNL     1      -5.336   7.115  69.980  1.00  0.00    -0.022 OA 
ENDROOT
BRANCH   3   8
HETATM    8  C   UNL     1      -9.183   9.485  68.442  1.00  0.00    -0.130 A  
HETATM    9  C   UNL     1     -10.301   9.646  69.262  1.00  0.00    -0.223 A  
HETATM   10  C   UNL     1     -11.230  10.668  69.011  1.00  0.00    -0.324 A  
HETATM   11  C   UNL     1     -11.060  11.555  67.937  1.00  0.00    -0.317 A  
HETATM   12  C   UNL     1      -9.888  11.419  67.181  1.00  0.00    -0.212 A  
HETATM   13  C   UNL     1      -8.944  10.429  67.454  1.00  0.00    -0.140 A  
BRANCH  11  14
HETATM   14  C   UNL     1     -12.118  12.545  67.515  1.00  0.00    -0.124 C  
HETATM   15  C   UNL     1     -12.314  13.877  68.186  1.00  0.00     0.001 C  
HETATM   16  C   UNL     1     -11.763  13.830  66.790  1.00  0.00    -0.391 C  
HETATM   17 CL   UNL     1     -12.805  14.278  65.442  1.00  0.00    -0.420 Cl 
HETATM   18 CL   UNL     1     -10.103  14.377  66.591  1.00  0.00    -0.267 Cl 
ENDBRANCH  11  14
ENDBRANCH   3   8
TORSDOF 2
ENDMDL
MODEL      150
REMARK 921   NORMALIZED FREE ENERGY PREDICTED BY IDOCK:   -2.29 KCAL/MOL
REMARK 922        TOTAL FREE ENERGY PREDICTED BY IDOCK:   -3.03 KCAL/MOL
REMARK 923 INTER-LIGAND FREE ENERGY PREDICTED BY IDOCK:   -3.10 KCAL/MOL
REMARK 924 INTRA-LIGAND FREE ENERGY PREDICTED BY IDOCK:    0.06 KCAL/MOL
REMARK 927      BINDING AFFINITY PREDICTED BY RF-SCORE:    0.00 PKD
ROOT
HETATM    1  C   UNL     1      -8.878  14.718  68.923  1.00  0.00    -0.164 C  
HETATM    2  C   UNL     1      -9.747  15.013  67.689  1.00  0.00    -0.215 C  
HETATM    3  O   UNL     1     -10.422  13.857  67.121  1.00  0.00    -0.266 OA 
HETATM    4  C   UNL     1     -10.876  15.946  68.188  1.00  0.00    -0.317 C  
HETATM    5  C   UNL     1      -9.014  15.793  66.591  1.00  0.00    -0.313 C  
HETATM    6  O   UNL     1     -12.121  15.464  67.956  1.00  0.00    -0.112 OA 
HETATM    7  O   UNL     1     -10.693  17.029  68.732  1.00  0.00    -0.337 OA 
ENDROOT
BRANCH   3   8
HETATM    8  C   UNL     1      -9.790  12.647  67.070  1.00  0.00    -0.225 A  
HETATM    9  C   UNL     1      -8.449  12.665  66.683  1.00  0.00     0.021 A  
HETATM   10  C   UNL     1      -7.750  11.466  66.474  1.00  0.00    -0.093 A  
HETATM   11  C   UNL     1      -8.374  10.222  66.651  1.00  0.00    -0.125 A  
HETATM   12  C   UNL     1      -9.695  10.235  67.118  1.00  0.00    -0.210 A  
HETATM   13  C   UNL     1     -10.379  11.426  67.364  1.00  0.00    -0.232 A  
BRANCH  11  14
HETATM   14  C   UNL     1      -7.726   8.916  66.262  1.00  0.00    -0.098 C  
HETATM   15  C   UNL     1      -8.446   7.830  65.511  1.00  0.00    -0.146 C  
HETATM   16  C   UNL     1      -7.361   8.606  64.822  1.00  0.00    -0.091 C  
HETATM   17 CL   UNL     1      -5.795   7.842  64.561  1.00  0.00    -0.044 Cl 
HETATM   18 CL   UNL     1      -7.866   9.622  63.478  1.00  0.00    -0.129 Cl 
ENDBRANCH  11  14
ENDBRANCH   3   8
TORSDOF 2
ENDMDL
MODEL      151
REMARK 921   NORMALIZED FREE ENERGY PREDICTED BY IDOCK:   -2.16 KCAL/MOL
REMARK 922        TOTAL FREE ENERGY PREDICTED BY IDOCK:   -2.89 KCAL/MOL
REMARK 923 INTER-LIGAND FREE ENERGY PREDICTED BY IDOCK:   -2.50 KCAL/MOL
REMARK 924 INTRA-LIGAND FREE ENERGY PREDICTED BY IDOCK:   -0.39 KCAL/MOL
REMARK 927      BINDING AFFINITY PREDICTED BY RF-SCORE:    0.00 PKD
ROOT
HETATM    1  C   UNL     1      -8.482  10.970  67.510  1.00  0.00    -0.127 C  
HETATM    2  C   UNL     1      -8.490   9.891  66.413  1.00  0.00    -0.124 C  
HETATM    3  O   UNL     1      -9.311   8.727  66.703  1.00  0.00    -0.162 OA 
HETATM    4  C   UNL     1      -9.142  10.559  65.178  1.00  0.00    -0.197 C  
HETATM    5  C   UNL     1      -7.090   9.458  65.965  1.00  0.00    -0.091 C  
HETATM    6  O   UNL     1     -10.231   9.899  64.717  1.00  0.00    -0.134 OA 
HETATM    7  O   UNL     1      -8.726  11.578  64.639  1.00  0.00     0.239 OA 
ENDROOT
BRANCH   3   8
HETATM    8  C   UNL     1      -9.365   8.219  67.970  1.00  0.00    -0.132 A  
HETATM    9  C   UNL     1      -8.277   7.444  68.373  1.00  0.00    -0.125 A  
HETATM   10  C   UNL     1      -8.296   6.773  69.606  1.00  0.00    -0.132 A  
HETATM   11  C   UNL     1      -9.402   6.865  70.465  1.00  0.00    -0.159 A  
HETATM   12  C   UNL     1     -10.443   7.715  70.070  1.00  0.00    -0.229 A  
HETATM   13  C   UNL     1     -10.408   8.413  68.864  1.00  0.00    -0.231 A  
BRANCH  11  14
HETATM   14  C   UNL     1      -9.548   6.020  71.706  1.00  0.00    -0.168 C  
HETATM   15  C   UNL     1     -10.789   5.233  72.026  1.00  0.00    -0.230 C  
HETATM   16  C   UNL     1      -9.534   4.504  71.644  1.00  0.00    -0.151 C  
HETATM   17 CL   UNL     1      -8.607   3.680  72.896  1.00  0.00    -0.093 Cl 
HETATM   18 CL   UNL     1      -9.582   3.618  70.124  1.00  0.00    -0.257 Cl 
ENDBRANCH  11  14
ENDBRANCH   3   8
TORSDOF 2
ENDMDL
MODEL      152
REMARK 921   NORMALIZED FREE ENERGY PREDICTED BY IDOCK:   -2.00 KCAL/MOL
REMARK 922        TOTAL FREE ENERGY PREDICTED BY IDOCK:   -2.71 KCAL/MOL
REMARK 923 INTER-LIGAND FREE ENERGY PREDICTED BY IDOCK:   -2.54 KCAL/MOL
REMARK 924 INTRA-LIGAND FREE ENERGY PREDICTED BY IDOCK:   -0.17 KCAL/MOL
REMARK 927      BINDING AFFINITY PREDICTED BY RF-SCORE:    0.00 PKD
ROOT
HETATM    1  C   UNL     1     -10.439   8.496  66.803  1.00  0.00    -0.308 C  
HETATM    2  C   UNL     1      -9.145   9.307  66.980  1.00  0.00    -0.130 C  
HETATM    3  O   UNL     1      -8.148   8.694  67.843  1.00  0.00    -0.106 OA 
HETATM    4  C   UNL     1      -8.495   9.365  65.575  1.00  0.00    -0.143 C  
HETATM    5  C   UNL     1      -9.382  10.765  67.392  1.00  0.00    -0.163 C  
HETATM    6  O   UNL     1      -7.234   8.872  65.540  1.00  0.00    -0.083 OA 
HETATM    7  O   UNL     1      -9.040   9.822  64.577  1.00  0.00    -0.224 OA 
ENDROOT
BRANCH   3   8
HETATM    8  C   UNL     1      -8.531   8.022  68.969  1.00  0.00    -0.130 A  
HETATM    9  C   UNL     1      -8.261   8.650  70.186  1.00  0.00    -0.123 A  
HETATM   10  C   UNL     1      -8.498   7.986  71.399  1.00  0.00    -0.142 A  
HETATM   11  C   UNL     1      -9.013   6.680  71.424  1.00  0.00    -0.139 A  
HETATM   12  C   UNL     1      -9.349   6.107  70.190  1.00  0.00    -0.167 A  
HETATM   13  C   UNL     1      -9.151   6.781  68.985  1.00  0.00    -0.137 A  
BRANCH  11  14
HETATM   14  C   UNL     1      -9.108   5.860  72.687  1.00  0.00    -0.130 C  
HETATM   15  C   UNL     1      -9.693   4.475  72.727  1.00  0.00    -0.180 C  
HETATM   16  C   UNL     1      -8.216   4.656  72.924  1.00  0.00    -0.100 C  
HETATM   17 CL   UNL     1      -7.540   4.493  74.543  1.00  0.00    -0.080 Cl 
HETATM   18 CL   UNL     1      -7.177   3.986  71.672  1.00  0.00    -0.052 Cl 
ENDBRANCH  11  14
ENDBRANCH   3   8
TORSDOF 2
ENDMDL
MODEL      153
REMARK 921   NORMALIZED FREE ENERGY PREDICTED BY IDOCK:   -1.98 KCAL/MOL
REMARK 922        TOTAL FREE ENERGY PREDICTED BY IDOCK:   -2.69 KCAL/MOL
REMARK 923 INTER-LIGAND FREE ENERGY PREDICTED BY IDOCK:   -2.26 KCAL/MOL
REMARK 924 INTRA-LIGAND FREE ENERGY PREDICTED BY IDOCK:   -0.43 KCAL/MOL
REMARK 927      BINDING AFFINITY PREDICTED BY RF-SCORE:    0.00 PKD
ROOT
HETATM    1  C   UNL     1      -8.701  10.182  66.254  1.00  0.00    -0.152 C  
HETATM    2  C   UNL     1      -7.175  10.002  66.296  1.00  0.00    -0.106 C  
HETATM    3  O   UNL     1      -6.706   8.927  67.155  1.00  0.00    -0.064 OA 
HETATM    4  C   UNL     1      -6.765   9.591  64.860  1.00  0.00    -0.094 C  
HETATM    5  C   UNL     1      -6.409  11.296  66.595  1.00  0.00    -0.135 C  
HETATM    6  O   UNL     1      -6.100   8.413  64.803  1.00  0.00    -0.061 OA 
HETATM    7  O   UNL     1      -6.994  10.255  63.856  1.00  0.00    -0.125 OA 
ENDROOT
BRANCH   3   8
HETATM    8  C   UNL     1      -7.319   8.685  68.352  1.00  0.00    -0.086 A  
HETATM    9  C   UNL     1      -6.868   9.432  69.441  1.00  0.00    -0.049 A  
HETATM   10  C   UNL     1      -7.342   9.166  70.735  1.00  0.00    -0.120 A  
HETATM   11  C   UNL     1      -8.281   8.150  70.969  1.00  0.00    -0.114 A  
HETATM   12  C   UNL     1      -8.775   7.471  69.847  1.00  0.00    -0.140 A  
HETATM   13  C   UNL     1      -8.333   7.761  68.556  1.00  0.00    -0.129 A  
BRANCH  11  14
HETATM   14  C   UNL     1      -8.678   7.704  72.354  1.00  0.00    -0.170 C  
HETATM   15  C   UNL     1      -8.894   8.658  73.497  1.00  0.00     0.221 C  
HETATM   16  C   UNL     1     -10.073   7.946  72.900  1.00  0.00    -0.310 C  
HETATM   17 CL   UNL     1     -10.808   6.612  73.786  1.00  0.00    -0.191 Cl 
HETATM   18 CL   UNL     1     -11.252   8.956  72.070  1.00  0.00    -0.438 Cl 
ENDBRANCH  11  14
ENDBRANCH   3   8
TORSDOF 2
ENDMDL
MODEL      154
REMARK 921   NORMALIZED FREE ENERGY PREDICTED BY IDOCK:   -1.92 KCAL/MOL
REMARK 922        TOTAL FREE ENERGY PREDICTED BY IDOCK:   -2.62 KCAL/MOL
REMARK 923 INTER-LIGAND FREE ENERGY PREDICTED BY IDOCK:   -2.67 KCAL/MOL
REMARK 924 INTRA-LIGAND FREE ENERGY PREDICTED BY IDOCK:    0.05 KCAL/MOL
REMARK 927      BINDING AFFINITY PREDICTED BY RF-SCORE:    0.00 PKD
ROOT
HETATM    1  C   UNL     1      -7.172   8.098  67.972  1.00  0.00    -0.094 C  
HETATM    2  C   UNL     1      -8.458   7.394  67.507  1.00  0.00    -0.116 C  
HETATM    3  O   UNL     1      -9.063   7.950  66.307  1.00  0.00    -0.169 OA 
HETATM    4  C   UNL     1      -8.029   5.956  67.124  1.00  0.00    -0.102 C  
HETATM    5  C   UNL     1      -9.510   7.238  68.611  1.00  0.00    -0.137 C  
HETATM    6  O   UNL     1      -8.337   5.620  65.849  1.00  0.00    -0.118 OA 
HETATM    7  O   UNL     1      -7.477   5.171  67.886  1.00  0.00    -0.074 OA 
ENDROOT
BRANCH   3   8
HETATM    8  C   UNL     1      -9.074   9.301  66.103  1.00  0.00    -0.179 A  
HETATM    9  C   UNL     1      -9.919  10.044  66.928  1.00  0.00    -0.263 A  
HETATM   10  C   UNL     1     -10.099  11.420  66.712  1.00  0.00    -0.250 A  
HETATM   11  C   UNL     1      -9.435  12.083  65.669  1.00  0.00    -0.150 A  
HETATM   12  C   UNL     1      -8.531  11.328  64.910  1.00  0.00     0.337 A  
HETATM   13  C   UNL     1      -8.322   9.970  65.148  1.00  0.00    -0.156 A  
BRANCH  11  14
HETATM   14  C   UNL     1      -9.736  13.510  65.282  1.00  0.00    -0.006 C  
HETATM   15  C   UNL     1     -11.129  14.074  65.230  1.00  0.00    -0.325 C  
HETATM   16  C   UNL     1     -10.190  14.534  66.306  1.00  0.00    -0.297 C  
HETATM   17 CL   UNL     1      -9.464  16.135  66.183  1.00  0.00    -0.334 Cl 
HETATM   18 CL   UNL     1     -10.622  14.097  67.955  1.00  0.00    -0.241 Cl 
ENDBRANCH  11  14
ENDBRANCH   3   8
TORSDOF 2
ENDMDL
MODEL      155
REMARK 921   NORMALIZED FREE ENERGY PREDICTED BY IDOCK:   -1.57 KCAL/MOL
REMARK 922        TOTAL FREE ENERGY PREDICTED BY IDOCK:   -2.23 KCAL/MOL
REMARK 923 INTER-LIGAND FREE ENERGY PREDICTED BY IDOCK:   -1.96 KCAL/MOL
REMARK 924 INTRA-LIGAND FREE ENERGY PREDICTED BY IDOCK:   -0.27 KCAL/MOL
REMARK 927      BINDING AFFINITY PREDICTED BY RF-SCORE:    0.00 PKD
ROOT
HETATM    1  C   UNL     1      -7.016   9.463  71.265  1.00  0.00     0.027 C  
HETATM    2  C   UNL     1      -7.799   8.172  71.556  1.00  0.00    -0.108 C  
HETATM    3  O   UNL     1      -7.687   7.142  70.536  1.00  0.00    -0.091 OA 
HETATM    4  C   UNL     1      -7.150   7.568  72.825  1.00  0.00    -0.071 C  
HETATM    5  C   UNL     1      -9.271   8.411  71.912  1.00  0.00    -0.306 C  
HETATM    6  O   UNL     1      -6.695   6.304  72.652  1.00  0.00    -0.067 OA 
HETATM    7  O   UNL     1      -7.056   8.149  73.900  1.00  0.00    -0.127 OA 
ENDROOT
BRANCH   3   8
HETATM    8  C   UNL     1      -7.664   7.482  69.213  1.00  0.00    -0.112 A  
HETATM    9  C   UNL     1      -6.433   7.899  68.703  1.00  0.00    -0.049 A  
HETATM   10  C   UNL     1      -6.333   8.391  67.392  1.00  0.00    -0.057 A  
HETATM   11  C   UNL     1      -7.461   8.475  66.561  1.00  0.00    -0.088 A  
HETATM   12  C   UNL     1      -8.666   7.975  67.073  1.00  0.00    -0.132 A  
HETATM   13  C   UNL     1      -8.758   7.449  68.361  1.00  0.00    -0.123 A  
BRANCH  11  14
HETATM   14  C   UNL     1      -7.441   9.166  65.220  1.00  0.00    -0.097 C  
HETATM   15  C   UNL     1      -6.361   8.948  64.196  1.00  0.00    -0.072 C  
HETATM   16  C   UNL     1      -7.741   8.419  63.934  1.00  0.00    -0.143 C  
HETATM   17 CL   UNL     1      -8.771   9.250  62.770  1.00  0.00    -0.226 Cl 
HETATM   18 CL   UNL     1      -7.904   6.668  63.873  1.00  0.00    -0.118 Cl 
ENDBRANCH  11  14
ENDBRANCH   3   8
TORSDOF 2
ENDMDL
MODEL      156
REMARK 921   NORMALIZED FREE ENERGY PREDICTED BY IDOCK:   -1.49 KCAL/MOL
REMARK 922        TOTAL FREE ENERGY PREDICTED BY IDOCK:   -2.14 KCAL/MOL
REMARK 923 INTER-LIGAND FREE ENERGY PREDICTED BY IDOCK:   -1.89 KCAL/MOL
REMARK 924 INTRA-LIGAND FREE ENERGY PREDICTED BY IDOCK:   -0.25 KCAL/MOL
REMARK 927      BINDING AFFINITY PREDICTED BY RF-SCORE:    0.00 PKD
ROOT
HETATM    1  C   UNL     1     -13.255  15.693  70.479  1.00  0.00    -0.042 C  
HETATM    2  C   UNL     1     -12.657  14.574  71.348  1.00  0.00    -0.341 C  
HETATM    3  O   UNL     1     -11.206  14.486  71.324  1.00  0.00    -0.031 OA 
HETATM    4  C   UNL     1     -13.024  14.938  72.807  1.00  0.00    -0.447 C  
HETATM    5  C   UNL     1     -13.278  13.196  71.091  1.00  0.00    -0.109 C  
HETATM    6  O   UNL     1     -11.950  15.051  73.624  1.00  0.00    -0.412 OA 
HETATM    7  O   UNL     1     -14.169  15.101  73.214  1.00  0.00     0.128 OA 
ENDROOT
BRANCH   3   8
HETATM    8  C   UNL     1     -10.521  14.702  70.161  1.00  0.00     0.213 A  
HETATM    9  C   UNL     1      -9.415  15.548  70.243  1.00  0.00     0.478 A  
HETATM   10  C   UNL     1      -8.725  15.935  69.083  1.00  0.00    -0.256 A  
HETATM   11  C   UNL     1      -9.123  15.481  67.816  1.00  0.00    -0.178 A  
HETATM   12  C   UNL     1     -10.187  14.569  67.774  1.00  0.00    -0.226 A  
HETATM   13  C   UNL     1     -10.848  14.153  68.929  1.00  0.00    -0.276 A  
BRANCH  11  14
HETATM   14  C   UNL     1      -8.535  16.012  66.533  1.00  0.00    -0.348 C  
HETATM   15  C   UNL     1      -9.365  16.618  65.434  1.00  0.00     0.631 C  
HETATM   16  C   UNL     1      -8.461  17.501  66.245  1.00  0.00    -0.212 C  
HETATM   17 CL   UNL     1      -6.962  18.084  65.527  1.00  0.00    -0.175 Cl 
HETATM   18 CL   UNL     1      -9.254  18.700  67.260  1.00  0.00    -0.289 Cl 
ENDBRANCH  11  14
ENDBRANCH   3   8
TORSDOF 2
ENDMDL
MODEL      157
REMARK 921   NORMALIZED FREE ENERGY PREDICTED BY IDOCK:   -1.34 KCAL/MOL
REMARK 922        TOTAL FREE ENERGY PREDICTED BY IDOCK:   -1.97 KCAL/MOL
REMARK 923 INTER-LIGAND FREE ENERGY PREDICTED BY IDOCK:   -1.46 KCAL/MOL
REMARK 924 INTRA-LIGAND FREE ENERGY PREDICTED BY IDOCK:   -0.51 KCAL/MOL
REMARK 927      BINDING AFFINITY PREDICTED BY RF-SCORE:    0.00 PKD
ROOT
HETATM    1  C   UNL     1      -8.204   8.279  64.898  1.00  0.00    -0.154 C  
HETATM    2  C   UNL     1      -6.671   8.394  64.857  1.00  0.00    -0.067 C  
HETATM    3  O   UNL     1      -5.957   7.336  65.553  1.00  0.00    -0.036 OA 
HETATM    4  C   UNL     1      -6.282   8.243  63.366  1.00  0.00    -0.073 C  
HETATM    5  C   UNL     1      -6.144   9.766  65.291  1.00  0.00    -0.083 C  
HETATM    6  O   UNL     1      -5.413   7.231  63.132  1.00  0.00    -0.033 OA 
HETATM    7  O   UNL     1      -6.694   8.965  62.465  1.00  0.00    -0.095 OA 
ENDROOT
BRANCH   3   8
HETATM    8  C   UNL     1      -6.438   6.839  66.731  1.00  0.00    -0.043 A  
HETATM    9  C   UNL     1      -6.828   5.499  66.724  1.00  0.00    -0.063 A  
HETATM   10  C   UNL     1      -7.453   4.932  67.846  1.00  0.00    -0.078 A  
HETATM   11  C   UNL     1      -7.700   5.691  69.000  1.00  0.00    -0.089 A  
HETATM   12  C   UNL     1      -7.225   7.009  69.006  1.00  0.00    -0.091 A  
HETATM   13  C   UNL     1      -6.568   7.562  67.908  1.00  0.00    -0.058 A  
BRANCH  11  14
HETATM   14  C   UNL     1      -8.531   5.184  70.153  1.00  0.00    -0.102 C  
HETATM   15  C   UNL     1      -9.060   3.778  70.232  1.00  0.00    -0.193 C  
HETATM   16  C   UNL     1      -7.970   4.208  71.171  1.00  0.00    -0.071 C  
HETATM   17 CL   UNL     1      -8.368   4.525  72.857  1.00  0.00    -0.102 Cl 
HETATM   18 CL   UNL     1      -6.411   3.418  70.965  1.00  0.00    -0.026 Cl 
ENDBRANCH  11  14
ENDBRANCH   3   8
TORSDOF 2
ENDMDL
MODEL      158
REMARK 921   NORMALIZED FREE ENERGY PREDICTED BY IDOCK:   -1.12 KCAL/MOL
REMARK 922        TOTAL FREE ENERGY PREDICTED BY IDOCK:   -1.73 KCAL/MOL
REMARK 923 INTER-LIGAND FREE ENERGY PREDICTED BY IDOCK:   -2.31 KCAL/MOL
REMARK 924 INTRA-LIGAND FREE ENERGY PREDICTED BY IDOCK:    0.58 KCAL/MOL
REMARK 927      BINDING AFFINITY PREDICTED BY RF-SCORE:    0.00 PKD
ROOT
HETATM    1  C   UNL     1     -12.444  13.633  68.547  1.00  0.00     0.279 C  
HETATM    2  C   UNL     1     -11.465  14.082  69.644  1.00  0.00    -0.258 C  
HETATM    3  O   UNL     1     -10.073  14.163  69.230  1.00  0.00    -0.084 OA 
HETATM    4  C   UNL     1     -11.875  15.531  70.000  1.00  0.00    -0.359 C  
HETATM    5  C   UNL     1     -11.587  13.280  70.945  1.00  0.00     0.632 C  
HETATM    6  O   UNL     1     -10.872  16.430  69.855  1.00  0.00    -0.344 OA 
HETATM    7  O   UNL     1     -12.988  15.861  70.393  1.00  0.00    -0.383 OA 
ENDROOT
BRANCH   3   8
HETATM    8  C   UNL     1      -9.552  13.230  68.379  1.00  0.00    -0.185 A  
HETATM    9  C   UNL     1     -10.057  13.229  67.078  1.00  0.00    -0.242 A  
HETATM   10  C   UNL     1      -9.681  12.229  66.167  1.00  0.00    -0.256 A  
HETATM   11  C   UNL     1      -8.789  11.210  66.536  1.00  0.00    -0.174 A  
HETATM   12  C   UNL     1      -8.237  11.285  67.821  1.00  0.00    -0.120 A  
HETATM   13  C   UNL     1      -8.579  12.300  68.714  1.00  0.00     0.126 A  
BRANCH  11  14
HETATM   14  C   UNL     1      -8.501  10.016  65.659  1.00  0.00    -0.155 C  
HETATM   15  C   UNL     1      -9.437   8.846  65.527  1.00  0.00    -0.162 C  
HETATM   16  C   UNL     1      -9.255   9.778  64.364  1.00  0.00    -0.245 C  
HETATM   17 CL   UNL     1      -8.292   9.252  62.986  1.00  0.00    -0.182 Cl 
HETATM   18 CL   UNL     1     -10.663  10.726  63.900  1.00  0.00    -0.197 Cl 
ENDBRANCH  11  14
ENDBRANCH   3   8
TORSDOF 2
ENDMDL
MODEL      159
REMARK 921   NORMALIZED FREE ENERGY PREDICTED BY IDOCK:   -0.77 KCAL/MOL
REMARK 922        TOTAL FREE ENERGY PREDICTED BY IDOCK:   -1.34 KCAL/MOL
REMARK 923 INTER-LIGAND FREE ENERGY PREDICTED BY IDOCK:   -2.18 KCAL/MOL
REMARK 924 INTRA-LIGAND FREE ENERGY PREDICTED BY IDOCK:    0.84 KCAL/MOL
REMARK 927      BINDING AFFINITY PREDICTED BY RF-SCORE:    0.00 PKD
ROOT
HETATM    1  C   UNL     1     -12.403  13.637  68.618  1.00  0.00     0.003 C  
HETATM    2  C   UNL     1     -11.652  14.114  69.872  1.00  0.00    -0.264 C  
HETATM    3  O   UNL     1     -10.254  14.453  69.659  1.00  0.00     0.003 OA 
HETATM    4  C   UNL     1     -12.339  15.438  70.289  1.00  0.00    -0.388 C  
HETATM    5  C   UNL     1     -11.795  13.171  71.072  1.00  0.00     0.325 C  
HETATM    6  O   UNL     1     -11.490  16.491  70.357  1.00  0.00    -0.229 OA 
HETATM    7  O   UNL     1     -13.531  15.548  70.553  1.00  0.00    -0.361 OA 
ENDROOT
BRANCH   3   8
HETATM    8  C   UNL     1      -9.486  13.707  68.811  1.00  0.00     0.015 A  
HETATM    9  C   UNL     1     -10.117  12.629  68.191  1.00  0.00    -0.231 A  
HETATM   10  C   UNL     1      -9.383  11.727  67.405  1.00  0.00    -0.174 A  
HETATM   11  C   UNL     1      -8.001  11.885  67.219  1.00  0.00    -0.171 A  
HETATM   12  C   UNL     1      -7.410  13.022  67.787  1.00  0.00    -0.139 A  
HETATM   13  C   UNL     1      -8.146  13.940  68.536  1.00  0.00    -0.133 A  
BRANCH  11  14
HETATM   14  C   UNL     1      -7.140  10.847  66.542  1.00  0.00    -0.139 C  
HETATM   15  C   UNL     1      -5.665  11.024  66.310  1.00  0.00    -0.143 C  
HETATM   16  C   UNL     1      -6.135  10.017  67.319  1.00  0.00    -0.058 C  
HETATM   17 CL   UNL     1      -6.062   8.303  66.918  1.00  0.00    -0.053 Cl 
HETATM   18 CL   UNL     1      -5.727  10.351  68.998  1.00  0.00    -0.041 Cl 
ENDBRANCH  11  14
ENDBRANCH   3   8
TORSDOF 2
ENDMDL
MODEL      160
REMARK 921   NORMALIZED FREE ENERGY PREDICTED BY IDOCK:   -0.31 KCAL/MOL
REMARK 922        TOTAL FREE ENERGY PREDICTED BY IDOCK:   -0.83 KCAL/MOL
REMARK 923 INTER-LIGAND FREE ENERGY PREDICTED BY IDOCK:   -1.08 KCAL/MOL
REMARK 924 INTRA-LIGAND FREE ENERGY PREDICTED BY IDOCK:    0.25 KCAL/MOL
REMARK 927      BINDING AFFINITY PREDICTED BY RF-SCORE:    0.00 PKD
ROOT
HETATM    1  C   UNL     1     -11.145   9.606  70.074  1.00  0.00    -0.293 C  
HETATM    2  C   UNL     1     -11.798   8.509  70.933  1.00  0.00    -0.217 C  
HETATM    3  O   UNL     1     -10.869   7.691  71.695  1.00  0.00    -0.224 OA 
HETATM    4  C   UNL     1     -12.649   9.258  71.987  1.00  0.00    -0.390 C  
HETATM    5  C   UNL     1     -12.778   7.621  70.158  1.00  0.00     1.015 C  
HETATM    6  O   UNL     1     -12.325   8.948  73.265  1.00  0.00     0.288 OA 
HETATM    7  O   UNL     1     -13.546  10.050  71.720  1.00  0.00    -0.325 OA 
ENDROOT
BRANCH   3   8
HETATM    8  C   UNL     1      -9.671   7.321  71.152  1.00  0.00    -0.171 A  
HETATM    9  C   UNL     1      -8.673   8.296  71.133  1.00  0.00    -0.176 A  
HETATM   10  C   UNL     1      -7.453   8.056  70.481  1.00  0.00    -0.071 A  
HETATM   11  C   UNL     1      -7.202   6.834  69.837  1.00  0.00    -0.080 A  
HETATM   12  C   UNL     1      -8.190   5.847  69.944  1.00  0.00    -0.117 A  
HETATM   13  C   UNL     1      -9.387   6.070  70.625  1.00  0.00    -0.176 A  
BRANCH  11  14
HETATM   14  C   UNL     1      -5.990   6.598  68.970  1.00  0.00    -0.022 C  
HETATM   15  C   UNL     1      -5.298   5.267  68.866  1.00  0.00    -0.004 C  
HETATM   16  C   UNL     1      -6.072   5.787  67.690  1.00  0.00    -0.022 C  
HETATM   17 CL   UNL     1      -5.196   6.428  66.303  1.00  0.00    -0.013 Cl 
HETATM   18 CL   UNL     1      -7.507   4.874  67.239  1.00  0.00    -0.082 Cl 
ENDBRANCH  11  14
ENDBRANCH   3   8
TORSDOF 2
ENDMDL
MODEL      161
REMARK 921   NORMALIZED FREE ENERGY PREDICTED BY IDOCK:   -0.17 KCAL/MOL
REMARK 922        TOTAL FREE ENERGY PREDICTED BY IDOCK:   -0.67 KCAL/MOL
REMARK 923 INTER-LIGAND FREE ENERGY PREDICTED BY IDOCK:   -1.33 KCAL/MOL
REMARK 924 INTRA-LIGAND FREE ENERGY PREDICTED BY IDOCK:    0.66 KCAL/MOL
REMARK 927      BINDING AFFINITY PREDICTED BY RF-SCORE:    0.00 PKD
ROOT
HETATM    1  C   UNL     1      -5.676  12.979  68.134  1.00  0.00    -0.093 C  
HETATM    2  C   UNL     1      -6.788  14.038  68.206  1.00  0.00    -0.108 C  
HETATM    3  O   UNL     1      -7.980  13.629  68.932  1.00  0.00    -0.068 OA 
HETATM    4  C   UNL     1      -6.192  15.213  69.020  1.00  0.00    -0.099 C  
HETATM    5  C   UNL     1      -7.171  14.624  66.843  1.00  0.00     0.605 C  
HETATM    6  O   UNL     1      -6.917  15.534  70.118  1.00  0.00    -0.057 OA 
HETATM    7  O   UNL     1      -5.173  15.821  68.715  1.00  0.00    -0.101 OA 
ENDROOT
BRANCH   3   8
HETATM    8  C   UNL     1      -8.447  12.350  68.825  1.00  0.00     0.136 A  
HETATM    9  C   UNL     1      -7.505  11.332  68.979  1.00  0.00    -0.116 A  
HETATM   10  C   UNL     1      -7.860   9.991  68.759  1.00  0.00    -0.094 A  
HETATM   11  C   UNL     1      -9.165   9.639  68.382  1.00  0.00    -0.133 A  
HETATM   12  C   UNL     1     -10.107  10.673  68.314  1.00  0.00    -0.176 A  
HETATM   13  C   UNL     1      -9.766  12.001  68.572  1.00  0.00    -0.165 A  
BRANCH  11  14
HETATM   14  C   UNL     1      -9.546   8.243  67.955  1.00  0.00    -0.176 C  
HETATM   15  C   UNL     1      -8.548   7.229  67.467  1.00  0.00    -0.122 C  
HETATM   16  C   UNL     1      -9.206   7.030  68.801  1.00  0.00    -0.132 C  
HETATM   17 CL   UNL     1     -10.469   5.811  68.960  1.00  0.00    -0.311 Cl 
HETATM   18 CL   UNL     1      -8.154   7.122  70.208  1.00  0.00    -0.117 Cl 
ENDBRANCH  11  14
ENDBRANCH   3   8
TORSDOF 2
ENDMDL
MODEL      162
REMARK 921   NORMALIZED FREE ENERGY PREDICTED BY IDOCK:    0.42 KCAL/MOL
REMARK 922        TOTAL FREE ENERGY PREDICTED BY IDOCK:   -0.01 KCAL/MOL
REMARK 923 INTER-LIGAND FREE ENERGY PREDICTED BY IDOCK:    0.44 KCAL/MOL
REMARK 924 INTRA-LIGAND FREE ENERGY PREDICTED BY IDOCK:   -0.45 KCAL/MOL
REMARK 927      BINDING AFFINITY PREDICTED BY RF-SCORE:    0.00 PKD
ROOT
HETATM    1  C   UNL     1     -13.127  15.814  69.928  1.00  0.00     0.648 C  
HETATM    2  C   UNL     1     -12.812  14.855  71.088  1.00  0.00    -0.359 C  
HETATM    3  O   UNL     1     -11.402  14.550  71.267  1.00  0.00    -0.135 OA 
HETATM    4  C   UNL     1     -13.239  15.604  72.374  1.00  0.00    -0.474 C  
HETATM    5  C   UNL     1     -13.637  13.563  71.062  1.00  0.00     0.148 C  
HETATM    6  O   UNL     1     -12.239  15.746  73.276  1.00  0.00    -0.422 OA 
HETATM    7  O   UNL     1     -14.370  16.025  72.589  1.00  0.00    -0.403 OA 
ENDROOT
BRANCH   3   8
HETATM    8  C   UNL     1     -10.590  14.382  70.182  1.00  0.00     0.340 A  
HETATM    9  C   UNL     1     -10.505  13.087  69.667  1.00  0.00     0.698 A  
HETATM   10  C   UNL     1      -9.600  12.786  68.637  1.00  0.00    -0.028 A  
HETATM   11  C   UNL     1      -8.763  13.773  68.096  1.00  0.00    -0.183 A  
HETATM   12  C   UNL     1      -8.928  15.079  68.576  1.00  0.00    -0.186 A  
HETATM   13  C   UNL     1      -9.854  15.387  69.572  1.00  0.00    -0.262 A  
BRANCH  11  14
HETATM   14  C   UNL     1      -7.651  13.463  67.124  1.00  0.00     0.030 C  
HETATM   15  C   UNL     1      -6.463  14.362  66.916  1.00  0.00     1.390 C  
HETATM   16  C   UNL     1      -6.273  13.039  67.599  1.00  0.00    -0.157 C  
HETATM   17 CL   UNL     1      -5.515  11.718  66.714  1.00  0.00    -0.125 Cl 
HETATM   18 CL   UNL     1      -5.795  13.101  69.292  1.00  0.00    -0.083 Cl 
ENDBRANCH  11  14
ENDBRANCH   3   8
TORSDOF 2
ENDMDL
MODEL      163
REMARK 921   NORMALIZED FREE ENERGY PREDICTED BY IDOCK:    1.32 KCAL/MOL
REMARK 922        TOTAL FREE ENERGY PREDICTED BY IDOCK:    0.99 KCAL/MOL
REMARK 923 INTER-LIGAND FREE ENERGY PREDICTED BY IDOCK:   -0.34 KCAL/MOL
REMARK 924 INTRA-LIGAND FREE ENERGY PREDICTED BY IDOCK:    1.33 KCAL/MOL
REMARK 927      BINDING AFFINITY PREDICTED BY RF-SCORE:    0.00 PKD
ROOT
HETATM    1  C   UNL     1      -6.892   9.837  71.617  1.00  0.00     0.597 C  
HETATM    2  C   UNL     1      -7.997   8.783  71.792  1.00  0.00    -0.049 C  
HETATM    3  O   UNL     1      -7.972   7.698  70.824  1.00  0.00    -0.098 OA 
HETATM    4  C   UNL     1      -7.723   8.118  73.163  1.00  0.00    -0.153 C  
HETATM    5  C   UNL     1      -9.407   9.377  71.889  1.00  0.00     0.676 C  
HETATM    6  O   UNL     1      -7.563   6.775  73.092  1.00  0.00    -0.087 OA 
HETATM    7  O   UNL     1      -7.667   8.721  74.229  1.00  0.00    -0.417 OA 
ENDROOT
BRANCH   3   8
HETATM    8  C   UNL     1      -7.656   7.948  69.518  1.00  0.00    -0.099 A  
HETATM    9  C   UNL     1      -6.845   9.059  69.279  1.00  0.00    -0.050 A  
HETATM   10  C   UNL     1      -6.572   9.473  67.967  1.00  0.00    -0.062 A  
HETATM   11  C   UNL     1      -7.099   8.785  66.863  1.00  0.00    -0.078 A  
HETATM   12  C   UNL     1      -7.841   7.627  67.133  1.00  0.00    -0.117 A  
HETATM   13  C   UNL     1      -8.081   7.192  68.436  1.00  0.00    -0.124 A  
BRANCH  11  14
HETATM   14  C   UNL     1      -6.988   9.297  65.448  1.00  0.00    -0.085 C  
HETATM   15  C   UNL     1      -7.850  10.402  64.902  1.00  0.00    -0.099 C  
HETATM   16  C   UNL     1      -6.390  10.656  65.137  1.00  0.00     0.001 C  
HETATM   17 CL   UNL     1      -5.300  10.730  63.755  1.00  0.00    -0.137 Cl 
HETATM   18 CL   UNL     1      -5.997  11.827  66.391  1.00  0.00     0.039 Cl 
ENDBRANCH  11  14
ENDBRANCH   3   8
TORSDOF 2
ENDMDL
MODEL      164
REMARK 921   NORMALIZED FREE ENERGY PREDICTED BY IDOCK:    6.94 KCAL/MOL
REMARK 922        TOTAL FREE ENERGY PREDICTED BY IDOCK:    7.27 KCAL/MOL
REMARK 923 INTER-LIGAND FREE ENERGY PREDICTED BY IDOCK:    5.91 KCAL/MOL
REMARK 924 INTRA-LIGAND FREE ENERGY PREDICTED BY IDOCK:    1.37 KCAL/MOL
REMARK 927      BINDING AFFINITY PREDICTED BY RF-SCORE:    0.00 PKD
ROOT
HETATM    1  C   UNL     1      -5.357   9.821  71.126  1.00  0.00    -0.066 C  
HETATM    2  C   UNL     1      -6.572   9.921  72.064  1.00  0.00     0.969 C  
HETATM    3  O   UNL     1      -7.628   8.956  71.807  1.00  0.00    -0.281 OA 
HETATM    4  C   UNL     1      -6.036   9.580  73.476  1.00  0.00     0.373 C  
HETATM    5  C   UNL     1      -7.155  11.335  72.167  1.00  0.00     6.864 C  
HETATM    6  O   UNL     1      -6.677   8.542  74.063  1.00  0.00    -0.148 OA 
HETATM    7  O   UNL     1      -5.130  10.184  74.039  1.00  0.00    -0.281 OA 
ENDROOT
BRANCH   3   8
HETATM    8  C   UNL     1      -7.954   8.616  70.525  1.00  0.00    -0.106 A  
HETATM    9  C   UNL     1      -6.974   8.841  69.557  1.00  0.00    -0.055 A  
HETATM   10  C   UNL     1      -7.257   8.647  68.196  1.00  0.00    -0.087 A  
HETATM   11  C   UNL     1      -8.524   8.218  67.772  1.00  0.00    -0.131 A  
HETATM   12  C   UNL     1      -9.461   7.923  68.771  1.00  0.00    -0.147 A  
HETATM   13  C   UNL     1      -9.169   8.078  70.126  1.00  0.00    -0.152 A  
BRANCH  11  14
HETATM   14  C   UNL     1      -8.932   8.175  66.320  1.00  0.00    -0.215 C  
HETATM   15  C   UNL     1      -9.326   9.397  65.537  1.00  0.00    -0.315 C  
HETATM   16  C   UNL     1      -8.030   8.708  65.223  1.00  0.00    -0.114 C  
HETATM   17 CL   UNL     1      -7.912   7.728  63.764  1.00  0.00    -0.127 Cl 
HETATM   18 CL   UNL     1      -6.563   9.620  65.563  1.00  0.00    -0.076 Cl 
ENDBRANCH  11  14
ENDBRANCH   3   8
TORSDOF 2
ENDMDL
MODEL      165
REMARK 921   NORMALIZED FREE ENERGY PREDICTED BY IDOCK:   14.85 KCAL/MOL
REMARK 922        TOTAL FREE ENERGY PREDICTED BY IDOCK:   16.11 KCAL/MOL
REMARK 923 INTER-LIGAND FREE ENERGY PREDICTED BY IDOCK:   16.15 KCAL/MOL
REMARK 924 INTRA-LIGAND FREE ENERGY PREDICTED BY IDOCK:   -0.04 KCAL/MOL
REMARK 927      BINDING AFFINITY PREDICTED BY RF-SCORE:    0.00 PKD
ROOT
HETATM    1  C   UNL     1     -11.669  15.033  68.530  1.00  0.00    -0.345 C  
HETATM    2  C   UNL     1     -12.339  15.839  69.656  1.00  0.00    -0.091 C  
HETATM    3  O   UNL     1     -12.219  15.257  70.983  1.00  0.00    -0.294 OA 
HETATM    4  C   UNL     1     -11.569  17.180  69.722  1.00  0.00     1.448 C  
HETATM    5  C   UNL     1     -13.798  16.207  69.366  1.00  0.00     4.375 C  
HETATM    6  O   UNL     1     -11.037  17.441  70.941  1.00  0.00     0.704 OA 
HETATM    7  O   UNL     1     -11.448  17.958  68.783  1.00  0.00     0.976 OA 
ENDROOT
BRANCH   3   8
HETATM    8  C   UNL     1     -12.304  13.904  71.153  1.00  0.00    -0.359 A  
HETATM    9  C   UNL     1     -11.400  13.335  72.051  1.00  0.00     3.878 A  
HETATM   10  C   UNL     1     -11.321  11.941  72.198  1.00  0.00     5.819 A  
HETATM   11  C   UNL     1     -12.145  11.085  71.453  1.00  0.00    -0.177 A  
HETATM   12  C   UNL     1     -13.097  11.688  70.619  1.00  0.00     0.186 A  
HETATM   13  C   UNL     1     -13.204  13.073  70.503  1.00  0.00     0.466 A  
BRANCH  11  14
HETATM   14  C   UNL     1     -11.970   9.587  71.436  1.00  0.00    -0.464 C  
HETATM   15  C   UNL     1     -11.514   8.823  70.223  1.00  0.00    -0.102 C  
HETATM   16  C   UNL     1     -10.595   8.945  71.404  1.00  0.00    -0.303 C  
HETATM   17 CL   UNL     1     -10.360   7.551  72.455  1.00  0.00    -0.266 Cl 
HETATM   18 CL   UNL     1      -9.123   9.875  71.150  1.00  0.00     0.697 Cl 
ENDBRANCH  11  14
ENDBRANCH   3   8
TORSDOF 2
ENDMDL
MODEL      166
REMARK 921   NORMALIZED FREE ENERGY PREDICTED BY IDOCK:   22.37 KCAL/MOL
REMARK 922        TOTAL FREE ENERGY PREDICTED BY IDOCK:   24.51 KCAL/MOL
REMARK 923 INTER-LIGAND FREE ENERGY PREDICTED BY IDOCK:   23.64 KCAL/MOL
REMARK 924 INTRA-LIGAND FREE ENERGY PREDICTED BY IDOCK:    0.86 KCAL/MOL
REMARK 927      BINDING AFFINITY PREDICTED BY RF-SCORE:    0.00 PKD
ROOT
HETATM    1  C   UNL     1     -10.670  15.794  70.040  1.00  0.00    -0.347 C  
HETATM    2  C   UNL     1      -9.665  14.642  69.875  1.00  0.00     0.443 C  
HETATM    3  O   UNL     1      -8.845  14.708  68.676  1.00  0.00    -0.177 OA 
HETATM    4  C   UNL     1      -8.677  14.779  71.059  1.00  0.00     3.127 C  
HETATM    5  C   UNL     1     -10.294  13.251  70.014  1.00  0.00     1.584 C  
HETATM    6  O   UNL     1      -7.384  14.898  70.675  1.00  0.00     0.409 OA 
HETATM    7  O   UNL     1      -9.004  14.770  72.240  1.00  0.00     4.570 OA 
ENDROOT
BRANCH   3   8
HETATM    8  C   UNL     1      -9.382  15.138  67.497  1.00  0.00    -0.198 A  
HETATM    9  C   UNL     1     -10.633  15.753  67.574  1.00  0.00    -0.309 A  
HETATM   10  C   UNL     1     -11.326  16.112  66.407  1.00  0.00     0.372 A  
HETATM   11  C   UNL     1     -10.782  15.868  65.137  1.00  0.00    -0.449 A  
HETATM   12  C   UNL     1      -9.491  15.325  65.092  1.00  0.00     0.359 A  
HETATM   13  C   UNL     1      -8.785  15.004  66.252  1.00  0.00    -0.063 A  
BRANCH  11  14
HETATM   14  C   UNL     1     -11.561  16.064  63.860  1.00  0.00     0.454 C  
HETATM   15  C   UNL     1     -11.664  15.013  62.788  1.00  0.00     4.099 C  
HETATM   16  C   UNL     1     -12.875  15.345  63.610  1.00  0.00     1.471 C  
HETATM   17 CL   UNL     1     -14.164  16.305  62.889  1.00  0.00     7.248 Cl 
HETATM   18 CL   UNL     1     -13.471  14.069  64.665  1.00  0.00     1.049 Cl 
ENDBRANCH  11  14
ENDBRANCH   3   8
TORSDOF 2
ENDMDL
