MODEL        1
REMARK 921   NORMALIZED FREE ENERGY PREDICTED BY IDOCK:   -7.95 KCAL/MOL
REMARK 922        TOTAL FREE ENERGY PREDICTED BY IDOCK:   -9.44 KCAL/MOL
REMARK 923 INTER-LIGAND FREE ENERGY PREDICTED BY IDOCK:   -8.88 KCAL/MOL
REMARK 924 INTRA-LIGAND FREE ENERGY PREDICTED BY IDOCK:   -0.56 KCAL/MOL
REMARK 927      BINDING AFFINITY PREDICTED BY RF-SCORE:    0.00 PKD
ROOT
HETATM    1  O   UNL     1     -12.015  16.579  73.088  1.00  0.00    -0.516 OA 
HETATM    2  C   UNL     1     -12.300  15.255  73.082  1.00  0.00    -0.447 C  
HETATM    3  O   UNL     1     -12.637  14.659  74.098  1.00  0.00    -0.456 OA 
HETATM    4  C   UNL     1     -12.179  14.609  71.762  1.00  0.00    -0.409 C  
HETATM    5  C   UNL     1     -12.425  13.295  71.642  1.00  0.00    -0.053 C  
HETATM    6  N   UNL     1     -12.392  12.568  70.464  1.00  0.00    -0.308 NA 
HETATM    7  C   UNL     1     -12.020  13.217  69.250  1.00  0.00    -0.303 A  
HETATM    8  C   UNL     1     -11.746  14.595  69.263  1.00  0.00    -0.348 A  
HETATM    9  C   UNL     1     -11.405  15.279  68.099  1.00  0.00    -0.346 A  
HETATM   10  C   UNL     1     -11.898  12.541  68.021  1.00  0.00    -0.382 A  
HETATM   11  C   UNL     1     -11.538  13.196  66.822  1.00  0.00    -0.366 A  
HETATM   12  C   UNL     1     -11.811  15.341  70.535  1.00  0.00    -0.324 C  
HETATM   13  C   UNL     1     -11.317  14.584  66.900  1.00  0.00    -0.348 A  
HETATM   14  O   UNL     1     -11.557  16.543  70.587  1.00  0.00    -0.219 OA 
HETATM   15  F   UNL     1     -11.023  15.296  65.802  1.00  0.00    -0.322 F  
ENDROOT
BRANCH   6  16
HETATM   16  C   UNL     1     -12.768  11.137  70.492  1.00  0.00    -0.218 C  
HETATM   17  C   UNL     1     -11.919  10.041  71.092  1.00  0.00    -0.484 C  
HETATM   18  C   UNL     1     -13.159  10.490  71.799  1.00  0.00    -0.570 C  
ENDBRANCH   6  16
BRANCH  11  19
HETATM   19  N   UNL     1     -11.335  12.453  65.669  1.00  0.00    -0.332 NA 
HETATM   20  N   UNL     1     -10.691  11.135  63.153  1.00  0.00    -0.804 NA 
HETATM   21  C   UNL     1     -12.339  12.416  64.589  1.00  0.00    -0.441 C  
HETATM   22  C   UNL     1     -11.601  12.296  63.234  1.00  0.00    -0.351 C  
HETATM   23  C   UNL     1      -9.766  11.138  64.305  1.00  0.00    -0.271 C  
HETATM   24  H   UNL     1     -10.194  11.100  62.263  1.00  0.00     0.000 HD 
HETATM   25  C   UNL     1     -10.472  11.259  65.677  1.00  0.00    -0.261 C  
ENDBRANCH  11  19
TORSDOF 2
ENDMDL
MODEL        2
REMARK 921   NORMALIZED FREE ENERGY PREDICTED BY IDOCK:   -7.76 KCAL/MOL
REMARK 922        TOTAL FREE ENERGY PREDICTED BY IDOCK:   -9.23 KCAL/MOL
REMARK 923 INTER-LIGAND FREE ENERGY PREDICTED BY IDOCK:   -8.67 KCAL/MOL
REMARK 924 INTRA-LIGAND FREE ENERGY PREDICTED BY IDOCK:   -0.56 KCAL/MOL
REMARK 927      BINDING AFFINITY PREDICTED BY RF-SCORE:    0.00 PKD
ROOT
HETATM    1  O   UNL     1     -12.631  14.906  73.755  1.00  0.00    -0.529 OA 
HETATM    2  C   UNL     1     -12.200  15.846  72.880  1.00  0.00    -0.500 C  
HETATM    3  O   UNL     1     -12.019  17.011  73.215  1.00  0.00    -0.245 OA 
HETATM    4  C   UNL     1     -11.962  15.347  71.513  1.00  0.00    -0.443 C  
HETATM    5  C   UNL     1     -11.547  16.196  70.560  1.00  0.00    -0.301 C  
HETATM    6  N   UNL     1     -11.245  15.862  69.251  1.00  0.00    -0.310 NA 
HETATM    7  C   UNL     1     -11.423  14.517  68.813  1.00  0.00    -0.294 A  
HETATM    8  C   UNL     1     -11.851  13.545  69.732  1.00  0.00    -0.395 A  
HETATM    9  C   UNL     1     -12.013  12.213  69.359  1.00  0.00    -0.329 A  
HETATM   10  C   UNL     1     -11.202  14.103  67.485  1.00  0.00    -0.323 A  
HETATM   11  C   UNL     1     -11.373  12.766  67.062  1.00  0.00    -0.314 A  
HETATM   12  C   UNL     1     -12.143  13.935  71.126  1.00  0.00    -0.236 C  
HETATM   13  C   UNL     1     -11.764  11.837  68.045  1.00  0.00    -0.293 A  
HETATM   14  O   UNL     1     -12.540  13.115  71.952  1.00  0.00    -0.153 OA 
HETATM   15  F   UNL     1     -11.899  10.536  67.747  1.00  0.00    -0.299 F  
ENDROOT
BRANCH   6  16
HETATM   16  C   UNL     1     -10.720  16.907  68.345  1.00  0.00    -0.368 C  
HETATM   17  C   UNL     1     -10.130  18.220  68.804  1.00  0.00    -0.393 C  
HETATM   18  C   UNL     1      -9.232  17.153  68.265  1.00  0.00    -0.262 C  
ENDBRANCH   6  16
BRANCH  11  19
HETATM   19  N   UNL     1     -11.239  12.447  65.720  1.00  0.00    -0.318 NA 
HETATM   20  N   UNL     1     -11.124  11.492  62.971  1.00  0.00    -0.805 NA 
HETATM   21  C   UNL     1      -9.951  12.002  65.158  1.00  0.00    -0.239 C  
HETATM   22  C   UNL     1     -10.232  10.979  64.031  1.00  0.00    -0.358 C  
HETATM   23  C   UNL     1     -12.363  12.032  63.572  1.00  0.00    -0.551 C  
HETATM   24  H   UNL     1     -11.320  10.787  62.260  1.00  0.00     0.000 HD 
HETATM   25  C   UNL     1     -12.117  13.057  64.705  1.00  0.00    -0.409 C  
ENDBRANCH  11  19
TORSDOF 2
ENDMDL
MODEL        3
REMARK 921   NORMALIZED FREE ENERGY PREDICTED BY IDOCK:   -7.61 KCAL/MOL
REMARK 922        TOTAL FREE ENERGY PREDICTED BY IDOCK:   -9.07 KCAL/MOL
REMARK 923 INTER-LIGAND FREE ENERGY PREDICTED BY IDOCK:   -8.50 KCAL/MOL
REMARK 924 INTRA-LIGAND FREE ENERGY PREDICTED BY IDOCK:   -0.56 KCAL/MOL
REMARK 927      BINDING AFFINITY PREDICTED BY RF-SCORE:    0.00 PKD
ROOT
HETATM    1  O   UNL     1     -12.126   9.892  70.234  1.00  0.00    -0.207 OA 
HETATM    2  C   UNL     1     -12.580  10.971  70.916  1.00  0.00    -0.391 C  
HETATM    3  O   UNL     1     -13.285  10.859  71.911  1.00  0.00    -0.467 OA 
HETATM    4  C   UNL     1     -12.147  12.268  70.365  1.00  0.00    -0.385 C  
HETATM    5  C   UNL     1     -12.551  13.406  70.954  1.00  0.00    -0.327 C  
HETATM    6  N   UNL     1     -12.191  14.687  70.574  1.00  0.00    -0.302 NA 
HETATM    7  C   UNL     1     -11.360  14.872  69.431  1.00  0.00    -0.290 A  
HETATM    8  C   UNL     1     -10.877  13.747  68.742  1.00  0.00    -0.281 A  
HETATM    9  C   UNL     1     -10.040  13.874  67.636  1.00  0.00    -0.241 A  
HETATM   10  C   UNL     1     -10.999  16.140  68.937  1.00  0.00    -0.324 A  
HETATM   11  C   UNL     1     -10.167  16.313  67.808  1.00  0.00    -0.270 A  
HETATM   12  C   UNL     1     -11.266  12.394  69.189  1.00  0.00    -0.236 C  
HETATM   13  C   UNL     1      -9.686  15.142  67.192  1.00  0.00    -0.228 A  
HETATM   14  O   UNL     1     -10.879  11.388  68.598  1.00  0.00    -0.185 OA 
HETATM   15  F   UNL     1      -8.848  15.209  66.147  1.00  0.00    -0.311 F  
ENDROOT
BRANCH   6  16
HETATM   16  C   UNL     1     -12.661  15.835  71.382  1.00  0.00    -0.455 C  
HETATM   17  C   UNL     1     -13.412  15.711  72.686  1.00  0.00    -0.655 C  
HETATM   18  C   UNL     1     -11.984  16.156  72.693  1.00  0.00    -0.653 C  
ENDBRANCH   6  16
BRANCH  11  19
HETATM   19  N   UNL     1      -9.936  17.587  67.313  1.00  0.00    -0.301 NA 
HETATM   20  N   UNL     1      -9.693  20.368  66.483  1.00  0.00    -0.630 NA 
HETATM   21  C   UNL     1     -10.402  17.990  65.973  1.00  0.00    -0.331 C  
HETATM   22  C   UNL     1     -10.784  19.489  66.015  1.00  0.00    -0.430 C  
HETATM   23  C   UNL     1      -9.170  19.878  67.776  1.00  0.00    -0.338 C  
HETATM   24  H   UNL     1      -9.982  21.344  66.533  1.00  0.00     0.000 HD 
HETATM   25  C   UNL     1      -8.781  18.380  67.770  1.00  0.00    -0.267 C  
ENDBRANCH  11  19
TORSDOF 2
ENDMDL
MODEL        4
REMARK 921   NORMALIZED FREE ENERGY PREDICTED BY IDOCK:   -7.55 KCAL/MOL
REMARK 922        TOTAL FREE ENERGY PREDICTED BY IDOCK:   -9.00 KCAL/MOL
REMARK 923 INTER-LIGAND FREE ENERGY PREDICTED BY IDOCK:   -8.45 KCAL/MOL
REMARK 924 INTRA-LIGAND FREE ENERGY PREDICTED BY IDOCK:   -0.55 KCAL/MOL
REMARK 927      BINDING AFFINITY PREDICTED BY RF-SCORE:    0.00 PKD
ROOT
HETATM    1  O   UNL     1      -9.836   9.485  65.074  1.00  0.00    -0.203 OA 
HETATM    2  C   UNL     1      -9.833  10.818  64.836  1.00  0.00    -0.292 C  
HETATM    3  O   UNL     1      -9.447  11.287  63.772  1.00  0.00    -0.223 OA 
HETATM    4  C   UNL     1     -10.339  11.640  65.951  1.00  0.00    -0.289 C  
HETATM    5  C   UNL     1     -10.367  12.977  65.830  1.00  0.00    -0.288 C  
HETATM    6  N   UNL     1     -10.852  13.866  66.774  1.00  0.00    -0.284 NA 
HETATM    7  C   UNL     1     -11.327  13.372  68.023  1.00  0.00    -0.286 A  
HETATM    8  C   UNL     1     -11.345  11.986  68.253  1.00  0.00    -0.342 A  
HETATM    9  C   UNL     1     -11.826  11.453  69.447  1.00  0.00    -0.419 A  
HETATM   10  C   UNL     1     -11.776  14.209  69.063  1.00  0.00    -0.361 A  
HETATM   11  C   UNL     1     -12.255  13.709  70.295  1.00  0.00    -0.353 A  
HETATM   12  C   UNL     1     -10.839  11.067  67.215  1.00  0.00    -0.281 C  
HETATM   13  C   UNL     1     -12.283  12.309  70.441  1.00  0.00    -0.288 A  
HETATM   14  O   UNL     1     -10.821   9.850  67.390  1.00  0.00    -0.280 OA 
HETATM   15  F   UNL     1     -12.770  11.744  71.555  1.00  0.00    -0.453 F  
ENDROOT
BRANCH   6  16
HETATM   16  C   UNL     1     -10.885  15.310  66.450  1.00  0.00    -0.317 C  
HETATM   17  C   UNL     1      -9.663  16.150  66.163  1.00  0.00    -0.352 C  
HETATM   18  C   UNL     1     -10.580  15.770  65.044  1.00  0.00    -0.397 C  
ENDBRANCH   6  16
BRANCH  11  19
HETATM   19  N   UNL     1     -12.584  14.591  71.313  1.00  0.00    -0.322 NA 
HETATM   20  N   UNL     1     -13.379  16.173  73.625  1.00  0.00    -0.889 NA 
HETATM   21  C   UNL     1     -13.772  15.459  71.226  1.00  0.00    -0.475 C  
HETATM   22  C   UNL     1     -14.353  15.643  72.648  1.00  0.00    -0.134 C  
HETATM   23  C   UNL     1     -12.153  15.347  73.613  1.00  0.00    -0.522 C  
HETATM   24  H   UNL     1     -13.778  16.251  74.560  1.00  0.00     0.000 HD 
HETATM   25  C   UNL     1     -11.547  15.141  72.204  1.00  0.00    -0.400 C  
ENDBRANCH  11  19
TORSDOF 2
ENDMDL
MODEL        5
REMARK 921   NORMALIZED FREE ENERGY PREDICTED BY IDOCK:   -7.47 KCAL/MOL
REMARK 922        TOTAL FREE ENERGY PREDICTED BY IDOCK:   -8.91 KCAL/MOL
REMARK 923 INTER-LIGAND FREE ENERGY PREDICTED BY IDOCK:   -8.48 KCAL/MOL
REMARK 924 INTRA-LIGAND FREE ENERGY PREDICTED BY IDOCK:   -0.43 KCAL/MOL
REMARK 927      BINDING AFFINITY PREDICTED BY RF-SCORE:    0.00 PKD
ROOT
HETATM    1  O   UNL     1     -12.616  16.301  72.202  1.00  0.00    -0.409 OA 
HETATM    2  C   UNL     1     -12.713  14.957  72.342  1.00  0.00    -0.344 C  
HETATM    3  O   UNL     1     -13.069  14.439  73.393  1.00  0.00    -0.587 OA 
HETATM    4  C   UNL     1     -12.367  14.189  71.132  1.00  0.00    -0.447 C  
HETATM    5  C   UNL     1     -12.414  12.847  71.162  1.00  0.00    -0.249 C  
HETATM    6  N   UNL     1     -12.158  12.003  70.096  1.00  0.00    -0.321 NA 
HETATM    7  C   UNL     1     -11.754  12.555  68.846  1.00  0.00    -0.322 A  
HETATM    8  C   UNL     1     -11.676  13.951  68.704  1.00  0.00    -0.396 A  
HETATM    9  C   UNL     1     -11.313  14.540  67.495  1.00  0.00    -0.355 A  
HETATM   10  C   UNL     1     -11.412  11.768  67.730  1.00  0.00    -0.381 A  
HETATM   11  C   UNL     1     -11.021  12.326  66.491  1.00  0.00    -0.279 A  
HETATM   12  C   UNL     1     -11.976  14.821  69.858  1.00  0.00    -0.328 C  
HETATM   13  C   UNL     1     -11.004  13.731  66.408  1.00  0.00    -0.298 A  
HETATM   14  O   UNL     1     -11.898  16.045  69.776  1.00  0.00    -0.312 OA 
HETATM   15  F   UNL     1     -10.698  14.348  65.257  1.00  0.00    -0.297 F  
ENDROOT
BRANCH   6  16
HETATM   16  C   UNL     1     -12.334  10.545  70.276  1.00  0.00    -0.298 C  
HETATM   17  C   UNL     1     -11.231   9.593  70.676  1.00  0.00    -0.385 C  
HETATM   18  C   UNL     1     -12.296   9.950  71.664  1.00  0.00    -0.496 C  
ENDBRANCH   6  16
BRANCH  11  19
HETATM   19  N   UNL     1     -10.598  11.495  65.466  1.00  0.00    -0.274 NA 
HETATM   20  N   UNL     1      -9.425   9.931  63.308  1.00  0.00    -0.490 NA 
HETATM   21  C   UNL     1     -11.143  11.615  64.101  1.00  0.00    -0.364 C  
HETATM   22  C   UNL     1     -10.024  11.264  63.091  1.00  0.00    -0.365 C  
HETATM   23  C   UNL     1      -8.985   9.797  64.712  1.00  0.00    -0.225 C  
HETATM   24  H   UNL     1      -8.669   9.740  62.650  1.00  0.00     0.000 HD 
HETATM   25  C   UNL     1     -10.081  10.144  65.749  1.00  0.00    -0.254 C  
ENDBRANCH  11  19
TORSDOF 2
ENDMDL
MODEL        6
REMARK 921   NORMALIZED FREE ENERGY PREDICTED BY IDOCK:   -7.46 KCAL/MOL
REMARK 922        TOTAL FREE ENERGY PREDICTED BY IDOCK:   -8.90 KCAL/MOL
REMARK 923 INTER-LIGAND FREE ENERGY PREDICTED BY IDOCK:   -8.49 KCAL/MOL
REMARK 924 INTRA-LIGAND FREE ENERGY PREDICTED BY IDOCK:   -0.41 KCAL/MOL
REMARK 927      BINDING AFFINITY PREDICTED BY RF-SCORE:    0.00 PKD
ROOT
HETATM    1  O   UNL     1     -10.011  16.733  65.765  1.00  0.00    -0.492 OA 
HETATM    2  C   UNL     1     -10.516  17.036  66.984  1.00  0.00    -0.279 C  
HETATM    3  O   UNL     1     -10.648  18.193  67.364  1.00  0.00    -0.400 OA 
HETATM    4  C   UNL     1     -10.897  15.865  67.796  1.00  0.00    -0.324 C  
HETATM    5  C   UNL     1     -11.395  16.047  69.030  1.00  0.00    -0.363 C  
HETATM    6  N   UNL     1     -11.831  15.049  69.884  1.00  0.00    -0.303 NA 
HETATM    7  C   UNL     1     -11.715  13.685  69.485  1.00  0.00    -0.322 A  
HETATM    8  C   UNL     1     -11.209  13.382  68.210  1.00  0.00    -0.310 A  
HETATM    9  C   UNL     1     -11.101  12.067  67.764  1.00  0.00    -0.303 A  
HETATM   10  C   UNL     1     -12.073  12.606  70.315  1.00  0.00    -0.372 A  
HETATM   11  C   UNL     1     -11.962  11.258  69.907  1.00  0.00    -0.365 A  
HETATM   12  C   UNL     1     -10.772  14.475  67.318  1.00  0.00    -0.287 C  
HETATM   13  C   UNL     1     -11.486  11.029  68.603  1.00  0.00    -0.308 A  
HETATM   14  O   UNL     1     -10.305  14.246  66.204  1.00  0.00    -0.282 OA 
HETATM   15  F   UNL     1     -11.398   9.784  68.111  1.00  0.00    -0.249 F  
ENDROOT
BRANCH   6  16
HETATM   16  C   UNL     1     -12.432  15.426  71.183  1.00  0.00    -0.402 C  
HETATM   17  C   UNL     1     -11.789  15.174  72.527  1.00  0.00    -0.485 C  
HETATM   18  C   UNL     1     -11.841  16.565  71.979  1.00  0.00    -0.321 C  
ENDBRANCH   6  16
BRANCH  11  19
HETATM   19  N   UNL     1     -12.234  10.242  70.811  1.00  0.00    -0.323 NA 
HETATM   20  N   UNL     1     -12.923   7.933  72.446  1.00  0.00    -0.536 NA 
HETATM   21  C   UNL     1     -13.371  10.327  71.746  1.00  0.00    -0.375 C  
HETATM   22  C   UNL     1     -13.932   8.902  71.970  1.00  0.00    -0.437 C  
HETATM   23  C   UNL     1     -11.747   7.947  71.551  1.00  0.00    -0.283 C  
HETATM   24  H   UNL     1     -13.312   6.996  72.552  1.00  0.00     0.000 HD 
HETATM   25  C   UNL     1     -11.162   9.359  71.304  1.00  0.00    -0.367 C  
ENDBRANCH  11  19
TORSDOF 2
ENDMDL
MODEL        7
REMARK 921   NORMALIZED FREE ENERGY PREDICTED BY IDOCK:   -7.43 KCAL/MOL
REMARK 922        TOTAL FREE ENERGY PREDICTED BY IDOCK:   -8.86 KCAL/MOL
REMARK 923 INTER-LIGAND FREE ENERGY PREDICTED BY IDOCK:   -8.28 KCAL/MOL
REMARK 924 INTRA-LIGAND FREE ENERGY PREDICTED BY IDOCK:   -0.58 KCAL/MOL
REMARK 927      BINDING AFFINITY PREDICTED BY RF-SCORE:    0.00 PKD
ROOT
HETATM    1  O   UNL     1     -11.549   7.767  71.556  1.00  0.00    -0.258 OA 
HETATM    2  C   UNL     1     -12.106   8.956  71.887  1.00  0.00    -0.373 C  
HETATM    3  O   UNL     1     -12.666   9.135  72.961  1.00  0.00    -0.148 OA 
HETATM    4  C   UNL     1     -11.969  10.003  70.857  1.00  0.00    -0.453 C  
HETATM    5  C   UNL     1     -12.496  11.219  71.072  1.00  0.00    -0.400 C  
HETATM    6  N   UNL     1     -12.409  12.304  70.218  1.00  0.00    -0.239 NA 
HETATM    7  C   UNL     1     -11.754  12.154  68.960  1.00  0.00    -0.322 A  
HETATM    8  C   UNL     1     -11.163  10.922  68.635  1.00  0.00    -0.326 A  
HETATM    9  C   UNL     1     -10.488  10.735  67.431  1.00  0.00    -0.268 A  
HETATM   10  C   UNL     1     -11.676  13.185  68.005  1.00  0.00    -0.394 A  
HETATM   11  C   UNL     1     -11.017  13.030  66.764  1.00  0.00    -0.276 A  
HETATM   12  C   UNL     1     -11.258   9.793  69.581  1.00  0.00    -0.178 C  
HETATM   13  C   UNL     1     -10.412  11.783  66.522  1.00  0.00    -0.230 A  
HETATM   14  O   UNL     1     -10.771   8.695  69.320  1.00  0.00    -0.213 OA 
HETATM   15  F   UNL     1      -9.719  11.562  65.395  1.00  0.00    -0.226 F  
ENDROOT
BRANCH   6  16
HETATM   16  C   UNL     1     -12.978  13.602  70.643  1.00  0.00    -0.065 C  
HETATM   17  C   UNL     1     -13.629  13.851  71.984  1.00  0.00    -0.566 C  
HETATM   18  C   UNL     1     -12.274  14.419  71.701  1.00  0.00    -0.385 C  
ENDBRANCH   6  16
BRANCH  11  19
HETATM   19  N   UNL     1     -11.067  14.050  65.827  1.00  0.00    -0.301 NA 
HETATM   20  N   UNL     1     -11.387  16.349  64.068  1.00  0.00    -1.539 NA 
HETATM   21  C   UNL     1     -11.817  13.902  64.566  1.00  0.00    -0.426 C  
HETATM   22  C   UNL     1     -12.402  15.281  64.177  1.00  0.00    -0.044 C  
HETATM   23  C   UNL     1     -10.578  16.403  65.304  1.00  0.00    -0.299 C  
HETATM   24  H   UNL     1     -11.803  17.252  63.844  1.00  0.00     0.000 HD 
HETATM   25  C   UNL     1      -9.979  15.039  65.723  1.00  0.00    -0.346 C  
ENDBRANCH  11  19
TORSDOF 2
ENDMDL
MODEL        8
REMARK 921   NORMALIZED FREE ENERGY PREDICTED BY IDOCK:   -7.23 KCAL/MOL
REMARK 922        TOTAL FREE ENERGY PREDICTED BY IDOCK:   -8.64 KCAL/MOL
REMARK 923 INTER-LIGAND FREE ENERGY PREDICTED BY IDOCK:   -8.09 KCAL/MOL
REMARK 924 INTRA-LIGAND FREE ENERGY PREDICTED BY IDOCK:   -0.56 KCAL/MOL
REMARK 927      BINDING AFFINITY PREDICTED BY RF-SCORE:    0.00 PKD
ROOT
HETATM    1  O   UNL     1      -9.889  11.975  63.390  1.00  0.00    -0.390 OA 
HETATM    2  C   UNL     1     -10.019  11.069  64.387  1.00  0.00    -0.312 C  
HETATM    3  O   UNL     1      -9.790   9.878  64.216  1.00  0.00    -0.203 OA 
HETATM    4  C   UNL     1     -10.444  11.637  65.680  1.00  0.00    -0.314 C  
HETATM    5  C   UNL     1     -10.620  10.827  66.736  1.00  0.00    -0.250 C  
HETATM    6  N   UNL     1     -10.974  11.225  68.013  1.00  0.00    -0.228 NA 
HETATM    7  C   UNL     1     -11.237  12.602  68.271  1.00  0.00    -0.272 A  
HETATM    8  C   UNL     1     -11.080  13.537  67.235  1.00  0.00    -0.302 A  
HETATM    9  C   UNL     1     -11.299  14.897  67.444  1.00  0.00    -0.354 A  
HETATM   10  C   UNL     1     -11.665  13.083  69.522  1.00  0.00    -0.381 A  
HETATM   11  C   UNL     1     -11.915  14.452  69.770  1.00  0.00    -0.332 A  
HETATM   12  C   UNL     1     -10.681  13.078  65.890  1.00  0.00    -0.276 C  
HETATM   13  C   UNL     1     -11.698  15.338  68.699  1.00  0.00    -0.346 A  
HETATM   14  O   UNL     1     -10.554  13.867  64.954  1.00  0.00    -0.372 OA 
HETATM   15  F   UNL     1     -11.859  16.661  68.857  1.00  0.00    -0.196 F  
ENDROOT
BRANCH   6  16
HETATM   16  C   UNL     1     -11.046  10.209  69.088  1.00  0.00    -0.212 C  
HETATM   17  C   UNL     1     -10.385   8.852  69.027  1.00  0.00    -0.226 C  
HETATM   18  C   UNL     1      -9.823   9.911  69.922  1.00  0.00    -0.285 C  
ENDBRANCH   6  16
BRANCH  11  19
HETATM   19  N   UNL     1     -12.434  14.845  70.994  1.00  0.00    -0.305 NA 
HETATM   20  N   UNL     1     -13.580  15.971  73.423  1.00  0.00    -0.807 NA 
HETATM   21  C   UNL     1     -11.558  15.137  72.144  1.00  0.00    -0.400 C  
HETATM   22  C   UNL     1     -12.203  16.270  72.979  1.00  0.00    -0.523 C  
HETATM   23  C   UNL     1     -14.409  15.576  72.265  1.00  0.00    -0.462 C  
HETATM   24  H   UNL     1     -13.991  16.747  73.941  1.00  0.00     0.000 HD 
HETATM   25  C   UNL     1     -13.791  14.446  71.407  1.00  0.00    -0.337 C  
ENDBRANCH  11  19
TORSDOF 2
ENDMDL
MODEL        9
REMARK 921   NORMALIZED FREE ENERGY PREDICTED BY IDOCK:   -7.08 KCAL/MOL
REMARK 922        TOTAL FREE ENERGY PREDICTED BY IDOCK:   -8.47 KCAL/MOL
REMARK 923 INTER-LIGAND FREE ENERGY PREDICTED BY IDOCK:   -7.93 KCAL/MOL
REMARK 924 INTRA-LIGAND FREE ENERGY PREDICTED BY IDOCK:   -0.54 KCAL/MOL
REMARK 927      BINDING AFFINITY PREDICTED BY RF-SCORE:    0.00 PKD
ROOT
HETATM    1  O   UNL     1      -9.913  16.147  66.990  1.00  0.00    -0.247 OA 
HETATM    2  C   UNL     1     -10.746  16.272  68.051  1.00  0.00    -0.331 C  
HETATM    3  O   UNL     1     -11.147  17.364  68.435  1.00  0.00    -0.220 OA 
HETATM    4  C   UNL     1     -11.127  14.996  68.684  1.00  0.00    -0.272 C  
HETATM    5  C   UNL     1     -11.937  15.002  69.754  1.00  0.00    -0.328 C  
HETATM    6  N   UNL     1     -12.409  13.885  70.421  1.00  0.00    -0.352 NA 
HETATM    7  C   UNL     1     -11.984  12.589  70.005  1.00  0.00    -0.299 A  
HETATM    8  C   UNL     1     -11.137  12.468  68.892  1.00  0.00    -0.309 A  
HETATM    9  C   UNL     1     -10.716  11.223  68.430  1.00  0.00    -0.238 A  
HETATM   10  C   UNL     1     -12.363  11.405  70.666  1.00  0.00    -0.466 A  
HETATM   11  C   UNL     1     -11.944  10.125  70.240  1.00  0.00    -0.233 A  
HETATM   12  C   UNL     1     -10.671  13.682  68.192  1.00  0.00    -0.248 C  
HETATM   13  C   UNL     1     -11.129  10.075  69.093  1.00  0.00    -0.190 A  
HETATM   14  O   UNL     1      -9.911  13.615  67.227  1.00  0.00    -0.234 OA 
HETATM   15  F   UNL     1     -10.727   8.900  68.586  1.00  0.00    -0.232 F  
ENDROOT
BRANCH   6  16
HETATM   16  C   UNL     1     -13.364  14.064  71.537  1.00  0.00    -0.350 C  
HETATM   17  C   UNL     1     -13.017  14.690  72.868  1.00  0.00    -0.592 C  
HETATM   18  C   UNL     1     -13.856  15.448  71.889  1.00  0.00    -0.619 C  
ENDBRANCH   6  16
BRANCH  11  19
HETATM   19  N   UNL     1     -12.268   9.009  70.996  1.00  0.00    -0.265 NA 
HETATM   20  N   UNL     1     -12.965   6.497  72.294  1.00  0.00    -0.531 NA 
HETATM   21  C   UNL     1     -13.604   8.848  71.599  1.00  0.00    -0.383 C  
HETATM   22  C   UNL     1     -13.963   7.343  71.607  1.00  0.00    -0.403 C  
HETATM   23  C   UNL     1     -11.619   6.757  71.743  1.00  0.00    -0.297 C  
HETATM   24  H   UNL     1     -13.210   5.507  72.254  1.00  0.00     0.000 HD 
HETATM   25  C   UNL     1     -11.229   8.255  71.719  1.00  0.00    -0.283 C  
ENDBRANCH  11  19
TORSDOF 2
ENDMDL
MODEL       10
REMARK 921   NORMALIZED FREE ENERGY PREDICTED BY IDOCK:   -7.05 KCAL/MOL
REMARK 922        TOTAL FREE ENERGY PREDICTED BY IDOCK:   -8.44 KCAL/MOL
REMARK 923 INTER-LIGAND FREE ENERGY PREDICTED BY IDOCK:   -7.83 KCAL/MOL
REMARK 924 INTRA-LIGAND FREE ENERGY PREDICTED BY IDOCK:   -0.61 KCAL/MOL
REMARK 927      BINDING AFFINITY PREDICTED BY RF-SCORE:    0.00 PKD
ROOT
HETATM    1  O   UNL     1      -9.882  11.965  63.258  1.00  0.00    -0.407 OA 
HETATM    2  C   UNL     1     -10.045  11.083  64.273  1.00  0.00    -0.339 C  
HETATM    3  O   UNL     1      -9.867   9.880  64.123  1.00  0.00    -0.173 OA 
HETATM    4  C   UNL     1     -10.438  11.693  65.557  1.00  0.00    -0.321 C  
HETATM    5  C   UNL     1     -10.641  10.910  66.629  1.00  0.00    -0.249 C  
HETATM    6  N   UNL     1     -10.971  11.346  67.900  1.00  0.00    -0.222 NA 
HETATM    7  C   UNL     1     -11.175  12.738  68.133  1.00  0.00    -0.272 A  
HETATM    8  C   UNL     1     -10.984  13.647  67.079  1.00  0.00    -0.298 A  
HETATM    9  C   UNL     1     -11.144  15.018  67.264  1.00  0.00    -0.334 A  
HETATM   10  C   UNL     1     -11.575  13.260  69.378  1.00  0.00    -0.364 A  
HETATM   11  C   UNL     1     -11.765  14.643  69.601  1.00  0.00    -0.313 A  
HETATM   12  C   UNL     1     -10.612  13.146  65.741  1.00  0.00    -0.282 C  
HETATM   13  C   UNL     1     -11.517  15.499  68.512  1.00  0.00    -0.361 A  
HETATM   14  O   UNL     1     -10.458  13.911  64.790  1.00  0.00    -0.408 OA 
HETATM   15  F   UNL     1     -11.621  16.830  68.646  1.00  0.00    -0.270 F  
ENDROOT
BRANCH   6  16
HETATM   16  C   UNL     1     -11.080  10.355  68.994  1.00  0.00    -0.248 C  
HETATM   17  C   UNL     1     -10.531   8.949  68.931  1.00  0.00    -0.225 C  
HETATM   18  C   UNL     1      -9.852   9.972  69.784  1.00  0.00    -0.270 C  
ENDBRANCH   6  16
BRANCH  11  19
HETATM   19  N   UNL     1     -12.259  15.080  70.820  1.00  0.00    -0.302 NA 
HETATM   20  N   UNL     1     -13.298  15.674  73.475  1.00  0.00    -0.659 NA 
HETATM   21  C   UNL     1     -13.660  15.514  70.973  1.00  0.00    -0.302 C  
HETATM   22  C   UNL     1     -14.143  15.131  72.392  1.00  0.00    -0.495 C  
HETATM   23  C   UNL     1     -11.884  15.316  73.240  1.00  0.00    -0.364 C  
HETATM   24  H   UNL     1     -13.619  15.378  74.397  1.00  0.00     0.000 HD 
HETATM   25  C   UNL     1     -11.369  15.684  71.827  1.00  0.00    -0.353 C  
ENDBRANCH  11  19
TORSDOF 2
ENDMDL
MODEL       11
REMARK 921   NORMALIZED FREE ENERGY PREDICTED BY IDOCK:   -7.00 KCAL/MOL
REMARK 922        TOTAL FREE ENERGY PREDICTED BY IDOCK:   -8.39 KCAL/MOL
REMARK 923 INTER-LIGAND FREE ENERGY PREDICTED BY IDOCK:   -7.93 KCAL/MOL
REMARK 924 INTRA-LIGAND FREE ENERGY PREDICTED BY IDOCK:   -0.45 KCAL/MOL
REMARK 927      BINDING AFFINITY PREDICTED BY RF-SCORE:    0.00 PKD
ROOT
HETATM    1  O   UNL     1     -10.885  16.907  67.031  1.00  0.00    -0.204 OA 
HETATM    2  C   UNL     1     -10.556  15.747  66.414  1.00  0.00    -0.307 C  
HETATM    3  O   UNL     1     -10.030  15.727  65.308  1.00  0.00    -0.383 OA 
HETATM    4  C   UNL     1     -10.874  14.532  67.186  1.00  0.00    -0.296 C  
HETATM    5  C   UNL     1     -10.604  13.325  66.664  1.00  0.00    -0.281 C  
HETATM    6  N   UNL     1     -10.808  12.107  67.289  1.00  0.00    -0.235 NA 
HETATM    7  C   UNL     1     -11.403  12.075  68.584  1.00  0.00    -0.277 A  
HETATM    8  C   UNL     1     -11.722  13.283  69.224  1.00  0.00    -0.380 A  
HETATM    9  C   UNL     1     -12.280  13.305  70.500  1.00  0.00    -0.416 A  
HETATM   10  C   UNL     1     -11.706  10.879  69.263  1.00  0.00    -0.395 A  
HETATM   11  C   UNL     1     -12.287  10.858  70.551  1.00  0.00    -0.374 A  
HETATM   12  C   UNL     1     -11.471  14.565  68.535  1.00  0.00    -0.301 C  
HETATM   13  C   UNL     1     -12.543  12.106  71.150  1.00  0.00    -0.260 A  
HETATM   14  O   UNL     1     -11.757  15.641  69.056  1.00  0.00    -0.364 OA 
HETATM   15  F   UNL     1     -13.045  12.183  72.391  1.00  0.00    -0.540 F  
ENDROOT
BRANCH   6  16
HETATM   16  C   UNL     1     -10.379  10.867  66.604  1.00  0.00    -0.239 C  
HETATM   17  C   UNL     1     -10.244  10.721  65.106  1.00  0.00    -0.365 C  
HETATM   18  C   UNL     1      -9.016  10.801  65.956  1.00  0.00    -0.196 C  
ENDBRANCH   6  16
BRANCH  11  19
HETATM   19  N   UNL     1     -12.655   9.648  71.119  1.00  0.00    -0.322 NA 
HETATM   20  N   UNL     1     -13.428   6.982  71.999  1.00  0.00    -0.556 NA 
HETATM   21  C   UNL     1     -14.021   9.416  71.622  1.00  0.00    -0.183 C  
HETATM   22  C   UNL     1     -14.385   7.930  71.392  1.00  0.00    -0.381 C  
HETATM   23  C   UNL     1     -12.053   7.305  71.563  1.00  0.00    -0.331 C  
HETATM   24  H   UNL     1     -13.674   6.012  71.803  1.00  0.00     0.000 HD 
HETATM   25  C   UNL     1     -11.658   8.785  71.777  1.00  0.00    -0.346 C  
ENDBRANCH  11  19
TORSDOF 2
ENDMDL
MODEL       12
REMARK 921   NORMALIZED FREE ENERGY PREDICTED BY IDOCK:   -7.00 KCAL/MOL
REMARK 922        TOTAL FREE ENERGY PREDICTED BY IDOCK:   -8.38 KCAL/MOL
REMARK 923 INTER-LIGAND FREE ENERGY PREDICTED BY IDOCK:   -7.86 KCAL/MOL
REMARK 924 INTRA-LIGAND FREE ENERGY PREDICTED BY IDOCK:   -0.53 KCAL/MOL
REMARK 927      BINDING AFFINITY PREDICTED BY RF-SCORE:    0.00 PKD
ROOT
HETATM    1  O   UNL     1      -9.709   6.919  71.627  1.00  0.00    -0.163 OA 
HETATM    2  C   UNL     1     -10.586   7.894  71.965  1.00  0.00    -0.238 C  
HETATM    3  O   UNL     1     -11.077   7.965  73.085  1.00  0.00    -0.382 OA 
HETATM    4  C   UNL     1     -10.882   8.852  70.884  1.00  0.00    -0.308 C  
HETATM    5  C   UNL     1     -11.751   9.852  71.104  1.00  0.00    -0.396 C  
HETATM    6  N   UNL     1     -12.091  10.844  70.200  1.00  0.00    -0.320 NA 
HETATM    7  C   UNL     1     -11.535  10.817  68.888  1.00  0.00    -0.293 A  
HETATM    8  C   UNL     1     -10.611   9.814  68.553  1.00  0.00    -0.252 A  
HETATM    9  C   UNL     1     -10.020   9.761  67.293  1.00  0.00    -0.242 A  
HETATM   10  C   UNL     1     -11.876  11.747  67.887  1.00  0.00    -0.289 A  
HETATM   11  C   UNL     1     -11.312  11.718  66.592  1.00  0.00    -0.316 A  
HETATM   12  C   UNL     1     -10.256   8.784  69.550  1.00  0.00    -0.208 C  
HETATM   13  C   UNL     1     -10.363  10.710  66.338  1.00  0.00    -0.231 A  
HETATM   14  O   UNL     1      -9.467   7.879  69.284  1.00  0.00    -0.152 OA 
HETATM   15  F   UNL     1      -9.737  10.637  65.154  1.00  0.00    -0.238 F  
ENDROOT
BRANCH   6  16
HETATM   16  C   UNL     1     -13.006  11.924  70.630  1.00  0.00     0.158 C  
HETATM   17  C   UNL     1     -13.235  12.331  72.067  1.00  0.00    -0.508 C  
HETATM   18  C   UNL     1     -12.441  13.219  71.163  1.00  0.00    -0.397 C  
ENDBRANCH   6  16
BRANCH  11  19
HETATM   19  N   UNL     1     -11.768  12.599  65.624  1.00  0.00    -0.390 NA 
HETATM   20  N   UNL     1     -12.409  14.460  63.477  1.00  0.00    -1.114 NA 
HETATM   21  C   UNL     1     -12.089  14.001  65.948  1.00  0.00    -0.428 C  
HETATM   22  C   UNL     1     -11.740  14.882  64.725  1.00  0.00    -0.402 C  
HETATM   23  C   UNL     1     -12.161  13.023  63.233  1.00  0.00    -0.422 C  
HETATM   24  H   UNL     1     -12.134  15.036  62.681  1.00  0.00     0.000 HD 
HETATM   25  C   UNL     1     -12.498  12.114  64.439  1.00  0.00    -0.324 C  
ENDBRANCH  11  19
TORSDOF 2
ENDMDL
MODEL       13
REMARK 921   NORMALIZED FREE ENERGY PREDICTED BY IDOCK:   -6.97 KCAL/MOL
REMARK 922        TOTAL FREE ENERGY PREDICTED BY IDOCK:   -8.35 KCAL/MOL
REMARK 923 INTER-LIGAND FREE ENERGY PREDICTED BY IDOCK:   -7.77 KCAL/MOL
REMARK 924 INTRA-LIGAND FREE ENERGY PREDICTED BY IDOCK:   -0.57 KCAL/MOL
REMARK 927      BINDING AFFINITY PREDICTED BY RF-SCORE:    0.00 PKD
ROOT
HETATM    1  O   UNL     1     -11.392   7.991  72.400  1.00  0.00    -0.325 OA 
HETATM    2  C   UNL     1     -10.971   7.585  71.179  1.00  0.00    -0.246 C  
HETATM    3  O   UNL     1     -10.618   6.432  70.965  1.00  0.00    -0.220 OA 
HETATM    4  C   UNL     1     -10.986   8.637  70.146  1.00  0.00    -0.234 C  
HETATM    5  C   UNL     1     -10.574   8.349  68.900  1.00  0.00    -0.140 C  
HETATM    6  N   UNL     1     -10.572   9.220  67.825  1.00  0.00    -0.259 NA 
HETATM    7  C   UNL     1     -10.988  10.570  68.016  1.00  0.00    -0.290 A  
HETATM    8  C   UNL     1     -11.443  10.977  69.281  1.00  0.00    -0.370 A  
HETATM    9  C   UNL     1     -11.885  12.278  69.512  1.00  0.00    -0.380 A  
HETATM   10  C   UNL     1     -10.957  11.538  66.994  1.00  0.00    -0.347 A  
HETATM   11  C   UNL     1     -11.380  12.872  67.192  1.00  0.00    -0.306 A  
HETATM   12  C   UNL     1     -11.449  10.014  70.400  1.00  0.00    -0.314 C  
HETATM   13  C   UNL     1     -11.862  13.200  68.473  1.00  0.00    -0.342 A  
HETATM   14  O   UNL     1     -11.821  10.341  71.526  1.00  0.00    -0.336 OA 
HETATM   15  F   UNL     1     -12.334  14.427  68.737  1.00  0.00    -0.330 F  
ENDROOT
BRANCH   6  16
HETATM   16  C   UNL     1     -10.161   8.719  66.495  1.00  0.00    -0.279 C  
HETATM   17  C   UNL     1      -8.732   8.666  66.006  1.00  0.00    -0.196 C  
HETATM   18  C   UNL     1      -9.435   7.400  66.382  1.00  0.00    -0.194 C  
ENDBRANCH   6  16
BRANCH  11  19
HETATM   19  N   UNL     1     -11.226  13.800  66.173  1.00  0.00    -0.297 NA 
HETATM   20  N   UNL     1     -11.133  15.934  64.194  1.00  0.00    -0.947 NA 
HETATM   21  C   UNL     1     -11.793  13.572  64.831  1.00  0.00    -0.374 C  
HETATM   22  C   UNL     1     -12.222  14.936  64.240  1.00  0.00    -0.344 C  
HETATM   23  C   UNL     1     -10.511  16.063  65.528  1.00  0.00    -0.405 C  
HETATM   24  H   UNL     1     -11.452  16.832  63.832  1.00  0.00     0.000 HD 
HETATM   25  C   UNL     1     -10.071  14.715  66.149  1.00  0.00    -0.300 C  
ENDBRANCH  11  19
TORSDOF 2
ENDMDL
MODEL       14
REMARK 921   NORMALIZED FREE ENERGY PREDICTED BY IDOCK:   -6.96 KCAL/MOL
REMARK 922        TOTAL FREE ENERGY PREDICTED BY IDOCK:   -8.34 KCAL/MOL
REMARK 923 INTER-LIGAND FREE ENERGY PREDICTED BY IDOCK:   -8.05 KCAL/MOL
REMARK 924 INTRA-LIGAND FREE ENERGY PREDICTED BY IDOCK:   -0.30 KCAL/MOL
REMARK 927      BINDING AFFINITY PREDICTED BY RF-SCORE:    0.00 PKD
ROOT
HETATM    1  O   UNL     1     -13.350  14.063  73.065  1.00  0.00    -0.641 OA 
HETATM    2  C   UNL     1     -12.938  15.003  72.181  1.00  0.00    -0.342 C  
HETATM    3  O   UNL     1     -12.967  16.199  72.445  1.00  0.00    -0.423 OA 
HETATM    4  C   UNL     1     -12.451  14.464  70.897  1.00  0.00    -0.424 C  
HETATM    5  C   UNL     1     -12.032  15.308  69.940  1.00  0.00    -0.343 C  
HETATM    6  N   UNL     1     -11.513  14.944  68.710  1.00  0.00    -0.291 NA 
HETATM    7  C   UNL     1     -11.443  13.565  68.358  1.00  0.00    -0.311 A  
HETATM    8  C   UNL     1     -11.853  12.596  69.290  1.00  0.00    -0.358 A  
HETATM    9  C   UNL     1     -11.779  11.235  69.004  1.00  0.00    -0.410 A  
HETATM   10  C   UNL     1     -10.990  13.110  67.105  1.00  0.00    -0.289 A  
HETATM   11  C   UNL     1     -10.916  11.740  66.770  1.00  0.00    -0.288 A  
HETATM   12  C   UNL     1     -12.382  13.021  70.601  1.00  0.00    -0.310 C  
HETATM   13  C   UNL     1     -11.305  10.823  67.765  1.00  0.00    -0.279 A  
HETATM   14  O   UNL     1     -12.770  12.201  71.432  1.00  0.00    -0.358 OA 
HETATM   15  F   UNL     1     -11.217   9.501  67.554  1.00  0.00    -0.313 F  
ENDROOT
BRANCH   6  16
HETATM   16  C   UNL     1     -11.020  16.000  67.798  1.00  0.00    -0.307 C  
HETATM   17  C   UNL     1     -10.743  17.426  68.212  1.00  0.00    -0.327 C  
HETATM   18  C   UNL     1      -9.602  16.502  67.929  1.00  0.00    -0.233 C  
ENDBRANCH   6  16
BRANCH  11  19
HETATM   19  N   UNL     1     -10.560  11.366  65.483  1.00  0.00    -0.274 NA 
HETATM   20  N   UNL     1      -9.580  10.824  62.795  1.00  0.00    -0.451 NA 
HETATM   21  C   UNL     1     -11.396  11.715  64.320  1.00  0.00    -0.284 C  
HETATM   22  C   UNL     1     -10.470  11.961  63.104  1.00  0.00    -0.276 C  
HETATM   23  C   UNL     1      -8.833  10.424  64.007  1.00  0.00    -0.212 C  
HETATM   24  H   UNL     1      -8.958  11.026  62.012  1.00  0.00     0.000 HD 
HETATM   25  C   UNL     1      -9.730  10.172  65.243  1.00  0.00    -0.300 C  
ENDBRANCH  11  19
TORSDOF 2
ENDMDL
MODEL       15
REMARK 921   NORMALIZED FREE ENERGY PREDICTED BY IDOCK:   -6.92 KCAL/MOL
REMARK 922        TOTAL FREE ENERGY PREDICTED BY IDOCK:   -8.30 KCAL/MOL
REMARK 923 INTER-LIGAND FREE ENERGY PREDICTED BY IDOCK:   -7.80 KCAL/MOL
REMARK 924 INTRA-LIGAND FREE ENERGY PREDICTED BY IDOCK:   -0.50 KCAL/MOL
REMARK 927      BINDING AFFINITY PREDICTED BY RF-SCORE:    0.00 PKD
ROOT
HETATM    1  O   UNL     1     -11.142   7.660  72.370  1.00  0.00    -0.263 OA 
HETATM    2  C   UNL     1     -10.772   7.361  71.102  1.00  0.00    -0.231 C  
HETATM    3  O   UNL     1     -10.391   6.241  70.785  1.00  0.00    -0.195 OA 
HETATM    4  C   UNL     1     -10.878   8.484  70.152  1.00  0.00    -0.238 C  
HETATM    5  C   UNL     1     -10.522   8.304  68.870  1.00  0.00    -0.191 C  
HETATM    6  N   UNL     1     -10.608   9.250  67.864  1.00  0.00    -0.246 NA 
HETATM    7  C   UNL     1     -11.059  10.566  68.176  1.00  0.00    -0.287 A  
HETATM    8  C   UNL     1     -11.460  10.861  69.490  1.00  0.00    -0.372 A  
HETATM    9  C   UNL     1     -11.935  12.124  69.839  1.00  0.00    -0.380 A  
HETATM   10  C   UNL     1     -11.116  11.606  67.230  1.00  0.00    -0.346 A  
HETATM   11  C   UNL     1     -11.574  12.905  67.547  1.00  0.00    -0.356 A  
HETATM   12  C   UNL     1     -11.375   9.820  70.532  1.00  0.00    -0.314 C  
HETATM   13  C   UNL     1     -11.998  13.120  68.872  1.00  0.00    -0.277 A  
HETATM   14  O   UNL     1     -11.697  10.049  71.697  1.00  0.00    -0.345 OA 
HETATM   15  F   UNL     1     -12.497  14.305  69.251  1.00  0.00    -0.350 F  
ENDROOT
BRANCH   6  16
HETATM   16  C   UNL     1     -10.250   8.864  66.481  1.00  0.00    -0.249 C  
HETATM   17  C   UNL     1      -8.915   9.146  65.833  1.00  0.00    -0.231 C  
HETATM   18  C   UNL     1      -9.258   7.750  66.247  1.00  0.00    -0.217 C  
ENDBRANCH   6  16
BRANCH  11  19
HETATM   19  N   UNL     1     -11.505  13.910  66.595  1.00  0.00    -0.340 NA 
HETATM   20  N   UNL     1     -11.159  15.815  64.419  1.00  0.00    -0.852 NA 
HETATM   21  C   UNL     1     -10.703  15.127  66.815  1.00  0.00    -0.311 C  
HETATM   22  C   UNL     1     -10.129  15.591  65.455  1.00  0.00    -0.352 C  
HETATM   23  C   UNL     1     -12.017  14.618  64.295  1.00  0.00    -0.386 C  
HETATM   24  H   UNL     1     -10.750  16.086  63.525  1.00  0.00     0.000 HD 
HETATM   25  C   UNL     1     -12.606  14.125  65.639  1.00  0.00    -0.470 C  
ENDBRANCH  11  19
TORSDOF 2
ENDMDL
MODEL       16
REMARK 921   NORMALIZED FREE ENERGY PREDICTED BY IDOCK:   -6.87 KCAL/MOL
REMARK 922        TOTAL FREE ENERGY PREDICTED BY IDOCK:   -8.23 KCAL/MOL
REMARK 923 INTER-LIGAND FREE ENERGY PREDICTED BY IDOCK:   -7.80 KCAL/MOL
REMARK 924 INTRA-LIGAND FREE ENERGY PREDICTED BY IDOCK:   -0.43 KCAL/MOL
REMARK 927      BINDING AFFINITY PREDICTED BY RF-SCORE:    0.00 PKD
ROOT
HETATM    1  O   UNL     1     -13.236   9.134  72.830  1.00  0.00    -0.394 OA 
HETATM    2  C   UNL     1     -12.501   8.798  71.743  1.00  0.00    -0.350 C  
HETATM    3  O   UNL     1     -12.193   7.638  71.501  1.00  0.00    -0.301 OA 
HETATM    4  C   UNL     1     -12.121   9.936  70.885  1.00  0.00    -0.431 C  
HETATM    5  C   UNL     1     -11.378   9.721  69.787  1.00  0.00    -0.158 C  
HETATM    6  N   UNL     1     -10.985  10.682  68.873  1.00  0.00    -0.231 NA 
HETATM    7  C   UNL     1     -11.330  12.047  69.099  1.00  0.00    -0.281 A  
HETATM    8  C   UNL     1     -12.109  12.383  70.218  1.00  0.00    -0.377 A  
HETATM    9  C   UNL     1     -12.495  13.698  70.467  1.00  0.00    -0.394 A  
HETATM   10  C   UNL     1     -10.916  13.096  68.256  1.00  0.00    -0.278 A  
HETATM   11  C   UNL     1     -11.271  14.445  68.483  1.00  0.00    -0.265 A  
HETATM   12  C   UNL     1     -12.528  11.327  71.161  1.00  0.00    -0.373 C  
HETATM   13  C   UNL     1     -12.087  14.704  69.601  1.00  0.00    -0.311 A  
HETATM   14  O   UNL     1     -13.193  11.588  72.162  1.00  0.00    -0.505 OA 
HETATM   15  F   UNL     1     -12.517  15.947  69.864  1.00  0.00    -0.363 F  
ENDROOT
BRANCH   6  16
HETATM   16  C   UNL     1     -10.235  10.264  67.668  1.00  0.00    -0.205 C  
HETATM   17  C   UNL     1      -9.030   9.352  67.685  1.00  0.00    -0.125 C  
HETATM   18  C   UNL     1     -10.340   8.840  67.176  1.00  0.00    -0.364 C  
ENDBRANCH   6  16
BRANCH  11  19
HETATM   19  N   UNL     1     -10.745  15.440  67.674  1.00  0.00    -0.285 NA 
HETATM   20  N   UNL     1      -9.955  17.642  65.940  1.00  0.00    -0.553 NA 
HETATM   21  C   UNL     1     -10.300  15.158  66.297  1.00  0.00    -0.294 C  
HETATM   22  C   UNL     1     -10.577  16.405  65.424  1.00  0.00    -0.320 C  
HETATM   23  C   UNL     1     -10.330  17.843  67.356  1.00  0.00    -0.378 C  
HETATM   24  H   UNL     1     -10.182  18.453  65.365  1.00  0.00     0.000 HD 
HETATM   25  C   UNL     1     -10.068  16.612  68.256  1.00  0.00    -0.268 C  
ENDBRANCH  11  19
TORSDOF 2
ENDMDL
MODEL       17
REMARK 921   NORMALIZED FREE ENERGY PREDICTED BY IDOCK:   -6.79 KCAL/MOL
REMARK 922        TOTAL FREE ENERGY PREDICTED BY IDOCK:   -8.15 KCAL/MOL
REMARK 923 INTER-LIGAND FREE ENERGY PREDICTED BY IDOCK:   -7.83 KCAL/MOL
REMARK 924 INTRA-LIGAND FREE ENERGY PREDICTED BY IDOCK:   -0.33 KCAL/MOL
REMARK 927      BINDING AFFINITY PREDICTED BY RF-SCORE:    0.00 PKD
ROOT
HETATM    1  O   UNL     1     -11.989   8.036  71.638  1.00  0.00    -0.276 OA 
HETATM    2  C   UNL     1     -12.565   9.204  72.009  1.00  0.00    -0.390 C  
HETATM    3  O   UNL     1     -13.287   9.287  72.996  1.00  0.00    -0.220 OA 
HETATM    4  C   UNL     1     -12.242  10.350  71.139  1.00  0.00    -0.498 C  
HETATM    5  C   UNL     1     -12.771  11.555  71.406  1.00  0.00    -0.364 C  
HETATM    6  N   UNL     1     -12.524  12.722  70.704  1.00  0.00    -0.293 NA 
HETATM    7  C   UNL     1     -11.679  12.685  69.557  1.00  0.00    -0.308 A  
HETATM    8  C   UNL     1     -11.070  11.473  69.191  1.00  0.00    -0.316 A  
HETATM    9  C   UNL     1     -10.215  11.391  68.094  1.00  0.00    -0.200 A  
HETATM   10  C   UNL     1     -11.426  13.809  68.749  1.00  0.00    -0.338 A  
HETATM   11  C   UNL     1     -10.579  13.764  67.618  1.00  0.00    -0.242 A  
HETATM   12  C   UNL     1     -11.341  10.252  69.976  1.00  0.00    -0.301 C  
HETATM   13  C   UNL     1      -9.970  12.527  67.334  1.00  0.00    -0.207 A  
HETATM   14  O   UNL     1     -10.842   9.170  69.672  1.00  0.00    -0.231 OA 
HETATM   15  F   UNL     1      -9.110  12.403  66.312  1.00  0.00    -0.218 F  
ENDROOT
BRANCH   6  16
HETATM   16  C   UNL     1     -13.126  13.988  71.180  1.00  0.00    -0.303 C  
HETATM   17  C   UNL     1     -13.495  14.272  72.617  1.00  0.00    -0.623 C  
HETATM   18  C   UNL     1     -12.303  14.943  72.011  1.00  0.00    -0.419 C  
ENDBRANCH   6  16
BRANCH  11  19
HETATM   19  N   UNL     1     -10.456  14.881  66.807  1.00  0.00    -0.279 NA 
HETATM   20  N   UNL     1     -10.513  17.303  65.191  1.00  0.00    -0.546 NA 
HETATM   21  C   UNL     1     -10.496  14.774  65.336  1.00  0.00    -0.380 C  
HETATM   22  C   UNL     1     -11.167  16.048  64.769  1.00  0.00    -0.339 C  
HETATM   23  C   UNL     1     -10.387  17.335  66.664  1.00  0.00    -0.305 C  
HETATM   24  H   UNL     1     -10.995  18.126  64.831  1.00  0.00     0.000 HD 
HETATM   25  C   UNL     1      -9.722  16.074  67.265  1.00  0.00    -0.232 C  
ENDBRANCH  11  19
TORSDOF 2
ENDMDL
MODEL       18
REMARK 921   NORMALIZED FREE ENERGY PREDICTED BY IDOCK:   -6.75 KCAL/MOL
REMARK 922        TOTAL FREE ENERGY PREDICTED BY IDOCK:   -8.10 KCAL/MOL
REMARK 923 INTER-LIGAND FREE ENERGY PREDICTED BY IDOCK:   -7.66 KCAL/MOL
REMARK 924 INTRA-LIGAND FREE ENERGY PREDICTED BY IDOCK:   -0.44 KCAL/MOL
REMARK 927      BINDING AFFINITY PREDICTED BY RF-SCORE:    0.00 PKD
ROOT
HETATM    1  O   UNL     1     -10.895  19.135  65.272  1.00  0.00    -0.528 OA 
HETATM    2  C   UNL     1     -10.175  18.594  66.284  1.00  0.00    -0.427 C  
HETATM    3  O   UNL     1      -9.682  19.281  67.169  1.00  0.00    -0.312 OA 
HETATM    4  C   UNL     1     -10.051  17.125  66.228  1.00  0.00    -0.329 C  
HETATM    5  C   UNL     1      -9.346  16.483  67.174  1.00  0.00    -0.233 C  
HETATM    6  N   UNL     1      -9.181  15.113  67.272  1.00  0.00    -0.193 NA 
HETATM    7  C   UNL     1      -9.748  14.265  66.275  1.00  0.00    -0.302 A  
HETATM    8  C   UNL     1     -10.509  14.835  65.241  1.00  0.00    -0.427 A  
HETATM    9  C   UNL     1     -11.106  14.047  64.259  1.00  0.00    -0.198 A  
HETATM   10  C   UNL     1      -9.574  12.868  66.261  1.00  0.00    -0.245 A  
HETATM   11  C   UNL     1     -10.148  12.036  65.274  1.00  0.00    -0.260 A  
HETATM   12  C   UNL     1     -10.681  16.300  65.181  1.00  0.00    -0.331 C  
HETATM   13  C   UNL     1     -10.933  12.669  64.291  1.00  0.00    -0.366 A  
HETATM   14  O   UNL     1     -11.324  16.834  64.278  1.00  0.00    -1.170 OA 
HETATM   15  F   UNL     1     -11.559  11.954  63.346  1.00  0.00    -0.467 F  
ENDROOT
BRANCH   6  16
HETATM   16  C   UNL     1      -8.438  14.559  68.425  1.00  0.00    -0.163 C  
HETATM   17  C   UNL     1      -6.932  14.527  68.537  1.00  0.00    -0.105 C  
HETATM   18  C   UNL     1      -7.716  15.491  69.370  1.00  0.00    -0.227 C  
ENDBRANCH   6  16
BRANCH  11  19
HETATM   19  N   UNL     1      -9.852  10.682  65.260  1.00  0.00    -0.254 NA 
HETATM   20  N   UNL     1      -8.945   7.918  65.393  1.00  0.00    -0.385 NA 
HETATM   21  C   UNL     1      -9.402  10.004  64.030  1.00  0.00    -0.270 C  
HETATM   22  C   UNL     1      -8.403   8.889  64.420  1.00  0.00    -0.168 C  
HETATM   23  C   UNL     1      -9.488   8.631  66.568  1.00  0.00    -0.216 C  
HETATM   24  H   UNL     1      -8.256   7.215  65.657  1.00  0.00     0.000 HD 
HETATM   25  C   UNL     1     -10.490   9.756  66.212  1.00  0.00    -0.090 C  
ENDBRANCH  11  19
TORSDOF 2
ENDMDL
MODEL       19
REMARK 921   NORMALIZED FREE ENERGY PREDICTED BY IDOCK:   -6.71 KCAL/MOL
REMARK 922        TOTAL FREE ENERGY PREDICTED BY IDOCK:   -8.05 KCAL/MOL
REMARK 923 INTER-LIGAND FREE ENERGY PREDICTED BY IDOCK:   -8.07 KCAL/MOL
REMARK 924 INTRA-LIGAND FREE ENERGY PREDICTED BY IDOCK:    0.01 KCAL/MOL
REMARK 927      BINDING AFFINITY PREDICTED BY RF-SCORE:    0.00 PKD
ROOT
HETATM    1  O   UNL     1     -10.555  19.915  66.284  1.00  0.00    -0.467 OA 
HETATM    2  C   UNL     1     -10.537  19.256  67.467  1.00  0.00    -0.474 C  
HETATM    3  O   UNL     1     -10.527  19.847  68.540  1.00  0.00    -0.423 OA 
HETATM    4  C   UNL     1     -10.541  17.786  67.348  1.00  0.00    -0.341 C  
HETATM    5  C   UNL     1     -10.510  17.031  68.458  1.00  0.00    -0.373 C  
HETATM    6  N   UNL     1     -10.551  15.648  68.500  1.00  0.00    -0.248 NA 
HETATM    7  C   UNL     1     -10.580  14.911  67.280  1.00  0.00    -0.272 A  
HETATM    8  C   UNL     1     -10.619  15.604  66.058  1.00  0.00    -0.336 A  
HETATM    9  C   UNL     1     -10.675  14.929  64.841  1.00  0.00    -0.426 A  
HETATM   10  C   UNL     1     -10.558  13.504  67.229  1.00  0.00    -0.263 A  
HETATM   11  C   UNL     1     -10.595  12.782  66.014  1.00  0.00    -0.268 A  
HETATM   12  C   UNL     1     -10.594  17.080  66.054  1.00  0.00    -0.206 C  
HETATM   13  C   UNL     1     -10.675  13.540  64.831  1.00  0.00    -0.381 A  
HETATM   14  O   UNL     1     -10.605  17.719  65.003  1.00  0.00    -0.487 OA 
HETATM   15  F   UNL     1     -10.768  12.940  63.635  1.00  0.00    -0.402 F  
ENDROOT
BRANCH   6  16
HETATM   16  C   UNL     1     -10.590  14.969  69.814  1.00  0.00    -0.215 C  
HETATM   17  C   UNL     1     -11.234  15.544  71.054  1.00  0.00    -0.419 C  
HETATM   18  C   UNL     1     -11.895  14.413  70.332  1.00  0.00    -0.381 C  
ENDBRANCH   6  16
BRANCH  11  19
HETATM   19  N   UNL     1     -10.466  11.402  66.031  1.00  0.00    -0.248 NA 
HETATM   20  N   UNL     1      -9.886   8.553  66.194  1.00  0.00    -0.447 NA 
HETATM   21  C   UNL     1     -10.236  10.635  64.793  1.00  0.00    -0.331 C  
HETATM   22  C   UNL     1      -9.341   9.418  65.127  1.00  0.00    -0.221 C  
HETATM   23  C   UNL     1     -10.209   9.366  67.386  1.00  0.00    -0.239 C  
HETATM   24  H   UNL     1      -9.260   7.779  66.417  1.00  0.00     0.000 HD 
HETATM   25  C   UNL     1     -11.102  10.594  67.086  1.00  0.00    -0.196 C  
ENDBRANCH  11  19
TORSDOF 2
ENDMDL
MODEL       20
REMARK 921   NORMALIZED FREE ENERGY PREDICTED BY IDOCK:   -6.59 KCAL/MOL
REMARK 922        TOTAL FREE ENERGY PREDICTED BY IDOCK:   -7.93 KCAL/MOL
REMARK 923 INTER-LIGAND FREE ENERGY PREDICTED BY IDOCK:   -7.45 KCAL/MOL
REMARK 924 INTRA-LIGAND FREE ENERGY PREDICTED BY IDOCK:   -0.48 KCAL/MOL
REMARK 927      BINDING AFFINITY PREDICTED BY RF-SCORE:    0.00 PKD
ROOT
HETATM    1  O   UNL     1     -12.059  13.592  62.963  1.00  0.00    -0.382 OA 
HETATM    2  C   UNL     1     -12.245  14.274  64.119  1.00  0.00    -0.378 C  
HETATM    3  O   UNL     1     -12.639  15.433  64.132  1.00  0.00    -0.627 OA 
HETATM    4  C   UNL     1     -11.944  13.502  65.339  1.00  0.00    -0.406 C  
HETATM    5  C   UNL     1     -12.079  14.084  66.542  1.00  0.00    -0.459 C  
HETATM    6  N   UNL     1     -11.874  13.472  67.766  1.00  0.00    -0.359 NA 
HETATM    7  C   UNL     1     -11.429  12.118  67.808  1.00  0.00    -0.332 A  
HETATM    8  C   UNL     1     -11.259  11.414  66.604  1.00  0.00    -0.298 A  
HETATM    9  C   UNL     1     -10.852  10.081  66.593  1.00  0.00    -0.058 A  
HETATM   10  C   UNL     1     -11.134  11.440  69.005  1.00  0.00    -0.300 A  
HETATM   11  C   UNL     1     -10.702  10.095  69.036  1.00  0.00    -0.221 A  
HETATM   12  C   UNL     1     -11.507  12.093  65.317  1.00  0.00    -0.336 C  
HETATM   13  C   UNL     1     -10.592   9.438  67.796  1.00  0.00    -0.258 A  
HETATM   14  O   UNL     1     -11.348  11.514  64.245  1.00  0.00    -0.323 OA 
HETATM   15  F   UNL     1     -10.240   8.145  67.732  1.00  0.00    -0.214 F  
ENDROOT
BRANCH   6  16
HETATM   16  C   UNL     1     -12.146  14.234  69.005  1.00  0.00    -0.285 C  
HETATM   17  C   UNL     1     -11.079  14.807  69.908  1.00  0.00    -0.266 C  
HETATM   18  C   UNL     1     -11.886  15.722  69.043  1.00  0.00    -0.367 C  
ENDBRANCH   6  16
BRANCH  11  19
HETATM   19  N   UNL     1     -10.329   9.521  70.242  1.00  0.00    -0.248 NA 
HETATM   20  N   UNL     1      -9.607   8.016  72.628  1.00  0.00    -0.230 NA 
HETATM   21  C   UNL     1     -11.219   9.551  71.417  1.00  0.00    -0.382 C  
HETATM   22  C   UNL     1     -11.010   8.248  72.226  1.00  0.00    -0.348 C  
HETATM   23  C   UNL     1      -8.724   8.098  71.446  1.00  0.00    -0.145 C  
HETATM   24  H   UNL     1      -9.494   7.135  73.129  1.00  0.00     0.000 HD 
HETATM   25  C   UNL     1      -8.909   9.389  70.612  1.00  0.00    -0.220 C  
ENDBRANCH  11  19
TORSDOF 2
ENDMDL
MODEL       21
REMARK 921   NORMALIZED FREE ENERGY PREDICTED BY IDOCK:   -6.56 KCAL/MOL
REMARK 922        TOTAL FREE ENERGY PREDICTED BY IDOCK:   -7.89 KCAL/MOL
REMARK 923 INTER-LIGAND FREE ENERGY PREDICTED BY IDOCK:   -7.29 KCAL/MOL
REMARK 924 INTRA-LIGAND FREE ENERGY PREDICTED BY IDOCK:   -0.60 KCAL/MOL
REMARK 927      BINDING AFFINITY PREDICTED BY RF-SCORE:    0.00 PKD
ROOT
HETATM    1  O   UNL     1     -11.450  13.991  64.291  1.00  0.00    -0.366 OA 
HETATM    2  C   UNL     1     -10.820  12.800  64.154  1.00  0.00    -0.406 C  
HETATM    3  O   UNL     1     -10.290  12.464  63.102  1.00  0.00    -0.302 OA 
HETATM    4  C   UNL     1     -10.821  11.963  65.368  1.00  0.00    -0.343 C  
HETATM    5  C   UNL     1     -10.237  10.755  65.342  1.00  0.00    -0.276 C  
HETATM    6  N   UNL     1     -10.126   9.884  66.412  1.00  0.00    -0.240 NA 
HETATM    7  C   UNL     1     -10.712  10.233  67.663  1.00  0.00    -0.288 A  
HETATM    8  C   UNL     1     -11.346  11.479  67.802  1.00  0.00    -0.364 A  
HETATM    9  C   UNL     1     -11.910  11.877  69.011  1.00  0.00    -0.368 A  
HETATM   10  C   UNL     1     -10.703   9.380  68.783  1.00  0.00    -0.200 A  
HETATM   11  C   UNL     1     -11.279   9.740  70.023  1.00  0.00    -0.251 A  
HETATM   12  C   UNL     1     -11.427  12.391  66.643  1.00  0.00    -0.370 C  
HETATM   13  C   UNL     1     -11.861  11.019  70.102  1.00  0.00    -0.357 A  
HETATM   14  O   UNL     1     -11.993  13.480  66.723  1.00  0.00    -0.382 OA 
HETATM   15  F   UNL     1     -12.385  11.466  71.253  1.00  0.00    -0.431 F  
ENDROOT
BRANCH   6  16
HETATM   16  C   UNL     1      -9.377   8.620  66.235  1.00  0.00    -0.220 C  
HETATM   17  C   UNL     1      -8.462   8.324  65.070  1.00  0.00    -0.141 C  
HETATM   18  C   UNL     1      -7.878   8.603  66.418  1.00  0.00    -0.099 C  
ENDBRANCH   6  16
BRANCH  11  19
HETATM   19  N   UNL     1     -11.327   8.813  71.053  1.00  0.00    -0.267 NA 
HETATM   20  N   UNL     1     -11.290   6.647  72.999  1.00  0.00    -0.475 NA 
HETATM   21  C   UNL     1     -12.595   8.186  71.468  1.00  0.00    -0.304 C  
HETATM   22  C   UNL     1     -12.302   6.738  71.927  1.00  0.00    -0.326 C  
HETATM   23  C   UNL     1     -10.067   7.376  72.601  1.00  0.00    -0.208 C  
HETATM   24  H   UNL     1     -11.092   5.681  73.258  1.00  0.00     0.000 HD 
HETATM   25  C   UNL     1     -10.326   8.829  72.134  1.00  0.00    -0.308 C  
ENDBRANCH  11  19
TORSDOF 2
ENDMDL
MODEL       22
REMARK 921   NORMALIZED FREE ENERGY PREDICTED BY IDOCK:   -6.52 KCAL/MOL
REMARK 922        TOTAL FREE ENERGY PREDICTED BY IDOCK:   -7.85 KCAL/MOL
REMARK 923 INTER-LIGAND FREE ENERGY PREDICTED BY IDOCK:   -7.46 KCAL/MOL
REMARK 924 INTRA-LIGAND FREE ENERGY PREDICTED BY IDOCK:   -0.39 KCAL/MOL
REMARK 927      BINDING AFFINITY PREDICTED BY RF-SCORE:    0.00 PKD
ROOT
HETATM    1  O   UNL     1     -13.534  12.425  72.511  1.00  0.00    -0.412 OA 
HETATM    2  C   UNL     1     -13.012  11.806  71.425  1.00  0.00    -0.306 C  
HETATM    3  O   UNL     1     -13.167  10.608  71.224  1.00  0.00    -0.351 OA 
HETATM    4  C   UNL     1     -12.262  12.694  70.517  1.00  0.00    -0.383 C  
HETATM    5  C   UNL     1     -11.688  12.184  69.416  1.00  0.00    -0.329 C  
HETATM    6  N   UNL     1     -10.994  12.901  68.457  1.00  0.00    -0.249 NA 
HETATM    7  C   UNL     1     -10.798  14.302  68.636  1.00  0.00    -0.253 A  
HETATM    8  C   UNL     1     -11.360  14.938  69.755  1.00  0.00    -0.314 A  
HETATM    9  C   UNL     1     -11.220  16.309  69.959  1.00  0.00    -0.324 A  
HETATM   10  C   UNL     1     -10.049  15.095  67.745  1.00  0.00    -0.230 A  
HETATM   11  C   UNL     1      -9.868  16.485  67.926  1.00  0.00    -0.240 A  
HETATM   12  C   UNL     1     -12.113  14.144  70.746  1.00  0.00    -0.349 C  
HETATM   13  C   UNL     1     -10.494  17.063  69.046  1.00  0.00    -0.337 A  
HETATM   14  O   UNL     1     -12.601  14.664  71.747  1.00  0.00    -0.314 OA 
HETATM   15  F   UNL     1     -10.421  18.384  69.269  1.00  0.00    -0.301 F  
ENDROOT
BRANCH   6  16
HETATM   16  C   UNL     1     -10.491  12.197  67.257  1.00  0.00    -0.218 C  
HETATM   17  C   UNL     1     -10.910  10.805  66.844  1.00  0.00    -0.288 C  
HETATM   18  C   UNL     1     -11.405  11.987  66.073  1.00  0.00    -0.398 C  
ENDBRANCH   6  16
BRANCH  11  19
HETATM   19  N   UNL     1      -9.035  17.186  67.069  1.00  0.00    -0.223 NA 
HETATM   20  N   UNL     1      -7.098  18.735  65.541  1.00  0.00    -0.510 NA 
HETATM   21  C   UNL     1      -9.426  18.495  66.513  1.00  0.00    -0.320 C  
HETATM   22  C   UNL     1      -8.155  19.364  66.359  1.00  0.00    -0.318 C  
HETATM   23  C   UNL     1      -6.802  17.381  66.055  1.00  0.00    -0.185 C  
HETATM   24  H   UNL     1      -6.261  19.314  65.485  1.00  0.00     0.000 HD 
HETATM   25  C   UNL     1      -8.053  16.485  66.223  1.00  0.00    -0.306 C  
ENDBRANCH  11  19
TORSDOF 2
ENDMDL
MODEL       23
REMARK 921   NORMALIZED FREE ENERGY PREDICTED BY IDOCK:   -6.51 KCAL/MOL
REMARK 922        TOTAL FREE ENERGY PREDICTED BY IDOCK:   -7.83 KCAL/MOL
REMARK 923 INTER-LIGAND FREE ENERGY PREDICTED BY IDOCK:   -7.55 KCAL/MOL
REMARK 924 INTRA-LIGAND FREE ENERGY PREDICTED BY IDOCK:   -0.28 KCAL/MOL
REMARK 927      BINDING AFFINITY PREDICTED BY RF-SCORE:    0.00 PKD
ROOT
HETATM    1  O   UNL     1      -9.496   8.606  65.456  1.00  0.00    -0.123 OA 
HETATM    2  C   UNL     1      -9.421   9.933  65.197  1.00  0.00    -0.275 C  
HETATM    3  O   UNL     1      -8.931  10.366  64.161  1.00  0.00    -0.196 OA 
HETATM    4  C   UNL     1      -9.984  10.795  66.253  1.00  0.00    -0.272 C  
HETATM    5  C   UNL     1      -9.950  12.130  66.108  1.00  0.00    -0.233 C  
HETATM    6  N   UNL     1     -10.475  13.056  66.993  1.00  0.00    -0.246 NA 
HETATM    7  C   UNL     1     -11.070  12.605  68.207  1.00  0.00    -0.261 A  
HETATM    8  C   UNL     1     -11.162  11.226  68.457  1.00  0.00    -0.311 A  
HETATM    9  C   UNL     1     -11.759  10.735  69.616  1.00  0.00    -0.395 A  
HETATM   10  C   UNL     1     -11.570  13.479  69.191  1.00  0.00    -0.359 A  
HETATM   11  C   UNL     1     -12.167  13.022  70.388  1.00  0.00    -0.310 A  
HETATM   12  C   UNL     1     -10.609  10.267  67.480  1.00  0.00    -0.268 C  
HETATM   13  C   UNL     1     -12.262  11.627  70.554  1.00  0.00    -0.361 A  
HETATM   14  O   UNL     1     -10.652   9.054  67.677  1.00  0.00    -0.257 OA 
HETATM   15  F   UNL     1     -12.861  11.103  71.634  1.00  0.00    -0.468 F  
ENDROOT
BRANCH   6  16
HETATM   16  C   UNL     1     -10.425  14.493  66.643  1.00  0.00    -0.274 C  
HETATM   17  C   UNL     1     -10.103  15.027  65.267  1.00  0.00    -0.378 C  
HETATM   18  C   UNL     1     -11.508  15.091  65.777  1.00  0.00    -0.236 C  
ENDBRANCH   6  16
BRANCH  11  19
HETATM   19  N   UNL     1     -12.544  13.935  71.360  1.00  0.00    -0.360 NA 
HETATM   20  N   UNL     1     -13.454  16.044  73.151  1.00  0.00    -0.603 NA 
HETATM   21  C   UNL     1     -11.553  14.794  72.035  1.00  0.00    -0.095 C  
HETATM   22  C   UNL     1     -12.217  16.156  72.351  1.00  0.00    -0.507 C  
HETATM   23  C   UNL     1     -14.385  15.093  72.507  1.00  0.00    -0.218 C  
HETATM   24  H   UNL     1     -13.888  16.952  73.315  1.00  0.00     0.000 HD 
HETATM   25  C   UNL     1     -13.752  13.721  72.175  1.00  0.00    -0.540 C  
ENDBRANCH  11  19
TORSDOF 2
ENDMDL
MODEL       24
REMARK 921   NORMALIZED FREE ENERGY PREDICTED BY IDOCK:   -6.50 KCAL/MOL
REMARK 922        TOTAL FREE ENERGY PREDICTED BY IDOCK:   -7.83 KCAL/MOL
REMARK 923 INTER-LIGAND FREE ENERGY PREDICTED BY IDOCK:   -7.27 KCAL/MOL
REMARK 924 INTRA-LIGAND FREE ENERGY PREDICTED BY IDOCK:   -0.56 KCAL/MOL
REMARK 927      BINDING AFFINITY PREDICTED BY RF-SCORE:    0.00 PKD
ROOT
HETATM    1  O   UNL     1     -11.190   7.252  72.957  1.00  0.00    -0.311 OA 
HETATM    2  C   UNL     1     -10.841   6.808  71.726  1.00  0.00    -0.229 C  
HETATM    3  O   UNL     1     -10.511   5.645  71.525  1.00  0.00    -0.223 OA 
HETATM    4  C   UNL     1     -10.904   7.831  70.666  1.00  0.00    -0.241 C  
HETATM    5  C   UNL     1     -10.565   7.504  69.409  1.00  0.00    -0.223 C  
HETATM    6  N   UNL     1     -10.617   8.346  68.311  1.00  0.00    -0.158 NA 
HETATM    7  C   UNL     1     -11.009   9.705  68.487  1.00  0.00    -0.108 A  
HETATM    8  C   UNL     1     -11.388  10.151  69.763  1.00  0.00    -0.312 A  
HETATM    9  C   UNL     1     -11.805  11.462  69.981  1.00  0.00    -0.440 A  
HETATM   10  C   UNL     1     -11.026  10.644  67.438  1.00  0.00    -0.361 A  
HETATM   11  C   UNL     1     -11.426  11.987  67.621  1.00  0.00    -0.322 A  
HETATM   12  C   UNL     1     -11.341   9.219  70.908  1.00  0.00    -0.308 C  
HETATM   13  C   UNL     1     -11.832  12.355  68.918  1.00  0.00    -0.301 A  
HETATM   14  O   UNL     1     -11.646   9.581  72.043  1.00  0.00    -0.311 OA 
HETATM   15  F   UNL     1     -12.277  13.594  69.173  1.00  0.00    -0.356 F  
ENDROOT
BRANCH   6  16
HETATM   16  C   UNL     1     -10.285   7.804  66.974  1.00  0.00    -0.305 C  
HETATM   17  C   UNL     1      -9.161   6.831  66.701  1.00  0.00    -0.184 C  
HETATM   18  C   UNL     1     -10.579   6.357  66.657  1.00  0.00    -0.253 C  
ENDBRANCH   6  16
BRANCH  11  19
HETATM   19  N   UNL     1     -11.320  12.884  66.570  1.00  0.00    -0.303 NA 
HETATM   20  N   UNL     1     -11.348  14.942  64.509  1.00  0.00    -0.626 NA 
HETATM   21  C   UNL     1     -11.834  12.561  65.226  1.00  0.00    -0.413 C  
HETATM   22  C   UNL     1     -12.355  13.863  64.572  1.00  0.00    -0.372 C  
HETATM   23  C   UNL     1     -10.771  15.171  65.850  1.00  0.00    -0.334 C  
HETATM   24  H   UNL     1     -11.729  15.798  64.105  1.00  0.00     0.000 HD 
HETATM   25  C   UNL     1     -10.242  13.888  66.534  1.00  0.00    -0.280 C  
ENDBRANCH  11  19
TORSDOF 2
ENDMDL
MODEL       25
REMARK 921   NORMALIZED FREE ENERGY PREDICTED BY IDOCK:   -6.47 KCAL/MOL
REMARK 922        TOTAL FREE ENERGY PREDICTED BY IDOCK:   -7.79 KCAL/MOL
REMARK 923 INTER-LIGAND FREE ENERGY PREDICTED BY IDOCK:   -7.23 KCAL/MOL
REMARK 924 INTRA-LIGAND FREE ENERGY PREDICTED BY IDOCK:   -0.56 KCAL/MOL
REMARK 927      BINDING AFFINITY PREDICTED BY RF-SCORE:    0.00 PKD
ROOT
HETATM    1  O   UNL     1     -14.101  14.444  72.541  1.00  0.00    -0.517 OA 
HETATM    2  C   UNL     1     -13.435  14.709  71.391  1.00  0.00    -0.392 C  
HETATM    3  O   UNL     1     -13.380  15.838  70.919  1.00  0.00    -0.576 OA 
HETATM    4  C   UNL     1     -12.786  13.537  70.776  1.00  0.00    -0.316 C  
HETATM    5  C   UNL     1     -12.109  13.682  69.625  1.00  0.00    -0.321 C  
HETATM    6  N   UNL     1     -11.418  12.684  68.960  1.00  0.00    -0.284 NA 
HETATM    7  C   UNL     1     -11.438  11.355  69.475  1.00  0.00    -0.312 A  
HETATM    8  C   UNL     1     -12.114  11.093  70.678  1.00  0.00    -0.477 A  
HETATM    9  C   UNL     1     -12.139   9.817  71.236  1.00  0.00    -0.470 A  
HETATM   10  C   UNL     1     -10.818  10.269  68.828  1.00  0.00    -0.265 A  
HETATM   11  C   UNL     1     -10.835   8.956  69.352  1.00  0.00    -0.119 A  
HETATM   12  C   UNL     1     -12.823  12.188  71.371  1.00  0.00    -0.276 C  
HETATM   13  C   UNL     1     -11.496   8.774  70.581  1.00  0.00    -0.231 A  
HETATM   14  O   UNL     1     -13.443  11.990  72.414  1.00  0.00    -0.391 OA 
HETATM   15  F   UNL     1     -11.518   7.574  71.179  1.00  0.00    -0.260 F  
ENDROOT
BRANCH   6  16
HETATM   16  C   UNL     1     -10.655  13.029  67.740  1.00  0.00    -0.226 C  
HETATM   17  C   UNL     1     -11.217  12.986  66.339  1.00  0.00    -0.332 C  
HETATM   18  C   UNL     1     -10.967  14.306  66.996  1.00  0.00    -0.305 C  
ENDBRANCH   6  16
BRANCH  11  19
HETATM   19  N   UNL     1     -10.295   7.915  68.613  1.00  0.00    -0.206 NA 
HETATM   20  N   UNL     1      -9.402   5.534  67.193  1.00  0.00    -0.114 NA 
HETATM   21  C   UNL     1      -9.038   7.256  69.016  1.00  0.00    -0.133 C  
HETATM   22  C   UNL     1      -9.119   5.761  68.626  1.00  0.00    -0.114 C  
HETATM   23  C   UNL     1     -10.605   6.293  66.791  1.00  0.00    -0.265 C  
HETATM   24  H   UNL     1      -9.484   4.542  66.971  1.00  0.00     0.000 HD 
HETATM   25  C   UNL     1     -10.557   7.793  67.169  1.00  0.00    -0.331 C  
ENDBRANCH  11  19
TORSDOF 2
ENDMDL
MODEL       26
REMARK 921   NORMALIZED FREE ENERGY PREDICTED BY IDOCK:   -6.43 KCAL/MOL
REMARK 922        TOTAL FREE ENERGY PREDICTED BY IDOCK:   -7.74 KCAL/MOL
REMARK 923 INTER-LIGAND FREE ENERGY PREDICTED BY IDOCK:   -7.56 KCAL/MOL
REMARK 924 INTRA-LIGAND FREE ENERGY PREDICTED BY IDOCK:   -0.18 KCAL/MOL
REMARK 927      BINDING AFFINITY PREDICTED BY RF-SCORE:    0.00 PKD
ROOT
HETATM    1  O   UNL     1     -12.773  13.975  63.017  1.00  0.00    -0.586 OA 
HETATM    2  C   UNL     1     -11.963  13.204  63.781  1.00  0.00    -0.508 C  
HETATM    3  O   UNL     1     -11.973  11.981  63.707  1.00  0.00    -0.445 OA 
HETATM    4  C   UNL     1     -11.076  13.957  64.686  1.00  0.00    -0.389 C  
HETATM    5  C   UNL     1     -10.240  13.293  65.501  1.00  0.00    -0.290 C  
HETATM    6  N   UNL     1      -9.327  13.866  66.368  1.00  0.00    -0.245 NA 
HETATM    7  C   UNL     1      -9.263  15.286  66.481  1.00  0.00    -0.290 A  
HETATM    8  C   UNL     1     -10.093  16.078  65.670  1.00  0.00    -0.384 A  
HETATM    9  C   UNL     1     -10.049  17.469  65.724  1.00  0.00    -0.119 A  
HETATM   10  C   UNL     1      -8.411  15.950  67.383  1.00  0.00    -0.192 A  
HETATM   11  C   UNL     1      -8.349  17.358  67.482  1.00  0.00    -0.206 A  
HETATM   12  C   UNL     1     -11.041  15.431  64.741  1.00  0.00    -0.403 C  
HETATM   13  C   UNL     1      -9.178  18.090  66.610  1.00  0.00    -0.284 A  
HETATM   14  O   UNL     1     -11.797  16.093  64.032  1.00  0.00    -0.876 OA 
HETATM   15  F   UNL     1      -9.147  19.431  66.596  1.00  0.00    -0.294 F  
ENDROOT
BRANCH   6  16
HETATM   16  C   UNL     1      -8.420  12.988  67.140  1.00  0.00    -0.174 C  
HETATM   17  C   UNL     1      -8.874  11.995  68.183  1.00  0.00    -0.182 C  
HETATM   18  C   UNL     1      -8.390  11.505  66.856  1.00  0.00    -0.166 C  
ENDBRANCH   6  16
BRANCH  11  19
HETATM   19  N   UNL     1      -7.565  17.945  68.463  1.00  0.00    -0.280 NA 
HETATM   20  N   UNL     1      -5.702  19.259  70.276  1.00  0.00    -0.242 NA 
HETATM   21  C   UNL     1      -6.762  17.132  69.396  1.00  0.00    -0.199 C  
HETATM   22  C   UNL     1      -5.465  17.906  69.732  1.00  0.00    -0.216 C  
HETATM   23  C   UNL     1      -6.597  20.014  69.374  1.00  0.00    -0.313 C  
HETATM   24  H   UNL     1      -4.831  19.757  70.456  1.00  0.00     0.000 HD 
HETATM   25  C   UNL     1      -7.905  19.268  69.016  1.00  0.00    -0.278 C  
ENDBRANCH  11  19
TORSDOF 2
ENDMDL
MODEL       27
REMARK 921   NORMALIZED FREE ENERGY PREDICTED BY IDOCK:   -6.32 KCAL/MOL
REMARK 922        TOTAL FREE ENERGY PREDICTED BY IDOCK:   -7.63 KCAL/MOL
REMARK 923 INTER-LIGAND FREE ENERGY PREDICTED BY IDOCK:   -7.10 KCAL/MOL
REMARK 924 INTRA-LIGAND FREE ENERGY PREDICTED BY IDOCK:   -0.53 KCAL/MOL
REMARK 927      BINDING AFFINITY PREDICTED BY RF-SCORE:    0.00 PKD
ROOT
HETATM    1  O   UNL     1     -11.347   9.670  69.504  1.00  0.00    -0.167 OA 
HETATM    2  C   UNL     1     -11.155   9.915  68.186  1.00  0.00    -0.156 C  
HETATM    3  O   UNL     1     -11.159   9.017  67.352  1.00  0.00    -0.026 OA 
HETATM    4  C   UNL     1     -10.956  11.337  67.850  1.00  0.00    -0.302 C  
HETATM    5  C   UNL     1     -10.742  11.693  66.573  1.00  0.00    -0.272 C  
HETATM    6  N   UNL     1     -10.582  12.987  66.108  1.00  0.00    -0.273 NA 
HETATM    7  C   UNL     1     -10.585  14.070  67.034  1.00  0.00    -0.279 A  
HETATM    8  C   UNL     1     -10.804  13.808  68.397  1.00  0.00    -0.268 A  
HETATM    9  C   UNL     1     -10.843  14.835  69.337  1.00  0.00    -0.269 A  
HETATM   10  C   UNL     1     -10.364  15.408  66.656  1.00  0.00    -0.281 A  
HETATM   11  C   UNL     1     -10.378  16.476  67.582  1.00  0.00    -0.291 A  
HETATM   12  C   UNL     1     -10.992  12.417  68.854  1.00  0.00    -0.223 C  
HETATM   13  C   UNL     1     -10.644  16.146  68.924  1.00  0.00    -0.275 A  
HETATM   14  O   UNL     1     -11.165  12.150  70.041  1.00  0.00    -0.041 OA 
HETATM   15  F   UNL     1     -10.730  17.101  69.863  1.00  0.00    -0.306 F  
ENDROOT
BRANCH   6  16
HETATM   16  C   UNL     1     -10.436  13.214  64.653  1.00  0.00    -0.392 C  
HETATM   17  C   UNL     1     -10.232  12.119  63.633  1.00  0.00    -0.459 C  
HETATM   18  C   UNL     1     -11.552  12.818  63.716  1.00  0.00    -0.548 C  
ENDBRANCH   6  16
BRANCH  11  19
HETATM   19  N   UNL     1     -10.051  17.755  67.159  1.00  0.00    -0.324 NA 
HETATM   20  N   UNL     1      -9.598  20.553  66.488  1.00  0.00    -0.657 NA 
HETATM   21  C   UNL     1     -10.484  18.267  65.846  1.00  0.00    -0.307 C  
HETATM   22  C   UNL     1     -10.752  19.786  65.973  1.00  0.00    -0.388 C  
HETATM   23  C   UNL     1      -9.116  19.952  67.749  1.00  0.00    -0.330 C  
HETATM   24  H   UNL     1      -9.814  21.544  66.593  1.00  0.00     0.000 HD 
HETATM   25  C   UNL     1      -8.841  18.432  67.657  1.00  0.00    -0.263 C  
ENDBRANCH  11  19
TORSDOF 2
ENDMDL
MODEL       28
REMARK 921   NORMALIZED FREE ENERGY PREDICTED BY IDOCK:   -6.31 KCAL/MOL
REMARK 922        TOTAL FREE ENERGY PREDICTED BY IDOCK:   -7.62 KCAL/MOL
REMARK 923 INTER-LIGAND FREE ENERGY PREDICTED BY IDOCK:   -7.57 KCAL/MOL
REMARK 924 INTRA-LIGAND FREE ENERGY PREDICTED BY IDOCK:   -0.04 KCAL/MOL
REMARK 927      BINDING AFFINITY PREDICTED BY RF-SCORE:    0.00 PKD
ROOT
HETATM    1  O   UNL     1     -10.413  18.702  65.650  1.00  0.00    -0.603 OA 
HETATM    2  C   UNL     1     -10.614  18.477  66.970  1.00  0.00    -0.380 C  
HETATM    3  O   UNL     1     -10.715  19.393  67.777  1.00  0.00    -0.428 OA 
HETATM    4  C   UNL     1     -10.708  17.052  67.340  1.00  0.00    -0.240 C  
HETATM    5  C   UNL     1     -10.893  16.712  68.626  1.00  0.00    -0.344 C  
HETATM    6  N   UNL     1     -11.041  15.424  69.110  1.00  0.00    -0.249 NA 
HETATM    7  C   UNL     1     -10.947  14.322  68.211  1.00  0.00    -0.247 A  
HETATM    8  C   UNL     1     -10.759  14.566  66.841  1.00  0.00    -0.288 A  
HETATM    9  C   UNL     1     -10.688  13.525  65.919  1.00  0.00    -0.279 A  
HETATM   10  C   UNL     1     -11.021  12.979  68.628  1.00  0.00    -0.297 A  
HETATM   11  C   UNL     1     -10.936  11.893  67.727  1.00  0.00    -0.228 A  
HETATM   12  C   UNL     1     -10.625  15.955  66.358  1.00  0.00    -0.297 C  
HETATM   13  C   UNL     1     -10.788  12.213  66.364  1.00  0.00    -0.271 A  
HETATM   14  O   UNL     1     -10.438  16.205  65.168  1.00  0.00    -0.560 OA 
HETATM   15  F   UNL     1     -10.752  11.249  65.432  1.00  0.00    -0.318 F  
ENDROOT
BRANCH   6  16
HETATM   16  C   UNL     1     -11.319  15.225  70.550  1.00  0.00    -0.309 C  
HETATM   17  C   UNL     1     -11.760  16.319  71.495  1.00  0.00    -0.467 C  
HETATM   18  C   UNL     1     -12.742  15.280  71.054  1.00  0.00    -0.487 C  
ENDBRANCH   6  16
BRANCH  11  19
HETATM   19  N   UNL     1     -10.912  10.596  68.215  1.00  0.00    -0.242 NA 
HETATM   20  N   UNL     1     -10.547   7.936  69.344  1.00  0.00    -0.264 NA 
HETATM   21  C   UNL     1     -10.773   9.436  67.315  1.00  0.00    -0.188 C  
HETATM   22  C   UNL     1      -9.965   8.338  68.047  1.00  0.00    -0.185 C  
HETATM   23  C   UNL     1     -10.777   9.130  70.185  1.00  0.00    -0.233 C  
HETATM   24  H   UNL     1      -9.977   7.237  69.819  1.00  0.00     0.000 HD 
HETATM   25  C   UNL     1     -11.581  10.250  69.482  1.00  0.00    -0.168 C  
ENDBRANCH  11  19
TORSDOF 2
ENDMDL
MODEL       29
REMARK 921   NORMALIZED FREE ENERGY PREDICTED BY IDOCK:   -6.31 KCAL/MOL
REMARK 922        TOTAL FREE ENERGY PREDICTED BY IDOCK:   -7.61 KCAL/MOL
REMARK 923 INTER-LIGAND FREE ENERGY PREDICTED BY IDOCK:   -7.57 KCAL/MOL
REMARK 924 INTRA-LIGAND FREE ENERGY PREDICTED BY IDOCK:   -0.04 KCAL/MOL
REMARK 927      BINDING AFFINITY PREDICTED BY RF-SCORE:    0.00 PKD
ROOT
HETATM    1  O   UNL     1     -13.164  15.924  71.379  1.00  0.00    -0.475 OA 
HETATM    2  C   UNL     1     -13.198  14.679  71.910  1.00  0.00    -0.349 C  
HETATM    3  O   UNL     1     -13.627  14.465  73.037  1.00  0.00    -0.619 OA 
HETATM    4  C   UNL     1     -12.690  13.620  71.018  1.00  0.00    -0.408 C  
HETATM    5  C   UNL     1     -12.663  12.348  71.448  1.00  0.00    -0.243 C  
HETATM    6  N   UNL     1     -12.255  11.251  70.709  1.00  0.00    -0.377 NA 
HETATM    7  C   UNL     1     -11.760  11.442  69.386  1.00  0.00    -0.338 A  
HETATM    8  C   UNL     1     -11.748  12.735  68.836  1.00  0.00    -0.370 A  
HETATM    9  C   UNL     1     -11.300  12.969  67.538  1.00  0.00    -0.346 A  
HETATM   10  C   UNL     1     -11.265  10.392  68.589  1.00  0.00    -0.305 A  
HETATM   11  C   UNL     1     -10.785  10.591  67.274  1.00  0.00    -0.277 A  
HETATM   12  C   UNL     1     -12.211  13.878  69.647  1.00  0.00    -0.321 C  
HETATM   13  C   UNL     1     -10.840  11.905  66.773  1.00  0.00    -0.266 A  
HETATM   14  O   UNL     1     -12.194  15.026  69.206  1.00  0.00    -0.261 OA 
HETATM   15  F   UNL     1     -10.456  12.178  65.517  1.00  0.00    -0.261 F  
ENDROOT
BRANCH   6  16
HETATM   16  C   UNL     1     -12.364   9.901  71.306  1.00  0.00    -0.381 C  
HETATM   17  C   UNL     1     -13.194   9.570  72.524  1.00  0.00    -0.356 C  
HETATM   18  C   UNL     1     -13.653   9.124  71.172  1.00  0.00    -0.179 C  
ENDBRANCH   6  16
BRANCH  11  19
HETATM   19  N   UNL     1     -10.215   9.532  66.584  1.00  0.00    -0.247 NA 
HETATM   20  N   UNL     1      -8.748   7.350  65.333  1.00  0.00    -0.343 NA 
HETATM   21  C   UNL     1      -9.694   9.697  65.214  1.00  0.00    -0.260 C  
HETATM   22  C   UNL     1      -8.468   8.770  65.039  1.00  0.00    -0.175 C  
HETATM   23  C   UNL     1      -9.370   7.224  66.668  1.00  0.00    -0.171 C  
HETATM   24  H   UNL     1      -7.916   6.768  65.242  1.00  0.00     0.000 HD 
HETATM   25  C   UNL     1     -10.600   8.140  66.877  1.00  0.00    -0.241 C  
ENDBRANCH  11  19
TORSDOF 2
ENDMDL
MODEL       30
REMARK 921   NORMALIZED FREE ENERGY PREDICTED BY IDOCK:   -6.30 KCAL/MOL
REMARK 922        TOTAL FREE ENERGY PREDICTED BY IDOCK:   -7.60 KCAL/MOL
REMARK 923 INTER-LIGAND FREE ENERGY PREDICTED BY IDOCK:   -7.04 KCAL/MOL
REMARK 924 INTRA-LIGAND FREE ENERGY PREDICTED BY IDOCK:   -0.57 KCAL/MOL
REMARK 927      BINDING AFFINITY PREDICTED BY RF-SCORE:    0.00 PKD
ROOT
HETATM    1  O   UNL     1      -9.579   4.658  68.641  1.00  0.00    -0.146 OA 
HETATM    2  C   UNL     1     -10.047   5.580  69.515  1.00  0.00    -0.234 C  
HETATM    3  O   UNL     1     -10.266   5.309  70.689  1.00  0.00    -0.226 OA 
HETATM    4  C   UNL     1     -10.257   6.921  68.937  1.00  0.00    -0.184 C  
HETATM    5  C   UNL     1     -10.732   7.910  69.710  1.00  0.00    -0.233 C  
HETATM    6  N   UNL     1     -10.937   9.221  69.315  1.00  0.00    -0.146 NA 
HETATM    7  C   UNL     1     -10.684   9.593  67.963  1.00  0.00    -0.232 A  
HETATM    8  C   UNL     1     -10.180   8.634  67.068  1.00  0.00    -0.360 A  
HETATM    9  C   UNL     1      -9.891   8.956  65.744  1.00  0.00    -0.106 A  
HETATM   10  C   UNL     1     -10.927  10.886  67.461  1.00  0.00    -0.352 A  
HETATM   11  C   UNL     1     -10.664  11.247  66.120  1.00  0.00    -0.250 A  
HETATM   12  C   UNL     1      -9.954   7.250  67.531  1.00  0.00    -0.169 C  
HETATM   13  C   UNL     1     -10.121  10.248  65.291  1.00  0.00    -0.289 A  
HETATM   14  O   UNL     1      -9.533   6.380  66.770  1.00  0.00    -0.141 OA 
HETATM   15  F   UNL     1      -9.790  10.515  64.018  1.00  0.00    -0.299 F  
ENDROOT
BRANCH   6  16
HETATM   16  C   UNL     1     -11.393  10.210  70.317  1.00  0.00    -0.315 C  
HETATM   17  C   UNL     1     -12.837  10.438  70.698  1.00  0.00    -0.393 C  
HETATM   18  C   UNL     1     -11.922   9.738  71.651  1.00  0.00    -0.454 C  
ENDBRANCH   6  16
BRANCH  11  19
HETATM   19  N   UNL     1     -11.023  12.507  65.665  1.00  0.00    -0.279 NA 
HETATM   20  N   UNL     1     -11.590  15.085  64.437  1.00  0.00    -0.648 NA 
HETATM   21  C   UNL     1     -10.424  13.730  66.232  1.00  0.00    -0.291 C  
HETATM   22  C   UNL     1     -10.308  14.787  65.108  1.00  0.00    -0.410 C  
HETATM   23  C   UNL     1     -12.221  13.831  63.975  1.00  0.00    -0.380 C  
HETATM   24  H   UNL     1     -11.478  15.759  63.679  1.00  0.00     0.000 HD 
HETATM   25  C   UNL     1     -12.350  12.750  65.075  1.00  0.00    -0.499 C  
ENDBRANCH  11  19
TORSDOF 2
ENDMDL
MODEL       31
REMARK 921   NORMALIZED FREE ENERGY PREDICTED BY IDOCK:   -6.27 KCAL/MOL
REMARK 922        TOTAL FREE ENERGY PREDICTED BY IDOCK:   -7.56 KCAL/MOL
REMARK 923 INTER-LIGAND FREE ENERGY PREDICTED BY IDOCK:   -7.09 KCAL/MOL
REMARK 924 INTRA-LIGAND FREE ENERGY PREDICTED BY IDOCK:   -0.47 KCAL/MOL
REMARK 927      BINDING AFFINITY PREDICTED BY RF-SCORE:    0.00 PKD
ROOT
HETATM    1  O   UNL     1     -11.102   9.420  68.880  1.00  0.00    -0.112 OA 
HETATM    2  C   UNL     1     -11.679  10.293  69.740  1.00  0.00    -0.191 C  
HETATM    3  O   UNL     1     -12.366   9.918  70.682  1.00  0.00    -0.273 OA 
HETATM    4  C   UNL     1     -11.401  11.712  69.449  1.00  0.00    -0.342 C  
HETATM    5  C   UNL     1     -11.935  12.665  70.229  1.00  0.00    -0.284 C  
HETATM    6  N   UNL     1     -11.727  14.028  70.101  1.00  0.00    -0.277 NA 
HETATM    7  C   UNL     1     -10.923  14.517  69.030  1.00  0.00    -0.257 A  
HETATM    8  C   UNL     1     -10.313  13.603  68.156  1.00  0.00    -0.245 A  
HETATM    9  C   UNL     1      -9.497  14.030  67.111  1.00  0.00    -0.241 A  
HETATM   10  C   UNL     1     -10.713  15.888  68.788  1.00  0.00    -0.265 A  
HETATM   11  C   UNL     1      -9.907  16.362  67.729  1.00  0.00    -0.239 A  
HETATM   12  C   UNL     1     -10.541  12.155  68.336  1.00  0.00    -0.226 C  
HETATM   13  C   UNL     1      -9.294  15.390  66.917  1.00  0.00    -0.236 A  
HETATM   14  O   UNL     1     -10.040  11.328  67.577  1.00  0.00    -0.180 OA 
HETATM   15  F   UNL     1      -8.469  15.747  65.920  1.00  0.00    -0.325 F  
ENDROOT
BRANCH   6  16
HETATM   16  C   UNL     1     -12.327  14.943  71.097  1.00  0.00    -0.324 C  
HETATM   17  C   UNL     1     -13.770  15.390  71.088  1.00  0.00    -0.497 C  
HETATM   18  C   UNL     1     -13.306  14.406  72.115  1.00  0.00    -0.486 C  
ENDBRANCH   6  16
BRANCH  11  19
HETATM   19  N   UNL     1      -9.826  17.724  67.484  1.00  0.00    -0.295 NA 
HETATM   20  N   UNL     1      -9.949  20.613  67.136  1.00  0.00    -0.485 NA 
HETATM   21  C   UNL     1     -10.108  18.285  66.149  1.00  0.00    -0.346 C  
HETATM   22  C   UNL     1     -10.758  19.678  66.328  1.00  0.00    -0.419 C  
HETATM   23  C   UNL     1      -9.588  19.984  68.425  1.00  0.00    -0.236 C  
HETATM   24  H   UNL     1     -10.416  21.510  67.266  1.00  0.00     0.000 HD 
HETATM   25  C   UNL     1      -8.938  18.587  68.282  1.00  0.00    -0.310 C  
ENDBRANCH  11  19
TORSDOF 2
ENDMDL
MODEL       32
REMARK 921   NORMALIZED FREE ENERGY PREDICTED BY IDOCK:   -6.24 KCAL/MOL
REMARK 922        TOTAL FREE ENERGY PREDICTED BY IDOCK:   -7.53 KCAL/MOL
REMARK 923 INTER-LIGAND FREE ENERGY PREDICTED BY IDOCK:   -7.30 KCAL/MOL
REMARK 924 INTRA-LIGAND FREE ENERGY PREDICTED BY IDOCK:   -0.23 KCAL/MOL
REMARK 927      BINDING AFFINITY PREDICTED BY RF-SCORE:    0.00 PKD
ROOT
HETATM    1  O   UNL     1     -12.053   6.046  72.222  1.00  0.00    -0.301 OA 
HETATM    2  C   UNL     1     -11.287   6.305  71.135  1.00  0.00    -0.303 C  
HETATM    3  O   UNL     1     -10.653   5.427  70.564  1.00  0.00    -0.271 OA 
HETATM    4  C   UNL     1     -11.295   7.715  70.703  1.00  0.00    -0.288 C  
HETATM    5  C   UNL     1     -10.558   8.089  69.645  1.00  0.00    -0.223 C  
HETATM    6  N   UNL     1     -10.502   9.362  69.104  1.00  0.00    -0.213 NA 
HETATM    7  C   UNL     1     -11.233  10.418  69.722  1.00  0.00    -0.293 A  
HETATM    8  C   UNL     1     -12.040  10.136  70.836  1.00  0.00    -0.453 A  
HETATM    9  C   UNL     1     -12.795  11.128  71.458  1.00  0.00    -0.542 A  
HETATM   10  C   UNL     1     -11.181  11.753  69.278  1.00  0.00    -0.318 A  
HETATM   11  C   UNL     1     -11.917  12.792  69.892  1.00  0.00    -0.298 A  
HETATM   12  C   UNL     1     -12.092   8.761  71.372  1.00  0.00    -0.307 C  
HETATM   13  C   UNL     1     -12.737  12.430  70.978  1.00  0.00    -0.223 A  
HETATM   14  O   UNL     1     -12.771   8.482  72.359  1.00  0.00    -0.369 OA 
HETATM   15  F   UNL     1     -13.511  13.340  71.588  1.00  0.00    -0.433 F  
ENDROOT
BRANCH   6  16
HETATM   16  C   UNL     1      -9.700   9.588  67.881  1.00  0.00    -0.147 C  
HETATM   17  C   UNL     1      -8.978   8.502  67.119  1.00  0.00    -0.145 C  
HETATM   18  C   UNL     1     -10.218   9.110  66.546  1.00  0.00    -0.322 C  
ENDBRANCH   6  16
BRANCH  11  19
HETATM   19  N   UNL     1     -11.740  14.101  69.471  1.00  0.00    -0.291 NA 
HETATM   20  N   UNL     1     -11.039  16.782  68.575  1.00  0.00    -0.317 NA 
HETATM   21  C   UNL     1     -11.855  15.234  70.407  1.00  0.00    -0.324 C  
HETATM   22  C   UNL     1     -10.859  16.335  69.972  1.00  0.00    -0.329 C  
HETATM   23  C   UNL     1     -11.028  15.615  67.668  1.00  0.00    -0.315 C  
HETATM   24  H   UNL     1     -10.349  17.482  68.305  1.00  0.00     0.000 HD 
HETATM   25  C   UNL     1     -12.012  14.492  68.076  1.00  0.00    -0.270 C  
ENDBRANCH  11  19
TORSDOF 2
ENDMDL
MODEL       33
REMARK 921   NORMALIZED FREE ENERGY PREDICTED BY IDOCK:   -6.20 KCAL/MOL
REMARK 922        TOTAL FREE ENERGY PREDICTED BY IDOCK:   -7.49 KCAL/MOL
REMARK 923 INTER-LIGAND FREE ENERGY PREDICTED BY IDOCK:   -7.02 KCAL/MOL
REMARK 924 INTRA-LIGAND FREE ENERGY PREDICTED BY IDOCK:   -0.47 KCAL/MOL
REMARK 927      BINDING AFFINITY PREDICTED BY RF-SCORE:    0.00 PKD
ROOT
HETATM    1  O   UNL     1     -11.159  19.591  64.958  1.00  0.00    -0.292 OA 
HETATM    2  C   UNL     1     -10.386  19.301  66.032  1.00  0.00    -0.475 C  
HETATM    3  O   UNL     1      -9.952  20.174  66.773  1.00  0.00    -0.422 OA 
HETATM    4  C   UNL     1     -10.130  17.863  66.230  1.00  0.00    -0.351 C  
HETATM    5  C   UNL     1      -9.363  17.461  67.256  1.00  0.00    -0.238 C  
HETATM    6  N   UNL     1      -9.073  16.149  67.587  1.00  0.00    -0.196 NA 
HETATM    7  C   UNL     1      -9.567  15.093  66.766  1.00  0.00    -0.245 A  
HETATM    8  C   UNL     1     -10.384  15.403  65.666  1.00  0.00    -0.395 A  
HETATM    9  C   UNL     1     -10.913  14.406  64.849  1.00  0.00    -0.416 A  
HETATM   10  C   UNL     1      -9.267  13.737  66.991  1.00  0.00    -0.256 A  
HETATM   11  C   UNL     1      -9.769  12.697  66.176  1.00  0.00    -0.251 A  
HETATM   12  C   UNL     1     -10.689  16.814  65.356  1.00  0.00    -0.189 C  
HETATM   13  C   UNL     1     -10.614  13.077  65.116  1.00  0.00    -0.312 A  
HETATM   14  O   UNL     1     -11.382  17.123  64.388  1.00  0.00    -1.115 OA 
HETATM   15  F   UNL     1     -11.179  12.154  64.323  1.00  0.00    -0.325 F  
ENDROOT
BRANCH   6  16
HETATM   16  C   UNL     1      -8.276  15.873  68.803  1.00  0.00    -0.196 C  
HETATM   17  C   UNL     1      -6.803  15.538  68.802  1.00  0.00    -0.116 C  
HETATM   18  C   UNL     1      -7.257  16.882  69.276  1.00  0.00    -0.171 C  
ENDBRANCH   6  16
BRANCH  11  19
HETATM   19  N   UNL     1      -9.352  11.393  66.391  1.00  0.00    -0.198 NA 
HETATM   20  N   UNL     1      -8.432   8.632  66.509  1.00  0.00    -0.111 NA 
HETATM   21  C   UNL     1     -10.310  10.320  66.715  1.00  0.00    -0.227 C  
HETATM   22  C   UNL     1      -9.801   8.999  66.090  1.00  0.00    -0.278 C  
HETATM   23  C   UNL     1      -7.512   9.764  66.274  1.00  0.00    -0.100 C  
HETATM   24  H   UNL     1      -8.110   7.777  66.056  1.00  0.00     0.000 HD 
HETATM   25  C   UNL     1      -7.994  11.103  66.884  1.00  0.00    -0.151 C  
ENDBRANCH  11  19
TORSDOF 2
ENDMDL
MODEL       34
REMARK 921   NORMALIZED FREE ENERGY PREDICTED BY IDOCK:   -6.19 KCAL/MOL
REMARK 922        TOTAL FREE ENERGY PREDICTED BY IDOCK:   -7.47 KCAL/MOL
REMARK 923 INTER-LIGAND FREE ENERGY PREDICTED BY IDOCK:   -6.95 KCAL/MOL
REMARK 924 INTRA-LIGAND FREE ENERGY PREDICTED BY IDOCK:   -0.53 KCAL/MOL
REMARK 927      BINDING AFFINITY PREDICTED BY RF-SCORE:    0.00 PKD
ROOT
HETATM    1  O   UNL     1      -8.968   9.149  68.076  1.00  0.00    -0.129 OA 
HETATM    2  C   UNL     1      -9.573   9.581  66.943  1.00  0.00    -0.165 C  
HETATM    3  O   UNL     1     -10.051   8.804  66.127  1.00  0.00    -0.269 OA 
HETATM    4  C   UNL     1      -9.611  11.047  66.791  1.00  0.00    -0.216 C  
HETATM    5  C   UNL     1     -10.175  11.586  65.698  1.00  0.00    -0.248 C  
HETATM    6  N   UNL     1     -10.318  12.939  65.443  1.00  0.00    -0.293 NA 
HETATM    7  C   UNL     1      -9.792  13.886  66.369  1.00  0.00    -0.295 A  
HETATM    8  C   UNL     1      -9.184  13.429  67.550  1.00  0.00    -0.219 A  
HETATM    9  C   UNL     1      -8.680  14.316  68.498  1.00  0.00    -0.175 A  
HETATM   10  C   UNL     1      -9.837  15.277  66.157  1.00  0.00    -0.333 A  
HETATM   11  C   UNL     1      -9.320  16.209  67.086  1.00  0.00    -0.215 A  
HETATM   12  C   UNL     1      -9.067  11.978  67.798  1.00  0.00    -0.187 C  
HETATM   13  C   UNL     1      -8.762  15.683  68.266  1.00  0.00    -0.174 A  
HETATM   14  O   UNL     1      -8.523  11.543  68.811  1.00  0.00    -0.137 OA 
HETATM   15  F   UNL     1      -8.296  16.494  69.227  1.00  0.00    -0.241 F  
ENDROOT
BRANCH   6  16
HETATM   16  C   UNL     1     -11.039  13.367  64.224  1.00  0.00    -0.373 C  
HETATM   17  C   UNL     1     -12.094  12.546  63.521  1.00  0.00    -0.653 C  
HETATM   18  C   UNL     1     -12.497  13.752  64.310  1.00  0.00    -0.308 C  
ENDBRANCH   6  16
BRANCH  11  19
HETATM   19  N   UNL     1      -9.303  17.558  66.768  1.00  0.00    -0.257 NA 
HETATM   20  N   UNL     1      -9.298  20.451  66.431  1.00  0.00    -0.625 NA 
HETATM   21  C   UNL     1     -10.473  18.223  66.163  1.00  0.00    -0.383 C  
HETATM   22  C   UNL     1     -10.533  19.680  66.680  1.00  0.00    -0.497 C  
HETATM   23  C   UNL     1      -8.129  19.712  66.951  1.00  0.00    -0.287 C  
HETATM   24  H   UNL     1      -9.353  21.396  66.812  1.00  0.00     0.000 HD 
HETATM   25  C   UNL     1      -8.039  18.248  66.455  1.00  0.00    -0.269 C  
ENDBRANCH  11  19
TORSDOF 2
ENDMDL
MODEL       35
REMARK 921   NORMALIZED FREE ENERGY PREDICTED BY IDOCK:   -6.16 KCAL/MOL
REMARK 922        TOTAL FREE ENERGY PREDICTED BY IDOCK:   -7.45 KCAL/MOL
REMARK 923 INTER-LIGAND FREE ENERGY PREDICTED BY IDOCK:   -6.92 KCAL/MOL
REMARK 924 INTRA-LIGAND FREE ENERGY PREDICTED BY IDOCK:   -0.53 KCAL/MOL
REMARK 927      BINDING AFFINITY PREDICTED BY RF-SCORE:    0.00 PKD
ROOT
HETATM    1  O   UNL     1     -11.858  16.082  68.388  1.00  0.00    -0.304 OA 
HETATM    2  C   UNL     1     -12.097  15.186  69.376  1.00  0.00    -0.260 C  
HETATM    3  O   UNL     1     -12.557  15.524  70.460  1.00  0.00    -0.418 OA 
HETATM    4  C   UNL     1     -11.768  13.791  69.030  1.00  0.00    -0.372 C  
HETATM    5  C   UNL     1     -11.952  12.821  69.940  1.00  0.00    -0.298 C  
HETATM    6  N   UNL     1     -11.727  11.470  69.741  1.00  0.00    -0.326 NA 
HETATM    7  C   UNL     1     -11.206  11.022  68.492  1.00  0.00    -0.268 A  
HETATM    8  C   UNL     1     -10.981  11.955  67.467  1.00  0.00    -0.299 A  
HETATM    9  C   UNL     1     -10.499  11.564  66.220  1.00  0.00    -0.294 A  
HETATM   10  C   UNL     1     -10.888   9.676  68.228  1.00  0.00    -0.230 A  
HETATM   11  C   UNL     1     -10.381   9.241  66.983  1.00  0.00    -0.255 A  
HETATM   12  C   UNL     1     -11.251  13.387  67.708  1.00  0.00    -0.279 C  
HETATM   13  C   UNL     1     -10.218  10.224  65.988  1.00  0.00    -0.228 A  
HETATM   14  O   UNL     1     -11.046  14.234  66.841  1.00  0.00    -0.298 OA 
HETATM   15  F   UNL     1      -9.792   9.894  64.759  1.00  0.00    -0.358 F  
ENDROOT
BRANCH   6  16
HETATM   16  C   UNL     1     -12.058  10.520  70.826  1.00  0.00    -0.370 C  
HETATM   17  C   UNL     1     -13.045  10.799  71.936  1.00  0.00    -0.557 C  
HETATM   18  C   UNL     1     -13.408   9.843  70.845  1.00  0.00    -0.256 C  
ENDBRANCH   6  16
BRANCH  11  19
HETATM   19  N   UNL     1      -9.991   7.920  66.824  1.00  0.00    -0.250 NA 
HETATM   20  N   UNL     1      -9.283   5.171  66.172  1.00  0.00    -0.146 NA 
HETATM   21  C   UNL     1     -10.772   6.811  67.402  1.00  0.00    -0.335 C  
HETATM   22  C   UNL     1     -10.671   5.591  66.456  1.00  0.00    -0.240 C  
HETATM   23  C   UNL     1      -8.494   6.327  65.696  1.00  0.00    -0.148 C  
HETATM   24  H   UNL     1      -9.246   4.388  65.520  1.00  0.00     0.000 HD 
HETATM   25  C   UNL     1      -8.575   7.566  66.620  1.00  0.00    -0.130 C  
ENDBRANCH  11  19
TORSDOF 2
ENDMDL
MODEL       36
REMARK 921   NORMALIZED FREE ENERGY PREDICTED BY IDOCK:   -6.06 KCAL/MOL
REMARK 922        TOTAL FREE ENERGY PREDICTED BY IDOCK:   -7.33 KCAL/MOL
REMARK 923 INTER-LIGAND FREE ENERGY PREDICTED BY IDOCK:   -6.73 KCAL/MOL
REMARK 924 INTRA-LIGAND FREE ENERGY PREDICTED BY IDOCK:   -0.60 KCAL/MOL
REMARK 927      BINDING AFFINITY PREDICTED BY RF-SCORE:    0.00 PKD
ROOT
HETATM    1  O   UNL     1      -9.825  17.885  65.825  1.00  0.00    -0.540 OA 
HETATM    2  C   UNL     1     -10.540  16.906  65.222  1.00  0.00    -0.120 C  
HETATM    3  O   UNL     1     -11.343  17.145  64.328  1.00  0.00    -1.126 OA 
HETATM    4  C   UNL     1     -10.260  15.547  65.723  1.00  0.00    -0.390 C  
HETATM    5  C   UNL     1     -10.923  14.500  65.206  1.00  0.00    -0.360 C  
HETATM    6  N   UNL     1     -10.735  13.172  65.548  1.00  0.00    -0.279 NA 
HETATM    7  C   UNL     1      -9.801  12.838  66.571  1.00  0.00    -0.258 A  
HETATM    8  C   UNL     1      -9.049  13.859  67.176  1.00  0.00    -0.245 A  
HETATM    9  C   UNL     1      -8.105  13.580  68.161  1.00  0.00    -0.154 A  
HETATM   10  C   UNL     1      -9.594  11.522  67.025  1.00  0.00    -0.199 A  
HETATM   11  C   UNL     1      -8.658  11.199  68.034  1.00  0.00    -0.140 A  
HETATM   12  C   UNL     1      -9.263  15.262  66.771  1.00  0.00    -0.250 C  
HETATM   13  C   UNL     1      -7.911  12.266  68.568  1.00  0.00    -0.107 A  
HETATM   14  O   UNL     1      -8.638  16.183  67.295  1.00  0.00    -0.167 OA 
HETATM   15  F   UNL     1      -6.964  12.047  69.492  1.00  0.00    -0.104 F  
ENDROOT
BRANCH   6  16
HETATM   16  C   UNL     1     -11.493  12.129  64.822  1.00  0.00    -0.322 C  
HETATM   17  C   UNL     1     -12.323  12.380  63.585  1.00  0.00    -0.647 C  
HETATM   18  C   UNL     1     -11.017  11.661  63.467  1.00  0.00    -0.485 C  
ENDBRANCH   6  16
BRANCH  11  19
HETATM   19  N   UNL     1      -8.579   9.898  68.507  1.00  0.00    -0.115 NA 
HETATM   20  N   UNL     1      -8.629   7.084  69.255  1.00  0.00    -0.136 NA 
HETATM   21  C   UNL     1      -9.255   9.488  69.752  1.00  0.00    -0.208 C  
HETATM   22  C   UNL     1      -9.719   8.020  69.600  1.00  0.00    -0.169 C  
HETATM   23  C   UNL     1      -7.899   7.576  68.068  1.00  0.00    -0.121 C  
HETATM   24  H   UNL     1      -8.968   6.131  69.128  1.00  0.00     0.000 HD 
HETATM   25  C   UNL     1      -7.422   9.044  68.186  1.00  0.00    -0.084 C  
ENDBRANCH  11  19
TORSDOF 2
ENDMDL
MODEL       37
REMARK 921   NORMALIZED FREE ENERGY PREDICTED BY IDOCK:   -6.03 KCAL/MOL
REMARK 922        TOTAL FREE ENERGY PREDICTED BY IDOCK:   -7.29 KCAL/MOL
REMARK 923 INTER-LIGAND FREE ENERGY PREDICTED BY IDOCK:   -6.71 KCAL/MOL
REMARK 924 INTRA-LIGAND FREE ENERGY PREDICTED BY IDOCK:   -0.59 KCAL/MOL
REMARK 927      BINDING AFFINITY PREDICTED BY RF-SCORE:    0.00 PKD
ROOT
HETATM    1  O   UNL     1     -12.682  15.421  63.730  1.00  0.00    -0.628 OA 
HETATM    2  C   UNL     1     -11.586  15.859  64.394  1.00  0.00    -0.234 C  
HETATM    3  O   UNL     1     -11.174  17.007  64.280  1.00  0.00    -1.186 OA 
HETATM    4  C   UNL     1     -10.951  14.848  65.260  1.00  0.00    -0.389 C  
HETATM    5  C   UNL     1      -9.848  15.169  65.955  1.00  0.00    -0.341 C  
HETATM    6  N   UNL     1      -9.174  14.339  66.834  1.00  0.00    -0.244 NA 
HETATM    7  C   UNL     1      -9.621  12.998  67.015  1.00  0.00    -0.236 A  
HETATM    8  C   UNL     1     -10.771  12.559  66.338  1.00  0.00    -0.275 A  
HETATM    9  C   UNL     1     -11.263  11.267  66.503  1.00  0.00    -0.222 A  
HETATM   10  C   UNL     1      -8.958  12.069  67.839  1.00  0.00    -0.182 A  
HETATM   11  C   UNL     1      -9.414  10.744  68.019  1.00  0.00    -0.160 A  
HETATM   12  C   UNL     1     -11.476  13.479  65.423  1.00  0.00    -0.302 C  
HETATM   13  C   UNL     1     -10.595  10.385  67.342  1.00  0.00    -0.269 A  
HETATM   14  O   UNL     1     -12.473  13.122  64.798  1.00  0.00    -0.485 OA 
HETATM   15  F   UNL     1     -11.132   9.165  67.495  1.00  0.00    -0.303 F  
ENDROOT
BRANCH   6  16
HETATM   16  C   UNL     1      -8.016  14.876  67.584  1.00  0.00    -0.169 C  
HETATM   17  C   UNL     1      -7.232  16.104  67.183  1.00  0.00    -0.255 C  
HETATM   18  C   UNL     1      -8.156  16.166  68.357  1.00  0.00    -0.171 C  
ENDBRANCH   6  16
BRANCH  11  19
HETATM   19  N   UNL     1      -8.657   9.851  68.761  1.00  0.00    -0.125 NA 
HETATM   20  N   UNL     1      -6.837   8.221  70.346  1.00  0.00    -0.036 NA 
HETATM   21  C   UNL     1      -7.933   8.737  68.121  1.00  0.00    -0.106 C  
HETATM   22  C   UNL     1      -6.625   8.483  68.907  1.00  0.00    -0.053 C  
HETATM   23  C   UNL     1      -7.657   9.298  70.939  1.00  0.00    -0.104 C  
HETATM   24  H   UNL     1      -5.957   8.091  70.845  1.00  0.00     0.000 HD 
HETATM   25  C   UNL     1      -8.973   9.580  70.174  1.00  0.00    -0.236 C  
ENDBRANCH  11  19
TORSDOF 2
ENDMDL
MODEL       38
REMARK 921   NORMALIZED FREE ENERGY PREDICTED BY IDOCK:   -5.94 KCAL/MOL
REMARK 922        TOTAL FREE ENERGY PREDICTED BY IDOCK:   -7.20 KCAL/MOL
REMARK 923 INTER-LIGAND FREE ENERGY PREDICTED BY IDOCK:   -6.68 KCAL/MOL
REMARK 924 INTRA-LIGAND FREE ENERGY PREDICTED BY IDOCK:   -0.52 KCAL/MOL
REMARK 927      BINDING AFFINITY PREDICTED BY RF-SCORE:    0.00 PKD
ROOT
HETATM    1  O   UNL     1     -10.232   9.146  66.009  1.00  0.00    -0.256 OA 
HETATM    2  C   UNL     1      -9.309   9.662  66.855  1.00  0.00    -0.146 C  
HETATM    3  O   UNL     1      -8.608   8.949  67.564  1.00  0.00    -0.119 OA 
HETATM    4  C   UNL     1      -9.218  11.134  66.839  1.00  0.00    -0.179 C  
HETATM    5  C   UNL     1      -8.346  11.754  67.650  1.00  0.00    -0.145 C  
HETATM    6  N   UNL     1      -8.124  13.118  67.710  1.00  0.00    -0.150 NA 
HETATM    7  C   UNL     1      -8.902  13.992  66.896  1.00  0.00    -0.194 A  
HETATM    8  C   UNL     1      -9.843  13.447  66.007  1.00  0.00    -0.273 A  
HETATM    9  C   UNL     1     -10.608  14.256  65.171  1.00  0.00    -0.423 A  
HETATM   10  C   UNL     1      -8.788  15.394  66.942  1.00  0.00    -0.281 A  
HETATM   11  C   UNL     1      -9.557  16.251  66.123  1.00  0.00    -0.331 A  
HETATM   12  C   UNL     1     -10.038  11.984  65.955  1.00  0.00    -0.236 C  
HETATM   13  C   UNL     1     -10.451  15.635  65.227  1.00  0.00    -0.412 A  
HETATM   14  O   UNL     1     -10.867  11.474  65.204  1.00  0.00    -0.291 OA 
HETATM   15  F   UNL     1     -11.184  16.367  64.375  1.00  0.00    -0.509 F  
ENDROOT
BRANCH   6  16
HETATM   16  C   UNL     1      -7.064  13.635  68.605  1.00  0.00    -0.105 C  
HETATM   17  C   UNL     1      -6.128  12.766  69.412  1.00  0.00    -0.107 C  
HETATM   18  C   UNL     1      -5.614  13.492  68.210  1.00  0.00    -0.101 C  
ENDBRANCH   6  16
BRANCH  11  19
HETATM   19  N   UNL     1      -9.470  17.625  66.292  1.00  0.00    -0.424 NA 
HETATM   20  N   UNL     1      -9.300  20.532  66.312  1.00  0.00    -0.632 NA 
HETATM   21  C   UNL     1      -8.197  18.276  66.655  1.00  0.00    -0.262 C  
HETATM   22  C   UNL     1      -8.148  19.668  65.980  1.00  0.00    -0.313 C  
HETATM   23  C   UNL     1     -10.563  19.813  66.040  1.00  0.00    -0.468 C  
HETATM   24  H   UNL     1      -9.258  21.428  65.827  1.00  0.00     0.000 HD 
HETATM   25  C   UNL     1     -10.644  18.415  66.699  1.00  0.00    -0.325 C  
ENDBRANCH  11  19
TORSDOF 2
ENDMDL
MODEL       39
REMARK 921   NORMALIZED FREE ENERGY PREDICTED BY IDOCK:   -5.92 KCAL/MOL
REMARK 922        TOTAL FREE ENERGY PREDICTED BY IDOCK:   -7.18 KCAL/MOL
REMARK 923 INTER-LIGAND FREE ENERGY PREDICTED BY IDOCK:   -7.14 KCAL/MOL
REMARK 924 INTRA-LIGAND FREE ENERGY PREDICTED BY IDOCK:   -0.04 KCAL/MOL
REMARK 927      BINDING AFFINITY PREDICTED BY RF-SCORE:    0.00 PKD
ROOT
HETATM    1  O   UNL     1      -9.819   5.581  68.548  1.00  0.00    -0.130 OA 
HETATM    2  C   UNL     1      -9.573   6.644  67.746  1.00  0.00    -0.123 C  
HETATM    3  O   UNL     1      -8.959   6.534  66.692  1.00  0.00    -0.128 OA 
HETATM    4  C   UNL     1     -10.110   7.924  68.245  1.00  0.00    -0.225 C  
HETATM    5  C   UNL     1      -9.912   9.047  67.537  1.00  0.00    -0.207 C  
HETATM    6  N   UNL     1     -10.392  10.304  67.860  1.00  0.00    -0.183 NA 
HETATM    7  C   UNL     1     -11.125  10.485  69.069  1.00  0.00    -0.249 A  
HETATM    8  C   UNL     1     -11.393   9.373  69.884  1.00  0.00    -0.121 A  
HETATM    9  C   UNL     1     -12.129   9.493  71.060  1.00  0.00    -0.398 A  
HETATM   10  C   UNL     1     -11.594  11.739  69.507  1.00  0.00    -0.398 A  
HETATM   11  C   UNL     1     -12.328  11.906  70.702  1.00  0.00    -0.313 A  
HETATM   12  C   UNL     1     -10.883   8.043  69.496  1.00  0.00    -0.129 C  
HETATM   13  C   UNL     1     -12.595  10.743  71.448  1.00  0.00    -0.410 A  
HETATM   14  O   UNL     1     -11.080   7.051  70.196  1.00  0.00    -0.264 OA 
HETATM   15  F   UNL     1     -13.330  10.798  72.569  1.00  0.00    -0.451 F  
ENDROOT
BRANCH   6  16
HETATM   16  C   UNL     1     -10.151  11.427  66.927  1.00  0.00    -0.214 C  
HETATM   17  C   UNL     1      -9.927  11.271  65.441  1.00  0.00    -0.297 C  
HETATM   18  C   UNL     1     -11.223  11.826  65.941  1.00  0.00    -0.345 C  
ENDBRANCH   6  16
BRANCH  11  19
HETATM   19  N   UNL     1     -12.669  13.181  71.126  1.00  0.00    -0.343 NA 
HETATM   20  N   UNL     1     -13.078  15.874  72.157  1.00  0.00    -0.431 NA 
HETATM   21  C   UNL     1     -13.600  13.397  72.250  1.00  0.00    -0.605 C  
HETATM   22  C   UNL     1     -13.166  14.672  73.011  1.00  0.00    -0.485 C  
HETATM   23  C   UNL     1     -12.226  15.596  70.981  1.00  0.00    -0.412 C  
HETATM   24  H   UNL     1     -12.758  16.691  72.677  1.00  0.00     0.000 HD 
HETATM   25  C   UNL     1     -12.632  14.325  70.198  1.00  0.00    -0.282 C  
ENDBRANCH  11  19
TORSDOF 2
ENDMDL
MODEL       40
REMARK 921   NORMALIZED FREE ENERGY PREDICTED BY IDOCK:   -5.91 KCAL/MOL
REMARK 922        TOTAL FREE ENERGY PREDICTED BY IDOCK:   -7.16 KCAL/MOL
REMARK 923 INTER-LIGAND FREE ENERGY PREDICTED BY IDOCK:   -6.65 KCAL/MOL
REMARK 924 INTRA-LIGAND FREE ENERGY PREDICTED BY IDOCK:   -0.51 KCAL/MOL
REMARK 927      BINDING AFFINITY PREDICTED BY RF-SCORE:    0.00 PKD
ROOT
HETATM    1  O   UNL     1      -9.425  17.778  66.130  1.00  0.00    -0.457 OA 
HETATM    2  C   UNL     1     -10.299  16.949  65.510  1.00  0.00    -0.177 C  
HETATM    3  O   UNL     1     -11.098  17.356  64.676  1.00  0.00    -1.029 OA 
HETATM    4  C   UNL     1     -10.195  15.536  65.917  1.00  0.00    -0.367 C  
HETATM    5  C   UNL     1     -11.023  14.628  65.376  1.00  0.00    -0.353 C  
HETATM    6  N   UNL     1     -11.012  13.267  65.631  1.00  0.00    -0.276 NA 
HETATM    7  C   UNL     1     -10.092  12.739  66.583  1.00  0.00    -0.243 A  
HETATM    8  C   UNL     1      -9.176  13.604  67.206  1.00  0.00    -0.232 A  
HETATM    9  C   UNL     1      -8.239  13.132  68.122  1.00  0.00    -0.160 A  
HETATM   10  C   UNL     1     -10.056  11.381  66.949  1.00  0.00    -0.245 A  
HETATM   11  C   UNL     1      -9.133  10.866  67.888  1.00  0.00    -0.149 A  
HETATM   12  C   UNL     1      -9.204  15.046  66.894  1.00  0.00    -0.246 C  
HETATM   13  C   UNL     1      -8.218  11.781  68.442  1.00  0.00    -0.154 A  
HETATM   14  O   UNL     1      -8.431  15.835  67.436  1.00  0.00    -0.157 OA 
HETATM   15  F   UNL     1      -7.273  11.372  69.301  1.00  0.00    -0.105 F  
ENDROOT
BRANCH   6  16
HETATM   16  C   UNL     1     -11.943  12.389  64.887  1.00  0.00    -0.398 C  
HETATM   17  C   UNL     1     -12.457  12.672  63.495  1.00  0.00    -0.516 C  
HETATM   18  C   UNL     1     -11.442  11.594  63.705  1.00  0.00    -0.458 C  
ENDBRANCH   6  16
BRANCH  11  19
HETATM   19  N   UNL     1      -9.220   9.539  68.280  1.00  0.00    -0.130 NA 
HETATM   20  N   UNL     1      -9.280   6.852  69.402  1.00  0.00    -0.147 NA 
HETATM   21  C   UNL     1      -8.260   8.529  67.799  1.00  0.00    -0.122 C  
HETATM   22  C   UNL     1      -8.036   7.489  68.923  1.00  0.00    -0.126 C  
HETATM   23  C   UNL     1     -10.265   7.889  69.775  1.00  0.00    -0.212 C  
HETATM   24  H   UNL     1      -9.106   6.198  70.165  1.00  0.00     0.000 HD 
HETATM   25  C   UNL     1     -10.511   8.948  68.673  1.00  0.00    -0.193 C  
ENDBRANCH  11  19
TORSDOF 2
ENDMDL
MODEL       41
REMARK 921   NORMALIZED FREE ENERGY PREDICTED BY IDOCK:   -5.90 KCAL/MOL
REMARK 922        TOTAL FREE ENERGY PREDICTED BY IDOCK:   -7.15 KCAL/MOL
REMARK 923 INTER-LIGAND FREE ENERGY PREDICTED BY IDOCK:   -7.06 KCAL/MOL
REMARK 924 INTRA-LIGAND FREE ENERGY PREDICTED BY IDOCK:   -0.09 KCAL/MOL
REMARK 927      BINDING AFFINITY PREDICTED BY RF-SCORE:    0.00 PKD
ROOT
HETATM    1  O   UNL     1     -10.773   5.006  71.438  1.00  0.00    -0.151 OA 
HETATM    2  C   UNL     1     -10.314   5.563  70.292  1.00  0.00    -0.279 C  
HETATM    3  O   UNL     1      -9.692   4.915  69.459  1.00  0.00    -0.158 OA 
HETATM    4  C   UNL     1     -10.636   6.994  70.136  1.00  0.00    -0.249 C  
HETATM    5  C   UNL     1     -10.217   7.652  69.043  1.00  0.00    -0.206 C  
HETATM    6  N   UNL     1     -10.480   8.978  68.745  1.00  0.00    -0.218 NA 
HETATM    7  C   UNL     1     -11.213   9.773  69.674  1.00  0.00    -0.178 A  
HETATM    8  C   UNL     1     -11.701   9.181  70.850  1.00  0.00    -0.341 A  
HETATM    9  C   UNL     1     -12.446   9.909  71.775  1.00  0.00    -0.487 A  
HETATM   10  C   UNL     1     -11.468  11.144  69.481  1.00  0.00    -0.374 A  
HETATM   11  C   UNL     1     -12.204  11.922  70.404  1.00  0.00    -0.314 A  
HETATM   12  C   UNL     1     -11.419   7.758  71.125  1.00  0.00    -0.274 C  
HETATM   13  C   UNL     1     -12.698  11.255  71.540  1.00  0.00    -0.376 A  
HETATM   14  O   UNL     1     -11.813   7.213  72.154  1.00  0.00    -0.284 OA 
HETATM   15  F   UNL     1     -13.452  11.900  72.443  1.00  0.00    -0.603 F  
ENDROOT
BRANCH   6  16
HETATM   16  C   UNL     1     -10.012   9.531  67.455  1.00  0.00    -0.189 C  
HETATM   17  C   UNL     1      -8.596   9.980  67.181  1.00  0.00    -0.128 C  
HETATM   18  C   UNL     1      -9.100   8.710  66.574  1.00  0.00    -0.206 C  
ENDBRANCH   6  16
BRANCH  11  19
HETATM   19  N   UNL     1     -12.330  13.288  70.204  1.00  0.00    -0.276 NA 
HETATM   20  N   UNL     1     -12.304  16.189  69.952  1.00  0.00    -0.407 NA 
HETATM   21  C   UNL     1     -13.295  14.094  70.976  1.00  0.00    -0.225 C  
HETATM   22  C   UNL     1     -12.691  15.501  71.201  1.00  0.00    -0.463 C  
HETATM   23  C   UNL     1     -11.425  15.316  69.147  1.00  0.00    -0.316 C  
HETATM   24  H   UNL     1     -11.879  17.099  70.132  1.00  0.00     0.000 HD 
HETATM   25  C   UNL     1     -11.998  13.898  68.905  1.00  0.00    -0.358 C  
ENDBRANCH  11  19
TORSDOF 2
ENDMDL
MODEL       42
REMARK 921   NORMALIZED FREE ENERGY PREDICTED BY IDOCK:   -5.88 KCAL/MOL
REMARK 922        TOTAL FREE ENERGY PREDICTED BY IDOCK:   -7.13 KCAL/MOL
REMARK 923 INTER-LIGAND FREE ENERGY PREDICTED BY IDOCK:   -6.69 KCAL/MOL
REMARK 924 INTRA-LIGAND FREE ENERGY PREDICTED BY IDOCK:   -0.44 KCAL/MOL
REMARK 927      BINDING AFFINITY PREDICTED BY RF-SCORE:    0.00 PKD
ROOT
HETATM    1  O   UNL     1      -9.725   7.616  65.875  1.00  0.00     0.064 OA 
HETATM    2  C   UNL     1      -9.884   7.385  67.201  1.00  0.00    -0.193 C  
HETATM    3  O   UNL     1      -9.644   6.294  67.703  1.00  0.00    -0.115 OA 
HETATM    4  C   UNL     1     -10.355   8.551  67.972  1.00  0.00    -0.272 C  
HETATM    5  C   UNL     1     -10.561   8.432  69.293  1.00  0.00    -0.182 C  
HETATM    6  N   UNL     1     -10.959   9.446  70.147  1.00  0.00    -0.237 NA 
HETATM    7  C   UNL     1     -11.237  10.740  69.616  1.00  0.00    -0.291 A  
HETATM    8  C   UNL     1     -11.050  10.974  68.244  1.00  0.00    -0.316 A  
HETATM    9  C   UNL     1     -11.282  12.228  67.682  1.00  0.00    -0.346 A  
HETATM   10  C   UNL     1     -11.709  11.810  70.400  1.00  0.00    -0.253 A  
HETATM   11  C   UNL     1     -11.973  13.091  69.866  1.00  0.00    -0.311 A  
HETATM   12  C   UNL     1     -10.604   9.873  67.367  1.00  0.00    -0.277 C  
HETATM   13  C   UNL     1     -11.724  13.266  68.491  1.00  0.00    -0.352 A  
HETATM   14  O   UNL     1     -10.450  10.037  66.159  1.00  0.00    -0.185 OA 
HETATM   15  F   UNL     1     -11.896  14.462  67.909  1.00  0.00    -0.330 F  
ENDROOT
BRANCH   6  16
HETATM   16  C   UNL     1     -11.063   9.167  71.596  1.00  0.00    -0.375 C  
HETATM   17  C   UNL     1     -11.232   7.789  72.191  1.00  0.00    -0.348 C  
HETATM   18  C   UNL     1      -9.918   8.492  72.314  1.00  0.00    -0.385 C  
ENDBRANCH   6  16
BRANCH  11  19
HETATM   19  N   UNL     1     -12.533  14.069  70.672  1.00  0.00    -0.347 NA 
HETATM   20  N   UNL     1     -13.564  15.967  72.626  1.00  0.00    -0.509 NA 
HETATM   21  C   UNL     1     -13.971  14.068  70.999  1.00  0.00     0.197 C  
HETATM   22  C   UNL     1     -14.151  14.625  72.431  1.00  0.00    -0.444 C  
HETATM   23  C   UNL     1     -12.152  15.968  72.189  1.00  0.00    -0.526 C  
HETATM   24  H   UNL     1     -13.668  16.294  73.586  1.00  0.00     0.000 HD 
HETATM   25  C   UNL     1     -11.937  15.414  70.760  1.00  0.00    -0.359 C  
ENDBRANCH  11  19
TORSDOF 2
ENDMDL
MODEL       43
REMARK 921   NORMALIZED FREE ENERGY PREDICTED BY IDOCK:   -5.85 KCAL/MOL
REMARK 922        TOTAL FREE ENERGY PREDICTED BY IDOCK:   -7.10 KCAL/MOL
REMARK 923 INTER-LIGAND FREE ENERGY PREDICTED BY IDOCK:   -6.54 KCAL/MOL
REMARK 924 INTRA-LIGAND FREE ENERGY PREDICTED BY IDOCK:   -0.56 KCAL/MOL
REMARK 927      BINDING AFFINITY PREDICTED BY RF-SCORE:    0.00 PKD
ROOT
HETATM    1  O   UNL     1     -12.037  14.886  66.620  1.00  0.00    -0.196 OA 
HETATM    2  C   UNL     1     -11.371  13.901  65.971  1.00  0.00    -0.324 C  
HETATM    3  O   UNL     1     -10.954  14.043  64.828  1.00  0.00    -0.366 OA 
HETATM    4  C   UNL     1     -11.186  12.667  66.757  1.00  0.00    -0.347 C  
HETATM    5  C   UNL     1     -10.551  11.619  66.207  1.00  0.00    -0.258 C  
HETATM    6  N   UNL     1     -10.271  10.419  66.837  1.00  0.00    -0.218 NA 
HETATM    7  C   UNL     1     -10.720  10.207  68.173  1.00  0.00    -0.244 A  
HETATM    8  C   UNL     1     -11.393  11.242  68.844  1.00  0.00    -0.340 A  
HETATM    9  C   UNL     1     -11.827  11.093  70.160  1.00  0.00    -0.449 A  
HETATM   10  C   UNL     1     -10.535   8.996  68.865  1.00  0.00    -0.231 A  
HETATM   11  C   UNL     1     -10.977   8.799  70.193  1.00  0.00    -0.223 A  
HETATM   12  C   UNL     1     -11.656  12.516  68.147  1.00  0.00    -0.340 C  
HETATM   13  C   UNL     1     -11.607   9.891  70.819  1.00  0.00    -0.349 A  
HETATM   14  O   UNL     1     -12.261  13.435  68.697  1.00  0.00    -0.298 OA 
HETATM   15  F   UNL     1     -12.011   9.813  72.095  1.00  0.00    -0.415 F  
ENDROOT
BRANCH   6  16
HETATM   16  C   UNL     1      -9.488   9.393  66.113  1.00  0.00    -0.226 C  
HETATM   17  C   UNL     1      -9.131   9.467  64.647  1.00  0.00    -0.263 C  
HETATM   18  C   UNL     1      -8.074   9.697  65.679  1.00  0.00    -0.117 C  
ENDBRANCH   6  16
BRANCH  11  19
HETATM   19  N   UNL     1     -10.856   7.548  70.779  1.00  0.00    -0.237 NA 
HETATM   20  N   UNL     1     -10.581   5.083  72.305  1.00  0.00    -0.217 NA 
HETATM   21  C   UNL     1      -9.603   6.775  70.693  1.00  0.00    -0.169 C  
HETATM   22  C   UNL     1      -9.434   5.963  71.999  1.00  0.00    -0.150 C  
HETATM   23  C   UNL     1     -11.836   5.863  72.278  1.00  0.00    -0.208 C  
HETATM   24  H   UNL     1     -10.458   4.586  73.188  1.00  0.00     0.000 HD 
HETATM   25  C   UNL     1     -12.035   6.689  70.985  1.00  0.00    -0.359 C  
ENDBRANCH  11  19
TORSDOF 2
ENDMDL
MODEL       44
REMARK 921   NORMALIZED FREE ENERGY PREDICTED BY IDOCK:   -5.85 KCAL/MOL
REMARK 922        TOTAL FREE ENERGY PREDICTED BY IDOCK:   -7.09 KCAL/MOL
REMARK 923 INTER-LIGAND FREE ENERGY PREDICTED BY IDOCK:   -6.53 KCAL/MOL
REMARK 924 INTRA-LIGAND FREE ENERGY PREDICTED BY IDOCK:   -0.56 KCAL/MOL
REMARK 927      BINDING AFFINITY PREDICTED BY RF-SCORE:    0.00 PKD
ROOT
HETATM    1  O   UNL     1      -9.336  10.640  62.712  1.00  0.00    -0.266 OA 
HETATM    2  C   UNL     1      -9.857  11.550  63.570  1.00  0.00    -0.383 C  
HETATM    3  O   UNL     1     -10.086  12.705  63.230  1.00  0.00    -0.300 OA 
HETATM    4  C   UNL     1     -10.127  11.031  64.923  1.00  0.00    -0.359 C  
HETATM    5  C   UNL     1     -10.631  11.851  65.859  1.00  0.00    -0.266 C  
HETATM    6  N   UNL     1     -10.972  11.493  67.152  1.00  0.00    -0.270 NA 
HETATM    7  C   UNL     1     -10.740  10.158  67.594  1.00  0.00    -0.285 A  
HETATM    8  C   UNL     1     -10.219   9.216  66.692  1.00  0.00    -0.328 A  
HETATM    9  C   UNL     1     -10.000   7.893  67.068  1.00  0.00    -0.322 A  
HETATM   10  C   UNL     1     -10.996   9.726  68.909  1.00  0.00    -0.183 A  
HETATM   11  C   UNL     1     -10.771   8.397  69.335  1.00  0.00    -0.152 A  
HETATM   12  C   UNL     1      -9.886   9.630  65.314  1.00  0.00    -0.199 C  
HETATM   13  C   UNL     1     -10.286   7.497  68.368  1.00  0.00    -0.195 A  
HETATM   14  O   UNL     1      -9.408   8.837  64.504  1.00  0.00     0.264 OA 
HETATM   15  F   UNL     1     -10.094   6.204  68.668  1.00  0.00    -0.140 F  
ENDROOT
BRANCH   6  16
HETATM   16  C   UNL     1     -11.593  12.503  68.037  1.00  0.00    -0.342 C  
HETATM   17  C   UNL     1     -10.867  13.695  68.616  1.00  0.00    -0.283 C  
HETATM   18  C   UNL     1     -11.860  13.896  67.516  1.00  0.00    -0.431 C  
ENDBRANCH   6  16
BRANCH  11  19
HETATM   19  N   UNL     1     -10.947   8.065  70.669  1.00  0.00    -0.242 NA 
HETATM   20  N   UNL     1     -11.079   7.130  73.424  1.00  0.00    -0.568 NA 
HETATM   21  C   UNL     1     -12.132   7.316  71.127  1.00  0.00    -0.340 C  
HETATM   22  C   UNL     1     -11.713   6.404  72.305  1.00  0.00    -0.290 C  
HETATM   23  C   UNL     1      -9.962   7.956  72.920  1.00  0.00    -0.294 C  
HETATM   24  H   UNL     1     -10.783   6.500  74.170  1.00  0.00     0.000 HD 
HETATM   25  C   UNL     1     -10.347   8.880  71.740  1.00  0.00    -0.356 C  
ENDBRANCH  11  19
TORSDOF 2
ENDMDL
MODEL       45
REMARK 921   NORMALIZED FREE ENERGY PREDICTED BY IDOCK:   -5.73 KCAL/MOL
REMARK 922        TOTAL FREE ENERGY PREDICTED BY IDOCK:   -6.97 KCAL/MOL
REMARK 923 INTER-LIGAND FREE ENERGY PREDICTED BY IDOCK:   -6.59 KCAL/MOL
REMARK 924 INTRA-LIGAND FREE ENERGY PREDICTED BY IDOCK:   -0.37 KCAL/MOL
REMARK 927      BINDING AFFINITY PREDICTED BY RF-SCORE:    0.00 PKD
ROOT
HETATM    1  O   UNL     1      -9.435  10.671  62.337  1.00  0.00    -0.257 OA 
HETATM    2  C   UNL     1      -9.086   9.826  63.336  1.00  0.00    -0.229 C  
HETATM    3  O   UNL     1      -8.405   8.828  63.134  1.00  0.00    -0.187 OA 
HETATM    4  C   UNL     1      -9.583  10.216  64.668  1.00  0.00    -0.379 C  
HETATM    5  C   UNL     1      -9.308   9.442  65.731  1.00  0.00    -0.239 C  
HETATM    6  N   UNL     1      -9.672   9.705  67.040  1.00  0.00    -0.172 NA 
HETATM    7  C   UNL     1     -10.452  10.861  67.333  1.00  0.00    -0.224 A  
HETATM    8  C   UNL     1     -10.792  11.742  66.293  1.00  0.00    -0.325 A  
HETATM    9  C   UNL     1     -11.529  12.900  66.533  1.00  0.00    -0.390 A  
HETATM   10  C   UNL     1     -10.919  11.169  68.625  1.00  0.00    -0.268 A  
HETATM   11  C   UNL     1     -11.684  12.324  68.906  1.00  0.00    -0.328 A  
HETATM   12  C   UNL     1     -10.369  11.441  64.911  1.00  0.00    -0.292 C  
HETATM   13  C   UNL     1     -11.953  13.183  67.824  1.00  0.00    -0.307 A  
HETATM   14  O   UNL     1     -10.666  12.178  63.974  1.00  0.00    -0.315 OA 
HETATM   15  F   UNL     1     -12.627  14.328  68.007  1.00  0.00    -0.216 F  
ENDROOT
BRANCH   6  16
HETATM   16  C   UNL     1      -9.219   8.787  68.109  1.00  0.00    -0.140 C  
HETATM   17  C   UNL     1     -10.064   7.685  68.705  1.00  0.00    -0.202 C  
HETATM   18  C   UNL     1      -8.937   7.339  67.785  1.00  0.00    -0.126 C  
ENDBRANCH   6  16
BRANCH  11  19
HETATM   19  N   UNL     1     -12.200  12.513  70.179  1.00  0.00    -0.276 NA 
HETATM   20  N   UNL     1     -13.587  12.914  72.708  1.00  0.00    -0.708 NA 
HETATM   21  C   UNL     1     -12.097  13.813  70.867  1.00  0.00    -0.287 C  
HETATM   22  C   UNL     1     -13.358  14.008  71.742  1.00  0.00    -0.386 C  
HETATM   23  C   UNL     1     -13.578  11.613  72.007  1.00  0.00    -0.041 C  
HETATM   24  H   UNL     1     -14.442  13.052  73.247  1.00  0.00     0.000 HD 
HETATM   25  C   UNL     1     -12.330  11.386  71.120  1.00  0.00    -0.299 C  
ENDBRANCH  11  19
TORSDOF 2
ENDMDL
MODEL       46
REMARK 921   NORMALIZED FREE ENERGY PREDICTED BY IDOCK:   -5.69 KCAL/MOL
REMARK 922        TOTAL FREE ENERGY PREDICTED BY IDOCK:   -6.92 KCAL/MOL
REMARK 923 INTER-LIGAND FREE ENERGY PREDICTED BY IDOCK:   -6.39 KCAL/MOL
REMARK 924 INTRA-LIGAND FREE ENERGY PREDICTED BY IDOCK:   -0.53 KCAL/MOL
REMARK 927      BINDING AFFINITY PREDICTED BY RF-SCORE:    0.00 PKD
ROOT
HETATM    1  O   UNL     1     -12.451  12.239  65.322  1.00  0.00    -0.585 OA 
HETATM    2  C   UNL     1     -11.257  11.934  65.884  1.00  0.00    -0.322 C  
HETATM    3  O   UNL     1     -10.910  10.776  66.082  1.00  0.00    -0.172 OA 
HETATM    4  C   UNL     1     -10.422  13.102  66.219  1.00  0.00    -0.291 C  
HETATM    5  C   UNL     1      -9.223  12.917  66.795  1.00  0.00    -0.230 C  
HETATM    6  N   UNL     1      -8.320  13.913  67.125  1.00  0.00    -0.185 NA 
HETATM    7  C   UNL     1      -8.667  15.277  66.901  1.00  0.00    -0.258 A  
HETATM    8  C   UNL     1      -9.900  15.583  66.299  1.00  0.00    -0.317 A  
HETATM    9  C   UNL     1     -10.273  16.898  66.035  1.00  0.00    -0.350 A  
HETATM   10  C   UNL     1      -7.837  16.354  67.266  1.00  0.00    -0.195 A  
HETATM   11  C   UNL     1      -8.187  17.703  67.031  1.00  0.00    -0.220 A  
HETATM   12  C   UNL     1     -10.829  14.493  65.942  1.00  0.00    -0.308 C  
HETATM   13  C   UNL     1      -9.418  17.934  66.388  1.00  0.00    -0.267 A  
HETATM   14  O   UNL     1     -11.924  14.725  65.433  1.00  0.00    -0.310 OA 
HETATM   15  F   UNL     1      -9.808  19.179  66.078  1.00  0.00    -0.367 F  
ENDROOT
BRANCH   6  16
HETATM   16  C   UNL     1      -7.002  13.532  67.681  1.00  0.00    -0.167 C  
HETATM   17  C   UNL     1      -6.713  13.363  69.154  1.00  0.00    -0.099 C  
HETATM   18  C   UNL     1      -6.808  12.157  68.275  1.00  0.00    -0.069 C  
ENDBRANCH   6  16
BRANCH  11  19
HETATM   19  N   UNL     1      -7.372  18.717  67.509  1.00  0.00    -0.218 NA 
HETATM   20  N   UNL     1      -5.942  21.003  68.609  1.00  0.00    -0.314 NA 
HETATM   21  C   UNL     1      -6.716  19.672  66.597  1.00  0.00    -0.193 C  
HETATM   22  C   UNL     1      -6.630  21.047  67.303  1.00  0.00    -0.365 C  
HETATM   23  C   UNL     1      -6.550  19.962  69.465  1.00  0.00    -0.337 C  
HETATM   24  H   UNL     1      -5.930  21.914  69.067  1.00  0.00     0.000 HD 
HETATM   25  C   UNL     1      -6.653  18.574  68.787  1.00  0.00    -0.254 C  
ENDBRANCH  11  19
TORSDOF 2
ENDMDL
MODEL       47
REMARK 921   NORMALIZED FREE ENERGY PREDICTED BY IDOCK:   -5.67 KCAL/MOL
REMARK 922        TOTAL FREE ENERGY PREDICTED BY IDOCK:   -6.90 KCAL/MOL
REMARK 923 INTER-LIGAND FREE ENERGY PREDICTED BY IDOCK:   -6.30 KCAL/MOL
REMARK 924 INTRA-LIGAND FREE ENERGY PREDICTED BY IDOCK:   -0.60 KCAL/MOL
REMARK 927      BINDING AFFINITY PREDICTED BY RF-SCORE:    0.00 PKD
ROOT
HETATM    1  O   UNL     1     -12.505  13.448  63.353  1.00  0.00    -0.753 OA 
HETATM    2  C   UNL     1     -12.526  13.500  64.706  1.00  0.00    -0.355 C  
HETATM    3  O   UNL     1     -13.213  14.313  65.313  1.00  0.00    -0.704 OA 
HETATM    4  C   UNL     1     -11.669  12.501  65.370  1.00  0.00    -0.444 C  
HETATM    5  C   UNL     1     -11.602  12.471  66.711  1.00  0.00    -0.382 C  
HETATM    6  N   UNL     1     -10.877  11.566  67.466  1.00  0.00    -0.222 NA 
HETATM    7  C   UNL     1     -10.072  10.590  66.808  1.00  0.00    -0.219 A  
HETATM    8  C   UNL     1     -10.072  10.531  65.405  1.00  0.00    -0.358 A  
HETATM    9  C   UNL     1      -9.324   9.578  64.717  1.00  0.00    -0.235 A  
HETATM   10  C   UNL     1      -9.254   9.674  67.497  1.00  0.00    -0.149 A  
HETATM   11  C   UNL     1      -8.467   8.705  66.836  1.00  0.00    -0.112 A  
HETATM   12  C   UNL     1     -10.875  11.500  64.633  1.00  0.00    -0.310 C  
HETATM   13  C   UNL     1      -8.547   8.676  65.431  1.00  0.00    -0.181 A  
HETATM   14  O   UNL     1     -10.883  11.491  63.403  1.00  0.00    -0.389 OA 
HETATM   15  F   UNL     1      -7.876   7.756  64.723  1.00  0.00    -0.098 F  
ENDROOT
BRANCH   6  16
HETATM   16  C   UNL     1     -10.975  11.620  68.942  1.00  0.00    -0.233 C  
HETATM   17  C   UNL     1     -11.901  12.538  69.704  1.00  0.00    -0.382 C  
HETATM   18  C   UNL     1     -12.203  11.075  69.632  1.00  0.00    -0.370 C  
ENDBRANCH   6  16
BRANCH  11  19
HETATM   19  N   UNL     1      -7.605   7.903  67.569  1.00  0.00    -0.103 NA 
HETATM   20  N   UNL     1      -5.934   6.356  69.385  1.00  0.00    -0.021 NA 
HETATM   21  C   UNL     1      -6.169   8.218  67.683  1.00  0.00    -0.052 C  
HETATM   22  C   UNL     1      -5.677   7.780  69.083  1.00  0.00    -0.030 C  
HETATM   23  C   UNL     1      -7.360   6.042  69.159  1.00  0.00    -0.084 C  
HETATM   24  H   UNL     1      -5.631   6.104  70.326  1.00  0.00     0.000 HD 
HETATM   25  C   UNL     1      -7.885   6.470  67.767  1.00  0.00    -0.111 C  
ENDBRANCH  11  19
TORSDOF 2
ENDMDL
MODEL       48
REMARK 921   NORMALIZED FREE ENERGY PREDICTED BY IDOCK:   -5.66 KCAL/MOL
REMARK 922        TOTAL FREE ENERGY PREDICTED BY IDOCK:   -6.88 KCAL/MOL
REMARK 923 INTER-LIGAND FREE ENERGY PREDICTED BY IDOCK:   -6.33 KCAL/MOL
REMARK 924 INTRA-LIGAND FREE ENERGY PREDICTED BY IDOCK:   -0.55 KCAL/MOL
REMARK 927      BINDING AFFINITY PREDICTED BY RF-SCORE:    0.00 PKD
ROOT
HETATM    1  O   UNL     1     -11.585  13.601  65.288  1.00  0.00    -0.310 OA 
HETATM    2  C   UNL     1     -11.862  13.521  66.612  1.00  0.00    -0.407 C  
HETATM    3  O   UNL     1     -12.399  14.440  67.219  1.00  0.00    -0.322 OA 
HETATM    4  C   UNL     1     -11.475  12.246  67.242  1.00  0.00    -0.426 C  
HETATM    5  C   UNL     1     -11.690  12.063  68.555  1.00  0.00    -0.332 C  
HETATM    6  N   UNL     1     -11.417  10.908  69.268  1.00  0.00    -0.275 NA 
HETATM    7  C   UNL     1     -10.806   9.803  68.606  1.00  0.00    -0.188 A  
HETATM    8  C   UNL     1     -10.541   9.888  67.229  1.00  0.00    -0.316 A  
HETATM    9  C   UNL     1      -9.970   8.826  66.532  1.00  0.00    -0.360 A  
HETATM   10  C   UNL     1     -10.436   8.617  69.268  1.00  0.00    -0.226 A  
HETATM   11  C   UNL     1      -9.839   7.524  68.601  1.00  0.00    -0.165 A  
HETATM   12  C   UNL     1     -10.864  11.129  66.497  1.00  0.00    -0.245 C  
HETATM   13  C   UNL     1      -9.639   7.662  67.214  1.00  0.00    -0.157 A  
HETATM   14  O   UNL     1     -10.626  11.245  65.296  1.00  0.00    -0.275 OA 
HETATM   15  F   UNL     1      -9.128   6.655  66.490  1.00  0.00    -0.130 F  
ENDROOT
BRANCH   6  16
HETATM   16  C   UNL     1     -11.791  10.842  70.698  1.00  0.00    -0.360 C  
HETATM   17  C   UNL     1     -12.893  11.658  71.333  1.00  0.00    -0.461 C  
HETATM   18  C   UNL     1     -13.093  10.194  71.104  1.00  0.00    -0.480 C  
ENDBRANCH   6  16
BRANCH  11  19
HETATM   19  N   UNL     1      -9.405   6.428  69.330  1.00  0.00    -0.142 NA 
HETATM   20  N   UNL     1      -8.580   4.299  71.138  1.00  0.00    -0.091 NA 
HETATM   21  C   UNL     1      -7.969   6.141  69.509  1.00  0.00    -0.107 C  
HETATM   22  C   UNL     1      -7.764   5.509  70.907  1.00  0.00    -0.092 C  
HETATM   23  C   UNL     1     -10.001   4.585  70.846  1.00  0.00    -0.193 C  
HETATM   24  H   UNL     1      -8.451   3.924  72.078  1.00  0.00     0.000 HD 
HETATM   25  C   UNL     1     -10.241   5.221  69.456  1.00  0.00    -0.268 C  
ENDBRANCH  11  19
TORSDOF 2
ENDMDL
MODEL       49
REMARK 921   NORMALIZED FREE ENERGY PREDICTED BY IDOCK:   -5.58 KCAL/MOL
REMARK 922        TOTAL FREE ENERGY PREDICTED BY IDOCK:   -6.80 KCAL/MOL
REMARK 923 INTER-LIGAND FREE ENERGY PREDICTED BY IDOCK:   -6.49 KCAL/MOL
REMARK 924 INTRA-LIGAND FREE ENERGY PREDICTED BY IDOCK:   -0.31 KCAL/MOL
REMARK 927      BINDING AFFINITY PREDICTED BY RF-SCORE:    0.00 PKD
ROOT
HETATM    1  O   UNL     1     -10.933   7.414  68.774  1.00  0.00    -0.101 OA 
HETATM    2  C   UNL     1     -10.502   7.790  67.546  1.00  0.00    -0.268 C  
HETATM    3  O   UNL     1     -10.191   6.972  66.689  1.00  0.00    -0.210 OA 
HETATM    4  C   UNL     1     -10.454   9.248  67.335  1.00  0.00    -0.340 C  
HETATM    5  C   UNL     1     -10.028   9.734  66.158  1.00  0.00    -0.268 C  
HETATM    6  N   UNL     1      -9.970  11.072  65.806  1.00  0.00    -0.232 NA 
HETATM    7  C   UNL     1     -10.335  12.064  66.761  1.00  0.00    -0.207 A  
HETATM    8  C   UNL     1     -10.800  11.664  68.025  1.00  0.00    -0.259 A  
HETATM    9  C   UNL     1     -11.195  12.595  68.983  1.00  0.00    -0.322 A  
HETATM   10  C   UNL     1     -10.244  13.446  66.510  1.00  0.00    -0.282 A  
HETATM   11  C   UNL     1     -10.618  14.423  67.460  1.00  0.00    -0.265 A  
HETATM   12  C   UNL     1     -10.868  10.227  68.358  1.00  0.00    -0.245 C  
HETATM   13  C   UNL     1     -11.113  13.951  68.691  1.00  0.00    -0.265 A  
HETATM   14  O   UNL     1     -11.249   9.842  69.461  1.00  0.00    -0.218 OA 
HETATM   15  F   UNL     1     -11.541  14.804  69.633  1.00  0.00    -0.257 F  
ENDROOT
BRANCH   6  16
HETATM   16  C   UNL     1      -9.551  11.436  64.434  1.00  0.00    -0.188 C  
HETATM   17  C   UNL     1      -9.590  10.498  63.250  1.00  0.00    -0.373 C  
HETATM   18  C   UNL     1     -10.591  11.605  63.352  1.00  0.00    -0.472 C  
ENDBRANCH   6  16
BRANCH  11  19
HETATM   19  N   UNL     1     -10.406  15.765  67.187  1.00  0.00    -0.285 NA 
HETATM   20  N   UNL     1     -10.295  18.622  66.634  1.00  0.00    -0.394 NA 
HETATM   21  C   UNL     1     -10.070  16.231  65.828  1.00  0.00    -0.347 C  
HETATM   22  C   UNL     1     -10.698  17.629  65.617  1.00  0.00    -0.084 C  
HETATM   23  C   UNL     1     -10.542  18.086  67.989  1.00  0.00    -0.347 C  
HETATM   24  H   UNL     1     -10.750  19.524  66.490  1.00  0.00     0.000 HD 
HETATM   25  C   UNL     1      -9.928  16.686  68.232  1.00  0.00    -0.261 C  
ENDBRANCH  11  19
TORSDOF 2
ENDMDL
MODEL       50
REMARK 921   NORMALIZED FREE ENERGY PREDICTED BY IDOCK:   -5.53 KCAL/MOL
REMARK 922        TOTAL FREE ENERGY PREDICTED BY IDOCK:   -6.74 KCAL/MOL
REMARK 923 INTER-LIGAND FREE ENERGY PREDICTED BY IDOCK:   -6.29 KCAL/MOL
REMARK 924 INTRA-LIGAND FREE ENERGY PREDICTED BY IDOCK:   -0.45 KCAL/MOL
REMARK 927      BINDING AFFINITY PREDICTED BY RF-SCORE:    0.00 PKD
ROOT
HETATM    1  O   UNL     1     -13.120  14.386  70.494  1.00  0.00    -0.318 OA 
HETATM    2  C   UNL     1     -12.944  13.261  71.228  1.00  0.00    -0.270 C  
HETATM    3  O   UNL     1     -13.302  13.187  72.397  1.00  0.00    -0.533 OA 
HETATM    4  C   UNL     1     -12.302  12.150  70.502  1.00  0.00    -0.358 C  
HETATM    5  C   UNL     1     -12.064  10.992  71.138  1.00  0.00    -0.244 C  
HETATM    6  N   UNL     1     -11.510   9.856  70.573  1.00  0.00    -0.295 NA 
HETATM    7  C   UNL     1     -11.089   9.884  69.212  1.00  0.00    -0.181 A  
HETATM    8  C   UNL     1     -11.295  11.048  68.452  1.00  0.00    -0.363 A  
HETATM    9  C   UNL     1     -10.926  11.115  67.111  1.00  0.00    -0.350 A  
HETATM   10  C   UNL     1     -10.458   8.797  68.578  1.00  0.00    -0.212 A  
HETATM   11  C   UNL     1     -10.053   8.832  67.224  1.00  0.00    -0.236 A  
HETATM   12  C   UNL     1     -11.908  12.233  69.083  1.00  0.00    -0.301 C  
HETATM   13  C   UNL     1     -10.326  10.015  66.512  1.00  0.00    -0.198 A  
HETATM   14  O   UNL     1     -12.084  13.276  68.454  1.00  0.00    -0.333 OA 
HETATM   15  F   UNL     1     -10.025  10.118  65.209  1.00  0.00    -0.314 F  
ENDROOT
BRANCH   6  16
HETATM   16  C   UNL     1     -11.390   8.631  71.395  1.00  0.00    -0.284 C  
HETATM   17  C   UNL     1     -12.288   8.293  72.562  1.00  0.00    -0.335 C  
HETATM   18  C   UNL     1     -12.432   7.544  71.276  1.00  0.00    -0.354 C  
ENDBRANCH   6  16
BRANCH  11  19
HETATM   19  N   UNL     1      -9.343   7.766  66.692  1.00  0.00    -0.178 NA 
HETATM   20  N   UNL     1      -8.052   5.556  65.303  1.00  0.00    -0.115 NA 
HETATM   21  C   UNL     1      -9.559   6.385  67.163  1.00  0.00    -0.134 C  
HETATM   22  C   UNL     1      -9.364   5.421  65.968  1.00  0.00    -0.156 C  
HETATM   23  C   UNL     1      -7.814   6.969  64.939  1.00  0.00    -0.126 C  
HETATM   24  H   UNL     1      -7.964   4.934  64.499  1.00  0.00     0.000 HD 
HETATM   25  C   UNL     1      -8.003   7.961  66.112  1.00  0.00    -0.104 C  
ENDBRANCH  11  19
TORSDOF 2
ENDMDL
MODEL       51
REMARK 921   NORMALIZED FREE ENERGY PREDICTED BY IDOCK:   -5.53 KCAL/MOL
REMARK 922        TOTAL FREE ENERGY PREDICTED BY IDOCK:   -6.74 KCAL/MOL
REMARK 923 INTER-LIGAND FREE ENERGY PREDICTED BY IDOCK:   -6.15 KCAL/MOL
REMARK 924 INTRA-LIGAND FREE ENERGY PREDICTED BY IDOCK:   -0.59 KCAL/MOL
REMARK 927      BINDING AFFINITY PREDICTED BY RF-SCORE:    0.00 PKD
ROOT
HETATM    1  O   UNL     1      -9.562  19.888  66.689  1.00  0.00    -0.357 OA 
HETATM    2  C   UNL     1      -8.572  19.150  67.245  1.00  0.00    -0.282 C  
HETATM    3  O   UNL     1      -7.594  19.668  67.771  1.00  0.00    -0.263 OA 
HETATM    4  C   UNL     1      -8.780  17.692  67.170  1.00  0.00    -0.252 C  
HETATM    5  C   UNL     1      -7.853  16.864  67.677  1.00  0.00    -0.173 C  
HETATM    6  N   UNL     1      -7.934  15.482  67.715  1.00  0.00    -0.136 NA 
HETATM    7  C   UNL     1      -9.058  14.830  67.130  1.00  0.00    -0.217 A  
HETATM    8  C   UNL     1     -10.090  15.604  66.573  1.00  0.00    -0.293 A  
HETATM    9  C   UNL     1     -11.221  15.015  66.015  1.00  0.00    -0.310 A  
HETATM   10  C   UNL     1      -9.190  13.430  67.066  1.00  0.00    -0.242 A  
HETATM   11  C   UNL     1     -10.313  12.793  66.492  1.00  0.00    -0.251 A  
HETATM   12  C   UNL     1      -9.978  17.077  66.570  1.00  0.00    -0.310 C  
HETATM   13  C   UNL     1     -11.327  13.630  65.991  1.00  0.00    -0.312 A  
HETATM   14  O   UNL     1     -10.852  17.785  66.073  1.00  0.00    -0.194 OA 
HETATM   15  F   UNL     1     -12.453  13.114  65.476  1.00  0.00    -0.442 F  
ENDROOT
BRANCH   6  16
HETATM   16  C   UNL     1      -6.859  14.718  68.385  1.00  0.00    -0.104 C  
HETATM   17  C   UNL     1      -5.582  15.325  68.917  1.00  0.00    -0.098 C  
HETATM   18  C   UNL     1      -6.642  14.874  69.871  1.00  0.00    -0.175 C  
ENDBRANCH   6  16
BRANCH  11  19
HETATM   19  N   UNL     1     -10.331  11.412  66.369  1.00  0.00    -0.234 NA 
HETATM   20  N   UNL     1     -10.055   8.516  66.231  1.00  0.00    -0.441 NA 
HETATM   21  C   UNL     1     -10.216  10.754  65.054  1.00  0.00    -0.306 C  
HETATM   22  C   UNL     1      -9.447   9.423  65.235  1.00  0.00    -0.227 C  
HETATM   23  C   UNL     1     -10.259   9.233  67.507  1.00  0.00    -0.242 C  
HETATM   24  H   UNL     1      -9.510   7.663  66.354  1.00  0.00     0.000 HD 
HETATM   25  C   UNL     1     -11.023  10.571  67.361  1.00  0.00    -0.288 C  
ENDBRANCH  11  19
TORSDOF 2
ENDMDL
MODEL       52
REMARK 921   NORMALIZED FREE ENERGY PREDICTED BY IDOCK:   -5.51 KCAL/MOL
REMARK 922        TOTAL FREE ENERGY PREDICTED BY IDOCK:   -6.72 KCAL/MOL
REMARK 923 INTER-LIGAND FREE ENERGY PREDICTED BY IDOCK:   -6.11 KCAL/MOL
REMARK 924 INTRA-LIGAND FREE ENERGY PREDICTED BY IDOCK:   -0.60 KCAL/MOL
REMARK 927      BINDING AFFINITY PREDICTED BY RF-SCORE:    0.00 PKD
ROOT
HETATM    1  O   UNL     1     -13.036  14.488  64.948  1.00  0.00    -0.569 OA 
HETATM    2  C   UNL     1     -12.299  13.628  64.206  1.00  0.00    -0.335 C  
HETATM    3  O   UNL     1     -12.222  13.723  62.987  1.00  0.00    -0.534 OA 
HETATM    4  C   UNL     1     -11.601  12.589  64.986  1.00  0.00    -0.392 C  
HETATM    5  C   UNL     1     -10.853  11.673  64.352  1.00  0.00    -0.339 C  
HETATM    6  N   UNL     1     -10.112  10.672  64.955  1.00  0.00    -0.306 NA 
HETATM    7  C   UNL     1     -10.155  10.526  66.372  1.00  0.00    -0.228 A  
HETATM    8  C   UNL     1     -10.906  11.435  67.135  1.00  0.00    -0.316 A  
HETATM    9  C   UNL     1     -10.957  11.351  68.525  1.00  0.00    -0.267 A  
HETATM   10  C   UNL     1      -9.485   9.497  67.062  1.00  0.00    -0.197 A  
HETATM   11  C   UNL     1      -9.526   9.366  68.468  1.00  0.00    -0.145 A  
HETATM   12  C   UNL     1     -11.666  12.504  66.458  1.00  0.00    -0.391 C  
HETATM   13  C   UNL     1     -10.264  10.336  69.172  1.00  0.00    -0.218 A  
HETATM   14  O   UNL     1     -12.351  13.305  67.092  1.00  0.00    -0.280 OA 
HETATM   15  F   UNL     1     -10.315  10.322  70.512  1.00  0.00    -0.322 F  
ENDROOT
BRANCH   6  16
HETATM   16  C   UNL     1      -9.273   9.791  64.112  1.00  0.00    -0.224 C  
HETATM   17  C   UNL     1      -8.968  10.041  62.654  1.00  0.00    -0.278 C  
HETATM   18  C   UNL     1      -7.901  10.250  63.681  1.00  0.00    -0.125 C  
ENDBRANCH   6  16
BRANCH  11  19
HETATM   19  N   UNL     1      -8.930   8.271  69.074  1.00  0.00    -0.147 NA 
HETATM   20  N   UNL     1      -7.560   5.890  70.041  1.00  0.00    -0.085 NA 
HETATM   21  C   UNL     1      -9.718   7.093  69.482  1.00  0.00    -0.157 C  
HETATM   22  C   UNL     1      -8.841   5.830  69.309  1.00  0.00    -0.116 C  
HETATM   23  C   UNL     1      -6.840   7.134  69.695  1.00  0.00    -0.050 C  
HETATM   24  H   UNL     1      -6.988   5.061  69.882  1.00  0.00     0.000 HD 
HETATM   25  C   UNL     1      -7.690   8.417  69.855  1.00  0.00    -0.092 C  
ENDBRANCH  11  19
TORSDOF 2
ENDMDL
MODEL       53
REMARK 921   NORMALIZED FREE ENERGY PREDICTED BY IDOCK:   -5.50 KCAL/MOL
REMARK 922        TOTAL FREE ENERGY PREDICTED BY IDOCK:   -6.71 KCAL/MOL
REMARK 923 INTER-LIGAND FREE ENERGY PREDICTED BY IDOCK:   -6.56 KCAL/MOL
REMARK 924 INTRA-LIGAND FREE ENERGY PREDICTED BY IDOCK:   -0.15 KCAL/MOL
REMARK 927      BINDING AFFINITY PREDICTED BY RF-SCORE:    0.00 PKD
ROOT
HETATM    1  O   UNL     1      -9.646   4.282  67.606  1.00  0.00    -0.165 OA 
HETATM    2  C   UNL     1      -9.910   4.731  68.857  1.00  0.00    -0.160 C  
HETATM    3  O   UNL     1      -9.895   3.988  69.830  1.00  0.00    -0.211 OA 
HETATM    4  C   UNL     1     -10.202   6.175  68.939  1.00  0.00    -0.232 C  
HETATM    5  C   UNL     1     -10.492   6.725  70.129  1.00  0.00    -0.209 C  
HETATM    6  N   UNL     1     -10.744   8.066  70.361  1.00  0.00    -0.229 NA 
HETATM    7  C   UNL     1     -10.758   8.977  69.265  1.00  0.00    -0.174 A  
HETATM    8  C   UNL     1     -10.463   8.506  67.975  1.00  0.00    -0.249 A  
HETATM    9  C   UNL     1     -10.437   9.361  66.876  1.00  0.00    -0.281 A  
HETATM   10  C   UNL     1     -11.068  10.344  69.402  1.00  0.00    -0.304 A  
HETATM   11  C   UNL     1     -11.071  11.241  68.310  1.00  0.00    -0.240 A  
HETATM   12  C   UNL     1     -10.179   7.072  67.768  1.00  0.00    -0.180 C  
HETATM   13  C   UNL     1     -10.726  10.708  67.054  1.00  0.00    -0.259 A  
HETATM   14  O   UNL     1      -9.937   6.621  66.650  1.00  0.00    -0.175 OA 
HETATM   15  F   UNL     1     -10.650  11.496  65.971  1.00  0.00    -0.267 F  
ENDROOT
BRANCH   6  16
HETATM   16  C   UNL     1     -10.969   8.525  71.750  1.00  0.00    -0.306 C  
HETATM   17  C   UNL     1     -12.275   8.384  72.496  1.00  0.00    -0.381 C  
HETATM   18  C   UNL     1     -11.117   7.511  72.860  1.00  0.00    -0.426 C  
ENDBRANCH   6  16
BRANCH  11  19
HETATM   19  N   UNL     1     -11.486  12.550  68.498  1.00  0.00    -0.280 NA 
HETATM   20  N   UNL     1     -12.031  15.383  68.893  1.00  0.00    -0.544 NA 
HETATM   21  C   UNL     1     -11.996  13.018  69.800  1.00  0.00    -0.308 C  
HETATM   22  C   UNL     1     -11.583  14.498  69.987  1.00  0.00    -0.284 C  
HETATM   23  C   UNL     1     -11.600  14.833  67.591  1.00  0.00    -0.354 C  
HETATM   24  H   UNL     1     -11.717  16.345  69.025  1.00  0.00     0.000 HD 
HETATM   25  C   UNL     1     -11.995  13.353  67.372  1.00  0.00    -0.346 C  
ENDBRANCH  11  19
TORSDOF 2
ENDMDL
MODEL       54
REMARK 921   NORMALIZED FREE ENERGY PREDICTED BY IDOCK:   -5.43 KCAL/MOL
REMARK 922        TOTAL FREE ENERGY PREDICTED BY IDOCK:   -6.63 KCAL/MOL
REMARK 923 INTER-LIGAND FREE ENERGY PREDICTED BY IDOCK:   -6.21 KCAL/MOL
REMARK 924 INTRA-LIGAND FREE ENERGY PREDICTED BY IDOCK:   -0.41 KCAL/MOL
REMARK 927      BINDING AFFINITY PREDICTED BY RF-SCORE:    0.00 PKD
ROOT
HETATM    1  O   UNL     1     -13.288  12.714  72.163  1.00  0.00    -0.524 OA 
HETATM    2  C   UNL     1     -12.653  12.905  70.982  1.00  0.00    -0.287 C  
HETATM    3  O   UNL     1     -12.557  14.013  70.468  1.00  0.00    -0.335 OA 
HETATM    4  C   UNL     1     -12.088  11.680  70.385  1.00  0.00    -0.462 C  
HETATM    5  C   UNL     1     -11.449  11.749  69.207  1.00  0.00    -0.306 C  
HETATM    6  N   UNL     1     -10.836  10.694  68.553  1.00  0.00    -0.215 NA 
HETATM    7  C   UNL     1     -10.906   9.386  69.115  1.00  0.00    -0.155 A  
HETATM    8  C   UNL     1     -11.549   9.202  70.350  1.00  0.00    -0.181 A  
HETATM    9  C   UNL     1     -11.619   7.948  70.953  1.00  0.00    -0.286 A  
HETATM   10  C   UNL     1     -10.367   8.248  68.486  1.00  0.00    -0.230 A  
HETATM   11  C   UNL     1     -10.433   6.956  69.055  1.00  0.00    -0.208 A  
HETATM   12  C   UNL     1     -12.173  10.355  71.028  1.00  0.00    -0.393 C  
HETATM   13  C   UNL     1     -11.056   6.851  70.313  1.00  0.00    -0.297 A  
HETATM   14  O   UNL     1     -12.763  10.226  72.100  1.00  0.00    -0.358 OA 
HETATM   15  F   UNL     1     -11.117   5.674  70.954  1.00  0.00    -0.335 F  
ENDROOT
BRANCH   6  16
HETATM   16  C   UNL     1     -10.103  10.958  67.295  1.00  0.00    -0.191 C  
HETATM   17  C   UNL     1     -10.047  12.299  66.602  1.00  0.00    -0.231 C  
HETATM   18  C   UNL     1      -8.841  11.787  67.322  1.00  0.00    -0.167 C  
ENDBRANCH   6  16
BRANCH  11  19
HETATM   19  N   UNL     1      -9.976   5.864  68.335  1.00  0.00    -0.141 NA 
HETATM   20  N   UNL     1      -9.325   3.442  66.855  1.00  0.00    -0.242 NA 
HETATM   21  C   UNL     1      -9.098   4.849  68.949  1.00  0.00    -0.112 C  
HETATM   22  C   UNL     1      -9.430   3.471  68.328  1.00  0.00    -0.148 C  
HETATM   23  C   UNL     1     -10.128   4.536  66.270  1.00  0.00    -0.254 C  
HETATM   24  H   UNL     1      -9.582   2.532  66.471  1.00  0.00     0.000 HD 
HETATM   25  C   UNL     1      -9.823   5.930  66.871  1.00  0.00    -0.156 C  
ENDBRANCH  11  19
TORSDOF 2
ENDMDL
MODEL       55
REMARK 921   NORMALIZED FREE ENERGY PREDICTED BY IDOCK:   -5.30 KCAL/MOL
REMARK 922        TOTAL FREE ENERGY PREDICTED BY IDOCK:   -6.49 KCAL/MOL
REMARK 923 INTER-LIGAND FREE ENERGY PREDICTED BY IDOCK:   -5.94 KCAL/MOL
REMARK 924 INTRA-LIGAND FREE ENERGY PREDICTED BY IDOCK:   -0.55 KCAL/MOL
REMARK 927      BINDING AFFINITY PREDICTED BY RF-SCORE:    0.00 PKD
ROOT
HETATM    1  O   UNL     1      -9.478   5.864  70.336  1.00  0.00    -0.158 OA 
HETATM    2  C   UNL     1      -9.076   5.970  69.047  1.00  0.00    -0.122 C  
HETATM    3  O   UNL     1      -8.477   5.066  68.478  1.00  0.00    -0.091 OA 
HETATM    4  C   UNL     1      -9.428   7.248  68.400  1.00  0.00    -0.142 C  
HETATM    5  C   UNL     1      -9.066   7.468  67.127  1.00  0.00    -0.127 C  
HETATM    6  N   UNL     1      -9.364   8.596  66.382  1.00  0.00    -0.194 NA 
HETATM    7  C   UNL     1     -10.072   9.672  66.993  1.00  0.00    -0.214 A  
HETATM    8  C   UNL     1     -10.502   9.544  68.324  1.00  0.00    -0.265 A  
HETATM    9  C   UNL     1     -11.222  10.555  68.957  1.00  0.00    -0.316 A  
HETATM   10  C   UNL     1     -10.359  10.881  66.331  1.00  0.00    -0.306 A  
HETATM   11  C   UNL     1     -11.070  11.938  66.942  1.00  0.00    -0.305 A  
HETATM   12  C   UNL     1     -10.185   8.316  69.080  1.00  0.00    -0.218 C  
HETATM   13  C   UNL     1     -11.506  11.725  68.264  1.00  0.00    -0.307 A  
HETATM   14  O   UNL     1     -10.527   8.179  70.254  1.00  0.00    -0.210 OA 
HETATM   15  F   UNL     1     -12.234  12.652  68.905  1.00  0.00    -0.309 F  
ENDROOT
BRANCH   6  16
HETATM   16  C   UNL     1      -8.958   8.647  64.960  1.00  0.00    -0.007 C  
HETATM   17  C   UNL     1      -7.571   9.003  64.479  1.00  0.00    -0.108 C  
HETATM   18  C   UNL     1      -8.040   7.585  64.404  1.00  0.00    -0.074 C  
ENDBRANCH   6  16
BRANCH  11  19
HETATM   19  N   UNL     1     -11.228  13.139  66.269  1.00  0.00    -0.295 NA 
HETATM   20  N   UNL     1     -11.331  15.548  64.637  1.00  0.00    -0.613 NA 
HETATM   21  C   UNL     1     -10.651  14.394  66.787  1.00  0.00    -0.282 C  
HETATM   22  C   UNL     1     -10.233  15.275  65.586  1.00  0.00    -0.372 C  
HETATM   23  C   UNL     1     -11.962  14.279  64.217  1.00  0.00    -0.425 C  
HETATM   24  H   UNL     1     -11.019  16.102  63.839  1.00  0.00     0.000 HD 
HETATM   25  C   UNL     1     -12.392  13.372  65.395  1.00  0.00    -0.477 C  
ENDBRANCH  11  19
TORSDOF 2
ENDMDL
MODEL       56
REMARK 921   NORMALIZED FREE ENERGY PREDICTED BY IDOCK:   -5.30 KCAL/MOL
REMARK 922        TOTAL FREE ENERGY PREDICTED BY IDOCK:   -6.48 KCAL/MOL
REMARK 923 INTER-LIGAND FREE ENERGY PREDICTED BY IDOCK:   -5.93 KCAL/MOL
REMARK 924 INTRA-LIGAND FREE ENERGY PREDICTED BY IDOCK:   -0.55 KCAL/MOL
REMARK 927      BINDING AFFINITY PREDICTED BY RF-SCORE:    0.00 PKD
ROOT
HETATM    1  O   UNL     1      -8.797   9.152  62.572  1.00  0.00    -0.231 OA 
HETATM    2  C   UNL     1      -7.952   9.365  63.608  1.00  0.00    -0.142 C  
HETATM    3  O   UNL     1      -6.866   8.804  63.687  1.00  0.00    -0.088 OA 
HETATM    4  C   UNL     1      -8.445  10.327  64.611  1.00  0.00    -0.179 C  
HETATM    5  C   UNL     1      -7.694  10.604  65.690  1.00  0.00    -0.109 C  
HETATM    6  N   UNL     1      -8.009  11.513  66.685  1.00  0.00    -0.152 NA 
HETATM    7  C   UNL     1      -9.255  12.205  66.634  1.00  0.00    -0.206 A  
HETATM    8  C   UNL     1     -10.116  11.991  65.545  1.00  0.00    -0.281 A  
HETATM    9  C   UNL     1     -11.331  12.664  65.436  1.00  0.00    -0.348 A  
HETATM   10  C   UNL     1      -9.683  13.095  67.637  1.00  0.00    -0.213 A  
HETATM   11  C   UNL     1     -10.915  13.784  67.573  1.00  0.00    -0.272 A  
HETATM   12  C   UNL     1      -9.737  11.030  64.491  1.00  0.00    -0.273 C  
HETATM   13  C   UNL     1     -11.709  13.553  66.433  1.00  0.00    -0.369 A  
HETATM   14  O   UNL     1     -10.475  10.803  63.534  1.00  0.00    -0.276 OA 
HETATM   15  F   UNL     1     -12.870  14.203  66.262  1.00  0.00    -0.480 F  
ENDROOT
BRANCH   6  16
HETATM   16  C   UNL     1      -7.031  11.760  67.768  1.00  0.00    -0.094 C  
HETATM   17  C   UNL     1      -7.104  11.140  69.144  1.00  0.00    -0.116 C  
HETATM   18  C   UNL     1      -6.068  10.669  68.173  1.00  0.00    -0.050 C  
ENDBRANCH   6  16
BRANCH  11  19
HETATM   19  N   UNL     1     -11.322  14.566  68.642  1.00  0.00    -0.262 NA 
HETATM   20  N   UNL     1     -11.870  16.155  71.020  1.00  0.00    -0.567 NA 
HETATM   21  C   UNL     1     -12.257  14.052  69.661  1.00  0.00    -0.332 C  
HETATM   22  C   UNL     1     -11.888  14.678  71.027  1.00  0.00    -0.322 C  
HETATM   23  C   UNL     1     -11.011  16.644  69.921  1.00  0.00    -0.187 C  
HETATM   24  H   UNL     1     -11.591  16.539  71.923  1.00  0.00     0.000 HD 
HETATM   25  C   UNL     1     -11.352  16.035  68.540  1.00  0.00    -0.382 C  
ENDBRANCH  11  19
TORSDOF 2
ENDMDL
MODEL       57
REMARK 921   NORMALIZED FREE ENERGY PREDICTED BY IDOCK:   -5.29 KCAL/MOL
REMARK 922        TOTAL FREE ENERGY PREDICTED BY IDOCK:   -6.48 KCAL/MOL
REMARK 923 INTER-LIGAND FREE ENERGY PREDICTED BY IDOCK:   -5.92 KCAL/MOL
REMARK 924 INTRA-LIGAND FREE ENERGY PREDICTED BY IDOCK:   -0.55 KCAL/MOL
REMARK 927      BINDING AFFINITY PREDICTED BY RF-SCORE:    0.00 PKD
ROOT
HETATM    1  O   UNL     1      -6.100   9.105  72.577  1.00  0.00    -0.239 OA 
HETATM    2  C   UNL     1      -7.073   8.286  72.111  1.00  0.00    -0.090 C  
HETATM    3  O   UNL     1      -7.333   7.216  72.648  1.00  0.00    -0.075 OA 
HETATM    4  C   UNL     1      -7.787   8.797  70.926  1.00  0.00    -0.137 C  
HETATM    5  C   UNL     1      -8.762   8.060  70.371  1.00  0.00    -0.136 C  
HETATM    6  N   UNL     1      -9.540   8.429  69.287  1.00  0.00    -0.162 NA 
HETATM    7  C   UNL     1      -9.290   9.671  68.635  1.00  0.00    -0.143 A  
HETATM    8  C   UNL     1      -8.292  10.523  69.138  1.00  0.00    -0.154 A  
HETATM    9  C   UNL     1      -8.028  11.759  68.553  1.00  0.00    -0.145 A  
HETATM   10  C   UNL     1      -9.989  10.095  67.489  1.00  0.00    -0.231 A  
HETATM   11  C   UNL     1      -9.739  11.333  66.855  1.00  0.00    -0.192 A  
HETATM   12  C   UNL     1      -7.495  10.104  70.309  1.00  0.00    -0.062 C  
HETATM   13  C   UNL     1      -8.754  12.154  67.437  1.00  0.00    -0.177 A  
HETATM   14  O   UNL     1      -6.600  10.815  70.762  1.00  0.00    -0.331 OA 
HETATM   15  F   UNL     1      -8.487  13.368  66.934  1.00  0.00    -0.198 F  
ENDROOT
BRANCH   6  16
HETATM   16  C   UNL     1     -10.632   7.531  68.848  1.00  0.00    -0.169 C  
HETATM   17  C   UNL     1     -10.432   6.110  68.375  1.00  0.00    -0.280 C  
HETATM   18  C   UNL     1     -11.041   6.366  69.717  1.00  0.00    -0.459 C  
ENDBRANCH   6  16
BRANCH  11  19
HETATM   19  N   UNL     1     -10.390  11.642  65.671  1.00  0.00    -0.251 NA 
HETATM   20  N   UNL     1     -11.514  12.519  63.132  1.00  0.00    -0.753 NA 
HETATM   21  C   UNL     1     -11.637  12.430  65.661  1.00  0.00    -0.392 C  
HETATM   22  C   UNL     1     -11.661  13.297  64.379  1.00  0.00    -0.388 C  
HETATM   23  C   UNL     1     -10.316  11.658  63.213  1.00  0.00    -0.398 C  
HETATM   24  H   UNL     1     -11.499  13.118  62.306  1.00  0.00     0.000 HD 
HETATM   25  C   UNL     1     -10.259  10.778  64.485  1.00  0.00    -0.359 C  
ENDBRANCH  11  19
TORSDOF 2
ENDMDL
MODEL       58
REMARK 921   NORMALIZED FREE ENERGY PREDICTED BY IDOCK:   -5.29 KCAL/MOL
REMARK 922        TOTAL FREE ENERGY PREDICTED BY IDOCK:   -6.47 KCAL/MOL
REMARK 923 INTER-LIGAND FREE ENERGY PREDICTED BY IDOCK:   -6.21 KCAL/MOL
REMARK 924 INTRA-LIGAND FREE ENERGY PREDICTED BY IDOCK:   -0.26 KCAL/MOL
REMARK 927      BINDING AFFINITY PREDICTED BY RF-SCORE:    0.00 PKD
ROOT
HETATM    1  O   UNL     1     -11.788  15.044  68.077  1.00  0.00    -0.335 OA 
HETATM    2  C   UNL     1     -12.074  14.127  69.032  1.00  0.00    -0.313 C  
HETATM    3  O   UNL     1     -12.627  14.435  70.081  1.00  0.00    -0.345 OA 
HETATM    4  C   UNL     1     -11.677  12.748  68.696  1.00  0.00    -0.360 C  
HETATM    5  C   UNL     1     -11.900  11.760  69.577  1.00  0.00    -0.337 C  
HETATM    6  N   UNL     1     -11.620  10.419  69.380  1.00  0.00    -0.230 NA 
HETATM    7  C   UNL     1     -10.991  10.005  68.169  1.00  0.00    -0.235 A  
HETATM    8  C   UNL     1     -10.716  10.959  67.176  1.00  0.00    -0.320 A  
HETATM    9  C   UNL     1     -10.128  10.600  65.966  1.00  0.00    -0.308 A  
HETATM   10  C   UNL     1     -10.613   8.673  67.914  1.00  0.00    -0.223 A  
HETATM   11  C   UNL     1      -9.998   8.271  66.707  1.00  0.00    -0.285 A  
HETATM   12  C   UNL     1     -11.049  12.378  67.414  1.00  0.00    -0.272 C  
HETATM   13  C   UNL     1      -9.789   9.272  65.740  1.00  0.00    -0.231 A  
HETATM   14  O   UNL     1     -10.803  13.243  66.575  1.00  0.00    -0.278 OA 
HETATM   15  F   UNL     1      -9.260   8.973  64.544  1.00  0.00    -0.212 F  
ENDROOT
BRANCH   6  16
HETATM   16  C   UNL     1     -12.004   9.443  70.424  1.00  0.00    -0.029 C  
HETATM   17  C   UNL     1     -11.200   9.166  71.673  1.00  0.00    -0.447 C  
HETATM   18  C   UNL     1     -12.479   9.935  71.771  1.00  0.00    -0.487 C  
ENDBRANCH   6  16
BRANCH  11  19
HETATM   19  N   UNL     1      -9.557   6.965  66.562  1.00  0.00    -0.168 NA 
HETATM   20  N   UNL     1      -8.523   4.242  66.578  1.00  0.00    -0.108 NA 
HETATM   21  C   UNL     1      -8.348   6.641  65.782  1.00  0.00    -0.143 C  
HETATM   22  C   UNL     1      -7.650   5.426  66.437  1.00  0.00    -0.088 C  
HETATM   23  C   UNL     1      -9.775   4.618  67.267  1.00  0.00    -0.185 C  
HETATM   24  H   UNL     1      -8.047   3.469  67.043  1.00  0.00     0.000 HD 
HETATM   25  C   UNL     1     -10.498   5.833  66.638  1.00  0.00    -0.268 C  
ENDBRANCH  11  19
TORSDOF 2
ENDMDL
MODEL       59
REMARK 921   NORMALIZED FREE ENERGY PREDICTED BY IDOCK:   -5.24 KCAL/MOL
REMARK 922        TOTAL FREE ENERGY PREDICTED BY IDOCK:   -6.41 KCAL/MOL
REMARK 923 INTER-LIGAND FREE ENERGY PREDICTED BY IDOCK:   -6.18 KCAL/MOL
REMARK 924 INTRA-LIGAND FREE ENERGY PREDICTED BY IDOCK:   -0.24 KCAL/MOL
REMARK 927      BINDING AFFINITY PREDICTED BY RF-SCORE:    0.00 PKD
ROOT
HETATM    1  O   UNL     1     -13.700  13.186  72.501  1.00  0.00    -0.610 OA 
HETATM    2  C   UNL     1     -13.135  13.991  71.570  1.00  0.00    -0.363 C  
HETATM    3  O   UNL     1     -13.267  15.209  71.599  1.00  0.00    -0.346 OA 
HETATM    4  C   UNL     1     -12.350  13.282  70.543  1.00  0.00    -0.389 C  
HETATM    5  C   UNL     1     -11.756  13.980  69.562  1.00  0.00    -0.313 C  
HETATM    6  N   UNL     1     -10.958  13.455  68.560  1.00  0.00    -0.258 NA 
HETATM    7  C   UNL     1     -10.759  12.045  68.490  1.00  0.00    -0.234 A  
HETATM    8  C   UNL     1     -11.334  11.220  69.471  1.00  0.00    -0.362 A  
HETATM    9  C   UNL     1     -11.145   9.840  69.462  1.00  0.00    -0.226 A  
HETATM   10  C   UNL     1     -10.018  11.421  67.469  1.00  0.00    -0.201 A  
HETATM   11  C   UNL     1      -9.819  10.023  67.413  1.00  0.00    -0.185 A  
HETATM   12  C   UNL     1     -12.162  11.819  70.537  1.00  0.00    -0.347 C  
HETATM   13  C   UNL     1     -10.388   9.262  68.451  1.00  0.00    -0.209 A  
HETATM   14  O   UNL     1     -12.697  11.125  71.400  1.00  0.00    -0.405 OA 
HETATM   15  F   UNL     1     -10.206   7.934  68.509  1.00  0.00    -0.188 F  
ENDROOT
BRANCH   6  16
HETATM   16  C   UNL     1     -10.311  14.376  67.600  1.00  0.00    -0.237 C  
HETATM   17  C   UNL     1     -11.057  15.310  66.676  1.00  0.00    -0.276 C  
HETATM   18  C   UNL     1     -10.328  15.863  67.859  1.00  0.00    -0.269 C  
ENDBRANCH   6  16
BRANCH  11  19
HETATM   19  N   UNL     1      -9.166   9.465  66.325  1.00  0.00    -0.167 NA 
HETATM   20  N   UNL     1      -7.570   8.541  64.071  1.00  0.00    -0.117 NA 
HETATM   21  C   UNL     1      -9.687   9.617  64.954  1.00  0.00    -0.104 C  
HETATM   22  C   UNL     1      -8.489   9.693  63.977  1.00  0.00    -0.185 C  
HETATM   23  C   UNL     1      -7.149   8.345  65.474  1.00  0.00    -0.074 C  
HETATM   24  H   UNL     1      -6.773   8.634  63.442  1.00  0.00     0.000 HD 
HETATM   25  C   UNL     1      -8.324   8.266  66.478  1.00  0.00    -0.112 C  
ENDBRANCH  11  19
TORSDOF 2
ENDMDL
MODEL       60
REMARK 921   NORMALIZED FREE ENERGY PREDICTED BY IDOCK:   -5.23 KCAL/MOL
REMARK 922        TOTAL FREE ENERGY PREDICTED BY IDOCK:   -6.41 KCAL/MOL
REMARK 923 INTER-LIGAND FREE ENERGY PREDICTED BY IDOCK:   -5.93 KCAL/MOL
REMARK 924 INTRA-LIGAND FREE ENERGY PREDICTED BY IDOCK:   -0.48 KCAL/MOL
REMARK 927      BINDING AFFINITY PREDICTED BY RF-SCORE:    0.00 PKD
ROOT
HETATM    1  O   UNL     1     -11.838   8.175  72.845  1.00  0.00    -0.352 OA 
HETATM    2  C   UNL     1     -11.530   7.154  72.011  1.00  0.00    -0.274 C  
HETATM    3  O   UNL     1     -11.572   5.984  72.374  1.00  0.00    -0.301 OA 
HETATM    4  C   UNL     1     -11.156   7.569  70.647  1.00  0.00    -0.280 C  
HETATM    5  C   UNL     1     -10.816   6.639  69.739  1.00  0.00    -0.286 C  
HETATM    6  N   UNL     1     -10.486   6.879  68.417  1.00  0.00    -0.193 NA 
HETATM    7  C   UNL     1     -10.437   8.221  67.939  1.00  0.00    -0.198 A  
HETATM    8  C   UNL     1     -10.777   9.273  68.806  1.00  0.00    -0.184 A  
HETATM    9  C   UNL     1     -10.771  10.599  68.379  1.00  0.00    -0.260 A  
HETATM   10  C   UNL     1     -10.048   8.559  66.629  1.00  0.00    -0.364 A  
HETATM   11  C   UNL     1     -10.011   9.893  66.162  1.00  0.00    -0.263 A  
HETATM   12  C   UNL     1     -11.145   8.977  70.205  1.00  0.00    -0.235 C  
HETATM   13  C   UNL     1     -10.404  10.892  67.072  1.00  0.00    -0.231 A  
HETATM   14  O   UNL     1     -11.429   9.874  70.997  1.00  0.00    -0.334 OA 
HETATM   15  F   UNL     1     -10.452  12.180  66.700  1.00  0.00    -0.227 F  
ENDROOT
BRANCH   6  16
HETATM   16  C   UNL     1     -10.215   5.731  67.524  1.00  0.00    -0.196 C  
HETATM   17  C   UNL     1      -8.834   5.273  67.115  1.00  0.00    -0.109 C  
HETATM   18  C   UNL     1      -9.623   4.462  68.093  1.00  0.00    -0.200 C  
ENDBRANCH   6  16
BRANCH  11  19
HETATM   19  N   UNL     1      -9.520  10.163  64.894  1.00  0.00    -0.265 NA 
HETATM   20  N   UNL     1      -8.324  10.992  62.372  1.00  0.00    -0.399 NA 
HETATM   21  C   UNL     1     -10.368  10.773  63.853  1.00  0.00    -0.259 C  
HETATM   22  C   UNL     1      -9.484  11.685  62.970  1.00  0.00    -0.236 C  
HETATM   23  C   UNL     1      -7.552  10.300  63.425  1.00  0.00    -0.112 C  
HETATM   24  H   UNL     1      -7.741  11.625  61.823  1.00  0.00     0.000 HD 
HETATM   25  C   UNL     1      -8.408   9.380  64.329  1.00  0.00    -0.173 C  
ENDBRANCH  11  19
TORSDOF 2
ENDMDL
MODEL       61
REMARK 921   NORMALIZED FREE ENERGY PREDICTED BY IDOCK:   -5.17 KCAL/MOL
REMARK 922        TOTAL FREE ENERGY PREDICTED BY IDOCK:   -6.34 KCAL/MOL
REMARK 923 INTER-LIGAND FREE ENERGY PREDICTED BY IDOCK:   -5.79 KCAL/MOL
REMARK 924 INTRA-LIGAND FREE ENERGY PREDICTED BY IDOCK:   -0.55 KCAL/MOL
REMARK 927      BINDING AFFINITY PREDICTED BY RF-SCORE:    0.00 PKD
ROOT
HETATM    1  O   UNL     1      -9.055   9.833  62.480  1.00  0.00    -0.261 OA 
HETATM    2  C   UNL     1      -8.819   9.247  63.678  1.00  0.00    -0.116 C  
HETATM    3  O   UNL     1      -8.296   8.143  63.768  1.00  0.00    -0.110 OA 
HETATM    4  C   UNL     1      -9.234  10.049  64.844  1.00  0.00    -0.291 C  
HETATM    5  C   UNL     1      -9.061   9.558  66.081  1.00  0.00    -0.166 C  
HETATM    6  N   UNL     1      -9.362  10.213  67.263  1.00  0.00    -0.151 NA 
HETATM    7  C   UNL     1      -9.959  11.507  67.214  1.00  0.00    -0.191 A  
HETATM    8  C   UNL     1     -10.180  12.115  65.968  1.00  0.00    -0.265 A  
HETATM    9  C   UNL     1     -10.735  13.389  65.869  1.00  0.00    -0.285 A  
HETATM   10  C   UNL     1     -10.356  12.216  68.364  1.00  0.00    -0.236 A  
HETATM   11  C   UNL     1     -10.939  13.502  68.305  1.00  0.00    -0.258 A  
HETATM   12  C   UNL     1      -9.827  11.394  64.729  1.00  0.00    -0.259 C  
HETATM   13  C   UNL     1     -11.094  14.068  67.026  1.00  0.00    -0.304 A  
HETATM   14  O   UNL     1     -10.026  11.888  63.620  1.00  0.00    -0.356 OA 
HETATM   15  F   UNL     1     -11.589  15.306  66.878  1.00  0.00    -0.314 F  
ENDROOT
BRANCH   6  16
HETATM   16  C   UNL     1      -9.033   9.561  68.550  1.00  0.00    -0.128 C  
HETATM   17  C   UNL     1      -8.787   8.080  68.720  1.00  0.00    -0.138 C  
HETATM   18  C   UNL     1      -7.638   9.035  68.790  1.00  0.00    -0.087 C  
ENDBRANCH   6  16
BRANCH  11  19
HETATM   19  N   UNL     1     -11.402  14.100  69.467  1.00  0.00    -0.263 NA 
HETATM   20  N   UNL     1     -12.616  15.494  71.718  1.00  0.00    -0.377 NA 
HETATM   21  C   UNL     1     -10.704  15.248  70.074  1.00  0.00    -0.279 C  
HETATM   22  C   UNL     1     -11.756  16.175  70.728  1.00  0.00    -0.302 C  
HETATM   23  C   UNL     1     -13.218  14.285  71.115  1.00  0.00    -0.321 C  
HETATM   24  H   UNL     1     -13.322  16.119  72.107  1.00  0.00     0.000 HD 
HETATM   25  C   UNL     1     -12.192  13.337  70.450  1.00  0.00    -0.332 C  
ENDBRANCH  11  19
TORSDOF 2
ENDMDL
MODEL       62
REMARK 921   NORMALIZED FREE ENERGY PREDICTED BY IDOCK:   -5.17 KCAL/MOL
REMARK 922        TOTAL FREE ENERGY PREDICTED BY IDOCK:   -6.34 KCAL/MOL
REMARK 923 INTER-LIGAND FREE ENERGY PREDICTED BY IDOCK:   -5.79 KCAL/MOL
REMARK 924 INTRA-LIGAND FREE ENERGY PREDICTED BY IDOCK:   -0.55 KCAL/MOL
REMARK 927      BINDING AFFINITY PREDICTED BY RF-SCORE:    0.00 PKD
ROOT
HETATM    1  O   UNL     1      -9.541   3.403  68.507  1.00  0.00    -0.164 OA 
HETATM    2  C   UNL     1      -9.855   4.185  69.567  1.00  0.00    -0.113 C  
HETATM    3  O   UNL     1      -9.987   3.726  70.695  1.00  0.00    -0.149 OA 
HETATM    4  C   UNL     1     -10.010   5.616  69.247  1.00  0.00    -0.251 C  
HETATM    5  C   UNL     1     -10.335   6.482  70.221  1.00  0.00    -0.201 C  
HETATM    6  N   UNL     1     -10.472   7.852  70.076  1.00  0.00    -0.226 NA 
HETATM    7  C   UNL     1     -10.314   8.439  68.787  1.00  0.00    -0.206 A  
HETATM    8  C   UNL     1      -9.969   7.623  67.697  1.00  0.00    -0.225 A  
HETATM    9  C   UNL     1      -9.777   8.153  66.423  1.00  0.00    -0.275 A  
HETATM   10  C   UNL     1     -10.499   9.812  68.538  1.00  0.00    -0.239 A  
HETATM   11  C   UNL     1     -10.331  10.386  67.257  1.00  0.00    -0.228 A  
HETATM   12  C   UNL     1      -9.811   6.168  67.894  1.00  0.00    -0.123 C  
HETATM   13  C   UNL     1      -9.945   9.517  66.220  1.00  0.00    -0.274 A  
HETATM   14  O   UNL     1      -9.530   5.421  66.959  1.00  0.00    -0.123 OA 
HETATM   15  F   UNL     1      -9.711   9.982  64.984  1.00  0.00    -0.298 F  
ENDROOT
BRANCH   6  16
HETATM   16  C   UNL     1     -10.756   8.676  71.272  1.00  0.00    -0.254 C  
HETATM   17  C   UNL     1     -11.425   8.162  72.525  1.00  0.00    -0.470 C  
HETATM   18  C   UNL     1      -9.959   8.462  72.537  1.00  0.00    -0.356 C  
ENDBRANCH   6  16
BRANCH  11  19
HETATM   19  N   UNL     1     -10.630  11.726  67.061  1.00  0.00    -0.223 NA 
HETATM   20  N   UNL     1     -11.371  14.449  66.342  1.00  0.00    -0.342 NA 
HETATM   21  C   UNL     1      -9.574  12.719  66.790  1.00  0.00    -0.244 C  
HETATM   22  C   UNL     1     -10.145  13.797  65.837  1.00  0.00    -0.313 C  
HETATM   23  C   UNL     1     -12.372  13.426  66.708  1.00  0.00    -0.231 C  
HETATM   24  H   UNL     1     -11.743  15.129  65.680  1.00  0.00     0.000 HD 
HETATM   25  C   UNL     1     -11.833  12.330  67.659  1.00  0.00    -0.264 C  
ENDBRANCH  11  19
TORSDOF 2
ENDMDL
MODEL       63
REMARK 921   NORMALIZED FREE ENERGY PREDICTED BY IDOCK:   -5.14 KCAL/MOL
REMARK 922        TOTAL FREE ENERGY PREDICTED BY IDOCK:   -6.31 KCAL/MOL
REMARK 923 INTER-LIGAND FREE ENERGY PREDICTED BY IDOCK:   -5.72 KCAL/MOL
REMARK 924 INTRA-LIGAND FREE ENERGY PREDICTED BY IDOCK:   -0.59 KCAL/MOL
REMARK 927      BINDING AFFINITY PREDICTED BY RF-SCORE:    0.00 PKD
ROOT
HETATM    1  O   UNL     1     -11.671  13.759  67.285  1.00  0.00    -0.339 OA 
HETATM    2  C   UNL     1     -10.538  13.023  67.187  1.00  0.00    -0.246 C  
HETATM    3  O   UNL     1      -9.664  13.283  66.369  1.00  0.00    -0.269 OA 
HETATM    4  C   UNL     1     -10.450  11.907  68.146  1.00  0.00    -0.225 C  
HETATM    5  C   UNL     1      -9.375  11.101  68.130  1.00  0.00    -0.176 C  
HETATM    6  N   UNL     1      -9.139  10.046  68.993  1.00  0.00    -0.160 NA 
HETATM    7  C   UNL     1     -10.118   9.711  69.974  1.00  0.00    -0.252 A  
HETATM    8  C   UNL     1     -11.280  10.492  70.081  1.00  0.00    -0.389 A  
HETATM    9  C   UNL     1     -12.253  10.222  71.041  1.00  0.00    -0.487 A  
HETATM   10  C   UNL     1      -9.989   8.615  70.849  1.00  0.00    -0.257 A  
HETATM   11  C   UNL     1     -10.961   8.296  71.824  1.00  0.00    -0.278 A  
HETATM   12  C   UNL     1     -11.488  11.624  69.155  1.00  0.00    -0.300 C  
HETATM   13  C   UNL     1     -12.080   9.146  71.902  1.00  0.00    -0.378 A  
HETATM   14  O   UNL     1     -12.503  12.316  69.206  1.00  0.00     0.024 OA 
HETATM   15  F   UNL     1     -13.027   8.952  72.832  1.00  0.00    -0.464 F  
ENDROOT
BRANCH   6  16
HETATM   16  C   UNL     1      -7.862   9.306  68.891  1.00  0.00    -0.087 C  
HETATM   17  C   UNL     1      -7.037   9.194  67.631  1.00  0.00    -0.082 C  
HETATM   18  C   UNL     1      -6.564  10.065  68.751  1.00  0.00    -0.049 C  
ENDBRANCH   6  16
BRANCH  11  19
HETATM   19  N   UNL     1     -10.821   7.144  72.582  1.00  0.00    -0.258 NA 
HETATM   20  N   UNL     1     -10.249   4.662  73.994  1.00  0.00    -0.189 NA 
HETATM   21  C   UNL     1     -11.678   5.965  72.357  1.00  0.00    -0.253 C  
HETATM   22  C   UNL     1     -10.848   4.691  72.644  1.00  0.00    -0.148 C  
HETATM   23  C   UNL     1      -9.485   5.905  74.234  1.00  0.00    -0.158 C  
HETATM   24  H   UNL     1      -9.681   3.829  74.143  1.00  0.00     0.000 HD 
HETATM   25  C   UNL     1     -10.286   7.199  73.954  1.00  0.00    -0.296 C  
ENDBRANCH  11  19
TORSDOF 2
ENDMDL
MODEL       64
REMARK 921   NORMALIZED FREE ENERGY PREDICTED BY IDOCK:   -5.13 KCAL/MOL
REMARK 922        TOTAL FREE ENERGY PREDICTED BY IDOCK:   -6.29 KCAL/MOL
REMARK 923 INTER-LIGAND FREE ENERGY PREDICTED BY IDOCK:   -5.86 KCAL/MOL
REMARK 924 INTRA-LIGAND FREE ENERGY PREDICTED BY IDOCK:   -0.43 KCAL/MOL
REMARK 927      BINDING AFFINITY PREDICTED BY RF-SCORE:    0.00 PKD
ROOT
HETATM    1  O   UNL     1      -8.113  18.956  68.069  1.00  0.00    -0.276 OA 
HETATM    2  C   UNL     1      -9.255  18.512  68.648  1.00  0.00    -0.310 C  
HETATM    3  O   UNL     1     -10.065  19.278  69.154  1.00  0.00    -0.401 OA 
HETATM    4  C   UNL     1      -9.434  17.049  68.604  1.00  0.00    -0.274 C  
HETATM    5  C   UNL     1     -10.524  16.498  69.161  1.00  0.00    -0.317 C  
HETATM    6  N   UNL     1     -10.844  15.151  69.159  1.00  0.00    -0.240 NA 
HETATM    7  C   UNL     1      -9.941  14.218  68.569  1.00  0.00    -0.235 A  
HETATM    8  C   UNL     1      -8.770  14.690  67.953  1.00  0.00    -0.169 A  
HETATM    9  C   UNL     1      -7.871  13.821  67.339  1.00  0.00    -0.167 A  
HETATM   10  C   UNL     1     -10.156  12.827  68.579  1.00  0.00    -0.189 A  
HETATM   11  C   UNL     1      -9.260  11.911  67.984  1.00  0.00    -0.190 A  
HETATM   12  C   UNL     1      -8.473  16.136  67.957  1.00  0.00    -0.168 C  
HETATM   13  C   UNL     1      -8.127  12.456  67.349  1.00  0.00    -0.177 A  
HETATM   14  O   UNL     1      -7.447  16.581  67.446  1.00  0.00    -0.130 OA 
HETATM   15  F   UNL     1      -7.250  11.666  66.711  1.00  0.00    -0.131 F  
ENDROOT
BRANCH   6  16
HETATM   16  C   UNL     1     -12.129  14.716  69.750  1.00  0.00    -0.324 C  
HETATM   17  C   UNL     1     -12.296  14.230  71.170  1.00  0.00    -0.440 C  
HETATM   18  C   UNL     1     -12.809  15.581  70.784  1.00  0.00    -0.513 C  
ENDBRANCH   6  16
BRANCH  11  19
HETATM   19  N   UNL     1      -9.478  10.549  68.120  1.00  0.00    -0.148 NA 
HETATM   20  N   UNL     1     -10.263   7.763  68.440  1.00  0.00    -0.196 NA 
HETATM   21  C   UNL     1      -9.135   9.835  69.364  1.00  0.00    -0.201 C  
HETATM   22  C   UNL     1     -10.164   8.699  69.579  1.00  0.00    -0.209 C  
HETATM   23  C   UNL     1     -10.499   8.514  67.189  1.00  0.00    -0.299 C  
HETATM   24  H   UNL     1     -10.972   7.045  68.595  1.00  0.00     0.000 HD 
HETATM   25  C   UNL     1      -9.488   9.660  66.945  1.00  0.00    -0.153 C  
ENDBRANCH  11  19
TORSDOF 2
ENDMDL
MODEL       65
REMARK 921   NORMALIZED FREE ENERGY PREDICTED BY IDOCK:   -5.06 KCAL/MOL
REMARK 922        TOTAL FREE ENERGY PREDICTED BY IDOCK:   -6.22 KCAL/MOL
REMARK 923 INTER-LIGAND FREE ENERGY PREDICTED BY IDOCK:   -5.90 KCAL/MOL
REMARK 924 INTRA-LIGAND FREE ENERGY PREDICTED BY IDOCK:   -0.32 KCAL/MOL
REMARK 927      BINDING AFFINITY PREDICTED BY RF-SCORE:    0.00 PKD
ROOT
HETATM    1  O   UNL     1     -13.313  12.660  71.478  1.00  0.00    -0.302 OA 
HETATM    2  C   UNL     1     -12.407  12.447  70.494  1.00  0.00    -0.262 C  
HETATM    3  O   UNL     1     -12.082  13.329  69.709  1.00  0.00    -0.316 OA 
HETATM    4  C   UNL     1     -11.849  11.083  70.462  1.00  0.00    -0.464 C  
HETATM    5  C   UNL     1     -10.951  10.755  69.518  1.00  0.00    -0.266 C  
HETATM    6  N   UNL     1     -10.316   9.532  69.393  1.00  0.00    -0.204 NA 
HETATM    7  C   UNL     1     -10.646   8.475  70.290  1.00  0.00    -0.226 A  
HETATM    8  C   UNL     1     -11.573   8.712  71.320  1.00  0.00    -0.340 A  
HETATM    9  C   UNL     1     -11.908   7.720  72.238  1.00  0.00    -0.378 A  
HETATM   10  C   UNL     1     -10.097   7.183  70.195  1.00  0.00    -0.195 A  
HETATM   11  C   UNL     1     -10.425   6.144  71.095  1.00  0.00    -0.230 A  
HETATM   12  C   UNL     1     -12.215  10.036  71.435  1.00  0.00    -0.416 C  
HETATM   13  C   UNL     1     -11.328   6.463  72.126  1.00  0.00    -0.290 A  
HETATM   14  O   UNL     1     -13.046  10.272  72.310  1.00  0.00    -0.396 OA 
HETATM   15  F   UNL     1     -11.656   5.555  73.058  1.00  0.00    -0.323 F  
ENDROOT
BRANCH   6  16
HETATM   16  C   UNL     1      -9.288   9.361  68.342  1.00  0.00    -0.134 C  
HETATM   17  C   UNL     1      -9.548   8.751  66.984  1.00  0.00    -0.236 C  
HETATM   18  C   UNL     1      -9.329  10.226  67.104  1.00  0.00    -0.175 C  
ENDBRANCH   6  16
BRANCH  11  19
HETATM   19  N   UNL     1      -9.928   4.868  70.882  1.00  0.00    -0.205 NA 
HETATM   20  N   UNL     1      -9.204   2.091  70.382  1.00  0.00    -0.098 NA 
HETATM   21  C   UNL     1      -9.464   4.025  71.999  1.00  0.00    -0.138 C  
HETATM   22  C   UNL     1      -9.779   2.547  71.665  1.00  0.00    -0.152 C  
HETATM   23  C   UNL     1      -9.596   3.016  69.298  1.00  0.00    -0.002 C  
HETATM   24  H   UNL     1      -9.455   1.126  70.172  1.00  0.00     0.000 HD 
HETATM   25  C   UNL     1      -9.297   4.504  69.601  1.00  0.00    -0.151 C  
ENDBRANCH  11  19
TORSDOF 2
ENDMDL
MODEL       66
REMARK 921   NORMALIZED FREE ENERGY PREDICTED BY IDOCK:   -5.05 KCAL/MOL
REMARK 922        TOTAL FREE ENERGY PREDICTED BY IDOCK:   -6.21 KCAL/MOL
REMARK 923 INTER-LIGAND FREE ENERGY PREDICTED BY IDOCK:   -5.68 KCAL/MOL
REMARK 924 INTRA-LIGAND FREE ENERGY PREDICTED BY IDOCK:   -0.53 KCAL/MOL
REMARK 927      BINDING AFFINITY PREDICTED BY RF-SCORE:    0.00 PKD
ROOT
HETATM    1  O   UNL     1     -10.883   5.452  70.314  1.00  0.00    -0.266 OA 
HETATM    2  C   UNL     1     -10.419   5.768  69.082  1.00  0.00    -0.276 C  
HETATM    3  O   UNL     1     -10.045   4.911  68.290  1.00  0.00    -0.142 OA 
HETATM    4  C   UNL     1     -10.416   7.211  68.781  1.00  0.00    -0.217 C  
HETATM    5  C   UNL     1      -9.963   7.640  67.592  1.00  0.00    -0.175 C  
HETATM    6  N   UNL     1      -9.940   8.954  67.158  1.00  0.00    -0.204 NA 
HETATM    7  C   UNL     1     -10.379   9.989  68.035  1.00  0.00    -0.198 A  
HETATM    8  C   UNL     1     -10.877   9.650  69.304  1.00  0.00    -0.227 A  
HETATM    9  C   UNL     1     -11.343  10.622  70.186  1.00  0.00    -0.402 A  
HETATM   10  C   UNL     1     -10.329  11.355  67.700  1.00  0.00    -0.209 A  
HETATM   11  C   UNL     1     -10.775  12.373  68.573  1.00  0.00    -0.238 A  
HETATM   12  C   UNL     1     -10.905   8.235  69.724  1.00  0.00    -0.185 C  
HETATM   13  C   UNL     1     -11.300  11.959  69.812  1.00  0.00    -0.147 A  
HETATM   14  O   UNL     1     -11.314   7.904  70.835  1.00  0.00    -0.271 OA 
HETATM   15  F   UNL     1     -11.795  12.852  70.682  1.00  0.00    -0.381 F  
ENDROOT
BRANCH   6  16
HETATM   16  C   UNL     1      -9.482   9.249  65.782  1.00  0.00    -0.262 C  
HETATM   17  C   UNL     1      -8.090   9.718  65.427  1.00  0.00    -0.127 C  
HETATM   18  C   UNL     1      -8.507   8.319  65.101  1.00  0.00    -0.164 C  
ENDBRANCH   6  16
BRANCH  11  19
HETATM   19  N   UNL     1     -10.602  13.703  68.222  1.00  0.00    -0.246 NA 
HETATM   20  N   UNL     1     -10.179  16.556  67.814  1.00  0.00    -0.269 NA 
HETATM   21  C   UNL     1     -11.749  14.569  67.890  1.00  0.00    -0.351 C  
HETATM   22  C   UNL     1     -11.435  16.007  68.366  1.00  0.00    -0.331 C  
HETATM   23  C   UNL     1      -9.065  15.617  68.066  1.00  0.00    -0.183 C  
HETATM   24  H   UNL     1      -9.980  17.490  68.170  1.00  0.00     0.000 HD 
HETATM   25  C   UNL     1      -9.348  14.168  67.604  1.00  0.00    -0.209 C  
ENDBRANCH  11  19
TORSDOF 2
ENDMDL
MODEL       67
REMARK 921   NORMALIZED FREE ENERGY PREDICTED BY IDOCK:   -5.04 KCAL/MOL
REMARK 922        TOTAL FREE ENERGY PREDICTED BY IDOCK:   -6.19 KCAL/MOL
REMARK 923 INTER-LIGAND FREE ENERGY PREDICTED BY IDOCK:   -6.08 KCAL/MOL
REMARK 924 INTRA-LIGAND FREE ENERGY PREDICTED BY IDOCK:   -0.11 KCAL/MOL
REMARK 927      BINDING AFFINITY PREDICTED BY RF-SCORE:    0.00 PKD
ROOT
HETATM    1  O   UNL     1     -10.990   5.651  73.370  1.00  0.00    -0.273 OA 
HETATM    2  C   UNL     1     -10.590   5.166  72.171  1.00  0.00    -0.211 C  
HETATM    3  O   UNL     1     -10.260   3.995  72.022  1.00  0.00    -0.176 OA 
HETATM    4  C   UNL     1     -10.596   6.155  71.078  1.00  0.00    -0.301 C  
HETATM    5  C   UNL     1     -10.203   5.787  69.848  1.00  0.00    -0.236 C  
HETATM    6  N   UNL     1     -10.197   6.594  68.723  1.00  0.00    -0.161 NA 
HETATM    7  C   UNL     1     -10.585   7.961  68.839  1.00  0.00    -0.145 A  
HETATM    8  C   UNL     1     -11.018   8.449  70.083  1.00  0.00    -0.216 A  
HETATM    9  C   UNL     1     -11.434   9.769  70.240  1.00  0.00    -0.317 A  
HETATM   10  C   UNL     1     -10.547   8.867  67.762  1.00  0.00    -0.266 A  
HETATM   11  C   UNL     1     -10.943  10.218  67.885  1.00  0.00    -0.292 A  
HETATM   12  C   UNL     1     -11.031   7.553  71.256  1.00  0.00    -0.242 C  
HETATM   13  C   UNL     1     -11.405  10.629  69.149  1.00  0.00    -0.273 A  
HETATM   14  O   UNL     1     -11.384   7.953  72.364  1.00  0.00    -0.314 OA 
HETATM   15  F   UNL     1     -11.851  11.878  69.346  1.00  0.00    -0.305 F  
ENDROOT
BRANCH   6  16
HETATM   16  C   UNL     1      -9.809   6.008  67.421  1.00  0.00    -0.131 C  
HETATM   17  C   UNL     1      -9.900   4.538  67.083  1.00  0.00    -0.225 C  
HETATM   18  C   UNL     1     -10.875   5.499  66.480  1.00  0.00    -0.237 C  
ENDBRANCH   6  16
BRANCH  11  19
HETATM   19  N   UNL     1     -10.782  11.081  66.812  1.00  0.00    -0.267 NA 
HETATM   20  N   UNL     1     -10.146  12.976  64.694  1.00  0.00    -0.568 NA 
HETATM   21  C   UNL     1     -11.517  12.357  66.733  1.00  0.00    -0.362 C  
HETATM   22  C   UNL     1     -10.617  13.400  66.029  1.00  0.00    -0.287 C  
HETATM   23  C   UNL     1      -9.510  11.645  64.784  1.00  0.00    -0.063 C  
HETATM   24  H   UNL     1      -9.529  13.667  64.268  1.00  0.00     0.000 HD 
HETATM   25  C   UNL     1     -10.384  10.577  65.486  1.00  0.00    -0.217 C  
ENDBRANCH  11  19
TORSDOF 2
ENDMDL
MODEL       68
REMARK 921   NORMALIZED FREE ENERGY PREDICTED BY IDOCK:   -5.04 KCAL/MOL
REMARK 922        TOTAL FREE ENERGY PREDICTED BY IDOCK:   -6.19 KCAL/MOL
REMARK 923 INTER-LIGAND FREE ENERGY PREDICTED BY IDOCK:   -5.63 KCAL/MOL
REMARK 924 INTRA-LIGAND FREE ENERGY PREDICTED BY IDOCK:   -0.57 KCAL/MOL
REMARK 927      BINDING AFFINITY PREDICTED BY RF-SCORE:    0.00 PKD
ROOT
HETATM    1  O   UNL     1     -12.592   8.686  72.304  1.00  0.00    -0.365 OA 
HETATM    2  C   UNL     1     -12.600   9.924  71.754  1.00  0.00    -0.414 C  
HETATM    3  O   UNL     1     -13.194  10.861  72.273  1.00  0.00    -0.406 OA 
HETATM    4  C   UNL     1     -11.834  10.040  70.499  1.00  0.00    -0.387 C  
HETATM    5  C   UNL     1     -11.786  11.220  69.859  1.00  0.00    -0.352 C  
HETATM    6  N   UNL     1     -11.076  11.485  68.701  1.00  0.00    -0.218 NA 
HETATM    7  C   UNL     1     -10.355  10.433  68.064  1.00  0.00    -0.179 A  
HETATM    8  C   UNL     1     -10.336   9.158  68.653  1.00  0.00    -0.233 A  
HETATM    9  C   UNL     1      -9.624   8.105  68.083  1.00  0.00    -0.162 A  
HETATM   10  C   UNL     1      -9.660  10.599  66.851  1.00  0.00    -0.200 A  
HETATM   11  C   UNL     1      -8.941   9.552  66.231  1.00  0.00    -0.157 A  
HETATM   12  C   UNL     1     -11.089   8.917  69.900  1.00  0.00    -0.136 C  
HETATM   13  C   UNL     1      -8.931   8.312  66.898  1.00  0.00    -0.146 A  
HETATM   14  O   UNL     1     -11.111   7.809  70.431  1.00  0.00    -0.257 OA 
HETATM   15  F   UNL     1      -8.231   7.276  66.412  1.00  0.00    -0.104 F  
ENDROOT
BRANCH   6  16
HETATM   16  C   UNL     1     -11.063  12.865  68.166  1.00  0.00    -0.253 C  
HETATM   17  C   UNL     1     -12.092  13.421  67.210  1.00  0.00    -0.352 C  
HETATM   18  C   UNL     1     -12.094  13.862  68.639  1.00  0.00    -0.337 C  
ENDBRANCH   6  16
BRANCH  11  19
HETATM   19  N   UNL     1      -8.367   9.755  64.986  1.00  0.00    -0.136 NA 
HETATM   20  N   UNL     1      -7.149   9.847  62.343  1.00  0.00    -0.111 NA 
HETATM   21  C   UNL     1      -6.963  10.185  64.847  1.00  0.00    -0.131 C  
HETATM   22  C   UNL     1      -6.377   9.544  63.566  1.00  0.00    -0.102 C  
HETATM   23  C   UNL     1      -8.573   9.508  62.548  1.00  0.00    -0.208 C  
HETATM   24  H   UNL     1      -6.760   9.385  61.521  1.00  0.00     0.000 HD 
HETATM   25  C   UNL     1      -9.189  10.131  63.823  1.00  0.00    -0.281 C  
ENDBRANCH  11  19
TORSDOF 2
ENDMDL
MODEL       69
REMARK 921   NORMALIZED FREE ENERGY PREDICTED BY IDOCK:   -5.01 KCAL/MOL
REMARK 922        TOTAL FREE ENERGY PREDICTED BY IDOCK:   -6.16 KCAL/MOL
REMARK 923 INTER-LIGAND FREE ENERGY PREDICTED BY IDOCK:   -5.74 KCAL/MOL
REMARK 924 INTRA-LIGAND FREE ENERGY PREDICTED BY IDOCK:   -0.41 KCAL/MOL
REMARK 927      BINDING AFFINITY PREDICTED BY RF-SCORE:    0.00 PKD
ROOT
HETATM    1  O   UNL     1     -11.064  17.783  64.898  1.00  0.00    -0.821 OA 
HETATM    2  C   UNL     1     -11.362  16.513  64.532  1.00  0.00    -0.011 C  
HETATM    3  O   UNL     1     -12.173  16.267  63.647  1.00  0.00    -0.711 OA 
HETATM    4  C   UNL     1     -10.627  15.473  65.275  1.00  0.00    -0.446 C  
HETATM    5  C   UNL     1     -10.856  14.178  65.004  1.00  0.00    -0.398 C  
HETATM    6  N   UNL     1     -10.213  13.101  65.590  1.00  0.00    -0.285 NA 
HETATM    7  C   UNL     1      -9.250  13.333  66.615  1.00  0.00    -0.215 A  
HETATM    8  C   UNL     1      -8.932  14.654  66.974  1.00  0.00    -0.258 A  
HETATM    9  C   UNL     1      -7.978  14.932  67.950  1.00  0.00    -0.145 A  
HETATM   10  C   UNL     1      -8.597  12.296  67.308  1.00  0.00    -0.183 A  
HETATM   11  C   UNL     1      -7.636  12.536  68.316  1.00  0.00    -0.129 A  
HETATM   12  C   UNL     1      -9.624  15.778  66.312  1.00  0.00    -0.313 C  
HETATM   13  C   UNL     1      -7.337  13.883  68.596  1.00  0.00    -0.117 A  
HETATM   14  O   UNL     1      -9.386  16.945  66.617  1.00  0.00    -0.236 OA 
HETATM   15  F   UNL     1      -6.400  14.206  69.501  1.00  0.00    -0.095 F  
ENDROOT
BRANCH   6  16
HETATM   16  C   UNL     1     -10.525  11.734  65.118  1.00  0.00    -0.283 C  
HETATM   17  C   UNL     1     -11.597  11.403  64.106  1.00  0.00    -0.114 C  
HETATM   18  C   UNL     1     -10.157  11.323  63.712  1.00  0.00    -0.412 C  
ENDBRANCH   6  16
BRANCH  11  19
HETATM   19  N   UNL     1      -7.108  11.472  69.030  1.00  0.00    -0.112 NA 
HETATM   20  N   UNL     1      -6.118   9.387  70.806  1.00  0.00    -0.060 NA 
HETATM   21  C   UNL     1      -5.658  11.346  69.267  1.00  0.00    -0.049 C  
HETATM   22  C   UNL     1      -5.440  10.691  70.652  1.00  0.00    -0.096 C  
HETATM   23  C   UNL     1      -7.549   9.518  70.458  1.00  0.00    -0.149 C  
HETATM   24  H   UNL     1      -5.986   8.995  71.738  1.00  0.00     0.000 HD 
HETATM   25  C   UNL     1      -7.802  10.173  69.078  1.00  0.00    -0.107 C  
ENDBRANCH  11  19
TORSDOF 2
ENDMDL
MODEL       70
REMARK 921   NORMALIZED FREE ENERGY PREDICTED BY IDOCK:   -5.00 KCAL/MOL
REMARK 922        TOTAL FREE ENERGY PREDICTED BY IDOCK:   -6.15 KCAL/MOL
REMARK 923 INTER-LIGAND FREE ENERGY PREDICTED BY IDOCK:   -5.96 KCAL/MOL
REMARK 924 INTRA-LIGAND FREE ENERGY PREDICTED BY IDOCK:   -0.19 KCAL/MOL
REMARK 927      BINDING AFFINITY PREDICTED BY RF-SCORE:    0.00 PKD
ROOT
HETATM    1  O   UNL     1      -9.852  11.961  63.535  1.00  0.00    -0.361 OA 
HETATM    2  C   UNL     1      -9.335  10.714  63.635  1.00  0.00    -0.284 C  
HETATM    3  O   UNL     1      -8.740  10.181  62.706  1.00  0.00    -0.162 OA 
HETATM    4  C   UNL     1      -9.540  10.070  64.946  1.00  0.00    -0.375 C  
HETATM    5  C   UNL     1      -9.081   8.826  65.153  1.00  0.00    -0.043 C  
HETATM    6  N   UNL     1      -9.164   8.117  66.340  1.00  0.00    -0.187 NA 
HETATM    7  C   UNL     1      -9.833   8.698  67.457  1.00  0.00    -0.180 A  
HETATM    8  C   UNL     1     -10.349  10.000  67.349  1.00  0.00    -0.292 A  
HETATM    9  C   UNL     1     -10.986  10.621  68.421  1.00  0.00    -0.303 A  
HETATM   10  C   UNL     1     -10.020   8.024  68.678  1.00  0.00    -0.200 A  
HETATM   11  C   UNL     1     -10.677   8.611  69.783  1.00  0.00    -0.215 A  
HETATM   12  C   UNL     1     -10.223  10.733  66.074  1.00  0.00    -0.251 C  
HETATM   13  C   UNL     1     -11.132   9.933  69.618  1.00  0.00    -0.241 A  
HETATM   14  O   UNL     1     -10.681  11.866  65.937  1.00  0.00    -0.265 OA 
HETATM   15  F   UNL     1     -11.719  10.589  70.630  1.00  0.00    -0.330 F  
ENDROOT
BRANCH   6  16
HETATM   16  C   UNL     1      -8.533   6.782  66.425  1.00  0.00    -0.126 C  
HETATM   17  C   UNL     1      -7.545   6.237  65.420  1.00  0.00    -0.088 C  
HETATM   18  C   UNL     1      -7.068   6.665  66.772  1.00  0.00    -0.069 C  
ENDBRANCH   6  16
BRANCH  11  19
HETATM   19  N   UNL     1     -10.918   7.855  70.920  1.00  0.00    -0.239 NA 
HETATM   20  N   UNL     1     -11.099   6.188  73.301  1.00  0.00    -0.448 NA 
HETATM   21  C   UNL     1     -11.619   6.560  70.849  1.00  0.00    -0.359 C  
HETATM   22  C   UNL     1     -11.037   5.625  71.936  1.00  0.00    -0.214 C  
HETATM   23  C   UNL     1     -10.486   7.533  73.320  1.00  0.00    -0.371 C  
HETATM   24  H   UNL     1     -10.678   5.566  73.991  1.00  0.00     0.000 HD 
HETATM   25  C   UNL     1     -11.045   8.493  72.242  1.00  0.00    -0.360 C  
ENDBRANCH  11  19
TORSDOF 2
ENDMDL
MODEL       71
REMARK 921   NORMALIZED FREE ENERGY PREDICTED BY IDOCK:   -4.98 KCAL/MOL
REMARK 922        TOTAL FREE ENERGY PREDICTED BY IDOCK:   -6.13 KCAL/MOL
REMARK 923 INTER-LIGAND FREE ENERGY PREDICTED BY IDOCK:   -5.60 KCAL/MOL
REMARK 924 INTRA-LIGAND FREE ENERGY PREDICTED BY IDOCK:   -0.53 KCAL/MOL
REMARK 927      BINDING AFFINITY PREDICTED BY RF-SCORE:    0.00 PKD
ROOT
HETATM    1  O   UNL     1      -9.267  18.812  68.563  1.00  0.00    -0.326 OA 
HETATM    2  C   UNL     1      -9.951  18.376  67.478  1.00  0.00    -0.335 C  
HETATM    3  O   UNL     1     -10.578  19.142  66.756  1.00  0.00    -0.408 OA 
HETATM    4  C   UNL     1      -9.865  16.923  67.244  1.00  0.00    -0.265 C  
HETATM    5  C   UNL     1     -10.517  16.379  66.204  1.00  0.00    -0.314 C  
HETATM    6  N   UNL     1     -10.493  15.044  65.839  1.00  0.00    -0.309 NA 
HETATM    7  C   UNL     1      -9.766  14.113  66.637  1.00  0.00    -0.288 A  
HETATM    8  C   UNL     1      -9.043  14.578  67.748  1.00  0.00    -0.190 A  
HETATM    9  C   UNL     1      -8.295  13.712  68.543  1.00  0.00    -0.110 A  
HETATM   10  C   UNL     1      -9.740  12.730  66.377  1.00  0.00    -0.261 A  
HETATM   11  C   UNL     1      -9.009  11.816  67.169  1.00  0.00    -0.177 A  
HETATM   12  C   UNL     1      -9.076  16.013  68.095  1.00  0.00    -0.187 C  
HETATM   13  C   UNL     1      -8.275  12.356  68.242  1.00  0.00    -0.170 A  
HETATM   14  O   UNL     1      -8.472  16.450  69.072  1.00  0.00    -0.239 OA 
HETATM   15  F   UNL     1      -7.509  11.571  69.015  1.00  0.00    -0.105 F  
ENDROOT
BRANCH   6  16
HETATM   16  C   UNL     1     -11.205  14.621  64.613  1.00  0.00    -0.346 C  
HETATM   17  C   UNL     1     -12.581  13.998  64.596  1.00  0.00    -0.281 C  
HETATM   18  C   UNL     1     -12.400  15.408  64.130  1.00  0.00    -0.015 C  
ENDBRANCH   6  16
BRANCH  11  19
HETATM   19  N   UNL     1      -9.111  10.456  66.919  1.00  0.00    -0.143 NA 
HETATM   20  N   UNL     1      -9.574   7.677  66.182  1.00  0.00    -0.422 NA 
HETATM   21  C   UNL     1      -9.730   9.539  67.894  1.00  0.00    -0.147 C  
HETATM   22  C   UNL     1     -10.451   8.410  67.118  1.00  0.00    -0.310 C  
HETATM   23  C   UNL     1      -8.882   8.630  65.288  1.00  0.00    -0.135 C  
HETATM   24  H   UNL     1     -10.082   6.963  65.660  1.00  0.00     0.000 HD 
HETATM   25  C   UNL     1      -8.152   9.774  66.033  1.00  0.00    -0.114 C  
ENDBRANCH  11  19
TORSDOF 2
ENDMDL
MODEL       72
REMARK 921   NORMALIZED FREE ENERGY PREDICTED BY IDOCK:   -4.96 KCAL/MOL
REMARK 922        TOTAL FREE ENERGY PREDICTED BY IDOCK:   -6.11 KCAL/MOL
REMARK 923 INTER-LIGAND FREE ENERGY PREDICTED BY IDOCK:   -5.50 KCAL/MOL
REMARK 924 INTRA-LIGAND FREE ENERGY PREDICTED BY IDOCK:   -0.60 KCAL/MOL
REMARK 927      BINDING AFFINITY PREDICTED BY RF-SCORE:    0.00 PKD
ROOT
HETATM    1  O   UNL     1     -13.682   9.450  72.766  1.00  0.00    -0.364 OA 
HETATM    2  C   UNL     1     -13.018  10.175  71.834  1.00  0.00    -0.447 C  
HETATM    3  O   UNL     1     -13.132  11.392  71.757  1.00  0.00    -0.480 OA 
HETATM    4  C   UNL     1     -12.152   9.381  70.944  1.00  0.00    -0.327 C  
HETATM    5  C   UNL     1     -11.457   9.995  69.973  1.00  0.00    -0.248 C  
HETATM    6  N   UNL     1     -10.578   9.385  69.095  1.00  0.00    -0.220 NA 
HETATM    7  C   UNL     1     -10.397   7.973  69.152  1.00  0.00    -0.220 A  
HETATM    8  C   UNL     1     -11.074   7.232  70.135  1.00  0.00    -0.281 A  
HETATM    9  C   UNL     1     -10.909   5.854  70.249  1.00  0.00    -0.391 A  
HETATM   10  C   UNL     1      -9.573   7.264  68.257  1.00  0.00    -0.150 A  
HETATM   11  C   UNL     1      -9.393   5.864  68.328  1.00  0.00    -0.116 A  
HETATM   12  C   UNL     1     -11.989   7.920  71.068  1.00  0.00    -0.252 C  
HETATM   13  C   UNL     1     -10.070   5.191  69.362  1.00  0.00    -0.234 A  
HETATM   14  O   UNL     1     -12.614   7.300  71.927  1.00  0.00    -0.316 OA 
HETATM   15  F   UNL     1      -9.917   3.871  69.539  1.00  0.00    -0.270 F  
ENDROOT
BRANCH   6  16
HETATM   16  C   UNL     1      -9.828  10.222  68.132  1.00  0.00    -0.148 C  
HETATM   17  C   UNL     1     -10.465  11.046  67.038  1.00  0.00    -0.284 C  
HETATM   18  C   UNL     1      -9.891  11.728  68.239  1.00  0.00    -0.198 C  
ENDBRANCH   6  16
BRANCH  11  19
HETATM   19  N   UNL     1      -8.651   5.217  67.352  1.00  0.00    -0.105 NA 
HETATM   20  N   UNL     1      -7.026   4.163  65.178  1.00  0.00    -0.057 NA 
HETATM   21  C   UNL     1      -9.301   4.494  66.243  1.00  0.00    -0.151 C  
HETATM   22  C   UNL     1      -8.414   4.629  64.982  1.00  0.00    -0.133 C  
HETATM   23  C   UNL     1      -6.435   4.822  66.361  1.00  0.00    -0.041 C  
HETATM   24  H   UNL     1      -6.456   4.294  64.342  1.00  0.00     0.000 HD 
HETATM   25  C   UNL     1      -7.298   4.709  67.640  1.00  0.00    -0.074 C  
ENDBRANCH  11  19
TORSDOF 2
ENDMDL
MODEL       73
REMARK 921   NORMALIZED FREE ENERGY PREDICTED BY IDOCK:   -4.91 KCAL/MOL
REMARK 922        TOTAL FREE ENERGY PREDICTED BY IDOCK:   -6.05 KCAL/MOL
REMARK 923 INTER-LIGAND FREE ENERGY PREDICTED BY IDOCK:   -5.48 KCAL/MOL
REMARK 924 INTRA-LIGAND FREE ENERGY PREDICTED BY IDOCK:   -0.57 KCAL/MOL
REMARK 927      BINDING AFFINITY PREDICTED BY RF-SCORE:    0.00 PKD
ROOT
HETATM    1  O   UNL     1      -7.377   8.377  66.557  1.00  0.00    -0.079 OA 
HETATM    2  C   UNL     1      -8.320   8.912  65.746  1.00  0.00    -0.134 C  
HETATM    3  O   UNL     1      -8.880   8.252  64.878  1.00  0.00    -0.049 OA 
HETATM    4  C   UNL     1      -8.615  10.333  66.004  1.00  0.00    -0.153 C  
HETATM    5  C   UNL     1      -9.524  10.970  65.249  1.00  0.00    -0.223 C  
HETATM    6  N   UNL     1      -9.930  12.285  65.405  1.00  0.00    -0.261 NA 
HETATM    7  C   UNL     1      -9.321  13.092  66.409  1.00  0.00    -0.182 A  
HETATM    8  C   UNL     1      -8.358  12.522  67.259  1.00  0.00    -0.185 A  
HETATM    9  C   UNL     1      -7.754  13.262  68.273  1.00  0.00    -0.141 A  
HETATM   10  C   UNL     1      -9.626  14.454  66.593  1.00  0.00    -0.295 A  
HETATM   11  C   UNL     1      -9.023  15.243  67.599  1.00  0.00    -0.179 A  
HETATM   12  C   UNL     1      -7.965  11.111  67.077  1.00  0.00    -0.145 C  
HETATM   13  C   UNL     1      -8.097  14.598  68.440  1.00  0.00    -0.147 A  
HETATM   14  O   UNL     1      -7.111  10.586  67.788  1.00  0.00    -0.082 OA 
HETATM   15  F   UNL     1      -7.515  15.254  69.454  1.00  0.00    -0.149 F  
ENDROOT
BRANCH   6  16
HETATM   16  C   UNL     1     -11.006  12.812  64.536  1.00  0.00    -0.341 C  
HETATM   17  C   UNL     1     -11.901  11.957  63.670  1.00  0.00    -0.573 C  
HETATM   18  C   UNL     1     -12.451  12.584  64.911  1.00  0.00    -0.524 C  
ENDBRANCH   6  16
BRANCH  11  19
HETATM   19  N   UNL     1      -9.292  16.602  67.658  1.00  0.00    -0.223 NA 
HETATM   20  N   UNL     1      -9.544  19.493  67.907  1.00  0.00    -0.334 NA 
HETATM   21  C   UNL     1     -10.172  17.169  68.697  1.00  0.00    -0.336 C  
HETATM   22  C   UNL     1      -9.655  18.580  69.064  1.00  0.00    -0.199 C  
HETATM   23  C   UNL     1      -8.748  18.856  66.837  1.00  0.00    -0.300 C  
HETATM   24  H   UNL     1      -9.170  20.404  68.172  1.00  0.00     0.000 HD 
HETATM   25  C   UNL     1      -9.237  17.440  66.447  1.00  0.00    -0.249 C  
ENDBRANCH  11  19
TORSDOF 2
ENDMDL
MODEL       74
REMARK 921   NORMALIZED FREE ENERGY PREDICTED BY IDOCK:   -4.89 KCAL/MOL
REMARK 922        TOTAL FREE ENERGY PREDICTED BY IDOCK:   -6.03 KCAL/MOL
REMARK 923 INTER-LIGAND FREE ENERGY PREDICTED BY IDOCK:   -5.96 KCAL/MOL
REMARK 924 INTRA-LIGAND FREE ENERGY PREDICTED BY IDOCK:   -0.06 KCAL/MOL
REMARK 927      BINDING AFFINITY PREDICTED BY RF-SCORE:    0.00 PKD
ROOT
HETATM    1  O   UNL     1     -10.160   5.288  67.615  1.00  0.00    -0.163 OA 
HETATM    2  C   UNL     1      -9.803   6.160  66.643  1.00  0.00    -0.159 C  
HETATM    3  O   UNL     1      -9.328   5.786  65.577  1.00  0.00    -0.055 OA 
HETATM    4  C   UNL     1     -10.043   7.577  66.974  1.00  0.00    -0.332 C  
HETATM    5  C   UNL     1      -9.713   8.530  66.088  1.00  0.00    -0.189 C  
HETATM    6  N   UNL     1      -9.919   9.890  66.245  1.00  0.00    -0.243 NA 
HETATM    7  C   UNL     1     -10.482  10.378  67.460  1.00  0.00    -0.245 A  
HETATM    8  C   UNL     1     -10.867   9.463  68.455  1.00  0.00    -0.156 A  
HETATM    9  C   UNL     1     -11.447   9.889  69.648  1.00  0.00    -0.160 A  
HETATM   10  C   UNL     1     -10.665  11.747  67.730  1.00  0.00    -0.244 A  
HETATM   11  C   UNL     1     -11.232  12.220  68.935  1.00  0.00    -0.273 A  
HETATM   12  C   UNL     1     -10.651   8.018  68.243  1.00  0.00    -0.101 C  
HETATM   13  C   UNL     1     -11.633  11.247  69.869  1.00  0.00    -0.334 A  
HETATM   14  O   UNL     1     -10.957   7.192  69.101  1.00  0.00    -0.198 OA 
HETATM   15  F   UNL     1     -12.230  11.601  71.017  1.00  0.00    -0.435 F  
ENDROOT
BRANCH   6  16
HETATM   16  C   UNL     1      -9.570  10.803  65.134  1.00  0.00    -0.245 C  
HETATM   17  C   UNL     1      -9.465  10.386  63.685  1.00  0.00    -0.353 C  
HETATM   18  C   UNL     1     -10.628  11.210  64.137  1.00  0.00    -0.436 C  
ENDBRANCH   6  16
BRANCH  11  19
HETATM   19  N   UNL     1     -11.289  13.584  69.179  1.00  0.00    -0.271 NA 
HETATM   20  N   UNL     1     -11.718  16.438  69.562  1.00  0.00    -0.245 NA 
HETATM   21  C   UNL     1     -10.563  14.549  68.332  1.00  0.00    -0.244 C  
HETATM   22  C   UNL     1     -11.394  15.851  68.246  1.00  0.00    -0.342 C  
HETATM   23  C   UNL     1     -12.347  15.419  70.428  1.00  0.00    -0.402 C  
HETATM   24  H   UNL     1     -12.295  17.275  69.476  1.00  0.00     0.000 HD 
HETATM   25  C   UNL     1     -11.541  14.102  70.535  1.00  0.00    -0.141 C  
ENDBRANCH  11  19
TORSDOF 2
ENDMDL
MODEL       75
REMARK 921   NORMALIZED FREE ENERGY PREDICTED BY IDOCK:   -4.88 KCAL/MOL
REMARK 922        TOTAL FREE ENERGY PREDICTED BY IDOCK:   -6.01 KCAL/MOL
REMARK 923 INTER-LIGAND FREE ENERGY PREDICTED BY IDOCK:   -5.47 KCAL/MOL
REMARK 924 INTRA-LIGAND FREE ENERGY PREDICTED BY IDOCK:   -0.55 KCAL/MOL
REMARK 927      BINDING AFFINITY PREDICTED BY RF-SCORE:    0.00 PKD
ROOT
HETATM    1  O   UNL     1     -10.680   9.830  66.282  1.00  0.00    -0.055 OA 
HETATM    2  C   UNL     1      -9.533  10.133  66.936  1.00  0.00    -0.169 C  
HETATM    3  O   UNL     1      -8.827   9.269  67.441  1.00  0.00    -0.118 OA 
HETATM    4  C   UNL     1      -9.211  11.571  66.974  1.00  0.00    -0.180 C  
HETATM    5  C   UNL     1      -8.103  11.987  67.609  1.00  0.00    -0.155 C  
HETATM    6  N   UNL     1      -7.657  13.295  67.689  1.00  0.00    -0.156 NA 
HETATM    7  C   UNL     1      -8.433  14.337  67.104  1.00  0.00    -0.200 A  
HETATM    8  C   UNL     1      -9.611  14.012  66.411  1.00  0.00    -0.299 A  
HETATM    9  C   UNL     1     -10.389  14.992  65.800  1.00  0.00    -0.354 A  
HETATM   10  C   UNL     1      -8.087  15.699  67.194  1.00  0.00    -0.247 A  
HETATM   11  C   UNL     1      -8.859  16.725  66.603  1.00  0.00    -0.255 A  
HETATM   12  C   UNL     1     -10.045  12.603  66.329  1.00  0.00    -0.253 C  
HETATM   13  C   UNL     1     -10.004  16.323  65.890  1.00  0.00    -0.339 A  
HETATM   14  O   UNL     1     -11.081  12.284  65.749  1.00  0.00    -0.298 OA 
HETATM   15  F   UNL     1     -10.767  17.223  65.252  1.00  0.00    -0.366 F  
ENDROOT
BRANCH   6  16
HETATM   16  C   UNL     1      -6.368  13.574  68.360  1.00  0.00    -0.093 C  
HETATM   17  C   UNL     1      -5.984  13.051  69.724  1.00  0.00    -0.130 C  
HETATM   18  C   UNL     1      -5.342  12.474  68.502  1.00  0.00    -0.053 C  
ENDBRANCH   6  16
BRANCH  11  19
HETATM   19  N   UNL     1      -8.519  18.051  66.818  1.00  0.00    -0.249 NA 
HETATM   20  N   UNL     1      -8.097  20.917  67.124  1.00  0.00    -0.557 NA 
HETATM   21  C   UNL     1      -7.502  18.729  65.992  1.00  0.00    -0.239 C  
HETATM   22  C   UNL     1      -7.905  20.215  65.838  1.00  0.00    -0.192 C  
HETATM   23  C   UNL     1      -9.038  20.158  67.976  1.00  0.00    -0.197 C  
HETATM   24  H   UNL     1      -8.395  21.883  66.992  1.00  0.00     0.000 HD 
HETATM   25  C   UNL     1      -8.665  18.666  68.149  1.00  0.00    -0.311 C  
ENDBRANCH  11  19
TORSDOF 2
ENDMDL
MODEL       76
REMARK 921   NORMALIZED FREE ENERGY PREDICTED BY IDOCK:   -4.87 KCAL/MOL
REMARK 922        TOTAL FREE ENERGY PREDICTED BY IDOCK:   -6.00 KCAL/MOL
REMARK 923 INTER-LIGAND FREE ENERGY PREDICTED BY IDOCK:   -5.59 KCAL/MOL
REMARK 924 INTRA-LIGAND FREE ENERGY PREDICTED BY IDOCK:   -0.41 KCAL/MOL
REMARK 927      BINDING AFFINITY PREDICTED BY RF-SCORE:    0.00 PKD
ROOT
HETATM    1  O   UNL     1      -7.389   9.158  67.797  1.00  0.00    -0.082 OA 
HETATM    2  C   UNL     1      -8.602   9.473  68.310  1.00  0.00    -0.120 C  
HETATM    3  O   UNL     1      -9.340   8.626  68.798  1.00  0.00    -0.142 OA 
HETATM    4  C   UNL     1      -8.943  10.906  68.237  1.00  0.00    -0.150 C  
HETATM    5  C   UNL     1     -10.129  11.329  68.703  1.00  0.00    -0.208 C  
HETATM    6  N   UNL     1     -10.564  12.643  68.738  1.00  0.00    -0.220 NA 
HETATM    7  C   UNL     1      -9.737  13.670  68.196  1.00  0.00    -0.229 A  
HETATM    8  C   UNL     1      -8.472  13.336  67.685  1.00  0.00    -0.191 A  
HETATM    9  C   UNL     1      -7.616  14.307  67.170  1.00  0.00     0.002 A  
HETATM   10  C   UNL     1     -10.128  15.021  68.132  1.00  0.00    -0.220 A  
HETATM   11  C   UNL     1      -9.297  16.033  67.601  1.00  0.00    -0.214 A  
HETATM   12  C   UNL     1      -8.033  11.926  67.683  1.00  0.00    -0.146 C  
HETATM   13  C   UNL     1      -8.027  15.633  67.144  1.00  0.00    -0.219 A  
HETATM   14  O   UNL     1      -6.941  11.595  67.225  1.00  0.00    -0.110 OA 
HETATM   15  F   UNL     1      -7.151  16.533  66.673  1.00  0.00    -0.215 F  
ENDROOT
BRANCH   6  16
HETATM   16  C   UNL     1     -11.871  12.951  69.361  1.00  0.00    -0.312 C  
HETATM   17  C   UNL     1     -12.401  12.284  70.609  1.00  0.00    -0.375 C  
HETATM   18  C   UNL     1     -11.919  13.699  70.672  1.00  0.00    -0.328 C  
ENDBRANCH   6  16
BRANCH  11  19
HETATM   19  N   UNL     1      -9.784  17.324  67.473  1.00  0.00    -0.259 NA 
HETATM   20  N   UNL     1     -10.487  20.133  67.156  1.00  0.00    -0.362 NA 
HETATM   21  C   UNL     1     -10.233  18.099  68.645  1.00  0.00    -0.366 C  
HETATM   22  C   UNL     1      -9.908  19.592  68.403  1.00  0.00    -0.428 C  
HETATM   23  C   UNL     1     -10.110  19.276  66.012  1.00  0.00    -0.387 C  
HETATM   24  H   UNL     1     -10.228  21.108  67.005  1.00  0.00     0.000 HD 
HETATM   25  C   UNL     1     -10.421  17.774  66.222  1.00  0.00    -0.307 C  
ENDBRANCH  11  19
TORSDOF 2
ENDMDL
MODEL       77
REMARK 921   NORMALIZED FREE ENERGY PREDICTED BY IDOCK:   -4.78 KCAL/MOL
REMARK 922        TOTAL FREE ENERGY PREDICTED BY IDOCK:   -5.90 KCAL/MOL
REMARK 923 INTER-LIGAND FREE ENERGY PREDICTED BY IDOCK:   -5.30 KCAL/MOL
REMARK 924 INTRA-LIGAND FREE ENERGY PREDICTED BY IDOCK:   -0.60 KCAL/MOL
REMARK 927      BINDING AFFINITY PREDICTED BY RF-SCORE:    0.00 PKD
ROOT
HETATM    1  O   UNL     1      -9.449   6.751  67.819  1.00  0.00    -0.120 OA 
HETATM    2  C   UNL     1      -8.410   7.548  68.165  1.00  0.00    -0.125 C  
HETATM    3  O   UNL     1      -7.346   7.090  68.564  1.00  0.00    -0.094 OA 
HETATM    4  C   UNL     1      -8.669   8.992  68.011  1.00  0.00    -0.129 C  
HETATM    5  C   UNL     1      -7.712   9.875  68.339  1.00  0.00    -0.084 C  
HETATM    6  N   UNL     1      -7.799  11.250  68.208  1.00  0.00    -0.122 NA 
HETATM    7  C   UNL     1      -9.010  11.834  67.734  1.00  0.00    -0.173 A  
HETATM    8  C   UNL     1     -10.075  10.998  67.359  1.00  0.00    -0.216 A  
HETATM    9  C   UNL     1     -11.269  11.519  66.864  1.00  0.00    -0.363 A  
HETATM   10  C   UNL     1      -9.207  13.224  67.631  1.00  0.00    -0.209 A  
HETATM   11  C   UNL     1     -10.409  13.793  67.152  1.00  0.00    -0.261 A  
HETATM   12  C   UNL     1      -9.939   9.535  67.493  1.00  0.00    -0.186 C  
HETATM   13  C   UNL     1     -11.418  12.896  66.755  1.00  0.00    -0.340 A  
HETATM   14  O   UNL     1     -10.858   8.774  67.194  1.00  0.00    -0.209 OA 
HETATM   15  F   UNL     1     -12.572  13.344  66.238  1.00  0.00    -0.432 F  
ENDROOT
BRANCH   6  16
HETATM   16  C   UNL     1      -6.620  12.080  68.541  1.00  0.00    -0.062 C  
HETATM   17  C   UNL     1      -5.900  12.049  69.869  1.00  0.00    -0.139 C  
HETATM   18  C   UNL     1      -5.260  11.435  68.665  1.00  0.00    -0.043 C  
ENDBRANCH   6  16
BRANCH  11  19
HETATM   19  N   UNL     1     -10.574  15.169  67.174  1.00  0.00    -0.289 NA 
HETATM   20  N   UNL     1     -10.606  18.076  67.338  1.00  0.00    -0.386 NA 
HETATM   21  C   UNL     1     -11.392  15.830  68.209  1.00  0.00    -0.354 C  
HETATM   22  C   UNL     1     -10.765  17.209  68.524  1.00  0.00    -0.326 C  
HETATM   23  C   UNL     1      -9.878  17.350  66.276  1.00  0.00    -0.279 C  
HETATM   24  H   UNL     1     -10.161  18.964  67.570  1.00  0.00     0.000 HD 
HETATM   25  C   UNL     1     -10.479  15.965  65.938  1.00  0.00    -0.359 C  
ENDBRANCH  11  19
TORSDOF 2
ENDMDL
MODEL       78
REMARK 921   NORMALIZED FREE ENERGY PREDICTED BY IDOCK:   -4.70 KCAL/MOL
REMARK 922        TOTAL FREE ENERGY PREDICTED BY IDOCK:   -5.82 KCAL/MOL
REMARK 923 INTER-LIGAND FREE ENERGY PREDICTED BY IDOCK:   -5.44 KCAL/MOL
REMARK 924 INTRA-LIGAND FREE ENERGY PREDICTED BY IDOCK:   -0.38 KCAL/MOL
REMARK 927      BINDING AFFINITY PREDICTED BY RF-SCORE:    0.00 PKD
ROOT
HETATM    1  O   UNL     1      -9.775   5.202  67.344  1.00  0.00    -0.135 OA 
HETATM    2  C   UNL     1      -9.174   5.842  66.312  1.00  0.00    -0.158 C  
HETATM    3  O   UNL     1      -8.528   5.240  65.463  1.00  0.00    -0.129 OA 
HETATM    4  C   UNL     1      -9.372   7.303  66.300  1.00  0.00    -0.160 C  
HETATM    5  C   UNL     1      -8.807   8.041  65.330  1.00  0.00    -0.014 C  
HETATM    6  N   UNL     1      -8.942   9.409  65.169  1.00  0.00    -0.201 NA 
HETATM    7  C   UNL     1      -9.695  10.156  66.122  1.00  0.00    -0.218 A  
HETATM    8  C   UNL     1     -10.332   9.481  67.176  1.00  0.00    -0.320 A  
HETATM    9  C   UNL     1     -11.102  10.162  68.116  1.00  0.00    -0.290 A  
HETATM   10  C   UNL     1      -9.829  11.556  66.071  1.00  0.00    -0.255 A  
HETATM   11  C   UNL     1     -10.586  12.287  67.015  1.00  0.00    -0.223 A  
HETATM   12  C   UNL     1     -10.183   8.017  67.304  1.00  0.00    -0.275 C  
HETATM   13  C   UNL     1     -11.230  11.542  68.021  1.00  0.00    -0.269 A  
HETATM   14  O   UNL     1     -10.709   7.397  68.226  1.00  0.00    -0.180 OA 
HETATM   15  F   UNL     1     -12.012  12.145  68.929  1.00  0.00    -0.314 F  
ENDROOT
BRANCH   6  16
HETATM   16  C   UNL     1      -8.318  10.059  63.996  1.00  0.00    -0.170 C  
HETATM   17  C   UNL     1      -7.681   9.317  62.845  1.00  0.00    -0.120 C  
HETATM   18  C   UNL     1      -9.000   9.993  62.650  1.00  0.00    -0.278 C  
ENDBRANCH   6  16
BRANCH  11  19
HETATM   19  N   UNL     1     -10.591  13.672  66.968  1.00  0.00    -0.272 NA 
HETATM   20  N   UNL     1     -10.462  16.574  67.176  1.00  0.00    -0.310 NA 
HETATM   21  C   UNL     1     -11.835  14.444  67.142  1.00  0.00    -0.410 C  
HETATM   22  C   UNL     1     -11.494  15.770  67.864  1.00  0.00    -0.221 C  
HETATM   23  C   UNL     1      -9.267  15.744  66.916  1.00  0.00    -0.229 C  
HETATM   24  H   UNL     1     -10.233  17.424  67.690  1.00  0.00     0.000 HD 
HETATM   25  C   UNL     1      -9.573  14.408  66.197  1.00  0.00    -0.283 C  
ENDBRANCH  11  19
TORSDOF 2
ENDMDL
MODEL       79
REMARK 921   NORMALIZED FREE ENERGY PREDICTED BY IDOCK:   -4.68 KCAL/MOL
REMARK 922        TOTAL FREE ENERGY PREDICTED BY IDOCK:   -5.79 KCAL/MOL
REMARK 923 INTER-LIGAND FREE ENERGY PREDICTED BY IDOCK:   -5.25 KCAL/MOL
REMARK 924 INTRA-LIGAND FREE ENERGY PREDICTED BY IDOCK:   -0.54 KCAL/MOL
REMARK 927      BINDING AFFINITY PREDICTED BY RF-SCORE:    0.00 PKD
ROOT
HETATM    1  O   UNL     1     -10.831   3.491  73.751  1.00  0.00    -0.201 OA 
HETATM    2  C   UNL     1     -10.311   3.388  72.505  1.00  0.00    -0.116 C  
HETATM    3  O   UNL     1      -9.863   2.332  72.074  1.00  0.00    -0.133 OA 
HETATM    4  C   UNL     1     -10.341   4.638  71.724  1.00  0.00    -0.208 C  
HETATM    5  C   UNL     1      -9.838   4.656  70.480  1.00  0.00    -0.231 C  
HETATM    6  N   UNL     1      -9.837   5.740  69.620  1.00  0.00    -0.166 NA 
HETATM    7  C   UNL     1     -10.360   6.989  70.067  1.00  0.00    -0.202 A  
HETATM    8  C   UNL     1     -10.915   7.081  71.354  1.00  0.00    -0.266 A  
HETATM    9  C   UNL     1     -11.463   8.271  71.826  1.00  0.00    -0.353 A  
HETATM   10  C   UNL     1     -10.339   8.158  69.283  1.00  0.00    -0.222 A  
HETATM   11  C   UNL     1     -10.868   9.389  69.732  1.00  0.00    -0.232 A  
HETATM   12  C   UNL     1     -10.917   5.896  72.236  1.00  0.00    -0.265 C  
HETATM   13  C   UNL     1     -11.446   9.399  71.016  1.00  0.00    -0.334 A  
HETATM   14  O   UNL     1     -11.376   5.946  73.375  1.00  0.00    -0.124 OA 
HETATM   15  F   UNL     1     -12.020  10.509  71.503  1.00  0.00    -0.426 F  
ENDROOT
BRANCH   6  16
HETATM   16  C   UNL     1      -9.313   5.569  68.247  1.00  0.00    -0.111 C  
HETATM   17  C   UNL     1      -8.828   4.257  67.675  1.00  0.00    -0.124 C  
HETATM   18  C   UNL     1     -10.134   4.826  67.219  1.00  0.00    -0.192 C  
ENDBRANCH   6  16
BRANCH  11  19
HETATM   19  N   UNL     1     -10.722  10.525  68.951  1.00  0.00    -0.204 NA 
HETATM   20  N   UNL     1     -10.357  13.078  67.598  1.00  0.00    -0.220 NA 
HETATM   21  C   UNL     1     -11.887  11.208  68.358  1.00  0.00    -0.232 C  
HETATM   22  C   UNL     1     -11.599  12.727  68.316  1.00  0.00    -0.334 C  
HETATM   23  C   UNL     1      -9.224  12.300  68.141  1.00  0.00    -0.197 C  
HETATM   24  H   UNL     1     -10.175  14.082  67.616  1.00  0.00     0.000 HD 
HETATM   25  C   UNL     1      -9.480  10.774  68.199  1.00  0.00    -0.158 C  
ENDBRANCH  11  19
TORSDOF 2
ENDMDL
MODEL       80
REMARK 921   NORMALIZED FREE ENERGY PREDICTED BY IDOCK:   -4.66 KCAL/MOL
REMARK 922        TOTAL FREE ENERGY PREDICTED BY IDOCK:   -5.77 KCAL/MOL
REMARK 923 INTER-LIGAND FREE ENERGY PREDICTED BY IDOCK:   -5.43 KCAL/MOL
REMARK 924 INTRA-LIGAND FREE ENERGY PREDICTED BY IDOCK:   -0.34 KCAL/MOL
REMARK 927      BINDING AFFINITY PREDICTED BY RF-SCORE:    0.00 PKD
ROOT
HETATM    1  O   UNL     1      -9.293   3.309  70.395  1.00  0.00    -0.138 OA 
HETATM    2  C   UNL     1     -10.027   4.317  70.925  1.00  0.00    -0.155 C  
HETATM    3  O   UNL     1     -10.567   4.219  72.020  1.00  0.00    -0.091 OA 
HETATM    4  C   UNL     1     -10.104   5.525  70.084  1.00  0.00    -0.308 C  
HETATM    5  C   UNL     1     -10.818   6.582  70.505  1.00  0.00    -0.271 C  
HETATM    6  N   UNL     1     -10.944   7.791  69.844  1.00  0.00    -0.228 NA 
HETATM    7  C   UNL     1     -10.322   7.963  68.573  1.00  0.00    -0.200 A  
HETATM    8  C   UNL     1      -9.547   6.919  68.040  1.00  0.00    -0.125 A  
HETATM    9  C   UNL     1      -8.897   7.048  66.815  1.00  0.00    -0.130 A  
HETATM   10  C   UNL     1     -10.452   9.134  67.802  1.00  0.00    -0.306 A  
HETATM   11  C   UNL     1      -9.824   9.298  66.547  1.00  0.00    -0.263 A  
HETATM   12  C   UNL     1      -9.418   5.651  68.784  1.00  0.00    -0.126 C  
HETATM   13  C   UNL     1      -9.030   8.228  66.093  1.00  0.00    -0.181 A  
HETATM   14  O   UNL     1      -8.765   4.709  68.339  1.00  0.00    -0.097 OA 
HETATM   15  F   UNL     1      -8.353   8.315  64.939  1.00  0.00    -0.142 F  
ENDROOT
BRANCH   6  16
HETATM   16  C   UNL     1     -11.704   8.886  70.486  1.00  0.00    -0.111 C  
HETATM   17  C   UNL     1     -12.083   8.921  71.948  1.00  0.00    -0.443 C  
HETATM   18  C   UNL     1     -11.005   9.825  71.440  1.00  0.00    -0.258 C  
ENDBRANCH   6  16
BRANCH  11  19
HETATM   19  N   UNL     1     -10.078  10.434  65.795  1.00  0.00    -0.264 NA 
HETATM   20  N   UNL     1     -10.281  12.885  64.235  1.00  0.00    -0.568 NA 
HETATM   21  C   UNL     1     -10.723  11.621  66.386  1.00  0.00    -0.272 C  
HETATM   22  C   UNL     1     -10.145  12.885  65.706  1.00  0.00    -0.287 C  
HETATM   23  C   UNL     1      -9.724  11.634  63.677  1.00  0.00    -0.289 C  
HETATM   24  H   UNL     1      -9.862  13.712  63.811  1.00  0.00     0.000 HD 
HETATM   25  C   UNL     1     -10.280  10.349  64.338  1.00  0.00    -0.175 C  
ENDBRANCH  11  19
TORSDOF 2
ENDMDL
MODEL       81
REMARK 921   NORMALIZED FREE ENERGY PREDICTED BY IDOCK:   -4.57 KCAL/MOL
REMARK 922        TOTAL FREE ENERGY PREDICTED BY IDOCK:   -5.66 KCAL/MOL
REMARK 923 INTER-LIGAND FREE ENERGY PREDICTED BY IDOCK:   -5.10 KCAL/MOL
REMARK 924 INTRA-LIGAND FREE ENERGY PREDICTED BY IDOCK:   -0.56 KCAL/MOL
REMARK 927      BINDING AFFINITY PREDICTED BY RF-SCORE:    0.00 PKD
ROOT
HETATM    1  O   UNL     1      -7.445  10.287  69.607  1.00  0.00    -0.127 OA 
HETATM    2  C   UNL     1      -8.475  10.768  68.870  1.00  0.00    -0.149 C  
HETATM    3  O   UNL     1      -9.403  10.054  68.508  1.00  0.00    -0.139 OA 
HETATM    4  C   UNL     1      -8.385  12.206  68.559  1.00  0.00    -0.093 C  
HETATM    5  C   UNL     1      -9.345  12.786  67.821  1.00  0.00    -0.199 C  
HETATM    6  N   UNL     1      -9.413  14.128  67.487  1.00  0.00    -0.205 NA 
HETATM    7  C   UNL     1      -8.367  15.005  67.897  1.00  0.00    -0.148 A  
HETATM    8  C   UNL     1      -7.313  14.502  68.678  1.00  0.00    -0.128 A  
HETATM    9  C   UNL     1      -6.282  15.324  69.126  1.00  0.00    -0.108 A  
HETATM   10  C   UNL     1      -8.323  16.368  67.547  1.00  0.00    -0.176 A  
HETATM   11  C   UNL     1      -7.286  17.232  67.966  1.00  0.00    -0.190 A  
HETATM   12  C   UNL     1      -7.286  13.068  69.032  1.00  0.00     0.014 C  
HETATM   13  C   UNL     1      -6.284  16.669  68.780  1.00  0.00    -0.147 A  
HETATM   14  O   UNL     1      -6.368  12.589  69.696  1.00  0.00    -0.126 OA 
HETATM   15  F   UNL     1      -5.290  17.426  69.268  1.00  0.00    -0.153 F  
ENDROOT
BRANCH   6  16
HETATM   16  C   UNL     1     -10.586  14.623  66.732  1.00  0.00    -0.288 C  
HETATM   17  C   UNL     1     -11.820  13.803  66.437  1.00  0.00    -0.434 C  
HETATM   18  C   UNL     1     -11.883  14.896  67.456  1.00  0.00    -0.256 C  
ENDBRANCH   6  16
BRANCH  11  19
HETATM   19  N   UNL     1      -7.248  18.537  67.500  1.00  0.00    -0.210 NA 
HETATM   20  N   UNL     1      -6.834  21.248  66.519  1.00  0.00    -0.675 NA 
HETATM   21  C   UNL     1      -7.509  19.682  68.393  1.00  0.00    -0.324 C  
HETATM   22  C   UNL     1      -6.635  20.873  67.934  1.00  0.00    -0.308 C  
HETATM   23  C   UNL     1      -6.673  20.059  65.656  1.00  0.00    -0.268 C  
HETATM   24  H   UNL     1      -6.221  22.012  66.236  1.00  0.00     0.000 HD 
HETATM   25  C   UNL     1      -7.533  18.847  66.088  1.00  0.00    -0.266 C  
ENDBRANCH  11  19
TORSDOF 2
ENDMDL
MODEL       82
REMARK 921   NORMALIZED FREE ENERGY PREDICTED BY IDOCK:   -4.51 KCAL/MOL
REMARK 922        TOTAL FREE ENERGY PREDICTED BY IDOCK:   -5.60 KCAL/MOL
REMARK 923 INTER-LIGAND FREE ENERGY PREDICTED BY IDOCK:   -5.06 KCAL/MOL
REMARK 924 INTRA-LIGAND FREE ENERGY PREDICTED BY IDOCK:   -0.54 KCAL/MOL
REMARK 927      BINDING AFFINITY PREDICTED BY RF-SCORE:    0.00 PKD
ROOT
HETATM    1  O   UNL     1      -9.691   6.819  65.976  1.00  0.00     0.025 OA 
HETATM    2  C   UNL     1     -10.260   7.109  67.171  1.00  0.00    -0.257 C  
HETATM    3  O   UNL     1     -10.712   6.237  67.903  1.00  0.00    -0.242 OA 
HETATM    4  C   UNL     1     -10.275   8.544  67.508  1.00  0.00    -0.307 C  
HETATM    5  C   UNL     1     -10.828   8.948  68.663  1.00  0.00     0.009 C  
HETATM    6  N   UNL     1     -10.876  10.251  69.127  1.00  0.00    -0.220 NA 
HETATM    7  C   UNL     1     -10.350  11.302  68.320  1.00  0.00    -0.183 A  
HETATM    8  C   UNL     1      -9.745  10.989  67.092  1.00  0.00    -0.198 A  
HETATM    9  C   UNL     1      -9.192  11.978  66.281  1.00  0.00    -0.208 A  
HETATM   10  C   UNL     1     -10.416  12.661  68.685  1.00  0.00    -0.224 A  
HETATM   11  C   UNL     1      -9.883  13.695  67.882  1.00  0.00    -0.237 A  
HETATM   12  C   UNL     1      -9.693   9.585  66.639  1.00  0.00    -0.211 C  
HETATM   13  C   UNL     1      -9.255  13.305  66.685  1.00  0.00    -0.215 A  
HETATM   14  O   UNL     1      -9.190   9.277  65.560  1.00  0.00    -0.206 OA 
HETATM   15  F   UNL     1      -8.675  14.213  65.886  1.00  0.00     0.111 F  
ENDROOT
BRANCH   6  16
HETATM   16  C   UNL     1     -11.452  10.517  70.464  1.00  0.00    -0.345 C  
HETATM   17  C   UNL     1     -12.601   9.746  71.069  1.00  0.00    -0.406 C  
HETATM   18  C   UNL     1     -11.215   9.540  71.591  1.00  0.00    -0.378 C  
ENDBRANCH   6  16
BRANCH  11  19
HETATM   19  N   UNL     1     -10.074  15.017  68.251  1.00  0.00    -0.219 NA 
HETATM   20  N   UNL     1     -10.309  17.878  68.741  1.00  0.00    -0.359 NA 
HETATM   21  C   UNL     1      -9.285  15.637  69.332  1.00  0.00    -0.279 C  
HETATM   22  C   UNL     1      -9.060  17.128  68.984  1.00  0.00    -0.123 C  
HETATM   23  C   UNL     1     -11.130  17.177  67.732  1.00  0.00    -0.065 C  
HETATM   24  H   UNL     1     -10.129  18.848  68.481  1.00  0.00     0.000 HD 
HETATM   25  C   UNL     1     -11.373  15.682  68.049  1.00  0.00    -0.324 C  
ENDBRANCH  11  19
TORSDOF 2
ENDMDL
MODEL       83
REMARK 921   NORMALIZED FREE ENERGY PREDICTED BY IDOCK:   -4.45 KCAL/MOL
REMARK 922        TOTAL FREE ENERGY PREDICTED BY IDOCK:   -5.54 KCAL/MOL
REMARK 923 INTER-LIGAND FREE ENERGY PREDICTED BY IDOCK:   -4.99 KCAL/MOL
REMARK 924 INTRA-LIGAND FREE ENERGY PREDICTED BY IDOCK:   -0.55 KCAL/MOL
REMARK 927      BINDING AFFINITY PREDICTED BY RF-SCORE:    0.00 PKD
ROOT
HETATM    1  O   UNL     1     -12.751  14.148  64.799  1.00  0.00    -0.650 OA 
HETATM    2  C   UNL     1     -12.390  13.636  66.000  1.00  0.00    -0.445 C  
HETATM    3  O   UNL     1     -12.809  14.098  67.054  1.00  0.00     0.157 OA 
HETATM    4  C   UNL     1     -11.471  12.486  65.924  1.00  0.00    -0.417 C  
HETATM    5  C   UNL     1     -11.035  11.909  67.055  1.00  0.00    -0.278 C  
HETATM    6  N   UNL     1     -10.208  10.802  67.134  1.00  0.00    -0.204 NA 
HETATM    7  C   UNL     1      -9.705  10.216  65.936  1.00  0.00    -0.232 A  
HETATM    8  C   UNL     1     -10.101  10.741  64.695  1.00  0.00    -0.410 A  
HETATM    9  C   UNL     1      -9.658  10.186  63.496  1.00  0.00    -0.249 A  
HETATM   10  C   UNL     1      -8.808   9.131  65.927  1.00  0.00    -0.209 A  
HETATM   11  C   UNL     1      -8.322   8.551  64.733  1.00  0.00    -0.153 A  
HETATM   12  C   UNL     1     -11.001  11.910  64.649  1.00  0.00    -0.316 C  
HETATM   13  C   UNL     1      -8.792   9.101  63.526  1.00  0.00    -0.057 A  
HETATM   14  O   UNL     1     -11.352  12.408  63.581  1.00  0.00    -0.412 OA 
HETATM   15  F   UNL     1      -8.426   8.581  62.345  1.00  0.00    -0.177 F  
ENDROOT
BRANCH   6  16
HETATM   16  C   UNL     1      -9.887  10.239  68.464  1.00  0.00    -0.164 C  
HETATM   17  C   UNL     1     -10.737  10.423  69.699  1.00  0.00    -0.304 C  
HETATM   18  C   UNL     1     -10.706   9.095  69.013  1.00  0.00    -0.176 C  
ENDBRANCH   6  16
BRANCH  11  19
HETATM   19  N   UNL     1      -7.361   7.553  64.795  1.00  0.00    -0.075 NA 
HETATM   20  N   UNL     1      -5.452   5.361  64.621  1.00  0.00    -0.016 NA 
HETATM   21  C   UNL     1      -7.543   6.361  65.645  1.00  0.00    -0.086 C  
HETATM   22  C   UNL     1      -6.878   5.152  64.944  1.00  0.00    -0.049 C  
HETATM   23  C   UNL     1      -5.286   6.619  63.863  1.00  0.00    -0.026 C  
HETATM   24  H   UNL     1      -5.049   4.563  64.131  1.00  0.00     0.000 HD 
HETATM   25  C   UNL     1      -5.942   7.849  64.536  1.00  0.00    -0.048 C  
ENDBRANCH  11  19
TORSDOF 2
ENDMDL
MODEL       84
REMARK 921   NORMALIZED FREE ENERGY PREDICTED BY IDOCK:   -4.43 KCAL/MOL
REMARK 922        TOTAL FREE ENERGY PREDICTED BY IDOCK:   -5.51 KCAL/MOL
REMARK 923 INTER-LIGAND FREE ENERGY PREDICTED BY IDOCK:   -4.97 KCAL/MOL
REMARK 924 INTRA-LIGAND FREE ENERGY PREDICTED BY IDOCK:   -0.54 KCAL/MOL
REMARK 927      BINDING AFFINITY PREDICTED BY RF-SCORE:    0.00 PKD
ROOT
HETATM    1  O   UNL     1      -5.140   8.793  64.470  1.00  0.00    -0.041 OA 
HETATM    2  C   UNL     1      -6.260   8.125  64.837  1.00  0.00    -0.049 C  
HETATM    3  O   UNL     1      -6.435   6.947  64.552  1.00  0.00    -0.038 OA 
HETATM    4  C   UNL     1      -7.229   8.930  65.605  1.00  0.00    -0.085 C  
HETATM    5  C   UNL     1      -8.382   8.372  66.007  1.00  0.00    -0.126 C  
HETATM    6  N   UNL     1      -9.360   8.991  66.767  1.00  0.00    -0.154 NA 
HETATM    7  C   UNL     1      -9.199  10.358  67.138  1.00  0.00    -0.143 A  
HETATM    8  C   UNL     1      -8.025  11.036  66.771  1.00  0.00    -0.152 A  
HETATM    9  C   UNL     1      -7.809  12.364  67.133  1.00  0.00    -0.138 A  
HETATM   10  C   UNL     1     -10.171  11.082  67.853  1.00  0.00    -0.207 A  
HETATM   11  C   UNL     1      -9.998  12.435  68.224  1.00  0.00    -0.224 A  
HETATM   12  C   UNL     1      -6.994  10.337  65.978  1.00  0.00    -0.120 C  
HETATM   13  C   UNL     1      -8.781  13.040  67.858  1.00  0.00    -0.189 A  
HETATM   14  O   UNL     1      -5.964  10.907  65.621  1.00  0.00    -0.133 OA 
HETATM   15  F   UNL     1      -8.508  14.304  68.214  1.00  0.00    -0.139 F  
ENDROOT
BRANCH   6  16
HETATM   16  C   UNL     1     -10.539   8.207  67.196  1.00  0.00    -0.285 C  
HETATM   17  C   UNL     1     -10.700   6.720  66.985  1.00  0.00    -0.435 C  
HETATM   18  C   UNL     1     -10.420   7.248  68.356  1.00  0.00    -0.228 C  
ENDBRANCH   6  16
BRANCH  11  19
HETATM   19  N   UNL     1     -11.038  13.118  68.836  1.00  0.00    -0.264 NA 
HETATM   20  N   UNL     1     -12.986  14.710  70.303  1.00  0.00    -0.566 NA 
HETATM   21  C   UNL     1     -11.906  12.466  69.834  1.00  0.00    -0.305 C  
HETATM   22  C   UNL     1     -12.327  13.522  70.884  1.00  0.00    -0.356 C  
HETATM   23  C   UNL     1     -12.143  15.279  69.231  1.00  0.00    -0.249 C  
HETATM   24  H   UNL     1     -13.221  15.403  71.013  1.00  0.00     0.000 HD 
HETATM   25  C   UNL     1     -11.702  14.248  68.164  1.00  0.00    -0.350 C  
ENDBRANCH  11  19
TORSDOF 2
ENDMDL
MODEL       85
REMARK 921   NORMALIZED FREE ENERGY PREDICTED BY IDOCK:   -4.40 KCAL/MOL
REMARK 922        TOTAL FREE ENERGY PREDICTED BY IDOCK:   -5.47 KCAL/MOL
REMARK 923 INTER-LIGAND FREE ENERGY PREDICTED BY IDOCK:   -5.44 KCAL/MOL
REMARK 924 INTRA-LIGAND FREE ENERGY PREDICTED BY IDOCK:   -0.04 KCAL/MOL
REMARK 927      BINDING AFFINITY PREDICTED BY RF-SCORE:    0.00 PKD
ROOT
HETATM    1  O   UNL     1      -7.981   4.376  66.129  1.00  0.00    -0.098 OA 
HETATM    2  C   UNL     1      -8.547   4.901  67.242  1.00  0.00    -0.104 C  
HETATM    3  O   UNL     1      -8.679   4.251  68.272  1.00  0.00    -0.093 OA 
HETATM    4  C   UNL     1      -8.975   6.306  67.106  1.00  0.00    -0.111 C  
HETATM    5  C   UNL     1      -9.562   6.924  68.143  1.00  0.00    -0.124 C  
HETATM    6  N   UNL     1      -9.974   8.245  68.173  1.00  0.00    -0.184 NA 
HETATM    7  C   UNL     1      -9.831   9.050  67.006  1.00  0.00    -0.209 A  
HETATM    8  C   UNL     1      -9.224   8.503  65.863  1.00  0.00    -0.245 A  
HETATM    9  C   UNL     1      -9.036   9.257  64.708  1.00  0.00    -0.217 A  
HETATM   10  C   UNL     1     -10.281  10.382  66.928  1.00  0.00    -0.281 A  
HETATM   11  C   UNL     1     -10.126  11.175  65.769  1.00  0.00    -0.249 A  
HETATM   12  C   UNL     1      -8.777   7.095  65.876  1.00  0.00    -0.130 C  
HETATM   13  C   UNL     1      -9.472  10.575  64.675  1.00  0.00    -0.263 A  
HETATM   14  O   UNL     1      -8.261   6.577  64.887  1.00  0.00    -0.136 OA 
HETATM   15  F   UNL     1      -9.233  11.269  63.552  1.00  0.00    -0.212 F  
ENDROOT
BRANCH   6  16
HETATM   16  C   UNL     1     -10.534   8.795  69.428  1.00  0.00    -0.222 C  
HETATM   17  C   UNL     1     -10.525   8.074  70.756  1.00  0.00    -0.221 C  
HETATM   18  C   UNL     1      -9.604   9.232  70.535  1.00  0.00    -0.317 C  
ENDBRANCH   6  16
BRANCH  11  19
HETATM   19  N   UNL     1     -10.684  12.443  65.724  1.00  0.00    -0.260 NA 
HETATM   20  N   UNL     1     -11.585  15.211  65.797  1.00  0.00    -0.178 NA 
HETATM   21  C   UNL     1     -11.818  12.816  66.590  1.00  0.00    -0.393 C  
HETATM   22  C   UNL     1     -11.679  14.311  66.965  1.00  0.00    -0.403 C  
HETATM   23  C   UNL     1     -10.512  14.750  64.891  1.00  0.00    -0.369 C  
HETATM   24  H   UNL     1     -11.460  16.185  66.073  1.00  0.00     0.000 HD 
HETATM   25  C   UNL     1     -10.619  13.257  64.498  1.00  0.00    -0.419 C  
ENDBRANCH  11  19
TORSDOF 2
ENDMDL
MODEL       86
REMARK 921   NORMALIZED FREE ENERGY PREDICTED BY IDOCK:   -4.37 KCAL/MOL
REMARK 922        TOTAL FREE ENERGY PREDICTED BY IDOCK:   -5.44 KCAL/MOL
REMARK 923 INTER-LIGAND FREE ENERGY PREDICTED BY IDOCK:   -5.98 KCAL/MOL
REMARK 924 INTRA-LIGAND FREE ENERGY PREDICTED BY IDOCK:    0.54 KCAL/MOL
REMARK 927      BINDING AFFINITY PREDICTED BY RF-SCORE:    0.00 PKD
ROOT
HETATM    1  O   UNL     1     -12.092  14.677  67.930  1.00  0.00    -0.304 OA 
HETATM    2  C   UNL     1     -12.286  14.096  69.138  1.00  0.00    -0.255 C  
HETATM    3  O   UNL     1     -12.749  14.715  70.089  1.00  0.00    -0.314 OA 
HETATM    4  C   UNL     1     -11.905  12.673  69.201  1.00  0.00    -0.349 C  
HETATM    5  C   UNL     1     -12.041  12.000  70.355  1.00  0.00    -0.321 C  
HETATM    6  N   UNL     1     -11.765  10.658  70.549  1.00  0.00    -0.333 NA 
HETATM    7  C   UNL     1     -11.238   9.888  69.471  1.00  0.00    -0.177 A  
HETATM    8  C   UNL     1     -11.060  10.494  68.216  1.00  0.00    -0.340 A  
HETATM    9  C   UNL     1     -10.574   9.777  67.125  1.00  0.00    -0.298 A  
HETATM   10  C   UNL     1     -10.870   8.535  69.598  1.00  0.00    -0.157 A  
HETATM   11  C   UNL     1     -10.357   7.778  68.520  1.00  0.00    -0.197 A  
HETATM   12  C   UNL     1     -11.385  11.923  68.042  1.00  0.00    -0.288 C  
HETATM   13  C   UNL     1     -10.243   8.437  67.282  1.00  0.00    -0.279 A  
HETATM   14  O   UNL     1     -11.221  12.491  66.963  1.00  0.00    -0.270 OA 
HETATM   15  F   UNL     1      -9.815   7.783  66.192  1.00  0.00    -0.248 F  
ENDROOT
BRANCH   6  16
HETATM   16  C   UNL     1     -12.048  10.049  71.867  1.00  0.00    -0.105 C  
HETATM   17  C   UNL     1     -13.312   9.296  72.208  1.00  0.00    -0.547 C  
HETATM   18  C   UNL     1     -12.032   8.546  72.019  1.00  0.00    -0.427 C  
ENDBRANCH   6  16
BRANCH  11  19
HETATM   19  N   UNL     1      -9.916   6.482  68.740  1.00  0.00    -0.139 NA 
HETATM   20  N   UNL     1      -8.701   3.854  69.057  1.00  0.00    -0.087 NA 
HETATM   21  C   UNL     1     -10.391   5.357  67.913  1.00  0.00    -0.160 C  
HETATM   22  C   UNL     1      -9.239   4.334  67.767  1.00  0.00    -0.145 C  
HETATM   23  C   UNL     1      -8.334   5.005  69.908  1.00  0.00    -0.081 C  
HETATM   24  H   UNL     1      -7.922   3.208  68.930  1.00  0.00     0.000 HD 
HETATM   25  C   UNL     1      -9.464   6.050  70.074  1.00  0.00    -0.156 C  
ENDBRANCH  11  19
TORSDOF 2
ENDMDL
MODEL       87
REMARK 921   NORMALIZED FREE ENERGY PREDICTED BY IDOCK:   -4.36 KCAL/MOL
REMARK 922        TOTAL FREE ENERGY PREDICTED BY IDOCK:   -5.44 KCAL/MOL
REMARK 923 INTER-LIGAND FREE ENERGY PREDICTED BY IDOCK:   -5.41 KCAL/MOL
REMARK 924 INTRA-LIGAND FREE ENERGY PREDICTED BY IDOCK:   -0.03 KCAL/MOL
REMARK 927      BINDING AFFINITY PREDICTED BY RF-SCORE:    0.00 PKD
ROOT
HETATM    1  O   UNL     1     -10.195   3.532  71.654  1.00  0.00    -0.101 OA 
HETATM    2  C   UNL     1     -10.909   4.498  72.280  1.00  0.00     0.033 C  
HETATM    3  O   UNL     1     -11.476   4.297  73.347  1.00  0.00    -0.280 OA 
HETATM    4  C   UNL     1     -10.934   5.793  71.576  1.00  0.00    -0.304 C  
HETATM    5  C   UNL     1     -11.625   6.819  72.099  1.00  0.00    -0.288 C  
HETATM    6  N   UNL     1     -11.703   8.097  71.573  1.00  0.00    -0.275 NA 
HETATM    7  C   UNL     1     -11.049   8.388  70.340  1.00  0.00    -0.231 A  
HETATM    8  C   UNL     1     -10.294   7.386  69.709  1.00  0.00    -0.226 A  
HETATM    9  C   UNL     1      -9.614   7.629  68.518  1.00  0.00    -0.149 A  
HETATM   10  C   UNL     1     -11.129   9.640  69.703  1.00  0.00    -0.223 A  
HETATM   11  C   UNL     1     -10.470   9.922  68.485  1.00  0.00    -0.205 A  
HETATM   12  C   UNL     1     -10.217   6.040  70.311  1.00  0.00    -0.208 C  
HETATM   13  C   UNL     1      -9.698   8.884  67.929  1.00  0.00    -0.160 A  
HETATM   14  O   UNL     1      -9.583   5.133  69.775  1.00  0.00    -0.146 OA 
HETATM   15  F   UNL     1      -8.995   9.077  66.803  1.00  0.00    -0.130 F  
ENDROOT
BRANCH   6  16
HETATM   16  C   UNL     1     -12.444   9.137  72.320  1.00  0.00    -0.333 C  
HETATM   17  C   UNL     1     -13.605   9.927  71.761  1.00  0.00    -0.363 C  
HETATM   18  C   UNL     1     -13.855   8.865  72.785  1.00  0.00    -0.280 C  
ENDBRANCH   6  16
BRANCH  11  19
HETATM   19  N   UNL     1     -10.675  11.141  67.858  1.00  0.00    -0.202 NA 
HETATM   20  N   UNL     1     -10.777  13.762  66.592  1.00  0.00    -0.276 NA 
HETATM   21  C   UNL     1     -11.359  12.254  68.543  1.00  0.00    -0.286 C  
HETATM   22  C   UNL     1     -10.739  13.586  68.059  1.00  0.00    -0.251 C  
HETATM   23  C   UNL     1     -10.183  12.583  65.928  1.00  0.00    -0.261 C  
HETATM   24  H   UNL     1     -10.332  14.631  66.299  1.00  0.00     0.000 HD 
HETATM   25  C   UNL     1     -10.780  11.233  66.392  1.00  0.00    -0.267 C  
ENDBRANCH  11  19
TORSDOF 2
ENDMDL
MODEL       88
REMARK 921   NORMALIZED FREE ENERGY PREDICTED BY IDOCK:   -4.34 KCAL/MOL
REMARK 922        TOTAL FREE ENERGY PREDICTED BY IDOCK:   -5.41 KCAL/MOL
REMARK 923 INTER-LIGAND FREE ENERGY PREDICTED BY IDOCK:   -4.87 KCAL/MOL
REMARK 924 INTRA-LIGAND FREE ENERGY PREDICTED BY IDOCK:   -0.55 KCAL/MOL
REMARK 927      BINDING AFFINITY PREDICTED BY RF-SCORE:    0.00 PKD
ROOT
HETATM    1  O   UNL     1     -10.010  10.202  64.555  1.00  0.00    -0.326 OA 
HETATM    2  C   UNL     1     -10.501  10.861  65.631  1.00  0.00    -0.208 C  
HETATM    3  O   UNL     1     -10.927  12.007  65.551  1.00  0.00    -0.282 OA 
HETATM    4  C   UNL     1     -10.486  10.084  66.885  1.00  0.00    -0.284 C  
HETATM    5  C   UNL     1     -10.937  10.645  68.018  1.00  0.00    -0.282 C  
HETATM    6  N   UNL     1     -11.021  10.025  69.252  1.00  0.00    -0.229 NA 
HETATM    7  C   UNL     1     -10.553   8.686  69.397  1.00  0.00    -0.199 A  
HETATM    8  C   UNL     1     -10.064   8.003  68.271  1.00  0.00    -0.227 A  
HETATM    9  C   UNL     1      -9.621   6.685  68.356  1.00  0.00    -0.123 A  
HETATM   10  C   UNL     1     -10.542   8.002  70.628  1.00  0.00    -0.227 A  
HETATM   11  C   UNL     1     -10.084   6.672  70.759  1.00  0.00    -0.184 A  
HETATM   12  C   UNL     1     -10.009   8.691  66.966  1.00  0.00    -0.249 C  
HETATM   13  C   UNL     1      -9.646   6.035  69.583  1.00  0.00    -0.148 A  
HETATM   14  O   UNL     1      -9.567   8.131  65.964  1.00  0.00    -0.158 OA 
HETATM   15  F   UNL     1      -9.245   4.755  69.602  1.00  0.00    -0.128 F  
ENDROOT
BRANCH   6  16
HETATM   16  C   UNL     1     -11.620  10.761  70.388  1.00  0.00    -0.339 C  
HETATM   17  C   UNL     1     -12.497  11.983  70.247  1.00  0.00    -0.176 C  
HETATM   18  C   UNL     1     -13.106  10.675  70.638  1.00  0.00    -0.242 C  
ENDBRANCH   6  16
BRANCH  11  19
HETATM   19  N   UNL     1     -10.003   6.094  72.017  1.00  0.00    -0.172 NA 
HETATM   20  N   UNL     1      -9.543   4.741  74.554  1.00  0.00    -0.129 NA 
HETATM   21  C   UNL     1     -10.853   4.950  72.395  1.00  0.00    -0.137 C  
HETATM   22  C   UNL     1     -10.052   4.040  73.358  1.00  0.00    -0.137 C  
HETATM   23  C   UNL     1      -8.787   5.945  74.149  1.00  0.00    -0.123 C  
HETATM   24  H   UNL     1      -8.992   4.127  75.153  1.00  0.00     0.000 HD 
HETATM   25  C   UNL     1      -9.558   6.876  73.183  1.00  0.00    -0.158 C  
ENDBRANCH  11  19
TORSDOF 2
ENDMDL
MODEL       89
REMARK 921   NORMALIZED FREE ENERGY PREDICTED BY IDOCK:   -4.29 KCAL/MOL
REMARK 922        TOTAL FREE ENERGY PREDICTED BY IDOCK:   -5.36 KCAL/MOL
REMARK 923 INTER-LIGAND FREE ENERGY PREDICTED BY IDOCK:   -4.76 KCAL/MOL
REMARK 924 INTRA-LIGAND FREE ENERGY PREDICTED BY IDOCK:   -0.59 KCAL/MOL
REMARK 927      BINDING AFFINITY PREDICTED BY RF-SCORE:    0.00 PKD
ROOT
HETATM    1  O   UNL     1      -9.548  11.558  65.906  1.00  0.00    -0.218 OA 
HETATM    2  C   UNL     1      -9.612  10.240  65.601  1.00  0.00    -0.232 C  
HETATM    3  O   UNL     1      -9.671   9.844  64.444  1.00  0.00    -0.274 OA 
HETATM    4  C   UNL     1      -9.594   9.341  66.769  1.00  0.00    -0.240 C  
HETATM    5  C   UNL     1      -9.668   8.013  66.585  1.00  0.00    -0.243 C  
HETATM    6  N   UNL     1      -9.620   7.052  67.581  1.00  0.00    -0.130 NA 
HETATM    7  C   UNL     1      -9.536   7.459  68.944  1.00  0.00    -0.144 A  
HETATM    8  C   UNL     1      -9.450   8.828  69.249  1.00  0.00    -0.161 A  
HETATM    9  C   UNL     1      -9.338   9.274  70.564  1.00  0.00    -0.316 A  
HETATM   10  C   UNL     1      -9.547   6.553  70.021  1.00  0.00    -0.169 A  
HETATM   11  C   UNL     1      -9.455   6.966  71.370  1.00  0.00    -0.160 A  
HETATM   12  C   UNL     1      -9.483   9.823  68.159  1.00  0.00    -0.135 C  
HETATM   13  C   UNL     1      -9.330   8.349  71.600  1.00  0.00    -0.214 A  
HETATM   14  O   UNL     1      -9.431  11.030  68.390  1.00  0.00    -0.168 OA 
HETATM   15  F   UNL     1      -9.183   8.829  72.844  1.00  0.00    -0.297 F  
ENDROOT
BRANCH   6  16
HETATM   16  C   UNL     1      -9.632   5.622  67.200  1.00  0.00    -0.131 C  
HETATM   17  C   UNL     1     -10.644   4.993  66.271  1.00  0.00    -0.332 C  
HETATM   18  C   UNL     1      -9.242   5.215  65.799  1.00  0.00    -0.162 C  
ENDBRANCH   6  16
BRANCH  11  19
HETATM   19  N   UNL     1      -9.576   6.030  72.385  1.00  0.00    -0.152 NA 
HETATM   20  N   UNL     1      -9.848   3.831  74.275  1.00  0.00    -0.113 NA 
HETATM   21  C   UNL     1     -10.834   5.870  73.139  1.00  0.00    -0.266 C  
HETATM   22  C   UNL     1     -10.993   4.379  73.519  1.00  0.00    -0.295 C  
HETATM   23  C   UNL     1      -8.589   4.101  73.549  1.00  0.00    -0.092 C  
HETATM   24  H   UNL     1      -9.965   2.839  74.482  1.00  0.00     0.000 HD 
HETATM   25  C   UNL     1      -8.399   5.585  73.151  1.00  0.00    -0.118 C  
ENDBRANCH  11  19
TORSDOF 2
ENDMDL
MODEL       90
REMARK 921   NORMALIZED FREE ENERGY PREDICTED BY IDOCK:   -4.28 KCAL/MOL
REMARK 922        TOTAL FREE ENERGY PREDICTED BY IDOCK:   -5.34 KCAL/MOL
REMARK 923 INTER-LIGAND FREE ENERGY PREDICTED BY IDOCK:   -4.88 KCAL/MOL
REMARK 924 INTRA-LIGAND FREE ENERGY PREDICTED BY IDOCK:   -0.46 KCAL/MOL
REMARK 927      BINDING AFFINITY PREDICTED BY RF-SCORE:    0.00 PKD
ROOT
HETATM    1  O   UNL     1     -12.633   8.780  72.704  1.00  0.00    -0.371 OA 
HETATM    2  C   UNL     1     -12.628   9.724  71.733  1.00  0.00    -0.416 C  
HETATM    3  O   UNL     1     -13.230  10.784  71.855  1.00  0.00    -0.469 OA 
HETATM    4  C   UNL     1     -11.836   9.371  70.540  1.00  0.00    -0.207 C  
HETATM    5  C   UNL     1     -11.772  10.228  69.508  1.00  0.00    -0.122 C  
HETATM    6  N   UNL     1     -11.037  10.048  68.349  1.00  0.00    -0.218 NA 
HETATM    7  C   UNL     1     -10.307   8.838  68.163  1.00  0.00    -0.216 A  
HETATM    8  C   UNL     1     -10.302   7.874  69.184  1.00  0.00    -0.225 A  
HETATM    9  C   UNL     1      -9.582   6.688  69.061  1.00  0.00    -0.133 A  
HETATM   10  C   UNL     1      -9.587   8.545  66.989  1.00  0.00    -0.246 A  
HETATM   11  C   UNL     1      -8.858   7.347  66.818  1.00  0.00    -0.137 A  
HETATM   12  C   UNL     1     -11.081   8.109  70.416  1.00  0.00    -0.239 C  
HETATM   13  C   UNL     1      -8.864   6.444  67.898  1.00  0.00    -0.113 A  
HETATM   14  O   UNL     1     -11.117   7.278  71.321  1.00  0.00    -0.242 OA 
HETATM   15  F   UNL     1      -8.157   5.305  67.845  1.00  0.00    -0.097 F  
ENDROOT
BRANCH   6  16
HETATM   16  C   UNL     1     -11.011  11.130  67.340  1.00  0.00    -0.290 C  
HETATM   17  C   UNL     1     -11.590  12.509  67.550  1.00  0.00    -0.424 C  
HETATM   18  C   UNL     1     -10.106  12.322  67.543  1.00  0.00    -0.206 C  
ENDBRANCH   6  16
BRANCH  11  19
HETATM   19  N   UNL     1      -8.257   7.076  65.598  1.00  0.00    -0.129 NA 
HETATM   20  N   UNL     1      -6.718   6.429  63.212  1.00  0.00    -0.040 NA 
HETATM   21  C   UNL     1      -7.828   8.159  64.693  1.00  0.00    -0.136 C  
HETATM   22  C   UNL     1      -6.553   7.700  63.947  1.00  0.00    -0.053 C  
HETATM   23  C   UNL     1      -7.252   5.389  64.117  1.00  0.00    -0.051 C  
HETATM   24  H   UNL     1      -5.854   6.134  62.758  1.00  0.00     0.000 HD 
HETATM   25  C   UNL     1      -8.528   5.817  64.882  1.00  0.00    -0.103 C  
ENDBRANCH  11  19
TORSDOF 2
ENDMDL
MODEL       91
REMARK 921   NORMALIZED FREE ENERGY PREDICTED BY IDOCK:   -4.17 KCAL/MOL
REMARK 922        TOTAL FREE ENERGY PREDICTED BY IDOCK:   -5.23 KCAL/MOL
REMARK 923 INTER-LIGAND FREE ENERGY PREDICTED BY IDOCK:   -4.69 KCAL/MOL
REMARK 924 INTRA-LIGAND FREE ENERGY PREDICTED BY IDOCK:   -0.54 KCAL/MOL
REMARK 927      BINDING AFFINITY PREDICTED BY RF-SCORE:    0.00 PKD
ROOT
HETATM    1  O   UNL     1      -5.253  11.049  71.477  1.00  0.00    -0.234 OA 
HETATM    2  C   UNL     1      -6.101  10.941  70.426  1.00  0.00    -0.129 C  
HETATM    3  O   UNL     1      -6.499   9.855  70.023  1.00  0.00    -0.060 OA 
HETATM    4  C   UNL     1      -6.502  12.228  69.829  1.00  0.00    -0.038 C  
HETATM    5  C   UNL     1      -7.329  12.240  68.771  1.00  0.00    -0.083 C  
HETATM    6  N   UNL     1      -7.820  13.368  68.138  1.00  0.00    -0.133 NA 
HETATM    7  C   UNL     1      -7.400  14.657  68.578  1.00  0.00    -0.117 A  
HETATM    8  C   UNL     1      -6.537  14.760  69.681  1.00  0.00    -0.161 A  
HETATM    9  C   UNL     1      -6.120  15.997  70.166  1.00  0.00    -0.099 A  
HETATM   10  C   UNL     1      -7.798  15.853  67.951  1.00  0.00    -0.148 A  
HETATM   11  C   UNL     1      -7.383  17.127  68.400  1.00  0.00    -0.220 A  
HETATM   12  C   UNL     1      -6.050  13.534  70.345  1.00  0.00    -0.092 C  
HETATM   13  C   UNL     1      -6.552  17.157  69.536  1.00  0.00    -0.181 A  
HETATM   14  O   UNL     1      -5.277  13.586  71.300  1.00  0.00    -0.143 OA 
HETATM   15  F   UNL     1      -6.152  18.323  70.064  1.00  0.00    -0.237 F  
ENDROOT
BRANCH   6  16
HETATM   16  C   UNL     1      -8.791  13.207  67.033  1.00  0.00    -0.210 C  
HETATM   17  C   UNL     1      -9.660  11.988  66.829  1.00  0.00    -0.215 C  
HETATM   18  C   UNL     1     -10.272  13.260  67.321  1.00  0.00    -0.240 C  
ENDBRANCH   6  16
BRANCH  11  19
HETATM   19  N   UNL     1      -7.728  18.257  67.675  1.00  0.00    -0.226 NA 
HETATM   20  N   UNL     1      -8.560  20.420  65.911  1.00  0.00    -0.534 NA 
HETATM   21  C   UNL     1      -6.706  19.089  67.012  1.00  0.00    -0.197 C  
HETATM   22  C   UNL     1      -7.309  19.661  65.707  1.00  0.00    -0.304 C  
HETATM   23  C   UNL     1      -9.527  19.603  66.673  1.00  0.00    -0.375 C  
HETATM   24  H   UNL     1      -8.952  20.757  65.032  1.00  0.00     0.000 HD 
HETATM   25  C   UNL     1      -8.955  19.012  67.984  1.00  0.00    -0.308 C  
ENDBRANCH  11  19
TORSDOF 2
ENDMDL
MODEL       92
REMARK 921   NORMALIZED FREE ENERGY PREDICTED BY IDOCK:   -4.14 KCAL/MOL
REMARK 922        TOTAL FREE ENERGY PREDICTED BY IDOCK:   -5.18 KCAL/MOL
REMARK 923 INTER-LIGAND FREE ENERGY PREDICTED BY IDOCK:   -4.61 KCAL/MOL
REMARK 924 INTRA-LIGAND FREE ENERGY PREDICTED BY IDOCK:   -0.57 KCAL/MOL
REMARK 927      BINDING AFFINITY PREDICTED BY RF-SCORE:    0.00 PKD
ROOT
HETATM    1  O   UNL     1     -13.646  10.225  71.072  1.00  0.00    -0.236 OA 
HETATM    2  C   UNL     1     -12.311  10.382  70.909  1.00  0.00    -0.381 C  
HETATM    3  O   UNL     1     -11.826  11.428  70.493  1.00  0.00    -0.344 OA 
HETATM    4  C   UNL     1     -11.506   9.204  71.282  1.00  0.00    -0.405 C  
HETATM    5  C   UNL     1     -10.171   9.243  71.147  1.00  0.00    -0.317 C  
HETATM    6  N   UNL     1      -9.291   8.233  71.494  1.00  0.00    -0.164 NA 
HETATM    7  C   UNL     1      -9.802   7.001  71.998  1.00  0.00    -0.159 A  
HETATM    8  C   UNL     1     -11.187   6.855  72.182  1.00  0.00    -0.293 A  
HETATM    9  C   UNL     1     -11.732   5.681  72.696  1.00  0.00    -0.256 A  
HETATM   10  C   UNL     1      -8.984   5.899  72.314  1.00  0.00    -0.142 A  
HETATM   11  C   UNL     1      -9.500   4.685  72.821  1.00  0.00    -0.132 A  
HETATM   12  C   UNL     1     -12.093   7.962  71.819  1.00  0.00    -0.303 C  
HETATM   13  C   UNL     1     -10.892   4.623  73.019  1.00  0.00    -0.247 A  
HETATM   14  O   UNL     1     -13.312   7.861  71.947  1.00  0.00    -0.322 OA 
HETATM   15  F   UNL     1     -11.463   3.530  73.546  1.00  0.00    -0.315 F  
ENDROOT
BRANCH   6  16
HETATM   16  C   UNL     1      -7.836   8.468  71.357  1.00  0.00    -0.126 C  
HETATM   17  C   UNL     1      -7.053   8.256  70.082  1.00  0.00    -0.040 C  
HETATM   18  C   UNL     1      -7.340   9.646  70.553  1.00  0.00    -0.141 C  
ENDBRANCH   6  16
BRANCH  11  19
HETATM   19  N   UNL     1      -8.651   3.606  73.014  1.00  0.00    -0.089 NA 
HETATM   20  N   UNL     1      -6.615   1.556  73.377  1.00  0.00    -0.013 NA 
HETATM   21  C   UNL     1      -8.446   2.590  71.964  1.00  0.00    -0.058 C  
HETATM   22  C   UNL     1      -6.987   2.083  72.048  1.00  0.00    -0.026 C  
HETATM   23  C   UNL     1      -6.931   2.553  74.421  1.00  0.00    -0.035 C  
HETATM   24  H   UNL     1      -5.639   1.261  73.412  1.00  0.00     0.000 HD 
HETATM   25  C   UNL     1      -8.384   3.082  74.365  1.00  0.00    -0.069 C  
ENDBRANCH  11  19
TORSDOF 2
ENDMDL
MODEL       93
REMARK 921   NORMALIZED FREE ENERGY PREDICTED BY IDOCK:   -4.11 KCAL/MOL
REMARK 922        TOTAL FREE ENERGY PREDICTED BY IDOCK:   -5.15 KCAL/MOL
REMARK 923 INTER-LIGAND FREE ENERGY PREDICTED BY IDOCK:   -4.64 KCAL/MOL
REMARK 924 INTRA-LIGAND FREE ENERGY PREDICTED BY IDOCK:   -0.51 KCAL/MOL
REMARK 927      BINDING AFFINITY PREDICTED BY RF-SCORE:    0.00 PKD
ROOT
HETATM    1  O   UNL     1      -6.132  17.628  68.097  1.00  0.00    -0.159 OA 
HETATM    2  C   UNL     1      -7.226  17.438  67.322  1.00  0.00    -0.167 C  
HETATM    3  O   UNL     1      -7.692  18.331  66.625  1.00  0.00    -0.217 OA 
HETATM    4  C   UNL     1      -7.791  16.077  67.384  1.00  0.00    -0.188 C  
HETATM    5  C   UNL     1      -8.886  15.779  66.667  1.00  0.00    -0.288 C  
HETATM    6  N   UNL     1      -9.497  14.540  66.596  1.00  0.00    -0.270 NA 
HETATM    7  C   UNL     1      -8.986  13.461  67.375  1.00  0.00    -0.215 A  
HETATM    8  C   UNL     1      -7.839  13.663  68.160  1.00  0.00    -0.143 A  
HETATM    9  C   UNL     1      -7.286  12.633  68.918  1.00  0.00    -0.045 A  
HETATM   10  C   UNL     1      -9.584  12.187  67.413  1.00  0.00    -0.177 A  
HETATM   11  C   UNL     1      -9.064  11.121  68.182  1.00  0.00    -0.159 A  
HETATM   12  C   UNL     1      -7.202  14.994  68.195  1.00  0.00    -0.117 C  
HETATM   13  C   UNL     1      -7.890  11.382  68.912  1.00  0.00    -0.096 A  
HETATM   14  O   UNL     1      -6.209  15.212  68.887  1.00  0.00    -0.091 OA 
HETATM   15  F   UNL     1      -7.296  10.416  69.628  1.00  0.00    -0.094 F  
ENDROOT
BRANCH   6  16
HETATM   16  C   UNL     1     -10.654  14.360  65.691  1.00  0.00    -0.329 C  
HETATM   17  C   UNL     1     -12.095  14.314  66.144  1.00  0.00    -0.424 C  
HETATM   18  C   UNL     1     -11.583  15.519  65.421  1.00  0.00     0.061 C  
ENDBRANCH   6  16
BRANCH  11  19
HETATM   19  N   UNL     1      -9.760   9.924  68.255  1.00  0.00    -0.143 NA 
HETATM   20  N   UNL     1     -10.925   7.265  68.484  1.00  0.00    -0.441 NA 
HETATM   21  C   UNL     1     -10.222   9.226  67.041  1.00  0.00    -0.262 C  
HETATM   22  C   UNL     1     -10.161   7.701  67.297  1.00  0.00    -0.237 C  
HETATM   23  C   UNL     1     -10.518   8.056  69.664  1.00  0.00    -0.224 C  
HETATM   24  H   UNL     1     -10.839   6.262  68.647  1.00  0.00     0.000 HD 
HETATM   25  C   UNL     1     -10.567   9.587  69.441  1.00  0.00    -0.219 C  
ENDBRANCH  11  19
TORSDOF 2
ENDMDL
MODEL       94
REMARK 921   NORMALIZED FREE ENERGY PREDICTED BY IDOCK:   -4.07 KCAL/MOL
REMARK 922        TOTAL FREE ENERGY PREDICTED BY IDOCK:   -5.11 KCAL/MOL
REMARK 923 INTER-LIGAND FREE ENERGY PREDICTED BY IDOCK:   -4.89 KCAL/MOL
REMARK 924 INTRA-LIGAND FREE ENERGY PREDICTED BY IDOCK:   -0.22 KCAL/MOL
REMARK 927      BINDING AFFINITY PREDICTED BY RF-SCORE:    0.00 PKD
ROOT
HETATM    1  O   UNL     1     -11.020  12.792  68.049  1.00  0.00    -0.222 OA 
HETATM    2  C   UNL     1     -10.372  11.808  67.381  1.00  0.00    -0.204 C  
HETATM    3  O   UNL     1      -9.903  11.983  66.263  1.00  0.00    -0.220 OA 
HETATM    4  C   UNL     1     -10.276  10.532  68.113  1.00  0.00    -0.187 C  
HETATM    5  C   UNL     1      -9.666   9.482  67.540  1.00  0.00    -0.155 C  
HETATM    6  N   UNL     1      -9.466   8.243  68.122  1.00  0.00    -0.137 NA 
HETATM    7  C   UNL     1      -9.978   7.991  69.428  1.00  0.00    -0.190 A  
HETATM    8  C   UNL     1     -10.631   9.024  70.121  1.00  0.00    -0.250 A  
HETATM    9  C   UNL     1     -11.125   8.836  71.410  1.00  0.00    -0.361 A  
HETATM   10  C   UNL     1      -9.877   6.742  70.069  1.00  0.00    -0.179 A  
HETATM   11  C   UNL     1     -10.380   6.505  71.368  1.00  0.00    -0.206 A  
HETATM   12  C   UNL     1     -10.808  10.340  69.476  1.00  0.00    -0.256 C  
HETATM   13  C   UNL     1     -10.986   7.596  72.020  1.00  0.00    -0.246 A  
HETATM   14  O   UNL     1     -11.393  11.260  70.044  1.00  0.00    -0.269 OA 
HETATM   15  F   UNL     1     -11.445   7.478  73.274  1.00  0.00    -0.357 F  
ENDROOT
BRANCH   6  16
HETATM   16  C   UNL     1      -8.701   7.215  67.381  1.00  0.00    -0.120 C  
HETATM   17  C   UNL     1      -9.312   6.217  66.426  1.00  0.00    -0.176 C  
HETATM   18  C   UNL     1      -8.505   7.356  65.890  1.00  0.00    -0.155 C  
ENDBRANCH   6  16
BRANCH  11  19
HETATM   19  N   UNL     1     -10.339   5.225  71.898  1.00  0.00    -0.210 NA 
HETATM   20  N   UNL     1     -10.015   2.650  73.220  1.00  0.00    -0.101 NA 
HETATM   21  C   UNL     1      -9.696   4.112  71.175  1.00  0.00    -0.188 C  
HETATM   22  C   UNL     1      -9.060   3.154  72.212  1.00  0.00    -0.097 C  
HETATM   23  C   UNL     1     -10.724   3.782  73.853  1.00  0.00    -0.228 C  
HETATM   24  H   UNL     1      -9.562   2.050  73.909  1.00  0.00     0.000 HD 
HETATM   25  C   UNL     1     -11.370   4.762  72.843  1.00  0.00    -0.173 C  
ENDBRANCH  11  19
TORSDOF 2
ENDMDL
MODEL       95
REMARK 921   NORMALIZED FREE ENERGY PREDICTED BY IDOCK:   -4.06 KCAL/MOL
REMARK 922        TOTAL FREE ENERGY PREDICTED BY IDOCK:   -5.10 KCAL/MOL
REMARK 923 INTER-LIGAND FREE ENERGY PREDICTED BY IDOCK:   -4.58 KCAL/MOL
REMARK 924 INTRA-LIGAND FREE ENERGY PREDICTED BY IDOCK:   -0.52 KCAL/MOL
REMARK 927      BINDING AFFINITY PREDICTED BY RF-SCORE:    0.00 PKD
ROOT
HETATM    1  O   UNL     1      -5.544   5.851  67.333  1.00  0.00    -0.011 OA 
HETATM    2  C   UNL     1      -6.735   5.632  67.939  1.00  0.00    -0.055 C  
HETATM    3  O   UNL     1      -7.084   4.515  68.300  1.00  0.00    -0.055 OA 
HETATM    4  C   UNL     1      -7.556   6.842  68.131  1.00  0.00    -0.108 C  
HETATM    5  C   UNL     1      -8.763   6.740  68.710  1.00  0.00    -0.125 C  
HETATM    6  N   UNL     1      -9.620   7.790  68.991  1.00  0.00    -0.154 NA 
HETATM    7  C   UNL     1      -9.256   9.114  68.605  1.00  0.00    -0.136 A  
HETATM    8  C   UNL     1      -8.010   9.334  67.995  1.00  0.00    -0.100 A  
HETATM    9  C   UNL     1      -7.597  10.611  67.625  1.00  0.00    -0.092 A  
HETATM   10  C   UNL     1     -10.093  10.229  68.793  1.00  0.00    -0.198 A  
HETATM   11  C   UNL     1      -9.719  11.539  68.415  1.00  0.00    -0.202 A  
HETATM   12  C   UNL     1      -7.113   8.191  67.730  1.00  0.00    -0.087 C  
HETATM   13  C   UNL     1      -8.441  11.692  67.847  1.00  0.00    -0.148 A  
HETATM   14  O   UNL     1      -6.025   8.344  67.179  1.00  0.00    -0.051 OA 
HETATM   15  F   UNL     1      -7.980  12.905  67.507  1.00  0.00    -0.134 F  
ENDROOT
BRANCH   6  16
HETATM   16  C   UNL     1     -10.884   7.515  69.708  1.00  0.00    -0.225 C  
HETATM   17  C   UNL     1     -11.187   6.231  70.445  1.00  0.00    -0.439 C  
HETATM   18  C   UNL     1     -10.898   7.479  71.218  1.00  0.00    -0.253 C  
ENDBRANCH   6  16
BRANCH  11  19
HETATM   19  N   UNL     1     -10.632  12.575  68.533  1.00  0.00    -0.240 NA 
HETATM   20  N   UNL     1     -12.292  14.941  68.889  1.00  0.00    -0.588 NA 
HETATM   21  C   UNL     1     -11.610  12.619  69.637  1.00  0.00    -0.251 C  
HETATM   22  C   UNL     1     -11.854  14.098  70.020  1.00  0.00    -0.323 C  
HETATM   23  C   UNL     1     -11.353  14.795  67.757  1.00  0.00    -0.330 C  
HETATM   24  H   UNL     1     -12.413  15.916  69.163  1.00  0.00     0.000 HD 
HETATM   25  C   UNL     1     -11.085  13.326  67.349  1.00  0.00    -0.278 C  
ENDBRANCH  11  19
TORSDOF 2
ENDMDL
MODEL       96
REMARK 921   NORMALIZED FREE ENERGY PREDICTED BY IDOCK:   -3.99 KCAL/MOL
REMARK 922        TOTAL FREE ENERGY PREDICTED BY IDOCK:   -5.02 KCAL/MOL
REMARK 923 INTER-LIGAND FREE ENERGY PREDICTED BY IDOCK:   -4.62 KCAL/MOL
REMARK 924 INTRA-LIGAND FREE ENERGY PREDICTED BY IDOCK:   -0.40 KCAL/MOL
REMARK 927      BINDING AFFINITY PREDICTED BY RF-SCORE:    0.00 PKD
ROOT
HETATM    1  O   UNL     1      -6.955   4.776  62.919  1.00  0.00    -0.037 OA 
HETATM    2  C   UNL     1      -7.188   4.978  64.238  1.00  0.00    -0.054 C  
HETATM    3  O   UNL     1      -6.917   4.134  65.082  1.00  0.00    -0.055 OA 
HETATM    4  C   UNL     1      -7.779   6.290  64.560  1.00  0.00    -0.106 C  
HETATM    5  C   UNL     1      -8.067   6.593  65.836  1.00  0.00    -0.126 C  
HETATM    6  N   UNL     1      -8.582   7.796  66.288  1.00  0.00    -0.142 NA 
HETATM    7  C   UNL     1      -8.901   8.819  65.348  1.00  0.00    -0.178 A  
HETATM    8  C   UNL     1      -8.637   8.607  63.985  1.00  0.00    -0.026 A  
HETATM    9  C   UNL     1      -8.906   9.586  63.031  1.00  0.00    -0.242 A  
HETATM   10  C   UNL     1      -9.488  10.045  65.713  1.00  0.00    -0.270 A  
HETATM   11  C   UNL     1      -9.793  11.057  64.774  1.00  0.00    -0.276 A  
HETATM   12  C   UNL     1      -8.067   7.319  63.542  1.00  0.00    -0.002 C  
HETATM   13  C   UNL     1      -9.463  10.793  63.431  1.00  0.00    -0.316 A  
HETATM   14  O   UNL     1      -7.843   7.091  62.355  1.00  0.00    -0.113 OA 
HETATM   15  F   UNL     1      -9.668  11.716  62.480  1.00  0.00    -0.325 F  
ENDROOT
BRANCH   6  16
HETATM   16  C   UNL     1      -8.765   7.998  67.742  1.00  0.00    -0.127 C  
HETATM   17  C   UNL     1     -10.080   7.837  68.468  1.00  0.00    -0.216 C  
HETATM   18  C   UNL     1      -9.008   6.808  68.640  1.00  0.00    -0.125 C  
ENDBRANCH   6  16
BRANCH  11  19
HETATM   19  N   UNL     1     -10.464  12.197  65.187  1.00  0.00    -0.272 NA 
HETATM   20  N   UNL     1     -11.635  14.768  65.894  1.00  0.00    -0.326 NA 
HETATM   21  C   UNL     1     -10.399  12.667  66.583  1.00  0.00    -0.236 C  
HETATM   22  C   UNL     1     -10.454  14.214  66.586  1.00  0.00    -0.278 C  
HETATM   23  C   UNL     1     -11.737  14.198  64.534  1.00  0.00    -0.413 C  
HETATM   24  H   UNL     1     -11.628  15.788  65.881  1.00  0.00     0.000 HD 
HETATM   25  C   UNL     1     -11.683  12.652  64.496  1.00  0.00    -0.359 C  
ENDBRANCH  11  19
TORSDOF 2
ENDMDL
MODEL       97
REMARK 921   NORMALIZED FREE ENERGY PREDICTED BY IDOCK:   -3.92 KCAL/MOL
REMARK 922        TOTAL FREE ENERGY PREDICTED BY IDOCK:   -4.94 KCAL/MOL
REMARK 923 INTER-LIGAND FREE ENERGY PREDICTED BY IDOCK:   -4.53 KCAL/MOL
REMARK 924 INTRA-LIGAND FREE ENERGY PREDICTED BY IDOCK:   -0.41 KCAL/MOL
REMARK 927      BINDING AFFINITY PREDICTED BY RF-SCORE:    0.00 PKD
ROOT
HETATM    1  O   UNL     1     -12.809  11.336  70.854  1.00  0.00    -0.319 OA 
HETATM    2  C   UNL     1     -11.982  11.419  69.784  1.00  0.00    -0.353 C  
HETATM    3  O   UNL     1     -11.831  12.463  69.161  1.00  0.00    -0.301 OA 
HETATM    4  C   UNL     1     -11.285  10.163  69.451  1.00  0.00    -0.265 C  
HETATM    5  C   UNL     1     -10.452  10.127  68.399  1.00  0.00    -0.208 C  
HETATM    6  N   UNL     1      -9.702   9.035  67.996  1.00  0.00    -0.151 NA 
HETATM    7  C   UNL     1      -9.829   7.801  68.697  1.00  0.00    -0.169 A  
HETATM    8  C   UNL     1     -10.673   7.730  69.818  1.00  0.00    -0.236 A  
HETATM    9  C   UNL     1     -10.809   6.554  70.552  1.00  0.00    -0.323 A  
HETATM   10  C   UNL     1      -9.154   6.625  68.317  1.00  0.00    -0.123 A  
HETATM   11  C   UNL     1      -9.279   5.408  69.024  1.00  0.00    -0.120 A  
HETATM   12  C   UNL     1     -11.441   8.921  70.231  1.00  0.00    -0.105 C  
HETATM   13  C   UNL     1     -10.110   5.420  70.160  1.00  0.00    -0.252 A  
HETATM   14  O   UNL     1     -12.206   8.889  71.194  1.00  0.00    -0.291 OA 
HETATM   15  F   UNL     1     -10.247   4.325  70.923  1.00  0.00    -0.264 F  
ENDROOT
BRANCH   6  16
HETATM   16  C   UNL     1      -8.767   9.186  66.859  1.00  0.00    -0.123 C  
HETATM   17  C   UNL     1      -8.894   8.454  65.544  1.00  0.00    -0.172 C  
HETATM   18  C   UNL     1      -9.212   9.914  65.613  1.00  0.00    -0.245 C  
ENDBRANCH   6  16
BRANCH  11  19
HETATM   19  N   UNL     1      -8.669   4.263  68.535  1.00  0.00    -0.094 NA 
HETATM   20  N   UNL     1      -7.271   2.051  67.256  1.00  0.00    -0.054 NA 
HETATM   21  C   UNL     1      -9.445   3.205  67.861  1.00  0.00    -0.160 C  
HETATM   22  C   UNL     1      -8.561   2.573  66.759  1.00  0.00    -0.112 C  
HETATM   23  C   UNL     1      -6.564   3.100  68.020  1.00  0.00    -0.037 C  
HETATM   24  H   UNL     1      -6.696   1.672  66.504  1.00  0.00     0.000 HD 
HETATM   25  C   UNL     1      -7.421   3.755  69.130  1.00  0.00    -0.053 C  
ENDBRANCH  11  19
TORSDOF 2
ENDMDL
MODEL       98
REMARK 921   NORMALIZED FREE ENERGY PREDICTED BY IDOCK:   -3.87 KCAL/MOL
REMARK 922        TOTAL FREE ENERGY PREDICTED BY IDOCK:   -4.89 KCAL/MOL
REMARK 923 INTER-LIGAND FREE ENERGY PREDICTED BY IDOCK:   -4.32 KCAL/MOL
REMARK 924 INTRA-LIGAND FREE ENERGY PREDICTED BY IDOCK:   -0.56 KCAL/MOL
REMARK 927      BINDING AFFINITY PREDICTED BY RF-SCORE:    0.00 PKD
ROOT
HETATM    1  O   UNL     1      -8.325   9.253  62.535  1.00  0.00    -0.156 OA 
HETATM    2  C   UNL     1      -7.679   8.220  63.126  1.00  0.00    -0.138 C  
HETATM    3  O   UNL     1      -6.846   7.549  62.529  1.00  0.00    -0.069 OA 
HETATM    4  C   UNL     1      -8.055   7.988  64.532  1.00  0.00    -0.132 C  
HETATM    5  C   UNL     1      -7.487   6.979  65.213  1.00  0.00    -0.092 C  
HETATM    6  N   UNL     1      -7.712   6.671  66.543  1.00  0.00    -0.100 NA 
HETATM    7  C   UNL     1      -8.660   7.430  67.288  1.00  0.00    -0.118 A  
HETATM    8  C   UNL     1      -9.310   8.513  66.673  1.00  0.00    -0.243 A  
HETATM    9  C   UNL     1     -10.225   9.302  67.366  1.00  0.00    -0.304 A  
HETATM   10  C   UNL     1      -8.997   7.145  68.625  1.00  0.00    -0.131 A  
HETATM   11  C   UNL     1      -9.932   7.910  69.358  1.00  0.00    -0.189 A  
HETATM   12  C   UNL     1      -9.030   8.825  65.257  1.00  0.00    -0.133 C  
HETATM   13  C   UNL     1     -10.515   9.004  68.692  1.00  0.00    -0.200 A  
HETATM   14  O   UNL     1      -9.596   9.751  64.680  1.00  0.00    -0.286 OA 
HETATM   15  F   UNL     1     -11.373   9.818  69.325  1.00  0.00    -0.230 F  
ENDROOT
BRANCH   6  16
HETATM   16  C   UNL     1      -6.940   5.572  67.166  1.00  0.00    -0.065 C  
HETATM   17  C   UNL     1      -5.990   4.665  66.421  1.00  0.00    -0.027 C  
HETATM   18  C   UNL     1      -5.447   5.710  67.342  1.00  0.00    -0.012 C  
ENDBRANCH   6  16
BRANCH  11  19
HETATM   19  N   UNL     1     -10.294   7.512  70.636  1.00  0.00    -0.207 NA 
HETATM   20  N   UNL     1     -11.149   6.996  73.372  1.00  0.00    -0.551 NA 
HETATM   21  C   UNL     1      -9.283   7.246  71.676  1.00  0.00    -0.146 C  
HETATM   22  C   UNL     1      -9.868   7.658  73.048  1.00  0.00    -0.261 C  
HETATM   23  C   UNL     1     -12.109   7.186  72.264  1.00  0.00    -0.181 C  
HETATM   24  H   UNL     1     -11.528   7.311  74.265  1.00  0.00     0.000 HD 
HETATM   25  C   UNL     1     -11.554   6.786  70.876  1.00  0.00    -0.353 C  
ENDBRANCH  11  19
TORSDOF 2
ENDMDL
MODEL       99
REMARK 921   NORMALIZED FREE ENERGY PREDICTED BY IDOCK:   -3.85 KCAL/MOL
REMARK 922        TOTAL FREE ENERGY PREDICTED BY IDOCK:   -4.87 KCAL/MOL
REMARK 923 INTER-LIGAND FREE ENERGY PREDICTED BY IDOCK:   -4.36 KCAL/MOL
REMARK 924 INTRA-LIGAND FREE ENERGY PREDICTED BY IDOCK:   -0.51 KCAL/MOL
REMARK 927      BINDING AFFINITY PREDICTED BY RF-SCORE:    0.00 PKD
ROOT
HETATM    1  O   UNL     1      -9.244  16.069  68.831  1.00  0.00    -0.207 OA 
HETATM    2  C   UNL     1     -10.116  15.591  67.911  1.00  0.00    -0.224 C  
HETATM    3  O   UNL     1     -11.106  16.224  67.565  1.00  0.00    -0.260 OA 
HETATM    4  C   UNL     1      -9.766  14.266  67.366  1.00  0.00    -0.235 C  
HETATM    5  C   UNL     1     -10.569  13.689  66.457  1.00  0.00    -0.282 C  
HETATM    6  N   UNL     1     -10.345  12.475  65.832  1.00  0.00    -0.257 NA 
HETATM    7  C   UNL     1      -9.199  11.705  66.187  1.00  0.00    -0.219 A  
HETATM    8  C   UNL     1      -8.290  12.218  67.127  1.00  0.00    -0.183 A  
HETATM    9  C   UNL     1      -7.142  11.516  67.486  1.00  0.00    -0.106 A  
HETATM   10  C   UNL     1      -8.929  10.432  65.649  1.00  0.00    -0.198 A  
HETATM   11  C   UNL     1      -7.786   9.680  66.001  1.00  0.00    -0.102 A  
HETATM   12  C   UNL     1      -8.551  13.527  67.758  1.00  0.00    -0.183 C  
HETATM   13  C   UNL     1      -6.897  10.272  66.917  1.00  0.00    -0.086 A  
HETATM   14  O   UNL     1      -7.788  13.996  68.600  1.00  0.00    -0.136 OA 
HETATM   15  F   UNL     1      -5.759   9.655  67.269  1.00  0.00    -0.042 F  
ENDROOT
BRANCH   6  16
HETATM   16  C   UNL     1     -11.291  12.018  64.789  1.00  0.00    -0.313 C  
HETATM   17  C   UNL     1     -12.142  12.938  63.946  1.00  0.00    -0.553 C  
HETATM   18  C   UNL     1     -10.968  12.245  63.332  1.00  0.00    -0.467 C  
ENDBRANCH   6  16
BRANCH  11  19
HETATM   19  N   UNL     1      -7.634   8.391  65.513  1.00  0.00    -0.088 NA 
HETATM   20  N   UNL     1      -7.195   5.604  64.794  1.00  0.00    -0.063 NA 
HETATM   21  C   UNL     1      -6.549   8.044  64.577  1.00  0.00    -0.060 C  
HETATM   22  C   UNL     1      -6.098   6.592  64.862  1.00  0.00    -0.037 C  
HETATM   23  C   UNL     1      -8.314   6.032  65.659  1.00  0.00    -0.145 C  
HETATM   24  H   UNL     1      -6.876   4.661  65.019  1.00  0.00     0.000 HD 
HETATM   25  C   UNL     1      -8.789   7.482  65.400  1.00  0.00     0.088 C  
ENDBRANCH  11  19
TORSDOF 2
ENDMDL
MODEL      100
REMARK 921   NORMALIZED FREE ENERGY PREDICTED BY IDOCK:   -3.75 KCAL/MOL
REMARK 922        TOTAL FREE ENERGY PREDICTED BY IDOCK:   -4.75 KCAL/MOL
REMARK 923 INTER-LIGAND FREE ENERGY PREDICTED BY IDOCK:   -4.19 KCAL/MOL
REMARK 924 INTRA-LIGAND FREE ENERGY PREDICTED BY IDOCK:   -0.56 KCAL/MOL
REMARK 927      BINDING AFFINITY PREDICTED BY RF-SCORE:    0.00 PKD
ROOT
HETATM    1  O   UNL     1     -11.375   9.344  71.875  1.00  0.00    -0.370 OA 
HETATM    2  C   UNL     1     -11.169   8.073  72.295  1.00  0.00    -0.341 C  
HETATM    3  O   UNL     1     -11.371   7.732  73.454  1.00  0.00    -0.287 OA 
HETATM    4  C   UNL     1     -10.695   7.152  71.246  1.00  0.00    -0.245 C  
HETATM    5  C   UNL     1     -10.443   5.870  71.554  1.00  0.00    -0.233 C  
HETATM    6  N   UNL     1     -10.037   4.888  70.667  1.00  0.00    -0.238 NA 
HETATM    7  C   UNL     1      -9.801   5.229  69.303  1.00  0.00    -0.186 A  
HETATM    8  C   UNL     1     -10.037   6.545  68.873  1.00  0.00    -0.183 A  
HETATM    9  C   UNL     1      -9.848   6.921  67.545  1.00  0.00    -0.173 A  
HETATM   10  C   UNL     1      -9.324   4.309  68.350  1.00  0.00    -0.209 A  
HETATM   11  C   UNL     1      -9.102   4.655  66.998  1.00  0.00    -0.121 A  
HETATM   12  C   UNL     1     -10.491   7.561  69.843  1.00  0.00    -0.229 C  
HETATM   13  C   UNL     1      -9.399   5.980  66.627  1.00  0.00    -0.144 A  
HETATM   14  O   UNL     1     -10.687   8.727  69.506  1.00  0.00    -0.228 OA 
HETATM   15  F   UNL     1      -9.269   6.384  65.355  1.00  0.00    -0.063 F  
ENDROOT
BRANCH   6  16
HETATM   16  C   UNL     1      -9.880   3.499  71.155  1.00  0.00    -0.115 C  
HETATM   17  C   UNL     1      -8.790   3.041  72.095  1.00  0.00    -0.116 C  
HETATM   18  C   UNL     1     -10.194   3.170  72.595  1.00  0.00    -0.229 C  
ENDBRANCH   6  16
BRANCH  11  19
HETATM   19  N   UNL     1      -8.534   3.729  66.136  1.00  0.00    -0.109 NA 
HETATM   20  N   UNL     1      -7.195   2.047  64.172  1.00  0.00    -0.054 NA 
HETATM   21  C   UNL     1      -9.327   3.069  65.083  1.00  0.00    -0.133 C  
HETATM   22  C   UNL     1      -8.413   2.823  63.859  1.00  0.00    -0.086 C  
HETATM   23  C   UNL     1      -6.476   2.671  65.302  1.00  0.00    -0.027 C  
HETATM   24  H   UNL     1      -6.596   1.930  63.355  1.00  0.00     0.000 HD 
HETATM   25  C   UNL     1      -7.363   2.933  66.543  1.00  0.00    -0.070 C  
ENDBRANCH  11  19
TORSDOF 2
ENDMDL
MODEL      101
REMARK 921   NORMALIZED FREE ENERGY PREDICTED BY IDOCK:   -3.69 KCAL/MOL
REMARK 922        TOTAL FREE ENERGY PREDICTED BY IDOCK:   -4.68 KCAL/MOL
REMARK 923 INTER-LIGAND FREE ENERGY PREDICTED BY IDOCK:   -4.21 KCAL/MOL
REMARK 924 INTRA-LIGAND FREE ENERGY PREDICTED BY IDOCK:   -0.47 KCAL/MOL
REMARK 927      BINDING AFFINITY PREDICTED BY RF-SCORE:    0.00 PKD
ROOT
HETATM    1  O   UNL     1      -5.918   8.523  63.440  1.00  0.00    -0.075 OA 
HETATM    2  C   UNL     1      -6.847   7.548  63.583  1.00  0.00    -0.054 C  
HETATM    3  O   UNL     1      -7.051   6.713  62.710  1.00  0.00    -0.048 OA 
HETATM    4  C   UNL     1      -7.572   7.577  64.866  1.00  0.00    -0.100 C  
HETATM    5  C   UNL     1      -8.527   6.665  65.109  1.00  0.00    -0.034 C  
HETATM    6  N   UNL     1      -9.256   6.546  66.280  1.00  0.00    -0.155 NA 
HETATM    7  C   UNL     1      -9.047   7.483  67.334  1.00  0.00    -0.126 A  
HETATM    8  C   UNL     1      -8.067   8.478  67.185  1.00  0.00    -0.104 A  
HETATM    9  C   UNL     1      -7.807   9.400  68.196  1.00  0.00    -0.087 A  
HETATM   10  C   UNL     1      -9.789   7.475  68.530  1.00  0.00    -0.170 A  
HETATM   11  C   UNL     1      -9.568   8.403  69.573  1.00  0.00    -0.170 A  
HETATM   12  C   UNL     1      -7.295   8.561  65.929  1.00  0.00    -0.077 C  
HETATM   13  C   UNL     1      -8.543   9.347  69.373  1.00  0.00    -0.148 A  
HETATM   14  O   UNL     1      -6.444   9.432  65.756  1.00  0.00    -0.066 OA 
HETATM   15  F   UNL     1      -8.228  10.233  70.329  1.00  0.00    -0.169 F  
ENDROOT
BRANCH   6  16
HETATM   16  C   UNL     1     -10.219   5.431  66.417  1.00  0.00    -0.226 C  
HETATM   17  C   UNL     1     -10.356   4.294  65.431  1.00  0.00    -0.217 C  
HETATM   18  C   UNL     1      -9.720   4.047  66.762  1.00  0.00    -0.216 C  
ENDBRANCH   6  16
BRANCH  11  19
HETATM   19  N   UNL     1     -10.403   8.405  70.680  1.00  0.00    -0.194 NA 
HETATM   20  N   UNL     1     -12.216   8.083  72.936  1.00  0.00    -0.640 NA 
HETATM   21  C   UNL     1     -11.734   9.040  70.640  1.00  0.00    -0.198 C  
HETATM   22  C   UNL     1     -12.693   8.230  71.545  1.00  0.00    -0.305 C  
HETATM   23  C   UNL     1     -10.838   7.546  72.943  1.00  0.00    -0.373 C  
HETATM   24  H   UNL     1     -12.849   7.517  73.501  1.00  0.00     0.000 HD 
HETATM   25  C   UNL     1      -9.853   8.333  72.045  1.00  0.00    -0.257 C  
ENDBRANCH  11  19
TORSDOF 2
ENDMDL
MODEL      102
REMARK 921   NORMALIZED FREE ENERGY PREDICTED BY IDOCK:   -3.64 KCAL/MOL
REMARK 922        TOTAL FREE ENERGY PREDICTED BY IDOCK:   -4.63 KCAL/MOL
REMARK 923 INTER-LIGAND FREE ENERGY PREDICTED BY IDOCK:   -4.10 KCAL/MOL
REMARK 924 INTRA-LIGAND FREE ENERGY PREDICTED BY IDOCK:   -0.53 KCAL/MOL
REMARK 927      BINDING AFFINITY PREDICTED BY RF-SCORE:    0.00 PKD
ROOT
HETATM    1  O   UNL     1     -11.050  12.042  68.137  1.00  0.00    -0.214 OA 
HETATM    2  C   UNL     1     -11.298  11.109  69.087  1.00  0.00    -0.273 C  
HETATM    3  O   UNL     1     -11.885  11.382  70.127  1.00  0.00    -0.312 OA 
HETATM    4  C   UNL     1     -10.815   9.755  68.757  1.00  0.00    -0.219 C  
HETATM    5  C   UNL     1     -10.995   8.755  69.634  1.00  0.00    -0.105 C  
HETATM    6  N   UNL     1     -10.634   7.433  69.441  1.00  0.00    -0.228 NA 
HETATM    7  C   UNL     1      -9.961   7.058  68.241  1.00  0.00    -0.153 A  
HETATM    8  C   UNL     1      -9.726   8.028  67.253  1.00  0.00    -0.232 A  
HETATM    9  C   UNL     1      -9.098   7.706  66.052  1.00  0.00    -0.152 A  
HETATM   10  C   UNL     1      -9.501   5.751  67.991  1.00  0.00    -0.116 A  
HETATM   11  C   UNL     1      -8.844   5.387  66.794  1.00  0.00    -0.112 A  
HETATM   12  C   UNL     1     -10.145   9.425  67.485  1.00  0.00    -0.215 C  
HETATM   13  C   UNL     1      -8.678   6.401  65.831  1.00  0.00    -0.145 A  
HETATM   14  O   UNL     1      -9.936  10.304  66.651  1.00  0.00    -0.198 OA 
HETATM   15  F   UNL     1      -8.113   6.135  64.644  1.00  0.00    -0.116 F  
ENDROOT
BRANCH   6  16
HETATM   16  C   UNL     1     -10.977   6.435  70.478  1.00  0.00    -0.306 C  
HETATM   17  C   UNL     1     -10.020   5.937  71.535  1.00  0.00    -0.221 C  
HETATM   18  C   UNL     1     -11.125   6.869  71.917  1.00  0.00    -0.278 C  
ENDBRANCH   6  16
BRANCH  11  19
HETATM   19  N   UNL     1      -8.325   4.109  66.656  1.00  0.00    -0.101 NA 
HETATM   20  N   UNL     1      -7.254   1.474  66.033  1.00  0.00    -0.050 NA 
HETATM   21  C   UNL     1      -9.149   2.912  66.904  1.00  0.00    -0.159 C  
HETATM   22  C   UNL     1      -8.694   1.792  65.939  1.00  0.00    -0.116 C  
HETATM   23  C   UNL     1      -6.454   2.709  65.889  1.00  0.00    -0.028 C  
HETATM   24  H   UNL     1      -6.975   0.757  65.363  1.00  0.00     0.000 HD 
HETATM   25  C   UNL     1      -6.886   3.851  66.840  1.00  0.00    -0.051 C  
ENDBRANCH  11  19
TORSDOF 2
ENDMDL
MODEL      103
REMARK 921   NORMALIZED FREE ENERGY PREDICTED BY IDOCK:   -3.59 KCAL/MOL
REMARK 922        TOTAL FREE ENERGY PREDICTED BY IDOCK:   -4.57 KCAL/MOL
REMARK 923 INTER-LIGAND FREE ENERGY PREDICTED BY IDOCK:   -4.03 KCAL/MOL
REMARK 924 INTRA-LIGAND FREE ENERGY PREDICTED BY IDOCK:   -0.54 KCAL/MOL
REMARK 927      BINDING AFFINITY PREDICTED BY RF-SCORE:    0.00 PKD
ROOT
HETATM    1  O   UNL     1      -6.218   9.037  73.022  1.00  0.00    -0.276 OA 
HETATM    2  C   UNL     1      -7.426   8.453  73.209  1.00  0.00    -0.057 C  
HETATM    3  O   UNL     1      -8.059   8.590  74.249  1.00  0.00    -0.337 OA 
HETATM    4  C   UNL     1      -7.907   7.661  72.062  1.00  0.00    -0.106 C  
HETATM    5  C   UNL     1      -9.087   7.026  72.143  1.00  0.00    -0.130 C  
HETATM    6  N   UNL     1      -9.680   6.285  71.135  1.00  0.00    -0.175 NA 
HETATM    7  C   UNL     1      -8.993   6.108  69.899  1.00  0.00    -0.139 A  
HETATM    8  C   UNL     1      -7.750   6.733  69.707  1.00  0.00    -0.113 A  
HETATM    9  C   UNL     1      -7.053   6.612  68.507  1.00  0.00    -0.083 A  
HETATM   10  C   UNL     1      -9.493   5.318  68.846  1.00  0.00    -0.173 A  
HETATM   11  C   UNL     1      -8.808   5.155  67.620  1.00  0.00    -0.105 A  
HETATM   12  C   UNL     1      -7.158   7.533  70.797  1.00  0.00    -0.059 C  
HETATM   13  C   UNL     1      -7.588   5.843  67.482  1.00  0.00    -0.093 A  
HETATM   14  O   UNL     1      -6.063   8.077  70.672  1.00  0.00    -0.033 OA 
HETATM   15  F   UNL     1      -6.896   5.790  66.334  1.00  0.00    -0.052 F  
ENDROOT
BRANCH   6  16
HETATM   16  C   UNL     1     -11.027   5.715  71.360  1.00  0.00    -0.190 C  
HETATM   17  C   UNL     1     -11.585   5.348  72.715  1.00  0.00    -0.293 C  
HETATM   18  C   UNL     1     -12.101   6.559  72.005  1.00  0.00    -0.358 C  
ENDBRANCH   6  16
BRANCH  11  19
HETATM   19  N   UNL     1      -9.306   4.281  66.666  1.00  0.00    -0.155 NA 
HETATM   20  N   UNL     1     -10.095   2.545  64.465  1.00  0.00    -0.357 NA 
HETATM   21  C   UNL     1     -10.520   4.596  65.891  1.00  0.00    -0.268 C  
HETATM   22  C   UNL     1     -10.367   3.997  64.472  1.00  0.00    -0.206 C  
HETATM   23  C   UNL     1      -8.939   2.244  65.337  1.00  0.00    -0.126 C  
HETATM   24  H   UNL     1      -9.965   2.183  63.520  1.00  0.00     0.000 HD 
HETATM   25  C   UNL     1      -9.059   2.831  66.764  1.00  0.00    -0.144 C  
ENDBRANCH  11  19
TORSDOF 2
ENDMDL
MODEL      104
REMARK 921   NORMALIZED FREE ENERGY PREDICTED BY IDOCK:   -3.51 KCAL/MOL
REMARK 922        TOTAL FREE ENERGY PREDICTED BY IDOCK:   -4.48 KCAL/MOL
REMARK 923 INTER-LIGAND FREE ENERGY PREDICTED BY IDOCK:   -3.92 KCAL/MOL
REMARK 924 INTRA-LIGAND FREE ENERGY PREDICTED BY IDOCK:   -0.56 KCAL/MOL
REMARK 927      BINDING AFFINITY PREDICTED BY RF-SCORE:    0.00 PKD
ROOT
HETATM    1  O   UNL     1     -10.013   3.421  71.202  1.00  0.00    -0.144 OA 
HETATM    2  C   UNL     1      -9.212   4.279  71.878  1.00  0.00    -0.126 C  
HETATM    3  O   UNL     1      -8.572   3.932  72.862  1.00  0.00    -0.097 OA 
HETATM    4  C   UNL     1      -9.174   5.645  71.322  1.00  0.00    -0.164 C  
HETATM    5  C   UNL     1      -8.423   6.583  71.921  1.00  0.00    -0.119 C  
HETATM    6  N   UNL     1      -8.259   7.888  71.489  1.00  0.00    -0.103 NA 
HETATM    7  C   UNL     1      -8.970   8.340  70.339  1.00  0.00    -0.146 A  
HETATM    8  C   UNL     1      -9.782   7.437  69.634  1.00  0.00    -0.163 A  
HETATM    9  C   UNL     1     -10.475   7.823  68.489  1.00  0.00    -0.202 A  
HETATM   10  C   UNL     1      -8.912   9.666  69.869  1.00  0.00    -0.243 A  
HETATM   11  C   UNL     1      -9.613  10.102  68.722  1.00  0.00    -0.170 A  
HETATM   12  C   UNL     1      -9.916   6.047  70.113  1.00  0.00    -0.178 C  
HETATM   13  C   UNL     1     -10.375   9.134  68.041  1.00  0.00    -0.222 A  
HETATM   14  O   UNL     1     -10.635   5.235  69.532  1.00  0.00    -0.279 OA 
HETATM   15  F   UNL     1     -11.032   9.445  66.913  1.00  0.00    -0.260 F  
ENDROOT
BRANCH   6  16
HETATM   16  C   UNL     1      -7.328   8.776  72.221  1.00  0.00     0.083 C  
HETATM   17  C   UNL     1      -6.297   8.299  73.217  1.00  0.00    -0.111 C  
HETATM   18  C   UNL     1      -5.860   8.777  71.869  1.00  0.00    -0.061 C  
ENDBRANCH   6  16
BRANCH  11  19
HETATM   19  N   UNL     1      -9.595  11.444  68.375  1.00  0.00    -0.192 NA 
HETATM   20  N   UNL     1      -9.668  14.166  67.342  1.00  0.00    -0.228 NA 
HETATM   21  C   UNL     1      -8.331  12.153  68.103  1.00  0.00    -0.170 C  
HETATM   22  C   UNL     1      -8.587  13.215  67.008  1.00  0.00    -0.162 C  
HETATM   23  C   UNL     1     -10.892  13.427  67.715  1.00  0.00    -0.252 C  
HETATM   24  H   UNL     1      -9.838  14.832  66.589  1.00  0.00     0.000 HD 
HETATM   25  C   UNL     1     -10.670  12.354  68.809  1.00  0.00    -0.209 C  
ENDBRANCH  11  19
TORSDOF 2
ENDMDL
MODEL      105
REMARK 921   NORMALIZED FREE ENERGY PREDICTED BY IDOCK:   -3.39 KCAL/MOL
REMARK 922        TOTAL FREE ENERGY PREDICTED BY IDOCK:   -4.35 KCAL/MOL
REMARK 923 INTER-LIGAND FREE ENERGY PREDICTED BY IDOCK:   -4.42 KCAL/MOL
REMARK 924 INTRA-LIGAND FREE ENERGY PREDICTED BY IDOCK:    0.07 KCAL/MOL
REMARK 927      BINDING AFFINITY PREDICTED BY RF-SCORE:    0.00 PKD
ROOT
HETATM    1  O   UNL     1     -11.864  14.414  64.599  1.00  0.00    -0.405 OA 
HETATM    2  C   UNL     1     -12.451  13.780  65.642  1.00  0.00    -0.503 C  
HETATM    3  O   UNL     1     -13.638  13.927  65.906  1.00  0.00    -0.104 OA 
HETATM    4  C   UNL     1     -11.549  12.902  66.410  1.00  0.00    -0.425 C  
HETATM    5  C   UNL     1     -12.021  12.235  67.475  1.00  0.00    -0.140 C  
HETATM    6  N   UNL     1     -11.304  11.349  68.260  1.00  0.00    -0.258 NA 
HETATM    7  C   UNL     1      -9.922  11.129  67.987  1.00  0.00    -0.176 A  
HETATM    8  C   UNL     1      -9.327  11.777  66.891  1.00  0.00    -0.197 A  
HETATM    9  C   UNL     1      -7.988  11.574  66.566  1.00  0.00    -0.095 A  
HETATM   10  C   UNL     1      -9.103  10.297  68.773  1.00  0.00    -0.159 A  
HETATM   11  C   UNL     1      -7.737  10.079  68.487  1.00  0.00    -0.089 A  
HETATM   12  C   UNL     1     -10.129  12.699  66.063  1.00  0.00    -0.262 C  
HETATM   13  C   UNL     1      -7.217  10.727  67.351  1.00  0.00    -0.093 A  
HETATM   14  O   UNL     1      -9.636  13.299  65.109  1.00  0.00     0.012 OA 
HETATM   15  F   UNL     1      -5.944  10.536  66.973  1.00  0.00    -0.048 F  
ENDROOT
BRANCH   6  16
HETATM   16  C   UNL     1     -11.999  10.631  69.352  1.00  0.00    -0.226 C  
HETATM   17  C   UNL     1     -11.338  10.176  70.633  1.00  0.00    -0.433 C  
HETATM   18  C   UNL     1     -12.278  11.340  70.656  1.00  0.00    -0.489 C  
ENDBRANCH   6  16
BRANCH  11  19
HETATM   19  N   UNL     1      -6.963   9.330  69.361  1.00  0.00    -0.048 NA 
HETATM   20  N   UNL     1      -5.628   7.671  71.347  1.00  0.00    -0.035 NA 
HETATM   21  C   UNL     1      -6.164   9.968  70.424  1.00  0.00    -0.103 C  
HETATM   22  C   UNL     1      -6.134   9.026  71.650  1.00  0.00    -0.074 C  
HETATM   23  C   UNL     1      -6.374   7.097  70.208  1.00  0.00    -0.034 C  
HETATM   24  H   UNL     1      -5.651   7.062  72.165  1.00  0.00     0.000 HD 
HETATM   25  C   UNL     1      -6.426   8.017  68.964  1.00  0.00    -0.040 C  
ENDBRANCH  11  19
TORSDOF 2
ENDMDL
MODEL      106
REMARK 921   NORMALIZED FREE ENERGY PREDICTED BY IDOCK:   -3.37 KCAL/MOL
REMARK 922        TOTAL FREE ENERGY PREDICTED BY IDOCK:   -4.33 KCAL/MOL
REMARK 923 INTER-LIGAND FREE ENERGY PREDICTED BY IDOCK:   -3.94 KCAL/MOL
REMARK 924 INTRA-LIGAND FREE ENERGY PREDICTED BY IDOCK:   -0.39 KCAL/MOL
REMARK 927      BINDING AFFINITY PREDICTED BY RF-SCORE:    0.00 PKD
ROOT
HETATM    1  O   UNL     1      -7.410   9.885  64.155  1.00  0.00    -0.125 OA 
HETATM    2  C   UNL     1      -7.428   8.543  64.337  1.00  0.00    -0.110 C  
HETATM    3  O   UNL     1      -7.058   7.766  63.465  1.00  0.00    -0.069 OA 
HETATM    4  C   UNL     1      -7.914   8.111  65.660  1.00  0.00    -0.108 C  
HETATM    5  C   UNL     1      -7.988   6.801  65.944  1.00  0.00    -0.112 C  
HETATM    6  N   UNL     1      -8.383   6.254  67.153  1.00  0.00    -0.109 NA 
HETATM    7  C   UNL     1      -8.808   7.116  68.206  1.00  0.00    -0.127 A  
HETATM    8  C   UNL     1      -8.767   8.507  68.015  1.00  0.00    -0.142 A  
HETATM    9  C   UNL     1      -9.146   9.390  69.023  1.00  0.00    -0.142 A  
HETATM   10  C   UNL     1      -9.287   6.643  69.442  1.00  0.00    -0.147 A  
HETATM   11  C   UNL     1      -9.698   7.505  70.484  1.00  0.00    -0.179 A  
HETATM   12  C   UNL     1      -8.320   9.054  66.719  1.00  0.00    -0.115 C  
HETATM   13  C   UNL     1      -9.591   8.887  70.239  1.00  0.00    -0.186 A  
HETATM   14  O   UNL     1      -8.291  10.266  66.510  1.00  0.00    -0.123 OA 
HETATM   15  F   UNL     1      -9.908   9.780  71.189  1.00  0.00    -0.307 F  
ENDROOT
BRANCH   6  16
HETATM   16  C   UNL     1      -8.331   4.786  67.328  1.00  0.00    -0.105 C  
HETATM   17  C   UNL     1      -9.316   3.816  66.719  1.00  0.00    -0.209 C  
HETATM   18  C   UNL     1      -7.928   3.906  66.169  1.00  0.00    -0.094 C  
ENDBRANCH   6  16
BRANCH  11  19
HETATM   19  N   UNL     1     -10.256   6.974  71.636  1.00  0.00    -0.194 NA 
HETATM   20  N   UNL     1     -11.223   5.593  74.011  1.00  0.00    -0.308 NA 
HETATM   21  C   UNL     1     -11.613   6.396  71.640  1.00  0.00    -0.310 C  
HETATM   22  C   UNL     1     -11.644   5.220  72.645  1.00  0.00    -0.154 C  
HETATM   23  C   UNL     1      -9.908   6.268  73.966  1.00  0.00    -0.236 C  
HETATM   24  H   UNL     1     -11.221   4.793  74.643  1.00  0.00     0.000 HD 
HETATM   25  C   UNL     1      -9.841   7.448  72.968  1.00  0.00    -0.230 C  
ENDBRANCH  11  19
TORSDOF 2
ENDMDL
MODEL      107
REMARK 921   NORMALIZED FREE ENERGY PREDICTED BY IDOCK:   -3.37 KCAL/MOL
REMARK 922        TOTAL FREE ENERGY PREDICTED BY IDOCK:   -4.32 KCAL/MOL
REMARK 923 INTER-LIGAND FREE ENERGY PREDICTED BY IDOCK:   -4.04 KCAL/MOL
REMARK 924 INTRA-LIGAND FREE ENERGY PREDICTED BY IDOCK:   -0.28 KCAL/MOL
REMARK 927      BINDING AFFINITY PREDICTED BY RF-SCORE:    0.00 PKD
ROOT
HETATM    1  O   UNL     1      -6.777  17.964  67.544  1.00  0.00    -0.172 OA 
HETATM    2  C   UNL     1      -8.035  17.526  67.787  1.00  0.00    -0.208 C  
HETATM    3  O   UNL     1      -8.972  18.299  67.946  1.00  0.00    -0.267 OA 
HETATM    4  C   UNL     1      -8.174  16.058  67.832  1.00  0.00    -0.154 C  
HETATM    5  C   UNL     1      -9.376  15.514  68.080  1.00  0.00    -0.197 C  
HETATM    6  N   UNL     1      -9.662  14.160  68.110  1.00  0.00    -0.218 NA 
HETATM    7  C   UNL     1      -8.611  13.217  67.917  1.00  0.00    -0.185 A  
HETATM    8  C   UNL     1      -7.313  13.680  67.645  1.00  0.00    -0.185 A  
HETATM    9  C   UNL     1      -6.257  12.799  67.422  1.00  0.00    -0.133 A  
HETATM   10  C   UNL     1      -8.800  11.824  67.995  1.00  0.00    -0.164 A  
HETATM   11  C   UNL     1      -7.753  10.897  67.793  1.00  0.00    -0.107 A  
HETATM   12  C   UNL     1      -7.049  15.133  67.600  1.00  0.00    -0.186 C  
HETATM   13  C   UNL     1      -6.487  11.431  67.485  1.00  0.00    -0.074 A  
HETATM   14  O   UNL     1      -5.922  15.574  67.387  1.00  0.00    -0.294 OA 
HETATM   15  F   UNL     1      -5.446  10.625  67.224  1.00  0.00    -0.040 F  
ENDROOT
BRANCH   6  16
HETATM   16  C   UNL     1     -11.061  13.725  68.319  1.00  0.00    -0.255 C  
HETATM   17  C   UNL     1     -12.174  14.628  68.798  1.00  0.00    -0.154 C  
HETATM   18  C   UNL     1     -12.140  14.188  67.369  1.00  0.00    -0.379 C  
ENDBRANCH   6  16
BRANCH  11  19
HETATM   19  N   UNL     1      -7.985   9.544  67.987  1.00  0.00    -0.091 NA 
HETATM   20  N   UNL     1      -8.672   6.794  68.653  1.00  0.00    -0.125 NA 
HETATM   21  C   UNL     1      -6.966   8.666  68.592  1.00  0.00    -0.064 C  
HETATM   22  C   UNL     1      -7.685   7.578  69.424  1.00  0.00    -0.111 C  
HETATM   23  C   UNL     1      -9.616   7.703  67.969  1.00  0.00    -0.145 C  
HETATM   24  H   UNL     1      -9.154   6.108  69.234  1.00  0.00     0.000 HD 
HETATM   25  C   UNL     1      -8.928   8.806  67.129  1.00  0.00    -0.131 C  
ENDBRANCH  11  19
TORSDOF 2
ENDMDL
MODEL      108
REMARK 921   NORMALIZED FREE ENERGY PREDICTED BY IDOCK:   -3.30 KCAL/MOL
REMARK 922        TOTAL FREE ENERGY PREDICTED BY IDOCK:   -4.25 KCAL/MOL
REMARK 923 INTER-LIGAND FREE ENERGY PREDICTED BY IDOCK:   -3.71 KCAL/MOL
REMARK 924 INTRA-LIGAND FREE ENERGY PREDICTED BY IDOCK:   -0.54 KCAL/MOL
REMARK 927      BINDING AFFINITY PREDICTED BY RF-SCORE:    0.00 PKD
ROOT
HETATM    1  O   UNL     1      -9.845   2.335  70.506  1.00  0.00    -0.040 OA 
HETATM    2  C   UNL     1      -9.759   3.581  71.028  1.00  0.00    -0.155 C  
HETATM    3  O   UNL     1      -9.953   3.801  72.218  1.00  0.00    -0.156 OA 
HETATM    4  C   UNL     1      -9.405   4.630  70.054  1.00  0.00    -0.215 C  
HETATM    5  C   UNL     1      -9.306   5.906  70.460  1.00  0.00    -0.163 C  
HETATM    6  N   UNL     1      -8.943   6.983  69.670  1.00  0.00    -0.141 NA 
HETATM    7  C   UNL     1      -8.691   6.780  68.282  1.00  0.00    -0.123 A  
HETATM    8  C   UNL     1      -8.763   5.480  67.753  1.00  0.00    -0.106 A  
HETATM    9  C   UNL     1      -8.498   5.226  66.409  1.00  0.00    -0.113 A  
HETATM   10  C   UNL     1      -8.380   7.827  67.394  1.00  0.00    -0.123 A  
HETATM   11  C   UNL     1      -8.122   7.614  66.021  1.00  0.00    -0.118 A  
HETATM   12  C   UNL     1      -9.133   4.353  68.631  1.00  0.00    -0.124 C  
HETATM   13  C   UNL     1      -8.172   6.282  65.567  1.00  0.00    -0.145 A  
HETATM   14  O   UNL     1      -9.226   3.206  68.198  1.00  0.00    -0.160 OA 
HETATM   15  F   UNL     1      -7.889   5.979  64.291  1.00  0.00    -0.086 F  
ENDROOT
BRANCH   6  16
HETATM   16  C   UNL     1      -8.803   8.317  70.294  1.00  0.00    -0.141 C  
HETATM   17  C   UNL     1      -9.883   9.373  70.306  1.00  0.00    -0.290 C  
HETATM   18  C   UNL     1      -9.556   8.634  71.564  1.00  0.00    -0.327 C  
ENDBRANCH   6  16
BRANCH  11  19
HETATM   19  N   UNL     1      -7.925   8.700  65.182  1.00  0.00    -0.120 NA 
HETATM   20  N   UNL     1      -7.373  10.763  63.203  1.00  0.00    -0.350 NA 
HETATM   21  C   UNL     1      -6.864   9.690  65.441  1.00  0.00    -0.094 C  
HETATM   22  C   UNL     1      -6.327  10.202  64.083  1.00  0.00    -0.126 C  
HETATM   23  C   UNL     1      -8.476   9.792  63.048  1.00  0.00    -0.180 C  
HETATM   24  H   UNL     1      -6.997  11.061  62.303  1.00  0.00     0.000 HD 
HETATM   25  C   UNL     1      -9.035   9.257  64.388  1.00  0.00    -0.116 C  
ENDBRANCH  11  19
TORSDOF 2
ENDMDL
MODEL      109
REMARK 921   NORMALIZED FREE ENERGY PREDICTED BY IDOCK:   -3.22 KCAL/MOL
REMARK 922        TOTAL FREE ENERGY PREDICTED BY IDOCK:   -4.17 KCAL/MOL
REMARK 923 INTER-LIGAND FREE ENERGY PREDICTED BY IDOCK:   -4.06 KCAL/MOL
REMARK 924 INTRA-LIGAND FREE ENERGY PREDICTED BY IDOCK:   -0.10 KCAL/MOL
REMARK 927      BINDING AFFINITY PREDICTED BY RF-SCORE:    0.00 PKD
ROOT
HETATM    1  O   UNL     1      -5.159  11.213  65.505  1.00  0.00    -0.222 OA 
HETATM    2  C   UNL     1      -6.251  10.430  65.677  1.00  0.00    -0.126 C  
HETATM    3  O   UNL     1      -6.327   9.307  65.195  1.00  0.00    -0.067 OA 
HETATM    4  C   UNL     1      -7.317  11.039  66.494  1.00  0.00    -0.144 C  
HETATM    5  C   UNL     1      -8.452  10.357  66.718  1.00  0.00    -0.125 C  
HETATM    6  N   UNL     1      -9.514  10.784  67.496  1.00  0.00    -0.154 NA 
HETATM    7  C   UNL     1      -9.470  12.077  68.093  1.00  0.00    -0.200 A  
HETATM    8  C   UNL     1      -8.326  12.874  67.925  1.00  0.00    -0.170 A  
HETATM    9  C   UNL     1      -8.223  14.133  68.511  1.00  0.00    -0.146 A  
HETATM   10  C   UNL     1     -10.532  12.616  68.845  1.00  0.00    -0.109 A  
HETATM   11  C   UNL     1     -10.475  13.896  69.440  1.00  0.00     0.120 A  
HETATM   12  C   UNL     1      -7.203  12.376  67.105  1.00  0.00    -0.080 C  
HETATM   13  C   UNL     1      -9.282  14.622  69.265  1.00  0.00     0.036 A  
HETATM   14  O   UNL     1      -6.195  13.055  66.919  1.00  0.00    -0.090 OA 
HETATM   15  F   UNL     1      -9.118  15.824  69.839  1.00  0.00    -0.246 F  
ENDROOT
BRANCH   6  16
HETATM   16  C   UNL     1     -10.661   9.873  67.708  1.00  0.00    -0.277 C  
HETATM   17  C   UNL     1     -10.629   8.384  67.456  1.00  0.00    -0.285 C  
HETATM   18  C   UNL     1     -10.641   8.897  68.861  1.00  0.00    -0.188 C  
ENDBRANCH   6  16
BRANCH  11  19
HETATM   19  N   UNL     1     -11.595  14.407  70.079  1.00  0.00    -0.275 NA 
HETATM   20  N   UNL     1     -13.809  15.370  71.707  1.00  0.00    -0.499 NA 
HETATM   21  C   UNL     1     -12.902  13.729  70.003  1.00  0.00     0.133 C  
HETATM   22  C   UNL     1     -13.648  13.948  71.341  1.00  0.00    -0.215 C  
HETATM   23  C   UNL     1     -12.498  16.052  71.669  1.00  0.00    -0.376 C  
HETATM   24  H   UNL     1     -14.273  15.483  72.608  1.00  0.00     0.000 HD 
HETATM   25  C   UNL     1     -11.724  15.851  70.344  1.00  0.00    -0.354 C  
ENDBRANCH  11  19
TORSDOF 2
ENDMDL
MODEL      110
REMARK 921   NORMALIZED FREE ENERGY PREDICTED BY IDOCK:   -3.18 KCAL/MOL
REMARK 922        TOTAL FREE ENERGY PREDICTED BY IDOCK:   -4.12 KCAL/MOL
REMARK 923 INTER-LIGAND FREE ENERGY PREDICTED BY IDOCK:   -3.55 KCAL/MOL
REMARK 924 INTRA-LIGAND FREE ENERGY PREDICTED BY IDOCK:   -0.57 KCAL/MOL
REMARK 927      BINDING AFFINITY PREDICTED BY RF-SCORE:    0.00 PKD
ROOT
HETATM    1  O   UNL     1      -7.166   5.667  63.274  1.00  0.00    -0.047 OA 
HETATM    2  C   UNL     1      -6.891   5.602  64.599  1.00  0.00    -0.051 C  
HETATM    3  O   UNL     1      -6.264   4.669  65.086  1.00  0.00    -0.032 OA 
HETATM    4  C   UNL     1      -7.397   6.741  65.386  1.00  0.00    -0.080 C  
HETATM    5  C   UNL     1      -7.194   6.773  66.713  1.00  0.00    -0.076 C  
HETATM    6  N   UNL     1      -7.574   7.794  67.567  1.00  0.00    -0.106 NA 
HETATM    7  C   UNL     1      -8.293   8.910  67.049  1.00  0.00    -0.106 A  
HETATM    8  C   UNL     1      -8.556   8.979  65.671  1.00  0.00    -0.187 A  
HETATM    9  C   UNL     1      -9.231  10.062  65.113  1.00  0.00    -0.273 A  
HETATM   10  C   UNL     1      -8.773   9.960  67.856  1.00  0.00    -0.129 A  
HETATM   11  C   UNL     1      -9.477  11.067  67.331  1.00  0.00    -0.160 A  
HETATM   12  C   UNL     1      -8.117   7.881  64.787  1.00  0.00    -0.141 C  
HETATM   13  C   UNL     1      -9.669  11.091  65.937  1.00  0.00    -0.224 A  
HETATM   14  O   UNL     1      -8.349   7.898  63.579  1.00  0.00    -0.062 OA 
HETATM   15  F   UNL     1     -10.280  12.128  65.345  1.00  0.00    -0.260 F  
ENDROOT
BRANCH   6  16
HETATM   16  C   UNL     1      -7.200   7.711  68.997  1.00  0.00    -0.080 C  
HETATM   17  C   UNL     1      -7.938   6.886  70.026  1.00  0.00    -0.116 C  
HETATM   18  C   UNL     1      -6.596   6.438  69.541  1.00  0.00    -0.048 C  
ENDBRANCH   6  16
BRANCH  11  19
HETATM   19  N   UNL     1     -10.012  12.012  68.193  1.00  0.00    -0.197 NA 
HETATM   20  N   UNL     1     -11.330  14.094  69.745  1.00  0.00    -0.383 NA 
HETATM   21  C   UNL     1      -9.262  13.226  68.566  1.00  0.00    -0.073 C  
HETATM   22  C   UNL     1     -10.268  14.386  68.760  1.00  0.00    -0.239 C  
HETATM   23  C   UNL     1     -11.993  12.816  69.408  1.00  0.00    -0.263 C  
HETATM   24  H   UNL     1     -11.997  14.861  69.827  1.00  0.00     0.000 HD 
HETATM   25  C   UNL     1     -11.014  11.635  69.205  1.00  0.00    -0.219 C  
ENDBRANCH  11  19
TORSDOF 2
ENDMDL
MODEL      111
REMARK 921   NORMALIZED FREE ENERGY PREDICTED BY IDOCK:   -3.18 KCAL/MOL
REMARK 922        TOTAL FREE ENERGY PREDICTED BY IDOCK:   -4.12 KCAL/MOL
REMARK 923 INTER-LIGAND FREE ENERGY PREDICTED BY IDOCK:   -3.57 KCAL/MOL
REMARK 924 INTRA-LIGAND FREE ENERGY PREDICTED BY IDOCK:   -0.54 KCAL/MOL
REMARK 927      BINDING AFFINITY PREDICTED BY RF-SCORE:    0.00 PKD
ROOT
HETATM    1  O   UNL     1      -9.408   9.169  70.967  1.00  0.00    -0.248 OA 
HETATM    2  C   UNL     1      -9.095   9.644  69.738  1.00  0.00    -0.215 C  
HETATM    3  O   UNL     1      -8.829  10.825  69.547  1.00  0.00    -0.040 OA 
HETATM    4  C   UNL     1      -9.092   8.626  68.671  1.00  0.00    -0.138 C  
HETATM    5  C   UNL     1      -8.809   8.989  67.410  1.00  0.00    -0.118 C  
HETATM    6  N   UNL     1      -8.729   8.139  66.320  1.00  0.00    -0.142 NA 
HETATM    7  C   UNL     1      -9.014   6.753  66.490  1.00  0.00    -0.149 A  
HETATM    8  C   UNL     1      -9.318   6.266  67.772  1.00  0.00    -0.113 A  
HETATM    9  C   UNL     1      -9.577   4.915  67.994  1.00  0.00    -0.190 A  
HETATM   10  C   UNL     1      -9.020   5.831  65.426  1.00  0.00    -0.047 A  
HETATM   11  C   UNL     1      -9.295   4.457  65.607  1.00  0.00    -0.161 A  
HETATM   12  C   UNL     1      -9.374   7.199  68.915  1.00  0.00    -0.139 C  
HETATM   13  C   UNL     1      -9.551   4.031  66.924  1.00  0.00    -0.207 A  
HETATM   14  O   UNL     1      -9.658   6.811  70.047  1.00  0.00    -0.157 OA 
HETATM   15  F   UNL     1      -9.770   2.736  67.198  1.00  0.00    -0.162 F  
ENDROOT
BRANCH   6  16
HETATM   16  C   UNL     1      -8.325   8.690  65.007  1.00  0.00    -0.171 C  
HETATM   17  C   UNL     1      -8.428  10.147  64.623  1.00  0.00    -0.178 C  
HETATM   18  C   UNL     1      -7.086   9.548  64.903  1.00  0.00    -0.107 C  
ENDBRANCH   6  16
BRANCH  11  19
HETATM   19  N   UNL     1      -9.386   3.623  64.503  1.00  0.00    -0.139 NA 
HETATM   20  N   UNL     1      -9.650   1.625  62.401  1.00  0.00    -0.085 NA 
HETATM   21  C   UNL     1      -8.183   3.156  63.788  1.00  0.00    -0.086 C  
HETATM   22  C   UNL     1      -8.450   1.727  63.257  1.00  0.00    -0.072 C  
HETATM   23  C   UNL     1     -10.819   2.199  63.099  1.00  0.00    -0.234 C  
HETATM   24  H   UNL     1      -9.820   0.668  62.093  1.00  0.00     0.000 HD 
HETATM   25  C   UNL     1     -10.584   3.629  63.646  1.00  0.00    -0.272 C  
ENDBRANCH  11  19
TORSDOF 2
ENDMDL
MODEL      112
REMARK 921   NORMALIZED FREE ENERGY PREDICTED BY IDOCK:   -3.14 KCAL/MOL
REMARK 922        TOTAL FREE ENERGY PREDICTED BY IDOCK:   -4.07 KCAL/MOL
REMARK 923 INTER-LIGAND FREE ENERGY PREDICTED BY IDOCK:   -3.51 KCAL/MOL
REMARK 924 INTRA-LIGAND FREE ENERGY PREDICTED BY IDOCK:   -0.56 KCAL/MOL
REMARK 927      BINDING AFFINITY PREDICTED BY RF-SCORE:    0.00 PKD
ROOT
HETATM    1  O   UNL     1      -5.846   8.564  73.930  1.00  0.00    -0.099 OA 
HETATM    2  C   UNL     1      -7.169   8.512  73.645  1.00  0.00    -0.015 C  
HETATM    3  O   UNL     1      -8.022   8.489  74.524  1.00  0.00    -0.304 OA 
HETATM    4  C   UNL     1      -7.485   8.495  72.204  1.00  0.00    -0.111 C  
HETATM    5  C   UNL     1      -8.765   8.430  71.806  1.00  0.00    -0.180 C  
HETATM    6  N   UNL     1      -9.209   8.449  70.495  1.00  0.00    -0.147 NA 
HETATM    7  C   UNL     1      -8.258   8.490  69.434  1.00  0.00    -0.114 A  
HETATM    8  C   UNL     1      -6.889   8.565  69.740  1.00  0.00    -0.043 A  
HETATM    9  C   UNL     1      -5.923   8.634  68.739  1.00  0.00    -0.044 A  
HETATM   10  C   UNL     1      -8.619   8.448  68.074  1.00  0.00    -0.135 A  
HETATM   11  C   UNL     1      -7.669   8.498  67.029  1.00  0.00    -0.092 A  
HETATM   12  C   UNL     1      -6.454   8.563  71.151  1.00  0.00    -0.049 C  
HETATM   13  C   UNL     1      -6.318   8.613  67.407  1.00  0.00    -0.057 A  
HETATM   14  O   UNL     1      -5.263   8.605  71.455  1.00  0.00    -0.032 OA 
HETATM   15  F   UNL     1      -5.352   8.721  66.483  1.00  0.00    -0.032 F  
ENDROOT
BRANCH   6  16
HETATM   16  C   UNL     1     -10.665   8.452  70.230  1.00  0.00    -0.234 C  
HETATM   17  C   UNL     1     -11.583   7.280  70.489  1.00  0.00    -0.292 C  
HETATM   18  C   UNL     1     -11.638   8.477  71.384  1.00  0.00    -0.344 C  
ENDBRANCH   6  16
BRANCH  11  19
HETATM   19  N   UNL     1      -8.085   8.347  65.715  1.00  0.00    -0.111 NA 
HETATM   20  N   UNL     1      -8.661   8.164  62.866  1.00  0.00    -0.416 NA 
HETATM   21  C   UNL     1      -9.090   9.245  65.117  1.00  0.00    -0.206 C  
HETATM   22  C   UNL     1      -8.753   9.432  63.618  1.00  0.00    -0.202 C  
HETATM   23  C   UNL     1      -7.728   7.241  63.547  1.00  0.00    -0.123 C  
HETATM   24  H   UNL     1      -8.404   8.315  61.891  1.00  0.00     0.000 HD 
HETATM   25  C   UNL     1      -8.036   7.033  65.050  1.00  0.00    -0.129 C  
ENDBRANCH  11  19
TORSDOF 2
ENDMDL
MODEL      113
REMARK 921   NORMALIZED FREE ENERGY PREDICTED BY IDOCK:   -3.06 KCAL/MOL
REMARK 922        TOTAL FREE ENERGY PREDICTED BY IDOCK:   -3.98 KCAL/MOL
REMARK 923 INTER-LIGAND FREE ENERGY PREDICTED BY IDOCK:   -3.42 KCAL/MOL
REMARK 924 INTRA-LIGAND FREE ENERGY PREDICTED BY IDOCK:   -0.56 KCAL/MOL
REMARK 927      BINDING AFFINITY PREDICTED BY RF-SCORE:    0.00 PKD
ROOT
HETATM    1  O   UNL     1      -6.387   7.527  69.996  1.00  0.00    -0.030 OA 
HETATM    2  C   UNL     1      -7.426   7.844  69.186  1.00  0.00    -0.093 C  
HETATM    3  O   UNL     1      -8.185   6.992  68.741  1.00  0.00    -0.119 OA 
HETATM    4  C   UNL     1      -7.563   9.285  68.904  1.00  0.00    -0.075 C  
HETATM    5  C   UNL     1      -8.551   9.712  68.101  1.00  0.00    -0.119 C  
HETATM    6  N   UNL     1      -8.825  11.031  67.783  1.00  0.00    -0.132 NA 
HETATM    7  C   UNL     1      -7.981  12.063  68.288  1.00  0.00    -0.149 A  
HETATM    8  C   UNL     1      -6.919  11.726  69.142  1.00  0.00    -0.091 A  
HETATM    9  C   UNL     1      -6.083  12.701  69.683  1.00  0.00    -0.128 A  
HETATM   10  C   UNL     1      -8.148  13.423  67.963  1.00  0.00    -0.160 A  
HETATM   11  C   UNL     1      -7.312  14.440  68.476  1.00  0.00    -0.122 A  
HETATM   12  C   UNL     1      -6.669  10.310  69.476  1.00  0.00    -0.073 C  
HETATM   13  C   UNL     1      -6.293  14.035  69.358  1.00  0.00    -0.115 A  
HETATM   14  O   UNL     1      -5.736   9.977  70.204  1.00  0.00    -0.041 OA 
HETATM   15  F   UNL     1      -5.484  14.937  69.935  1.00  0.00    -0.094 F  
ENDROOT
BRANCH   6  16
HETATM   16  C   UNL     1     -10.005  11.338  66.945  1.00  0.00    -0.207 C  
HETATM   17  C   UNL     1     -10.047  11.193  65.441  1.00  0.00    -0.317 C  
HETATM   18  C   UNL     1     -10.781  10.213  66.301  1.00  0.00    -0.047 C  
ENDBRANCH   6  16
BRANCH  11  19
HETATM   19  N   UNL     1      -7.467  15.745  68.034  1.00  0.00    -0.122 NA 
HETATM   20  N   UNL     1      -7.457  18.515  67.138  1.00  0.00    -0.219 NA 
HETATM   21  C   UNL     1      -8.020  16.794  68.910  1.00  0.00    -0.237 C  
HETATM   22  C   UNL     1      -7.336  18.138  68.561  1.00  0.00    -0.278 C  
HETATM   23  C   UNL     1      -6.997  17.403  66.280  1.00  0.00    -0.284 C  
HETATM   24  H   UNL     1      -6.969  19.386  66.930  1.00  0.00     0.000 HD 
HETATM   25  C   UNL     1      -7.661  16.043  66.604  1.00  0.00    -0.165 C  
ENDBRANCH  11  19
TORSDOF 2
ENDMDL
MODEL      114
REMARK 921   NORMALIZED FREE ENERGY PREDICTED BY IDOCK:   -2.87 KCAL/MOL
REMARK 922        TOTAL FREE ENERGY PREDICTED BY IDOCK:   -3.77 KCAL/MOL
REMARK 923 INTER-LIGAND FREE ENERGY PREDICTED BY IDOCK:   -4.24 KCAL/MOL
REMARK 924 INTRA-LIGAND FREE ENERGY PREDICTED BY IDOCK:    0.47 KCAL/MOL
REMARK 927      BINDING AFFINITY PREDICTED BY RF-SCORE:    0.00 PKD
ROOT
HETATM    1  O   UNL     1     -11.789  13.561  64.007  1.00  0.00    -0.422 OA 
HETATM    2  C   UNL     1     -11.711  12.211  64.084  1.00  0.00    -0.396 C  
HETATM    3  O   UNL     1     -12.370  11.481  63.354  1.00  0.00    -0.352 OA 
HETATM    4  C   UNL     1     -10.769  11.709  65.101  1.00  0.00    -0.351 C  
HETATM    5  C   UNL     1     -10.622  10.386  65.274  1.00  0.00     0.007 C  
HETATM    6  N   UNL     1      -9.749   9.775  66.157  1.00  0.00    -0.226 NA 
HETATM    7  C   UNL     1      -8.948  10.579  67.019  1.00  0.00    -0.140 A  
HETATM    8  C   UNL     1      -9.021  11.979  66.919  1.00  0.00    -0.199 A  
HETATM    9  C   UNL     1      -8.238  12.807  67.719  1.00  0.00    -0.176 A  
HETATM   10  C   UNL     1      -8.082  10.042  67.990  1.00  0.00    -0.112 A  
HETATM   11  C   UNL     1      -7.285  10.848  68.834  1.00  0.00    -0.095 A  
HETATM   12  C   UNL     1      -9.949  12.595  65.950  1.00  0.00    -0.264 C  
HETATM   13  C   UNL     1      -7.378  12.240  68.651  1.00  0.00    -0.106 A  
HETATM   14  O   UNL     1     -10.055  13.816  65.850  1.00  0.00    -0.299 OA 
HETATM   15  F   UNL     1      -6.620  13.081  69.371  1.00  0.00    -0.103 F  
ENDROOT
BRANCH   6  16
HETATM   16  C   UNL     1      -9.652   8.299  66.166  1.00  0.00    -0.147 C  
HETATM   17  C   UNL     1      -9.180   7.480  67.345  1.00  0.00    -0.149 C  
HETATM   18  C   UNL     1     -10.631   7.487  66.981  1.00  0.00    -0.409 C  
ENDBRANCH   6  16
BRANCH  11  19
HETATM   19  N   UNL     1      -6.533  10.258  69.838  1.00  0.00    -0.080 NA 
HETATM   20  N   UNL     1      -5.191   9.126  72.162  1.00  0.00    -0.054 NA 
HETATM   21  C   UNL     1      -5.283  10.870  70.326  1.00  0.00    -0.063 C  
HETATM   22  C   UNL     1      -5.144  10.566  71.837  1.00  0.00    -0.009 C  
HETATM   23  C   UNL     1      -6.399   8.515  71.569  1.00  0.00    -0.057 C  
HETATM   24  H   UNL     1      -5.131   8.958  73.166  1.00  0.00     0.000 HD 
HETATM   25  C   UNL     1      -6.570   8.801  70.057  1.00  0.00    -0.038 C  
ENDBRANCH  11  19
TORSDOF 2
ENDMDL
MODEL      115
REMARK 921   NORMALIZED FREE ENERGY PREDICTED BY IDOCK:   -2.66 KCAL/MOL
REMARK 922        TOTAL FREE ENERGY PREDICTED BY IDOCK:   -3.53 KCAL/MOL
REMARK 923 INTER-LIGAND FREE ENERGY PREDICTED BY IDOCK:   -3.03 KCAL/MOL
REMARK 924 INTRA-LIGAND FREE ENERGY PREDICTED BY IDOCK:   -0.50 KCAL/MOL
REMARK 927      BINDING AFFINITY PREDICTED BY RF-SCORE:    0.00 PKD
ROOT
HETATM    1  O   UNL     1     -10.167   3.994  65.636  1.00  0.00    -0.166 OA 
HETATM    2  C   UNL     1      -9.112   4.590  65.030  1.00  0.00    -0.152 C  
HETATM    3  O   UNL     1      -8.480   4.038  64.138  1.00  0.00    -0.094 OA 
HETATM    4  C   UNL     1      -8.807   5.945  65.525  1.00  0.00    -0.100 C  
HETATM    5  C   UNL     1      -7.772   6.624  65.005  1.00  0.00    -0.103 C  
HETATM    6  N   UNL     1      -7.396   7.913  65.342  1.00  0.00    -0.074 NA 
HETATM    7  C   UNL     1      -8.108   8.606  66.363  1.00  0.00    -0.100 A  
HETATM    8  C   UNL     1      -9.213   7.988  66.973  1.00  0.00    -0.181 A  
HETATM    9  C   UNL     1      -9.957   8.634  67.956  1.00  0.00    -0.221 A  
HETATM   10  C   UNL     1      -7.754   9.892  66.813  1.00  0.00    -0.099 A  
HETATM   11  C   UNL     1      -8.472  10.575  67.820  1.00  0.00    -0.114 A  
HETATM   12  C   UNL     1      -9.597   6.619  66.573  1.00  0.00    -0.140 C  
HETATM   13  C   UNL     1      -9.592   9.913  68.358  1.00  0.00    -0.148 A  
HETATM   14  O   UNL     1     -10.545   6.040  67.100  1.00  0.00    -0.231 OA 
HETATM   15  F   UNL     1     -10.364  10.506  69.281  1.00  0.00    -0.190 F  
ENDROOT
BRANCH   6  16
HETATM   16  C   UNL     1      -6.276   8.548  64.612  1.00  0.00    -0.065 C  
HETATM   17  C   UNL     1      -5.853   8.183  63.209  1.00  0.00    -0.071 C  
HETATM   18  C   UNL     1      -6.564   9.475  63.455  1.00  0.00    -0.103 C  
ENDBRANCH   6  16
BRANCH  11  19
HETATM   19  N   UNL     1      -8.008  11.795  68.288  1.00  0.00    -0.140 NA 
HETATM   20  N   UNL     1      -6.847  14.372  68.990  1.00  0.00    -0.105 NA 
HETATM   21  C   UNL     1      -7.026  11.876  69.386  1.00  0.00    -0.001 C  
HETATM   22  C   UNL     1      -6.111  13.100  69.138  1.00  0.00    -0.095 C  
HETATM   23  C   UNL     1      -7.897  14.230  67.959  1.00  0.00    -0.143 C  
HETATM   24  H   UNL     1      -6.223  15.155  68.794  1.00  0.00     0.000 HD 
HETATM   25  C   UNL     1      -8.829  13.013  68.175  1.00  0.00    -0.194 C  
ENDBRANCH  11  19
TORSDOF 2
ENDMDL
MODEL      116
REMARK 921   NORMALIZED FREE ENERGY PREDICTED BY IDOCK:   -2.60 KCAL/MOL
REMARK 922        TOTAL FREE ENERGY PREDICTED BY IDOCK:   -3.47 KCAL/MOL
REMARK 923 INTER-LIGAND FREE ENERGY PREDICTED BY IDOCK:   -3.74 KCAL/MOL
REMARK 924 INTRA-LIGAND FREE ENERGY PREDICTED BY IDOCK:    0.27 KCAL/MOL
REMARK 927      BINDING AFFINITY PREDICTED BY RF-SCORE:    0.00 PKD
ROOT
HETATM    1  O   UNL     1      -7.984   5.544  65.375  1.00  0.00    -0.099 OA 
HETATM    2  C   UNL     1      -6.969   6.376  65.708  1.00  0.00    -0.061 C  
HETATM    3  O   UNL     1      -5.811   5.987  65.789  1.00  0.00    -0.023 OA 
HETATM    4  C   UNL     1      -7.378   7.773  65.948  1.00  0.00    -0.073 C  
HETATM    5  C   UNL     1      -6.455   8.683  66.299  1.00  0.00    -0.061 C  
HETATM    6  N   UNL     1      -6.685  10.030  66.514  1.00  0.00    -0.079 NA 
HETATM    7  C   UNL     1      -8.013  10.538  66.417  1.00  0.00    -0.137 A  
HETATM    8  C   UNL     1      -9.056   9.671  66.052  1.00  0.00    -0.212 A  
HETATM    9  C   UNL     1     -10.366  10.125  65.917  1.00  0.00    -0.221 A  
HETATM   10  C   UNL     1      -8.347  11.880  66.683  1.00  0.00    -0.117 A  
HETATM   11  C   UNL     1      -9.666  12.376  66.575  1.00  0.00    -0.240 A  
HETATM   12  C   UNL     1      -8.769   8.243  65.810  1.00  0.00    -0.166 C  
HETATM   13  C   UNL     1     -10.654  11.461  66.165  1.00  0.00    -0.265 A  
HETATM   14  O   UNL     1      -9.661   7.451  65.510  1.00  0.00     0.410 OA 
HETATM   15  F   UNL     1     -11.923  11.855  65.985  1.00  0.00    -0.403 F  
ENDROOT
BRANCH   6  16
HETATM   16  C   UNL     1      -5.539  10.916  66.816  1.00  0.00    -0.074 C  
HETATM   17  C   UNL     1      -5.662  12.310  67.385  1.00  0.00    -0.139 C  
HETATM   18  C   UNL     1      -5.166  11.197  68.252  1.00  0.00    -0.039 C  
ENDBRANCH   6  16
BRANCH  11  19
HETATM   19  N   UNL     1      -9.942  13.681  66.951  1.00  0.00    -0.254 NA 
HETATM   20  N   UNL     1     -10.821  16.383  67.593  1.00  0.00    -0.312 NA 
HETATM   21  C   UNL     1      -9.333  14.830  66.253  1.00  0.00    -0.278 C  
HETATM   22  C   UNL     1     -10.350  15.996  66.247  1.00  0.00    -0.321 C  
HETATM   23  C   UNL     1     -11.326  15.193  68.311  1.00  0.00    -0.327 C  
HETATM   24  H   UNL     1     -11.515  17.130  67.556  1.00  0.00     0.000 HD 
HETATM   25  C   UNL     1     -10.334  14.006  68.334  1.00  0.00    -0.251 C  
ENDBRANCH  11  19
TORSDOF 2
ENDMDL
MODEL      117
REMARK 921   NORMALIZED FREE ENERGY PREDICTED BY IDOCK:   -2.56 KCAL/MOL
REMARK 922        TOTAL FREE ENERGY PREDICTED BY IDOCK:   -3.42 KCAL/MOL
REMARK 923 INTER-LIGAND FREE ENERGY PREDICTED BY IDOCK:   -3.26 KCAL/MOL
REMARK 924 INTRA-LIGAND FREE ENERGY PREDICTED BY IDOCK:   -0.17 KCAL/MOL
REMARK 927      BINDING AFFINITY PREDICTED BY RF-SCORE:    0.00 PKD
ROOT
HETATM    1  O   UNL     1     -10.167  12.704  67.859  1.00  0.00    -0.209 OA 
HETATM    2  C   UNL     1     -10.777  11.513  67.647  1.00  0.00    -0.211 C  
HETATM    3  O   UNL     1     -11.815  11.422  67.004  1.00  0.00    -0.530 OA 
HETATM    4  C   UNL     1     -10.083  10.356  68.242  1.00  0.00    -0.174 C  
HETATM    5  C   UNL     1     -10.607   9.127  68.106  1.00  0.00    -0.183 C  
HETATM    6  N   UNL     1     -10.046   7.951  68.573  1.00  0.00    -0.192 NA 
HETATM    7  C   UNL     1      -8.830   8.000  69.315  1.00  0.00    -0.141 A  
HETATM    8  C   UNL     1      -8.195   9.237  69.512  1.00  0.00    -0.121 A  
HETATM    9  C   UNL     1      -6.991   9.334  70.206  1.00  0.00    -0.076 A  
HETATM   10  C   UNL     1      -8.226   6.861  69.881  1.00  0.00    -0.127 A  
HETATM   11  C   UNL     1      -7.015   6.919  70.607  1.00  0.00    -0.063 A  
HETATM   12  C   UNL     1      -8.812  10.469  68.981  1.00  0.00    -0.169 C  
HETATM   13  C   UNL     1      -6.412   8.185  70.731  1.00  0.00    -0.037 A  
HETATM   14  O   UNL     1      -8.294  11.571  69.154  1.00  0.00     0.018 OA 
HETATM   15  F   UNL     1      -5.235   8.327  71.358  1.00  0.00    -0.032 F  
ENDROOT
BRANCH   6  16
HETATM   16  C   UNL     1     -10.715   6.666  68.268  1.00  0.00    -0.257 C  
HETATM   17  C   UNL     1     -11.008   6.166  66.873  1.00  0.00    -0.384 C  
HETATM   18  C   UNL     1      -9.918   5.529  67.674  1.00  0.00    -0.187 C  
ENDBRANCH   6  16
BRANCH  11  19
HETATM   19  N   UNL     1      -6.530   5.777  71.226  1.00  0.00    -0.043 NA 
HETATM   20  N   UNL     1      -5.767   3.215  72.380  1.00  0.00    -0.008 NA 
HETATM   21  C   UNL     1      -6.712   5.547  72.671  1.00  0.00    -0.072 C  
HETATM   22  C   UNL     1      -6.880   4.028  72.910  1.00  0.00    -0.048 C  
HETATM   23  C   UNL     1      -5.535   3.544  70.957  1.00  0.00    -0.008 C  
HETATM   24  H   UNL     1      -5.920   2.216  72.521  1.00  0.00     0.000 HD 
HETATM   25  C   UNL     1      -5.364   5.058  70.683  1.00  0.00    -0.004 C  
ENDBRANCH  11  19
TORSDOF 2
ENDMDL
MODEL      118
REMARK 921   NORMALIZED FREE ENERGY PREDICTED BY IDOCK:   -2.51 KCAL/MOL
REMARK 922        TOTAL FREE ENERGY PREDICTED BY IDOCK:   -3.37 KCAL/MOL
REMARK 923 INTER-LIGAND FREE ENERGY PREDICTED BY IDOCK:   -3.22 KCAL/MOL
REMARK 924 INTRA-LIGAND FREE ENERGY PREDICTED BY IDOCK:   -0.15 KCAL/MOL
REMARK 927      BINDING AFFINITY PREDICTED BY RF-SCORE:    0.00 PKD
ROOT
HETATM    1  O   UNL     1     -10.873   8.150  73.265  1.00  0.00    -0.155 OA 
HETATM    2  C   UNL     1     -10.475   6.907  72.900  1.00  0.00    -0.244 C  
HETATM    3  O   UNL     1     -10.612   5.940  73.638  1.00  0.00    -0.250 OA 
HETATM    4  C   UNL     1      -9.881   6.826  71.553  1.00  0.00    -0.179 C  
HETATM    5  C   UNL     1      -9.438   5.644  71.094  1.00  0.00    -0.158 C  
HETATM    6  N   UNL     1      -8.900   5.412  69.840  1.00  0.00    -0.123 NA 
HETATM    7  C   UNL     1      -8.733   6.501  68.936  1.00  0.00    -0.127 A  
HETATM    8  C   UNL     1      -9.167   7.782  69.315  1.00  0.00    -0.145 A  
HETATM    9  C   UNL     1      -9.050   8.873  68.457  1.00  0.00    -0.137 A  
HETATM   10  C   UNL     1      -8.136   6.366  67.668  1.00  0.00    -0.114 A  
HETATM   11  C   UNL     1      -7.982   7.451  66.776  1.00  0.00    -0.115 A  
HETATM   12  C   UNL     1      -9.755   7.988  70.653  1.00  0.00    -0.173 C  
HETATM   13  C   UNL     1      -8.477   8.697  67.204  1.00  0.00    -0.114 A  
HETATM   14  O   UNL     1     -10.127   9.100  71.027  1.00  0.00    -0.252 OA 
HETATM   15  F   UNL     1      -8.422   9.771  66.403  1.00  0.00    -0.120 F  
ENDROOT
BRANCH   6  16
HETATM   16  C   UNL     1      -8.534   4.029  69.460  1.00  0.00    -0.060 C  
HETATM   17  C   UNL     1      -9.488   2.858  69.472  1.00  0.00    -0.161 C  
HETATM   18  C   UNL     1      -9.051   3.444  68.167  1.00  0.00    -0.205 C  
ENDBRANCH   6  16
BRANCH  11  19
HETATM   19  N   UNL     1      -7.293   7.270  65.587  1.00  0.00    -0.073 NA 
HETATM   20  N   UNL     1      -5.926   7.210  63.016  1.00  0.00    -0.041 NA 
HETATM   21  C   UNL     1      -7.859   6.477  64.480  1.00  0.00    -0.112 C  
HETATM   22  C   UNL     1      -7.394   7.097  63.141  1.00  0.00    -0.084 C  
HETATM   23  C   UNL     1      -5.372   7.914  64.192  1.00  0.00    -0.040 C  
HETATM   24  H   UNL     1      -5.649   7.652  62.140  1.00  0.00     0.000 HD 
HETATM   25  C   UNL     1      -5.821   7.320  65.548  1.00  0.00    -0.037 C  
ENDBRANCH  11  19
TORSDOF 2
ENDMDL
MODEL      119
REMARK 921   NORMALIZED FREE ENERGY PREDICTED BY IDOCK:   -2.45 KCAL/MOL
REMARK 922        TOTAL FREE ENERGY PREDICTED BY IDOCK:   -3.31 KCAL/MOL
REMARK 923 INTER-LIGAND FREE ENERGY PREDICTED BY IDOCK:   -2.70 KCAL/MOL
REMARK 924 INTRA-LIGAND FREE ENERGY PREDICTED BY IDOCK:   -0.60 KCAL/MOL
REMARK 927      BINDING AFFINITY PREDICTED BY RF-SCORE:    0.00 PKD
ROOT
HETATM    1  O   UNL     1      -6.512   9.296  72.153  1.00  0.00    -0.286 OA 
HETATM    2  C   UNL     1      -6.454   9.836  70.912  1.00  0.00    -0.062 C  
HETATM    3  O   UNL     1      -6.073  10.984  70.722  1.00  0.00    -0.321 OA 
HETATM    4  C   UNL     1      -6.873   8.927  69.829  1.00  0.00    -0.046 C  
HETATM    5  C   UNL     1      -6.868   9.362  68.559  1.00  0.00    -0.062 C  
HETATM    6  N   UNL     1      -7.194   8.611  67.443  1.00  0.00    -0.080 NA 
HETATM    7  C   UNL     1      -7.629   7.263  67.608  1.00  0.00    -0.110 A  
HETATM    8  C   UNL     1      -7.667   6.706  68.897  1.00  0.00    -0.109 A  
HETATM    9  C   UNL     1      -8.059   5.386  69.107  1.00  0.00    -0.094 A  
HETATM   10  C   UNL     1      -8.041   6.449  66.536  1.00  0.00    -0.111 A  
HETATM   11  C   UNL     1      -8.462   5.112  66.709  1.00  0.00    -0.106 A  
HETATM   12  C   UNL     1      -7.292   7.532  70.062  1.00  0.00    -0.081 C  
HETATM   13  C   UNL     1      -8.436   4.605  68.022  1.00  0.00    -0.102 A  
HETATM   14  O   UNL     1      -7.334   7.083  71.206  1.00  0.00    -0.078 OA 
HETATM   15  F   UNL     1      -8.768   3.330  68.274  1.00  0.00    -0.096 F  
ENDROOT
BRANCH   6  16
HETATM   16  C   UNL     1      -7.059   9.220  66.102  1.00  0.00    -0.091 C  
HETATM   17  C   UNL     1      -8.079  10.142  65.475  1.00  0.00    -0.147 C  
HETATM   18  C   UNL     1      -6.784  10.700  65.975  1.00  0.00    -0.128 C  
ENDBRANCH   6  16
BRANCH  11  19
HETATM   19  N   UNL     1      -8.953   4.400  65.625  1.00  0.00    -0.126 NA 
HETATM   20  N   UNL     1      -9.939   3.187  63.168  1.00  0.00    -0.116 NA 
HETATM   21  C   UNL     1     -10.390   4.099  65.488  1.00  0.00    -0.124 C  
HETATM   22  C   UNL     1     -10.754   4.110  63.984  1.00  0.00    -0.047 C  
HETATM   23  C   UNL     1      -8.502   3.439  63.407  1.00  0.00    -0.090 C  
HETATM   24  H   UNL     1     -10.177   3.240  62.177  1.00  0.00     0.000 HD 
HETATM   25  C   UNL     1      -8.104   3.437  64.902  1.00  0.00    -0.090 C  
ENDBRANCH  11  19
TORSDOF 2
ENDMDL
MODEL      120
REMARK 921   NORMALIZED FREE ENERGY PREDICTED BY IDOCK:   -2.44 KCAL/MOL
REMARK 922        TOTAL FREE ENERGY PREDICTED BY IDOCK:   -3.29 KCAL/MOL
REMARK 923 INTER-LIGAND FREE ENERGY PREDICTED BY IDOCK:   -2.77 KCAL/MOL
REMARK 924 INTRA-LIGAND FREE ENERGY PREDICTED BY IDOCK:   -0.52 KCAL/MOL
REMARK 927      BINDING AFFINITY PREDICTED BY RF-SCORE:    0.00 PKD
ROOT
HETATM    1  O   UNL     1      -7.251   5.220  70.520  1.00  0.00    -0.061 OA 
HETATM    2  C   UNL     1      -8.058   5.749  69.570  1.00  0.00    -0.108 C  
HETATM    3  O   UNL     1      -8.847   5.062  68.933  1.00  0.00    -0.092 OA 
HETATM    4  C   UNL     1      -7.910   7.204  69.382  1.00  0.00    -0.113 C  
HETATM    5  C   UNL     1      -8.651   7.832  68.455  1.00  0.00    -0.128 C  
HETATM    6  N   UNL     1      -8.648   9.192  68.200  1.00  0.00    -0.128 NA 
HETATM    7  C   UNL     1      -7.759  10.039  68.924  1.00  0.00    -0.089 A  
HETATM    8  C   UNL     1      -6.940   9.484  69.921  1.00  0.00    -0.078 A  
HETATM    9  C   UNL     1      -6.075  10.275  70.675  1.00  0.00    -0.103 A  
HETATM   10  C   UNL     1      -7.644  11.422  68.683  1.00  0.00    -0.130 A  
HETATM   11  C   UNL     1      -6.766  12.255  69.413  1.00  0.00    -0.043 A  
HETATM   12  C   UNL     1      -6.986   8.032  70.180  1.00  0.00    -0.048 C  
HETATM   13  C   UNL     1      -6.006  11.639  70.425  1.00  0.00    -0.131 A  
HETATM   14  O   UNL     1      -6.268   7.509  71.031  1.00  0.00    -0.035 OA 
HETATM   15  F   UNL     1      -5.185  12.360  71.203  1.00  0.00    -0.119 F  
ENDROOT
BRANCH   6  16
HETATM   16  C   UNL     1      -9.588   9.737  67.195  1.00  0.00    -0.169 C  
HETATM   17  C   UNL     1      -9.654   9.287  65.754  1.00  0.00    -0.341 C  
HETATM   18  C   UNL     1     -10.737   8.888  66.706  1.00  0.00    -0.098 C  
ENDBRANCH   6  16
BRANCH  11  19
HETATM   19  N   UNL     1      -6.627  13.587  69.055  1.00  0.00    -0.106 NA 
HETATM   20  N   UNL     1      -6.315  16.451  68.634  1.00  0.00    -0.129 NA 
HETATM   21  C   UNL     1      -7.774  14.381  68.578  1.00  0.00    -0.135 C  
HETATM   22  C   UNL     1      -7.594  15.842  69.055  1.00  0.00    -0.191 C  
HETATM   23  C   UNL     1      -5.188  15.581  69.029  1.00  0.00    -0.095 C  
HETATM   24  H   UNL     1      -6.209  17.401  68.990  1.00  0.00     0.000 HD 
HETATM   25  C   UNL     1      -5.338  14.111  68.570  1.00  0.00    -0.098 C  
ENDBRANCH  11  19
TORSDOF 2
ENDMDL
MODEL      121
REMARK 921   NORMALIZED FREE ENERGY PREDICTED BY IDOCK:   -2.39 KCAL/MOL
REMARK 922        TOTAL FREE ENERGY PREDICTED BY IDOCK:   -3.24 KCAL/MOL
REMARK 923 INTER-LIGAND FREE ENERGY PREDICTED BY IDOCK:   -2.69 KCAL/MOL
REMARK 924 INTRA-LIGAND FREE ENERGY PREDICTED BY IDOCK:   -0.55 KCAL/MOL
REMARK 927      BINDING AFFINITY PREDICTED BY RF-SCORE:    0.00 PKD
ROOT
HETATM    1  O   UNL     1      -6.150  11.327  67.943  1.00  0.00    -0.049 OA 
HETATM    2  C   UNL     1      -6.491  10.151  67.364  1.00  0.00    -0.067 C  
HETATM    3  O   UNL     1      -6.368   9.960  66.161  1.00  0.00    -0.071 OA 
HETATM    4  C   UNL     1      -7.006   9.135  68.301  1.00  0.00    -0.076 C  
HETATM    5  C   UNL     1      -7.390   7.936  67.834  1.00  0.00    -0.092 C  
HETATM    6  N   UNL     1      -7.850   6.877  68.598  1.00  0.00    -0.116 NA 
HETATM    7  C   UNL     1      -7.998   7.042  70.006  1.00  0.00    -0.115 A  
HETATM    8  C   UNL     1      -7.622   8.258  70.600  1.00  0.00    -0.071 A  
HETATM    9  C   UNL     1      -7.722   8.457  71.975  1.00  0.00    -0.163 A  
HETATM   10  C   UNL     1      -8.520   6.041  70.848  1.00  0.00    -0.127 A  
HETATM   11  C   UNL     1      -8.654   6.210  72.244  1.00  0.00    -0.119 A  
HETATM   12  C   UNL     1      -7.115   9.358  69.755  1.00  0.00    -0.068 C  
HETATM   13  C   UNL     1      -8.220   7.439  72.777  1.00  0.00    -0.112 A  
HETATM   14  O   UNL     1      -6.797  10.443  70.238  1.00  0.00    -0.152 OA 
HETATM   15  F   UNL     1      -8.260   7.668  74.098  1.00  0.00    -0.168 F  
ENDROOT
BRANCH   6  16
HETATM   16  C   UNL     1      -8.156   5.591  67.933  1.00  0.00    -0.100 C  
HETATM   17  C   UNL     1      -7.815   5.269  66.497  1.00  0.00    -0.100 C  
HETATM   18  C   UNL     1      -7.036   4.633  67.603  1.00  0.00    -0.061 C  
ENDBRANCH   6  16
BRANCH  11  19
HETATM   19  N   UNL     1      -9.271   5.225  73.000  1.00  0.00    -0.127 NA 
HETATM   20  N   UNL     1     -10.668   3.022  74.294  1.00  0.00    -0.176 NA 
HETATM   21  C   UNL     1     -10.521   5.489  73.737  1.00  0.00    -0.272 C  
HETATM   22  C   UNL     1     -11.373   4.197  73.741  1.00  0.00    -0.109 C  
HETATM   23  C   UNL     1      -9.370   2.845  73.610  1.00  0.00    -0.084 C  
HETATM   24  H   UNL     1     -11.240   2.178  74.252  1.00  0.00     0.000 HD 
HETATM   25  C   UNL     1      -8.493   4.120  73.587  1.00  0.00    -0.092 C  
ENDBRANCH  11  19
TORSDOF 2
ENDMDL
MODEL      122
REMARK 921   NORMALIZED FREE ENERGY PREDICTED BY IDOCK:   -2.37 KCAL/MOL
REMARK 922        TOTAL FREE ENERGY PREDICTED BY IDOCK:   -3.21 KCAL/MOL
REMARK 923 INTER-LIGAND FREE ENERGY PREDICTED BY IDOCK:   -3.16 KCAL/MOL
REMARK 924 INTRA-LIGAND FREE ENERGY PREDICTED BY IDOCK:   -0.05 KCAL/MOL
REMARK 927      BINDING AFFINITY PREDICTED BY RF-SCORE:    0.00 PKD
ROOT
HETATM    1  O   UNL     1      -5.620   9.535  70.625  1.00  0.00    -0.039 OA 
HETATM    2  C   UNL     1      -6.693   8.765  70.929  1.00  0.00    -0.058 C  
HETATM    3  O   UNL     1      -7.186   8.753  72.050  1.00  0.00    -0.234 OA 
HETATM    4  C   UNL     1      -7.210   7.965  69.803  1.00  0.00    -0.066 C  
HETATM    5  C   UNL     1      -8.263   7.154  69.995  1.00  0.00    -0.136 C  
HETATM    6  N   UNL     1      -8.878   6.381  69.025  1.00  0.00    -0.129 NA 
HETATM    7  C   UNL     1      -8.353   6.371  67.700  1.00  0.00    -0.117 A  
HETATM    8  C   UNL     1      -7.253   7.187  67.390  1.00  0.00    -0.090 A  
HETATM    9  C   UNL     1      -6.721   7.232  66.103  1.00  0.00    -0.053 A  
HETATM   10  C   UNL     1      -8.876   5.565  66.670  1.00  0.00    -0.117 A  
HETATM   11  C   UNL     1      -8.354   5.569  65.357  1.00  0.00    -0.142 A  
HETATM   12  C   UNL     1      -6.636   8.015  68.445  1.00  0.00    -0.059 C  
HETATM   13  C   UNL     1      -7.278   6.441  65.107  1.00  0.00    -0.070 A  
HETATM   14  O   UNL     1      -5.659   8.725  68.214  1.00  0.00    -0.037 OA 
HETATM   15  F   UNL     1      -6.753   6.550  63.877  1.00  0.00    -0.039 F  
ENDROOT
BRANCH   6  16
HETATM   16  C   UNL     1     -10.083   5.602  69.386  1.00  0.00    -0.223 C  
HETATM   17  C   UNL     1     -10.552   5.358  70.801  1.00  0.00    -0.293 C  
HETATM   18  C   UNL     1     -11.302   6.312  69.926  1.00  0.00    -0.504 C  
ENDBRANCH   6  16
BRANCH  11  19
HETATM   19  N   UNL     1      -8.848   4.676  64.419  1.00  0.00    -0.151 NA 
HETATM   20  N   UNL     1      -9.679   2.572  62.585  1.00  0.00    -0.089 NA 
HETATM   21  C   UNL     1      -8.446   4.746  63.002  1.00  0.00    -0.114 C  
HETATM   22  C   UNL     1      -8.408   3.308  62.430  1.00  0.00    -0.073 C  
HETATM   23  C   UNL     1     -10.115   2.611  63.996  1.00  0.00    -0.111 C  
HETATM   24  H   UNL     1      -9.615   1.618  62.230  1.00  0.00     0.000 HD 
HETATM   25  C   UNL     1     -10.162   4.035  64.601  1.00  0.00    -0.214 C  
ENDBRANCH  11  19
TORSDOF 2
ENDMDL
MODEL      123
REMARK 921   NORMALIZED FREE ENERGY PREDICTED BY IDOCK:   -2.36 KCAL/MOL
REMARK 922        TOTAL FREE ENERGY PREDICTED BY IDOCK:   -3.20 KCAL/MOL
REMARK 923 INTER-LIGAND FREE ENERGY PREDICTED BY IDOCK:   -2.99 KCAL/MOL
REMARK 924 INTRA-LIGAND FREE ENERGY PREDICTED BY IDOCK:   -0.21 KCAL/MOL
REMARK 927      BINDING AFFINITY PREDICTED BY RF-SCORE:    0.00 PKD
ROOT
HETATM    1  O   UNL     1      -5.245  14.689  73.561  1.00  0.00    -0.289 OA 
HETATM    2  C   UNL     1      -5.544  14.111  72.373  1.00  0.00    -0.102 C  
HETATM    3  O   UNL     1      -5.649  12.897  72.251  1.00  0.00    -0.346 OA 
HETATM    4  C   UNL     1      -5.737  15.061  71.262  1.00  0.00     0.091 C  
HETATM    5  C   UNL     1      -6.023  14.597  70.035  1.00  0.00    -0.141 C  
HETATM    6  N   UNL     1      -6.270  15.370  68.914  1.00  0.00    -0.097 NA 
HETATM    7  C   UNL     1      -6.176  16.789  69.005  1.00  0.00    -0.179 A  
HETATM    8  C   UNL     1      -5.885  17.380  70.246  1.00  0.00    -0.118 A  
HETATM    9  C   UNL     1      -5.809  18.763  70.393  1.00  0.00    -0.148 A  
HETATM   10  C   UNL     1      -6.347  17.646  67.902  1.00  0.00    -0.171 A  
HETATM   11  C   UNL     1      -6.260  19.053  68.005  1.00  0.00    -0.216 A  
HETATM   12  C   UNL     1      -5.648  16.525  71.426  1.00  0.00     0.472 C  
HETATM   13  C   UNL     1      -6.007  19.578  69.286  1.00  0.00    -0.263 A  
HETATM   14  O   UNL     1      -5.371  17.007  72.523  1.00  0.00     0.383 OA 
HETATM   15  F   UNL     1      -5.961  20.903  69.488  1.00  0.00    -0.398 F  
ENDROOT
BRANCH   6  16
HETATM   16  C   UNL     1      -6.652  14.700  67.650  1.00  0.00    -0.155 C  
HETATM   17  C   UNL     1      -7.521  13.468  67.564  1.00  0.00    -0.177 C  
HETATM   18  C   UNL     1      -8.074  14.795  67.151  1.00  0.00    -0.226 C  
ENDBRANCH   6  16
BRANCH  11  19
HETATM   19  N   UNL     1      -6.337  19.831  66.860  1.00  0.00    -0.186 NA 
HETATM   20  N   UNL     1      -6.342  21.213  64.297  1.00  0.00    -0.469 NA 
HETATM   21  C   UNL     1      -5.451  20.993  66.658  1.00  0.00    -0.215 C  
HETATM   22  C   UNL     1      -5.138  21.117  65.148  1.00  0.00    -0.186 C  
HETATM   23  C   UNL     1      -7.263  20.097  64.598  1.00  0.00     0.466 C  
HETATM   24  H   UNL     1      -6.108  21.260  63.305  1.00  0.00     0.000 HD 
HETATM   25  C   UNL     1      -7.595  19.943  66.102  1.00  0.00    -0.324 C  
ENDBRANCH  11  19
TORSDOF 2
ENDMDL
MODEL      124
REMARK 921   NORMALIZED FREE ENERGY PREDICTED BY IDOCK:   -2.33 KCAL/MOL
REMARK 922        TOTAL FREE ENERGY PREDICTED BY IDOCK:   -3.16 KCAL/MOL
REMARK 923 INTER-LIGAND FREE ENERGY PREDICTED BY IDOCK:   -2.60 KCAL/MOL
REMARK 924 INTRA-LIGAND FREE ENERGY PREDICTED BY IDOCK:   -0.57 KCAL/MOL
REMARK 927      BINDING AFFINITY PREDICTED BY RF-SCORE:    0.00 PKD
ROOT
HETATM    1  O   UNL     1      -8.604   8.614  72.984  1.00  0.00    -0.395 OA 
HETATM    2  C   UNL     1      -8.521   7.272  72.829  1.00  0.00    -0.110 C  
HETATM    3  O   UNL     1      -8.602   6.503  73.780  1.00  0.00    -0.121 OA 
HETATM    4  C   UNL     1      -8.339   6.826  71.435  1.00  0.00    -0.119 C  
HETATM    5  C   UNL     1      -8.229   5.515  71.167  1.00  0.00    -0.120 C  
HETATM    6  N   UNL     1      -8.097   4.953  69.909  1.00  0.00    -0.072 NA 
HETATM    7  C   UNL     1      -8.014   5.803  68.767  1.00  0.00    -0.101 A  
HETATM    8  C   UNL     1      -8.121   7.193  68.935  1.00  0.00    -0.121 A  
HETATM    9  C   UNL     1      -8.074   8.063  67.848  1.00  0.00    -0.129 A  
HETATM   10  C   UNL     1      -7.815   5.320  67.460  1.00  0.00    -0.096 A  
HETATM   11  C   UNL     1      -7.743   6.170  66.333  1.00  0.00    -0.102 A  
HETATM   12  C   UNL     1      -8.282   7.755  70.291  1.00  0.00    -0.125 C  
HETATM   13  C   UNL     1      -7.899   7.548  66.570  1.00  0.00    -0.102 A  
HETATM   14  O   UNL     1      -8.358   8.969  70.477  1.00  0.00    -0.143 OA 
HETATM   15  F   UNL     1      -7.898   8.425  65.555  1.00  0.00    -0.091 F  
ENDROOT
BRANCH   6  16
HETATM   16  C   UNL     1      -8.071   3.479  69.779  1.00  0.00    -0.052 C  
HETATM   17  C   UNL     1      -8.113   2.518  70.944  1.00  0.00    -0.060 C  
HETATM   18  C   UNL     1      -9.317   2.678  70.071  1.00  0.00    -0.192 C  
ENDBRANCH   6  16
BRANCH  11  19
HETATM   19  N   UNL     1      -7.441   5.637  65.089  1.00  0.00    -0.075 NA 
HETATM   20  N   UNL     1      -6.743   4.230  62.637  1.00  0.00    -0.030 NA 
HETATM   21  C   UNL     1      -6.183   5.967  64.394  1.00  0.00    -0.030 C  
HETATM   22  C   UNL     1      -5.727   4.729  63.587  1.00  0.00    -0.017 C  
HETATM   23  C   UNL     1      -8.025   4.010  63.340  1.00  0.00    -0.083 C  
HETATM   24  H   UNL     1      -6.428   3.394  62.144  1.00  0.00     0.000 HD 
HETATM   25  C   UNL     1      -8.509   5.230  64.159  1.00  0.00    -0.108 C  
ENDBRANCH  11  19
TORSDOF 2
ENDMDL
MODEL      125
REMARK 921   NORMALIZED FREE ENERGY PREDICTED BY IDOCK:   -2.25 KCAL/MOL
REMARK 922        TOTAL FREE ENERGY PREDICTED BY IDOCK:   -3.08 KCAL/MOL
REMARK 923 INTER-LIGAND FREE ENERGY PREDICTED BY IDOCK:   -2.71 KCAL/MOL
REMARK 924 INTRA-LIGAND FREE ENERGY PREDICTED BY IDOCK:   -0.37 KCAL/MOL
REMARK 927      BINDING AFFINITY PREDICTED BY RF-SCORE:    0.00 PKD
ROOT
HETATM    1  O   UNL     1      -9.606   2.053  64.511  1.00  0.00    -0.134 OA 
HETATM    2  C   UNL     1      -9.160   3.161  63.873  1.00  0.00    -0.101 C  
HETATM    3  O   UNL     1      -9.145   3.246  62.651  1.00  0.00    -0.091 OA 
HETATM    4  C   UNL     1      -8.711   4.243  64.769  1.00  0.00    -0.135 C  
HETATM    5  C   UNL     1      -8.234   5.383  64.245  1.00  0.00    -0.129 C  
HETATM    6  N   UNL     1      -7.818   6.493  64.960  1.00  0.00    -0.107 NA 
HETATM    7  C   UNL     1      -7.830   6.454  66.385  1.00  0.00    -0.104 A  
HETATM    8  C   UNL     1      -8.313   5.307  67.037  1.00  0.00    -0.107 A  
HETATM    9  C   UNL     1      -8.370   5.230  68.426  1.00  0.00    -0.093 A  
HETATM   10  C   UNL     1      -7.364   7.511  67.189  1.00  0.00    -0.094 A  
HETATM   11  C   UNL     1      -7.388   7.466  68.601  1.00  0.00    -0.096 A  
HETATM   12  C   UNL     1      -8.768   4.150  66.240  1.00  0.00    -0.115 C  
HETATM   13  C   UNL     1      -7.923   6.303  69.187  1.00  0.00    -0.110 A  
HETATM   14  O   UNL     1      -9.177   3.123  66.778  1.00  0.00    -0.162 OA 
HETATM   15  F   UNL     1      -8.034   6.194  70.519  1.00  0.00    -0.101 F  
ENDROOT
BRANCH   6  16
HETATM   16  C   UNL     1      -7.395   7.705  64.224  1.00  0.00    -0.093 C  
HETATM   17  C   UNL     1      -7.847   8.058  62.826  1.00  0.00    -0.140 C  
HETATM   18  C   UNL     1      -8.380   8.826  63.994  1.00  0.00    -0.146 C  
ENDBRANCH   6  16
BRANCH  11  19
HETATM   19  N   UNL     1      -6.819   8.497  69.331  1.00  0.00    -0.045 NA 
HETATM   20  N   UNL     1      -5.920  10.690  71.024  1.00  0.00    -0.324 NA 
HETATM   21  C   UNL     1      -6.596   9.829  68.739  1.00  0.00    -0.046 C  
HETATM   22  C   UNL     1      -6.784  10.897  69.843  1.00  0.00    -0.147 C  
HETATM   23  C   UNL     1      -6.083   9.312  71.532  1.00  0.00    -0.063 C  
HETATM   24  H   UNL     1      -6.089  11.388  71.748  1.00  0.00     0.000 HD 
HETATM   25  C   UNL     1      -5.904   8.219  70.452  1.00  0.00    -0.028 C  
ENDBRANCH  11  19
TORSDOF 2
ENDMDL
MODEL      126
REMARK 921   NORMALIZED FREE ENERGY PREDICTED BY IDOCK:   -2.17 KCAL/MOL
REMARK 922        TOTAL FREE ENERGY PREDICTED BY IDOCK:   -2.99 KCAL/MOL
REMARK 923 INTER-LIGAND FREE ENERGY PREDICTED BY IDOCK:   -2.51 KCAL/MOL
REMARK 924 INTRA-LIGAND FREE ENERGY PREDICTED BY IDOCK:   -0.48 KCAL/MOL
REMARK 927      BINDING AFFINITY PREDICTED BY RF-SCORE:    0.00 PKD
ROOT
HETATM    1  O   UNL     1      -5.473   7.909  64.602  1.00  0.00    -0.039 OA 
HETATM    2  C   UNL     1      -5.937   6.637  64.548  1.00  0.00    -0.035 C  
HETATM    3  O   UNL     1      -5.748   5.919  63.574  1.00  0.00    -0.020 OA 
HETATM    4  C   UNL     1      -6.667   6.200  65.753  1.00  0.00    -0.048 C  
HETATM    5  C   UNL     1      -7.184   4.962  65.802  1.00  0.00    -0.076 C  
HETATM    6  N   UNL     1      -7.853   4.405  66.878  1.00  0.00    -0.097 NA 
HETATM    7  C   UNL     1      -8.086   5.194  68.043  1.00  0.00    -0.098 A  
HETATM    8  C   UNL     1      -7.584   6.505  68.097  1.00  0.00    -0.103 A  
HETATM    9  C   UNL     1      -7.762   7.305  69.224  1.00  0.00    -0.107 A  
HETATM   10  C   UNL     1      -8.813   4.729  69.155  1.00  0.00    -0.122 A  
HETATM   11  C   UNL     1      -9.031   5.516  70.309  1.00  0.00    -0.137 A  
HETATM   12  C   UNL     1      -6.857   7.058  66.938  1.00  0.00    -0.064 C  
HETATM   13  C   UNL     1      -8.465   6.805  70.312  1.00  0.00    -0.135 A  
HETATM   14  O   UNL     1      -6.422   8.208  66.943  1.00  0.00    -0.054 OA 
HETATM   15  F   UNL     1      -8.576   7.602  71.385  1.00  0.00    -0.114 F  
ENDROOT
BRANCH   6  16
HETATM   16  C   UNL     1      -8.290   2.994  66.800  1.00  0.00    -0.093 C  
HETATM   17  C   UNL     1      -7.578   1.921  66.010  1.00  0.00    -0.063 C  
HETATM   18  C   UNL     1      -7.491   1.921  67.503  1.00  0.00    -0.055 C  
ENDBRANCH   6  16
BRANCH  11  19
HETATM   19  N   UNL     1      -9.844   5.035  71.324  1.00  0.00    -0.173 NA 
HETATM   20  N   UNL     1     -11.345   4.189  73.672  1.00  0.00    -0.234 NA 
HETATM   21  C   UNL     1      -9.788   3.626  71.754  1.00  0.00    -0.165 C  
HETATM   22  C   UNL     1     -10.067   3.563  73.275  1.00  0.00    -0.136 C  
HETATM   23  C   UNL     1     -11.421   5.564  73.136  1.00  0.00    -0.158 C  
HETATM   24  H   UNL     1     -11.487   4.163  74.681  1.00  0.00     0.000 HD 
HETATM   25  C   UNL     1     -11.144   5.663  71.616  1.00  0.00    -0.181 C  
ENDBRANCH  11  19
TORSDOF 2
ENDMDL
MODEL      127
REMARK 921   NORMALIZED FREE ENERGY PREDICTED BY IDOCK:   -1.96 KCAL/MOL
REMARK 922        TOTAL FREE ENERGY PREDICTED BY IDOCK:   -2.75 KCAL/MOL
REMARK 923 INTER-LIGAND FREE ENERGY PREDICTED BY IDOCK:   -2.66 KCAL/MOL
REMARK 924 INTRA-LIGAND FREE ENERGY PREDICTED BY IDOCK:   -0.10 KCAL/MOL
REMARK 927      BINDING AFFINITY PREDICTED BY RF-SCORE:    0.00 PKD
ROOT
HETATM    1  O   UNL     1      -9.907   9.330  65.341  1.00  0.00    -0.222 OA 
HETATM    2  C   UNL     1      -9.282   8.994  66.495  1.00  0.00    -0.179 C  
HETATM    3  O   UNL     1      -9.277   7.845  66.919  1.00  0.00    -0.140 OA 
HETATM    4  C   UNL     1      -8.610  10.116  67.176  1.00  0.00    -0.125 C  
HETATM    5  C   UNL     1      -7.971   9.900  68.336  1.00  0.00    -0.096 C  
HETATM    6  N   UNL     1      -7.265  10.845  69.061  1.00  0.00    -0.091 NA 
HETATM    7  C   UNL     1      -7.226  12.194  68.603  1.00  0.00    -0.109 A  
HETATM    8  C   UNL     1      -7.861  12.529  67.395  1.00  0.00    -0.175 A  
HETATM    9  C   UNL     1      -7.828  13.827  66.892  1.00  0.00     0.283 A  
HETATM   10  C   UNL     1      -6.588  13.230  69.311  1.00  0.00    -0.093 A  
HETATM   11  C   UNL     1      -6.547  14.563  68.844  1.00  0.00    -0.095 A  
HETATM   12  C   UNL     1      -8.587  11.490  66.638  1.00  0.00    -0.176 C  
HETATM   13  C   UNL     1      -7.168  14.819  67.607  1.00  0.00    -0.188 A  
HETATM   14  O   UNL     1      -9.171  11.751  65.589  1.00  0.00    -0.198 OA 
HETATM   15  F   UNL     1      -7.134  16.043  67.060  1.00  0.00    -0.200 F  
ENDROOT
BRANCH   6  16
HETATM   16  C   UNL     1      -6.546  10.423  70.284  1.00  0.00    -0.141 C  
HETATM   17  C   UNL     1      -6.506   9.005  70.805  1.00  0.00    -0.058 C  
HETATM   18  C   UNL     1      -5.288   9.595  70.167  1.00  0.00    -0.032 C  
ENDBRANCH   6  16
BRANCH  11  19
HETATM   19  N   UNL     1      -5.992  15.554  69.639  1.00  0.00    -0.126 NA 
HETATM   20  N   UNL     1      -5.134  17.673  71.443  1.00  0.00    -0.476 NA 
HETATM   21  C   UNL     1      -5.651  16.880  69.093  1.00  0.00    -0.150 C  
HETATM   22  C   UNL     1      -5.880  17.941  70.196  1.00  0.00    -0.186 C  
HETATM   23  C   UNL     1      -5.410  16.298  71.910  1.00  0.00     0.456 C  
HETATM   24  H   UNL     1      -5.330  18.368  72.163  1.00  0.00     0.000 HD 
HETATM   25  C   UNL     1      -5.193  15.212  70.829  1.00  0.00    -0.138 C  
ENDBRANCH  11  19
TORSDOF 2
ENDMDL
MODEL      128
REMARK 921   NORMALIZED FREE ENERGY PREDICTED BY IDOCK:   -1.55 KCAL/MOL
REMARK 922        TOTAL FREE ENERGY PREDICTED BY IDOCK:   -2.30 KCAL/MOL
REMARK 923 INTER-LIGAND FREE ENERGY PREDICTED BY IDOCK:   -2.85 KCAL/MOL
REMARK 924 INTRA-LIGAND FREE ENERGY PREDICTED BY IDOCK:    0.56 KCAL/MOL
REMARK 927      BINDING AFFINITY PREDICTED BY RF-SCORE:    0.00 PKD
ROOT
HETATM    1  O   UNL     1     -10.842  13.622  65.338  1.00  0.00    -0.286 OA 
HETATM    2  C   UNL     1     -11.210  12.319  65.376  1.00  0.00    -0.328 C  
HETATM    3  O   UNL     1     -12.089  11.871  64.651  1.00  0.00    -0.258 OA 
HETATM    4  C   UNL     1     -10.460  11.500  66.347  1.00  0.00    -0.292 C  
HETATM    5  C   UNL     1     -10.751  10.196  66.480  1.00  0.00    -0.048 C  
HETATM    6  N   UNL     1     -10.105   9.302  67.315  1.00  0.00    -0.213 NA 
HETATM    7  C   UNL     1      -9.064   9.768  68.170  1.00  0.00    -0.125 A  
HETATM    8  C   UNL     1      -8.676  11.117  68.109  1.00  0.00    -0.144 A  
HETATM    9  C   UNL     1      -7.646  11.614  68.903  1.00  0.00    -0.087 A  
HETATM   10  C   UNL     1      -8.399   8.942  69.096  1.00  0.00    -0.124 A  
HETATM   11  C   UNL     1      -7.361   9.412  69.932  1.00  0.00    -0.088 A  
HETATM   12  C   UNL     1      -9.375  12.037  67.189  1.00  0.00    -0.187 C  
HETATM   13  C   UNL     1      -6.997  10.764  69.789  1.00  0.00    -0.141 A  
HETATM   14  O   UNL     1      -9.076  13.229  67.125  1.00  0.00    -0.213 OA 
HETATM   15  F   UNL     1      -5.987  11.284  70.504  1.00  0.00    -0.124 F  
ENDROOT
BRANCH   6  16
HETATM   16  C   UNL     1     -10.497   7.875  67.282  1.00  0.00    -0.320 C  
HETATM   17  C   UNL     1      -9.979   6.824  68.235  1.00  0.00    -0.153 C  
HETATM   18  C   UNL     1     -11.385   7.316  68.369  1.00  0.00     0.364 C  
ENDBRANCH   6  16
BRANCH  11  19
HETATM   19  N   UNL     1      -6.820   8.572  70.894  1.00  0.00    -0.046 NA 
HETATM   20  N   UNL     1      -5.386   6.861  72.764  1.00  0.00    -0.037 NA 
HETATM   21  C   UNL     1      -7.013   7.111  70.838  1.00  0.00    -0.057 C  
HETATM   22  C   UNL     1      -5.745   6.425  71.398  1.00  0.00    -0.027 C  
HETATM   23  C   UNL     1      -5.306   8.336  72.817  1.00  0.00    -0.041 C  
HETATM   24  H   UNL     1      -4.529   6.419  73.094  1.00  0.00     0.000 HD 
HETATM   25  C   UNL     1      -6.559   9.054  72.262  1.00  0.00     0.122 C  
ENDBRANCH  11  19
TORSDOF 2
ENDMDL
MODEL      129
REMARK 921   NORMALIZED FREE ENERGY PREDICTED BY IDOCK:   -1.36 KCAL/MOL
REMARK 922        TOTAL FREE ENERGY PREDICTED BY IDOCK:   -2.08 KCAL/MOL
REMARK 923 INTER-LIGAND FREE ENERGY PREDICTED BY IDOCK:   -2.27 KCAL/MOL
REMARK 924 INTRA-LIGAND FREE ENERGY PREDICTED BY IDOCK:    0.19 KCAL/MOL
REMARK 927      BINDING AFFINITY PREDICTED BY RF-SCORE:    0.00 PKD
ROOT
HETATM    1  O   UNL     1      -9.843   9.266  71.742  1.00  0.00    -0.252 OA 
HETATM    2  C   UNL     1     -10.318   8.066  71.330  1.00  0.00    -0.193 C  
HETATM    3  O   UNL     1     -11.197   7.471  71.940  1.00  0.00    -0.237 OA 
HETATM    4  C   UNL     1      -9.698   7.555  70.093  1.00  0.00    -0.172 C  
HETATM    5  C   UNL     1     -10.082   6.367  69.600  1.00  0.00    -0.175 C  
HETATM    6  N   UNL     1      -9.620   5.785  68.432  1.00  0.00    -0.121 NA 
HETATM    7  C   UNL     1      -8.607   6.443  67.675  1.00  0.00    -0.115 A  
HETATM    8  C   UNL     1      -8.135   7.696  68.101  1.00  0.00    -0.124 A  
HETATM    9  C   UNL     1      -7.166   8.391  67.380  1.00  0.00    -0.088 A  
HETATM   10  C   UNL     1      -8.034   5.893  66.513  1.00  0.00    -0.102 A  
HETATM   11  C   UNL     1      -7.037   6.558  65.764  1.00  0.00    -0.062 A  
HETATM   12  C   UNL     1      -8.667   8.295  69.341  1.00  0.00    -0.142 C  
HETATM   13  C   UNL     1      -6.640   7.827  66.225  1.00  0.00    -0.050 A  
HETATM   14  O   UNL     1      -8.262   9.380  69.754  1.00  0.00    -0.113 OA 
HETATM   15  F   UNL     1      -5.738   8.554  65.548  1.00  0.00    -0.041 F  
ENDROOT
BRANCH   6  16
HETATM   16  C   UNL     1     -10.208   4.503  67.986  1.00  0.00     0.117 C  
HETATM   17  C   UNL     1      -9.544   3.546  67.024  1.00  0.00    -0.155 C  
HETATM   18  C   UNL     1      -9.625   3.199  68.476  1.00  0.00    -0.114 C  
ENDBRANCH   6  16
BRANCH  11  19
HETATM   19  N   UNL     1      -6.442   5.915  64.689  1.00  0.00    -0.037 NA 
HETATM   20  N   UNL     1      -5.427   4.325  62.470  1.00  0.00    -0.009 NA 
HETATM   21  C   UNL     1      -5.158   5.204  64.831  1.00  0.00    -0.009 C  
HETATM   22  C   UNL     1      -5.164   3.981  63.883  1.00  0.00    -0.009 C  
HETATM   23  C   UNL     1      -6.663   5.130  62.369  1.00  0.00    -0.026 C  
HETATM   24  H   UNL     1      -5.460   3.498  61.874  1.00  0.00     0.000 HD 
HETATM   25  C   UNL     1      -6.690   6.361  63.307  1.00  0.00    -0.041 C  
ENDBRANCH  11  19
TORSDOF 2
ENDMDL
MODEL      130
REMARK 921   NORMALIZED FREE ENERGY PREDICTED BY IDOCK:   -0.55 KCAL/MOL
REMARK 922        TOTAL FREE ENERGY PREDICTED BY IDOCK:   -1.18 KCAL/MOL
REMARK 923 INTER-LIGAND FREE ENERGY PREDICTED BY IDOCK:   -1.58 KCAL/MOL
REMARK 924 INTRA-LIGAND FREE ENERGY PREDICTED BY IDOCK:    0.40 KCAL/MOL
REMARK 927      BINDING AFFINITY PREDICTED BY RF-SCORE:    0.00 PKD
ROOT
HETATM    1  O   UNL     1      -6.483   5.965  64.993  1.00  0.00    -0.039 OA 
HETATM    2  C   UNL     1      -7.621   6.623  64.667  1.00  0.00    -0.105 C  
HETATM    3  O   UNL     1      -8.489   6.112  63.970  1.00  0.00    -0.000 OA 
HETATM    4  C   UNL     1      -7.722   7.984  65.226  1.00  0.00    -0.099 C  
HETATM    5  C   UNL     1      -8.802   8.734  64.956  1.00  0.00    -0.107 C  
HETATM    6  N   UNL     1      -9.050  10.005  65.444  1.00  0.00    -0.178 NA 
HETATM    7  C   UNL     1      -8.079  10.640  66.271  1.00  0.00    -0.151 A  
HETATM    8  C   UNL     1      -6.911   9.941  66.620  1.00  0.00    -0.084 A  
HETATM    9  C   UNL     1      -5.945  10.508  67.448  1.00  0.00    -0.052 A  
HETATM   10  C   UNL     1      -8.220  11.953  66.757  1.00  0.00    -0.129 A  
HETATM   11  C   UNL     1      -7.255  12.571  67.585  1.00  0.00    -0.136 A  
HETATM   12  C   UNL     1      -6.690   8.578  66.097  1.00  0.00    -0.068 C  
HETATM   13  C   UNL     1      -6.129  11.798  67.928  1.00  0.00    -0.050 A  
HETATM   14  O   UNL     1      -5.670   7.946  66.365  1.00  0.00    -0.038 OA 
HETATM   15  F   UNL     1      -5.188  12.283  68.751  1.00  0.00    -0.054 F  
ENDROOT
BRANCH   6  16
HETATM   16  C   UNL     1     -10.333  10.664  65.112  1.00  0.00    -0.261 C  
HETATM   17  C   UNL     1     -11.577  10.593  65.966  1.00  0.00     1.187 C  
HETATM   18  C   UNL     1     -10.789  11.863  65.910  1.00  0.00    -0.342 C  
ENDBRANCH   6  16
BRANCH  11  19
HETATM   19  N   UNL     1      -7.407  13.901  67.942  1.00  0.00    -0.135 NA 
HETATM   20  N   UNL     1      -7.582  16.614  68.987  1.00  0.00    -0.234 NA 
HETATM   21  C   UNL     1      -8.722  14.454  68.315  1.00  0.00    -0.180 C  
HETATM   22  C   UNL     1      -8.511  15.541  69.396  1.00  0.00    -0.256 C  
HETATM   23  C   UNL     1      -6.310  16.027  68.515  1.00  0.00    -0.115 C  
HETATM   24  H   UNL     1      -7.435  17.298  69.730  1.00  0.00     0.000 HD 
HETATM   25  C   UNL     1      -6.485  14.933  67.434  1.00  0.00     0.043 C  
ENDBRANCH  11  19
TORSDOF 2
ENDMDL
MODEL      131
REMARK 921   NORMALIZED FREE ENERGY PREDICTED BY IDOCK:    0.03 KCAL/MOL
REMARK 922        TOTAL FREE ENERGY PREDICTED BY IDOCK:   -0.53 KCAL/MOL
REMARK 923 INTER-LIGAND FREE ENERGY PREDICTED BY IDOCK:   -1.26 KCAL/MOL
REMARK 924 INTRA-LIGAND FREE ENERGY PREDICTED BY IDOCK:    0.73 KCAL/MOL
REMARK 927      BINDING AFFINITY PREDICTED BY RF-SCORE:    0.00 PKD
ROOT
HETATM    1  O   UNL     1      -8.043   9.315  63.003  1.00  0.00    -0.139 OA 
HETATM    2  C   UNL     1      -9.061   9.744  63.787  1.00  0.00    -0.230 C  
HETATM    3  O   UNL     1      -9.968  10.440  63.348  1.00  0.00    -0.267 OA 
HETATM    4  C   UNL     1      -8.985   9.295  65.189  1.00  0.00    -0.257 C  
HETATM    5  C   UNL     1      -9.935   9.673  66.059  1.00  0.00    -0.274 C  
HETATM    6  N   UNL     1     -10.014   9.295  67.388  1.00  0.00    -0.185 NA 
HETATM    7  C   UNL     1      -8.992   8.472  67.945  1.00  0.00    -0.137 A  
HETATM    8  C   UNL     1      -7.951   8.016  67.120  1.00  0.00    -0.113 A  
HETATM    9  C   UNL     1      -6.944   7.188  67.610  1.00  0.00    -0.079 A  
HETATM   10  C   UNL     1      -8.960   8.095  69.301  1.00  0.00    -0.148 A  
HETATM   11  C   UNL     1      -7.947   7.271  69.842  1.00  0.00    -0.122 A  
HETATM   12  C   UNL     1      -7.911   8.423  65.701  1.00  0.00    -0.106 C  
HETATM   13  C   UNL     1      -6.958   6.817  68.949  1.00  0.00    -0.086 A  
HETATM   14  O   UNL     1      -7.003   8.060  64.955  1.00  0.00    -0.061 OA 
HETATM   15  F   UNL     1      -5.987   5.988  69.362  1.00  0.00    -0.022 F  
ENDROOT
BRANCH   6  16
HETATM   16  C   UNL     1     -11.175   9.737  68.193  1.00  0.00    -0.008 C  
HETATM   17  C   UNL     1     -12.001   8.828  69.073  1.00  0.00     1.849 C  
HETATM   18  C   UNL     1     -11.061   9.810  69.697  1.00  0.00    -0.251 C  
ENDBRANCH   6  16
BRANCH  11  19
HETATM   19  N   UNL     1      -7.918   7.023  71.205  1.00  0.00    -0.103 NA 
HETATM   20  N   UNL     1      -7.531   6.423  74.029  1.00  0.00    -0.085 NA 
HETATM   21  C   UNL     1      -8.528   5.811  71.781  1.00  0.00    -0.131 C  
HETATM   22  C   UNL     1      -7.689   5.370  73.004  1.00  0.00    -0.098 C  
HETATM   23  C   UNL     1      -7.019   7.661  73.404  1.00  0.00    -0.084 C  
HETATM   24  H   UNL     1      -6.946   6.116  74.806  1.00  0.00     0.000 HD 
HETATM   25  C   UNL     1      -7.836   8.129  72.176  1.00  0.00    -0.125 C  
ENDBRANCH  11  19
TORSDOF 2
ENDMDL
MODEL      132
REMARK 921   NORMALIZED FREE ENERGY PREDICTED BY IDOCK:    1.22 KCAL/MOL
REMARK 922        TOTAL FREE ENERGY PREDICTED BY IDOCK:    0.80 KCAL/MOL
REMARK 923 INTER-LIGAND FREE ENERGY PREDICTED BY IDOCK:   -0.03 KCAL/MOL
REMARK 924 INTRA-LIGAND FREE ENERGY PREDICTED BY IDOCK:    0.83 KCAL/MOL
REMARK 927      BINDING AFFINITY PREDICTED BY RF-SCORE:    0.00 PKD
ROOT
HETATM    1  O   UNL     1     -11.249   7.646  71.467  1.00  0.00    -0.241 OA 
HETATM    2  C   UNL     1     -12.082   8.616  71.019  1.00  0.00    -0.215 C  
HETATM    3  O   UNL     1     -13.295   8.554  71.179  1.00  0.00    -0.175 OA 
HETATM    4  C   UNL     1     -11.406   9.738  70.341  1.00  0.00    -0.362 C  
HETATM    5  C   UNL     1     -12.136  10.749  69.844  1.00  0.00    -0.337 C  
HETATM    6  N   UNL     1     -11.636  11.881  69.224  1.00  0.00    -0.290 NA 
HETATM    7  C   UNL     1     -10.230  12.009  69.026  1.00  0.00     0.040 A  
HETATM    8  C   UNL     1      -9.374  11.008  69.512  1.00  0.00     0.311 A  
HETATM    9  C   UNL     1      -7.991  11.101  69.368  1.00  0.00     0.103 A  
HETATM   10  C   UNL     1      -9.643  13.095  68.349  1.00  0.00    -0.186 A  
HETATM   11  C   UNL     1      -8.247  13.217  68.166  1.00  0.00    -0.160 A  
HETATM   12  C   UNL     1      -9.941   9.824  70.187  1.00  0.00    -0.263 C  
HETATM   13  C   UNL     1      -7.446  12.198  68.714  1.00  0.00    -0.075 A  
HETATM   14  O   UNL     1      -9.223   8.918  70.606  1.00  0.00    -0.176 OA 
HETATM   15  F   UNL     1      -6.108  12.258  68.635  1.00  0.00    -0.053 F  
ENDROOT
BRANCH   6  16
HETATM   16  C   UNL     1     -12.576  12.944  68.803  1.00  0.00     0.750 C  
HETATM   17  C   UNL     1     -13.051  14.067  69.695  1.00  0.00     0.910 C  
HETATM   18  C   UNL     1     -12.073  14.353  68.600  1.00  0.00    -0.274 C  
ENDBRANCH   6  16
BRANCH  11  19
HETATM   19  N   UNL     1      -7.744  14.257  67.400  1.00  0.00    -0.185 NA 
HETATM   20  N   UNL     1      -6.793  16.648  66.036  1.00  0.00     0.161 NA 
HETATM   21  C   UNL     1      -8.436  14.725  66.185  1.00  0.00     0.606 C  
HETATM   22  C   UNL     1      -8.216  16.251  66.050  1.00  0.00     0.022 C  
HETATM   23  C   UNL     1      -6.098  16.075  67.208  1.00  0.00    -0.097 C  
HETATM   24  H   UNL     1      -6.678  17.660  65.980  1.00  0.00     0.000 HD 
HETATM   25  C   UNL     1      -6.300  14.550  67.374  1.00  0.00     0.153 C  
ENDBRANCH  11  19
TORSDOF 2
ENDMDL
MODEL      133
REMARK 921   NORMALIZED FREE ENERGY PREDICTED BY IDOCK:    4.41 KCAL/MOL
REMARK 922        TOTAL FREE ENERGY PREDICTED BY IDOCK:    4.36 KCAL/MOL
REMARK 923 INTER-LIGAND FREE ENERGY PREDICTED BY IDOCK:    3.78 KCAL/MOL
REMARK 924 INTRA-LIGAND FREE ENERGY PREDICTED BY IDOCK:    0.58 KCAL/MOL
REMARK 927      BINDING AFFINITY PREDICTED BY RF-SCORE:    0.00 PKD
ROOT
HETATM    1  O   UNL     1     -12.556   6.804  67.206  1.00  0.00     4.178 OA 
HETATM    2  C   UNL     1     -11.255   6.710  66.840  1.00  0.00    -0.108 C  
HETATM    3  O   UNL     1     -10.788   5.684  66.362  1.00  0.00    -0.253 OA 
HETATM    4  C   UNL     1     -10.469   7.938  67.057  1.00  0.00    -0.419 C  
HETATM    5  C   UNL     1      -9.163   7.954  66.744  1.00  0.00    -0.166 C  
HETATM    6  N   UNL     1      -8.316   9.042  66.854  1.00  0.00    -0.118 NA 
HETATM    7  C   UNL     1      -8.813  10.266  67.391  1.00  0.00    -0.131 A  
HETATM    8  C   UNL     1     -10.168  10.359  67.749  1.00  0.00    -0.229 A  
HETATM    9  C   UNL     1     -10.707  11.541  68.252  1.00  0.00    -0.247 A  
HETATM   10  C   UNL     1      -8.006  11.401  67.598  1.00  0.00    -0.123 A  
HETATM   11  C   UNL     1      -8.510  12.612  68.123  1.00  0.00    -0.177 A  
HETATM   12  C   UNL     1     -11.047   9.183  67.598  1.00  0.00     0.232 C  
HETATM   13  C   UNL     1      -9.885  12.648  68.421  1.00  0.00    -0.200 A  
HETATM   14  O   UNL     1     -12.233   9.223  67.920  1.00  0.00     2.751 OA 
HETATM   15  F   UNL     1     -10.462  13.771  68.873  1.00  0.00    -0.232 F  
ENDROOT
BRANCH   6  16
HETATM   16  C   UNL     1      -6.917   8.915  66.387  1.00  0.00    -0.079 C  
HETATM   17  C   UNL     1      -6.509   8.765  64.940  1.00  0.00    -0.065 C  
HETATM   18  C   UNL     1      -6.265  10.060  65.649  1.00  0.00    -0.088 C  
ENDBRANCH   6  16
BRANCH  11  19
HETATM   19  N   UNL     1      -7.641  13.656  68.399  1.00  0.00    -0.125 NA 
HETATM   20  N   UNL     1      -5.837  15.929  68.650  1.00  0.00    -0.100 NA 
HETATM   21  C   UNL     1      -6.202  13.422  68.625  1.00  0.00    -0.088 C  
HETATM   22  C   UNL     1      -5.413  14.635  68.077  1.00  0.00    -0.122 C  
HETATM   23  C   UNL     1      -7.299  16.089  68.507  1.00  0.00    -0.146 C  
HETATM   24  H   UNL     1      -5.325  16.713  68.247  1.00  0.00     0.000 HD 
HETATM   25  C   UNL     1      -8.119  14.891  69.044  1.00  0.00    -0.165 C  
ENDBRANCH  11  19
TORSDOF 2
ENDMDL
MODEL      134
REMARK 921   NORMALIZED FREE ENERGY PREDICTED BY IDOCK:    4.71 KCAL/MOL
REMARK 922        TOTAL FREE ENERGY PREDICTED BY IDOCK:    4.70 KCAL/MOL
REMARK 923 INTER-LIGAND FREE ENERGY PREDICTED BY IDOCK:    4.02 KCAL/MOL
REMARK 924 INTRA-LIGAND FREE ENERGY PREDICTED BY IDOCK:    0.68 KCAL/MOL
REMARK 927      BINDING AFFINITY PREDICTED BY RF-SCORE:    0.00 PKD
ROOT
HETATM    1  O   UNL     1      -9.309  13.570  69.675  1.00  0.00     1.007 OA 
HETATM    2  C   UNL     1     -10.126  12.813  68.904  1.00  0.00     0.068 C  
HETATM    3  O   UNL     1     -11.144  13.268  68.396  1.00  0.00    -0.245 OA 
HETATM    4  C   UNL     1      -9.681  11.419  68.728  1.00  0.00    -0.155 C  
HETATM    5  C   UNL     1     -10.423  10.574  67.994  1.00  0.00    -0.197 C  
HETATM    6  N   UNL     1     -10.109   9.256  67.709  1.00  0.00    -0.191 NA 
HETATM    7  C   UNL     1      -8.928   8.682  68.264  1.00  0.00    -0.142 A  
HETATM    8  C   UNL     1      -8.077   9.480  69.046  1.00  0.00    -0.101 A  
HETATM    9  C   UNL     1      -6.898   8.973  69.587  1.00  0.00    -0.050 A  
HETATM   10  C   UNL     1      -8.567   7.334  68.080  1.00  0.00    -0.122 A  
HETATM   11  C   UNL     1      -7.389   6.776  68.627  1.00  0.00    -0.090 A  
HETATM   12  C   UNL     1      -8.434  10.888  69.311  1.00  0.00     0.007 C  
HETATM   13  C   UNL     1      -6.562   7.644  69.365  1.00  0.00    -0.039 A  
HETATM   14  O   UNL     1      -7.723  11.610  70.008  1.00  0.00     0.753 OA 
HETATM   15  F   UNL     1      -5.398   7.216  69.876  1.00  0.00    -0.017 F  
ENDROOT
BRANCH   6  16
HETATM   16  C   UNL     1     -10.998   8.482  66.814  1.00  0.00     0.474 C  
HETATM   17  C   UNL     1     -10.577   7.904  65.483  1.00  0.00     3.358 C  
HETATM   18  C   UNL     1     -10.789   6.996  66.652  1.00  0.00    -0.046 C  
ENDBRANCH   6  16
BRANCH  11  19
HETATM   19  N   UNL     1      -7.146   5.418  68.494  1.00  0.00    -0.061 NA 
HETATM   20  N   UNL     1      -6.524   2.573  68.534  1.00  0.00    -0.029 NA 
HETATM   21  C   UNL     1      -6.005   4.912  67.709  1.00  0.00    -0.023 C  
HETATM   22  C   UNL     1      -5.487   3.614  68.374  1.00  0.00    -0.013 C  
HETATM   23  C   UNL     1      -7.701   3.137  69.228  1.00  0.00    -0.047 C  
HETATM   24  H   UNL     1      -6.163   1.743  69.005  1.00  0.00     0.000 HD 
HETATM   25  C   UNL     1      -8.243   4.438  68.590  1.00  0.00    -0.080 C  
ENDBRANCH  11  19
TORSDOF 2
ENDMDL
MODEL      135
REMARK 921   NORMALIZED FREE ENERGY PREDICTED BY IDOCK:    5.48 KCAL/MOL
REMARK 922        TOTAL FREE ENERGY PREDICTED BY IDOCK:    5.56 KCAL/MOL
REMARK 923 INTER-LIGAND FREE ENERGY PREDICTED BY IDOCK:    6.04 KCAL/MOL
REMARK 924 INTRA-LIGAND FREE ENERGY PREDICTED BY IDOCK:   -0.48 KCAL/MOL
REMARK 927      BINDING AFFINITY PREDICTED BY RF-SCORE:    0.00 PKD
ROOT
HETATM    1  O   UNL     1     -10.616  19.246  70.492  1.00  0.00     1.126 OA 
HETATM    2  C   UNL     1     -11.328  18.235  71.045  1.00  0.00     4.288 C  
HETATM    3  O   UNL     1     -12.011  18.396  72.048  1.00  0.00     5.039 OA 
HETATM    4  C   UNL     1     -11.216  16.948  70.334  1.00  0.00     0.413 C  
HETATM    5  C   UNL     1     -11.868  15.872  70.804  1.00  0.00    -0.391 C  
HETATM    6  N   UNL     1     -11.888  14.617  70.220  1.00  0.00    -0.285 NA 
HETATM    7  C   UNL     1     -11.122  14.380  69.042  1.00  0.00    -0.261 A  
HETATM    8  C   UNL     1     -10.403  15.440  68.464  1.00  0.00    -0.226 A  
HETATM    9  C   UNL     1      -9.662  15.265  67.298  1.00  0.00    -0.212 A  
HETATM   10  C   UNL     1     -11.034  13.120  68.420  1.00  0.00    -0.287 A  
HETATM   11  C   UNL     1     -10.278  12.897  67.247  1.00  0.00    -0.234 A  
HETATM   12  C   UNL     1     -10.422  16.770  69.103  1.00  0.00    -0.343 C  
HETATM   13  C   UNL     1      -9.617  14.012  66.700  1.00  0.00    -0.289 A  
HETATM   14  O   UNL     1      -9.788  17.715  68.637  1.00  0.00    -0.314 OA 
HETATM   15  F   UNL     1      -8.920  13.907  65.559  1.00  0.00     0.209 F  
ENDROOT
BRANCH   6  16
HETATM   16  C   UNL     1     -12.727  13.558  70.823  1.00  0.00    -0.245 C  
HETATM   17  C   UNL     1     -12.561  13.034  72.231  1.00  0.00     0.125 C  
HETATM   18  C   UNL     1     -13.726  13.913  71.899  1.00  0.00    -0.521 C  
ENDBRANCH   6  16
BRANCH  11  19
HETATM   19  N   UNL     1     -10.150  11.611  66.746  1.00  0.00    -0.210 NA 
HETATM   20  N   UNL     1      -9.549   8.967  65.682  1.00  0.00    -0.437 NA 
HETATM   21  C   UNL     1     -10.524  11.283  65.358  1.00  0.00    -0.268 C  
HETATM   22  C   UNL     1      -9.571  10.180  64.838  1.00  0.00    -0.306 C  
HETATM   23  C   UNL     1      -9.279   9.336  67.088  1.00  0.00    -0.130 C  
HETATM   24  H   UNL     1      -8.888   8.272  65.335  1.00  0.00     0.000 HD 
HETATM   25  C   UNL     1     -10.214  10.440  67.639  1.00  0.00    -0.201 C  
ENDBRANCH  11  19
TORSDOF 2
ENDMDL
MODEL      136
REMARK 921   NORMALIZED FREE ENERGY PREDICTED BY IDOCK:   16.37 KCAL/MOL
REMARK 922        TOTAL FREE ENERGY PREDICTED BY IDOCK:   17.72 KCAL/MOL
REMARK 923 INTER-LIGAND FREE ENERGY PREDICTED BY IDOCK:   18.14 KCAL/MOL
REMARK 924 INTRA-LIGAND FREE ENERGY PREDICTED BY IDOCK:   -0.42 KCAL/MOL
REMARK 927      BINDING AFFINITY PREDICTED BY RF-SCORE:    0.00 PKD
ROOT
HETATM    1  O   UNL     1      -5.611  14.620  73.595  1.00  0.00    -0.188 OA 
HETATM    2  C   UNL     1      -5.886  13.924  72.466  1.00  0.00     0.265 C  
HETATM    3  O   UNL     1      -5.635  12.730  72.361  1.00  0.00    -0.211 OA 
HETATM    4  C   UNL     1      -6.514  14.721  71.395  1.00  0.00     0.621 C  
HETATM    5  C   UNL     1      -6.817  14.136  70.225  1.00  0.00     0.182 C  
HETATM    6  N   UNL     1      -7.444  14.746  69.152  1.00  0.00    -0.145 NA 
HETATM    7  C   UNL     1      -7.771  16.132  69.227  1.00  0.00    -0.210 A  
HETATM    8  C   UNL     1      -7.500  16.839  70.410  1.00  0.00     2.266 A  
HETATM    9  C   UNL     1      -7.826  18.187  70.542  1.00  0.00     3.516 A  
HETATM   10  C   UNL     1      -8.349  16.846  68.160  1.00  0.00    -0.212 A  
HETATM   11  C   UNL     1      -8.679  18.217  68.247  1.00  0.00    -0.288 A  
HETATM   12  C   UNL     1      -6.850  16.150  71.542  1.00  0.00     3.616 C  
HETATM   13  C   UNL     1      -8.417  18.853  69.476  1.00  0.00     0.446 A  
HETATM   14  O   UNL     1      -6.579  16.743  72.584  1.00  0.00     4.695 OA 
HETATM   15  F   UNL     1      -8.746  20.140  69.668  1.00  0.00     0.050 F  
ENDROOT
BRANCH   6  16
HETATM   16  C   UNL     1      -7.780  13.936  67.960  1.00  0.00    -0.151 C  
HETATM   17  C   UNL     1      -7.176  12.588  67.645  1.00  0.00    -0.136 C  
HETATM   18  C   UNL     1      -8.592  12.672  68.117  1.00  0.00    -0.188 C  
ENDBRANCH   6  16
BRANCH  11  19
HETATM   19  N   UNL     1      -9.149  18.884  67.127  1.00  0.00    -0.283 NA 
HETATM   20  N   UNL     1      -9.878  20.496  64.814  1.00  0.00     0.440 NA 
HETATM   21  C   UNL     1     -10.348  19.740  67.186  1.00  0.00    -0.458 C  
HETATM   22  C   UNL     1     -10.161  20.919  66.201  1.00  0.00     0.857 C  
HETATM   23  C   UNL     1      -8.740  19.554  64.796  1.00  0.00     3.191 C  
HETATM   24  H   UNL     1      -9.726  21.292  64.195  1.00  0.00     0.000 HD 
HETATM   25  C   UNL     1      -8.894  18.363  65.772  1.00  0.00     0.469 C  
ENDBRANCH  11  19
TORSDOF 2
ENDMDL
MODEL      137
REMARK 921   NORMALIZED FREE ENERGY PREDICTED BY IDOCK:   16.92 KCAL/MOL
REMARK 922        TOTAL FREE ENERGY PREDICTED BY IDOCK:   18.34 KCAL/MOL
REMARK 923 INTER-LIGAND FREE ENERGY PREDICTED BY IDOCK:   18.66 KCAL/MOL
REMARK 924 INTRA-LIGAND FREE ENERGY PREDICTED BY IDOCK:   -0.32 KCAL/MOL
REMARK 927      BINDING AFFINITY PREDICTED BY RF-SCORE:    0.00 PKD
ROOT
HETATM    1  O   UNL     1     -11.215  13.290  69.657  1.00  0.00    -0.162 OA 
HETATM    2  C   UNL     1     -10.196  13.878  70.328  1.00  0.00     1.678 C  
HETATM    3  O   UNL     1      -9.955  13.618  71.500  1.00  0.00     6.005 OA 
HETATM    4  C   UNL     1      -9.410  14.837  69.529  1.00  0.00     0.095 C  
HETATM    5  C   UNL     1      -8.384  15.490  70.098  1.00  0.00     0.659 C  
HETATM    6  N   UNL     1      -7.537  16.381  69.463  1.00  0.00    -0.079 NA 
HETATM    7  C   UNL     1      -7.764  16.708  68.094  1.00  0.00    -0.173 A  
HETATM    8  C   UNL     1      -8.811  16.078  67.401  1.00  0.00    -0.197 A  
HETATM    9  C   UNL     1      -9.055  16.343  66.055  1.00  0.00    -0.317 A  
HETATM   10  C   UNL     1      -6.993  17.652  67.389  1.00  0.00    -0.187 A  
HETATM   11  C   UNL     1      -7.220  17.963  66.029  1.00  0.00    -0.290 A  
HETATM   12  C   UNL     1      -9.681  15.116  68.107  1.00  0.00    -0.217 C  
HETATM   13  C   UNL     1      -8.259  17.264  65.386  1.00  0.00     1.491 A  
HETATM   14  O   UNL     1     -10.619  14.562  67.537  1.00  0.00    -0.258 OA 
HETATM   15  F   UNL     1      -8.512  17.455  64.083  1.00  0.00     6.110 F  
ENDROOT
BRANCH   6  16
HETATM   16  C   UNL     1      -6.400  16.955  70.216  1.00  0.00     0.357 C  
HETATM   17  C   UNL     1      -6.469  18.225  71.032  1.00  0.00     1.701 C  
HETATM   18  C   UNL     1      -6.398  16.902  71.726  1.00  0.00     3.215 C  
ENDBRANCH   6  16
BRANCH  11  19
HETATM   19  N   UNL     1      -6.492  18.976  65.425  1.00  0.00    -0.289 NA 
HETATM   20  N   UNL     1      -5.253  21.275  64.137  1.00  0.00    -0.198 NA 
HETATM   21  C   UNL     1      -6.034  18.868  64.027  1.00  0.00     0.175 C  
HETATM   22  C   UNL     1      -6.051  20.279  63.393  1.00  0.00    -0.116 C  
HETATM   23  C   UNL     1      -5.658  21.286  65.559  1.00  0.00    -0.170 C  
HETATM   24  H   UNL     1      -5.309  22.203  63.717  1.00  0.00     0.000 HD 
HETATM   25  C   UNL     1      -5.655  19.888  66.223  1.00  0.00    -0.173 C  
ENDBRANCH  11  19
TORSDOF 2
ENDMDL
MODEL      138
REMARK 921   NORMALIZED FREE ENERGY PREDICTED BY IDOCK:   17.98 KCAL/MOL
REMARK 922        TOTAL FREE ENERGY PREDICTED BY IDOCK:   19.52 KCAL/MOL
REMARK 923 INTER-LIGAND FREE ENERGY PREDICTED BY IDOCK:   19.44 KCAL/MOL
REMARK 924 INTRA-LIGAND FREE ENERGY PREDICTED BY IDOCK:    0.08 KCAL/MOL
REMARK 927      BINDING AFFINITY PREDICTED BY RF-SCORE:    0.00 PKD
ROOT
HETATM    1  O   UNL     1      -8.750  11.956  63.463  1.00  0.00     0.447 OA 
HETATM    2  C   UNL     1      -8.635  12.993  64.326  1.00  0.00     4.247 C  
HETATM    3  O   UNL     1      -8.761  14.156  63.962  1.00  0.00     5.356 OA 
HETATM    4  C   UNL     1      -8.359  12.602  65.720  1.00  0.00     1.315 C  
HETATM    5  C   UNL     1      -8.211  13.550  66.659  1.00  0.00     0.376 C  
HETATM    6  N   UNL     1      -7.992  13.330  68.007  1.00  0.00    -0.139 NA 
HETATM    7  C   UNL     1      -7.853  11.994  68.486  1.00  0.00    -0.129 A  
HETATM    8  C   UNL     1      -7.994  10.924  67.587  1.00  0.00    -0.114 A  
HETATM    9  C   UNL     1      -7.894   9.601  68.010  1.00  0.00    -0.086 A  
HETATM   10  C   UNL     1      -7.565  11.682  69.828  1.00  0.00     0.726 A  
HETATM   11  C   UNL     1      -7.437  10.354  70.294  1.00  0.00     0.159 A  
HETATM   12  C   UNL     1      -8.248  11.197  66.158  1.00  0.00    -0.128 C  
HETATM   13  C   UNL     1      -7.631   9.331  69.347  1.00  0.00    -0.080 A  
HETATM   14  O   UNL     1      -8.356  10.286  65.340  1.00  0.00    -0.150 OA 
HETATM   15  F   UNL     1      -7.582   8.040  69.710  1.00  0.00    -0.082 F  
ENDROOT
BRANCH   6  16
HETATM   16  C   UNL     1      -7.932  14.489  68.925  1.00  0.00    -0.126 C  
HETATM   17  C   UNL     1      -9.122  15.339  69.308  1.00  0.00    -0.240 C  
HETATM   18  C   UNL     1      -8.539  14.387  70.304  1.00  0.00     1.680 C  
ENDBRANCH   6  16
BRANCH  11  19
HETATM   19  N   UNL     1      -7.050  10.120  71.604  1.00  0.00     0.755 NA 
HETATM   20  N   UNL     1      -6.172   9.312  74.260  1.00  0.00    -0.344 NA 
HETATM   21  C   UNL     1      -8.042   9.980  72.687  1.00  0.00     5.107 C  
HETATM   22  C   UNL     1      -7.501   8.962  73.720  1.00  0.00     0.346 C  
HETATM   23  C   UNL     1      -5.224   9.553  73.152  1.00  0.00    -0.057 C  
HETATM   24  H   UNL     1      -5.826   8.607  74.912  1.00  0.00     0.000 HD 
HETATM   25  C   UNL     1      -5.736  10.565  72.098  1.00  0.00     0.603 C  
ENDBRANCH  11  19
TORSDOF 2
ENDMDL
MODEL      139
REMARK 921   NORMALIZED FREE ENERGY PREDICTED BY IDOCK:   23.34 KCAL/MOL
REMARK 922        TOTAL FREE ENERGY PREDICTED BY IDOCK:   25.50 KCAL/MOL
REMARK 923 INTER-LIGAND FREE ENERGY PREDICTED BY IDOCK:   25.93 KCAL/MOL
REMARK 924 INTRA-LIGAND FREE ENERGY PREDICTED BY IDOCK:   -0.43 KCAL/MOL
REMARK 927      BINDING AFFINITY PREDICTED BY RF-SCORE:    0.00 PKD
ROOT
HETATM    1  O   UNL     1     -12.388  12.061  65.114  1.00  0.00    -0.423 OA 
HETATM    2  C   UNL     1     -11.075  12.218  64.822  1.00  0.00    -0.311 C  
HETATM    3  O   UNL     1     -10.602  11.862  63.749  1.00  0.00    -0.338 OA 
HETATM    4  C   UNL     1     -10.282  12.854  65.890  1.00  0.00    -0.299 C  
HETATM    5  C   UNL     1      -8.965  13.046  65.714  1.00  0.00     0.587 C  
HETATM    6  N   UNL     1      -8.109  13.665  66.608  1.00  0.00     0.322 NA 
HETATM    7  C   UNL     1      -8.611  14.111  67.865  1.00  0.00    -0.178 A  
HETATM    8  C   UNL     1      -9.979  13.962  68.151  1.00  0.00    -0.240 A  
HETATM    9  C   UNL     1     -10.523  14.407  69.354  1.00  0.00    -0.097 A  
HETATM   10  C   UNL     1      -7.799  14.691  68.858  1.00  0.00    -0.148 A  
HETATM   11  C   UNL     1      -8.309  15.139  70.098  1.00  0.00     0.581 A  
HETATM   12  C   UNL     1     -10.866  13.315  67.164  1.00  0.00    -0.258 C  
HETATM   13  C   UNL     1      -9.694  14.995  70.301  1.00  0.00     0.424 A  
HETATM   14  O   UNL     1     -12.063  13.149  67.389  1.00  0.00    -0.348 OA 
HETATM   15  F   UNL     1     -10.274  15.440  71.425  1.00  0.00     0.013 F  
ENDROOT
BRANCH   6  16
HETATM   16  C   UNL     1      -6.695  13.870  66.224  1.00  0.00     4.148 C  
HETATM   17  C   UNL     1      -5.560  12.956  66.622  1.00  0.00     1.394 C  
HETATM   18  C   UNL     1      -6.052  12.954  65.210  1.00  0.00     8.136 C  
ENDBRANCH   6  16
BRANCH  11  19
HETATM   19  N   UNL     1      -7.438  15.605  71.071  1.00  0.00     2.088 NA 
HETATM   20  N   UNL     1      -5.369  16.406  72.957  1.00  0.00     1.297 NA 
HETATM   21  C   UNL     1      -7.457  15.066  72.443  1.00  0.00     4.973 C  
HETATM   22  C   UNL     1      -6.012  15.077  72.996  1.00  0.00     0.872 C  
HETATM   23  C   UNL     1      -5.460  16.970  71.593  1.00  0.00     0.538 C  
HETATM   24  H   UNL     1      -4.407  16.377  73.295  1.00  0.00     0.000 HD 
HETATM   25  C   UNL     1      -6.894  16.972  71.009  1.00  0.00     3.200 C  
ENDBRANCH  11  19
TORSDOF 2
ENDMDL
MODEL      140
REMARK 921   NORMALIZED FREE ENERGY PREDICTED BY IDOCK:   24.59 KCAL/MOL
REMARK 922        TOTAL FREE ENERGY PREDICTED BY IDOCK:   26.91 KCAL/MOL
REMARK 923 INTER-LIGAND FREE ENERGY PREDICTED BY IDOCK:   26.73 KCAL/MOL
REMARK 924 INTRA-LIGAND FREE ENERGY PREDICTED BY IDOCK:    0.18 KCAL/MOL
REMARK 927      BINDING AFFINITY PREDICTED BY RF-SCORE:    0.00 PKD
ROOT
HETATM    1  O   UNL     1      -8.299  12.913  71.294  1.00  0.00     8.833 OA 
HETATM    2  C   UNL     1      -9.162  11.891  71.081  1.00  0.00    10.712 C  
HETATM    3  O   UNL     1     -10.131  11.699  71.805  1.00  0.00     8.140 OA 
HETATM    4  C   UNL     1      -8.840  11.052  69.912  1.00  0.00     1.016 C  
HETATM    5  C   UNL     1      -9.620  10.000  69.616  1.00  0.00    -0.226 C  
HETATM    6  N   UNL     1      -9.464   9.155  68.531  1.00  0.00    -0.145 NA 
HETATM    7  C   UNL     1      -8.360   9.344  67.648  1.00  0.00    -0.119 A  
HETATM    8  C   UNL     1      -7.483  10.419  67.866  1.00  0.00    -0.087 A  
HETATM    9  C   UNL     1      -6.406  10.662  67.015  1.00  0.00    -0.073 A  
HETATM   10  C   UNL     1      -8.089   8.493  66.560  1.00  0.00    -0.103 A  
HETATM   11  C   UNL     1      -6.998   8.695  65.685  1.00  0.00    -0.075 A  
HETATM   12  C   UNL     1      -7.693  11.313  69.022  1.00  0.00    -0.095 C  
HETATM   13  C   UNL     1      -6.183   9.814  65.938  1.00  0.00    -0.072 A  
HETATM   14  O   UNL     1      -6.932  12.251  69.254  1.00  0.00    -0.083 OA 
HETATM   15  F   UNL     1      -5.156  10.114  65.129  1.00  0.00    -0.041 F  
ENDROOT
BRANCH   6  16
HETATM   16  C   UNL     1     -10.463   8.088  68.302  1.00  0.00    -0.161 C  
HETATM   17  C   UNL     1     -10.141   6.719  67.749  1.00  0.00    -0.189 C  
HETATM   18  C   UNL     1     -10.481   6.872  69.197  1.00  0.00    -0.224 C  
ENDBRANCH   6  16
BRANCH  11  19
HETATM   19  N   UNL     1      -6.728   7.761  64.697  1.00  0.00    -0.047 NA 
HETATM   20  N   UNL     1      -5.865   5.753  62.772  1.00  0.00    -0.017 NA 
HETATM   21  C   UNL     1      -6.383   8.171  63.323  1.00  0.00    -0.080 C  
HETATM   22  C   UNL     1      -5.378   7.147  62.741  1.00  0.00    -0.034 C  
HETATM   23  C   UNL     1      -6.306   5.403  64.139  1.00  0.00    -0.022 C  
HETATM   24  H   UNL     1      -5.170   5.097  62.415  1.00  0.00     0.000 HD 
HETATM   25  C   UNL     1      -7.311   6.408  64.752  1.00  0.00    -0.076 C  
ENDBRANCH  11  19
TORSDOF 2
ENDMDL
MODEL      141
REMARK 921   NORMALIZED FREE ENERGY PREDICTED BY IDOCK:   26.20 KCAL/MOL
REMARK 922        TOTAL FREE ENERGY PREDICTED BY IDOCK:   28.70 KCAL/MOL
REMARK 923 INTER-LIGAND FREE ENERGY PREDICTED BY IDOCK:   29.08 KCAL/MOL
REMARK 924 INTRA-LIGAND FREE ENERGY PREDICTED BY IDOCK:   -0.38 KCAL/MOL
REMARK 927      BINDING AFFINITY PREDICTED BY RF-SCORE:    0.00 PKD
ROOT
HETATM    1  O   UNL     1     -13.164   7.016  65.764  1.00  0.00     9.616 OA 
HETATM    2  C   UNL     1     -12.267   7.854  66.336  1.00  0.00     8.276 C  
HETATM    3  O   UNL     1     -12.285   9.062  66.131  1.00  0.00     6.689 OA 
HETATM    4  C   UNL     1     -11.290   7.193  67.221  1.00  0.00     0.180 C  
HETATM    5  C   UNL     1     -10.345   7.926  67.830  1.00  0.00    -0.226 C  
HETATM    6  N   UNL     1      -9.394   7.449  68.715  1.00  0.00    -0.144 NA 
HETATM    7  C   UNL     1      -9.339   6.053  69.000  1.00  0.00    -0.124 A  
HETATM    8  C   UNL     1     -10.286   5.195  68.417  1.00  0.00    -0.140 A  
HETATM    9  C   UNL     1     -10.291   3.828  68.685  1.00  0.00     1.046 A  
HETATM   10  C   UNL     1      -8.366   5.475  69.836  1.00  0.00    -0.105 A  
HETATM   11  C   UNL     1      -8.325   4.091  70.119  1.00  0.00    -0.060 A  
HETATM   12  C   UNL     1     -11.299   5.743  67.493  1.00  0.00     0.737 C  
HETATM   13  C   UNL     1      -9.329   3.296  69.534  1.00  0.00    -0.165 A  
HETATM   14  O   UNL     1     -12.130   5.018  66.949  1.00  0.00     4.356 OA 
HETATM   15  F   UNL     1      -9.401   1.981  69.789  1.00  0.00    -0.149 F  
ENDROOT
BRANCH   6  16
HETATM   16  C   UNL     1      -8.471   8.407  69.364  1.00  0.00    -0.125 C  
HETATM   17  C   UNL     1      -8.877   9.766  69.883  1.00  0.00    -0.248 C  
HETATM   18  C   UNL     1      -8.579   8.664  70.848  1.00  0.00    -0.204 C  
ENDBRANCH   6  16
BRANCH  11  19
HETATM   19  N   UNL     1      -7.279   3.573  70.867  1.00  0.00    -0.033 NA 
HETATM   20  N   UNL     1      -5.226   2.182  72.394  1.00  0.00     0.000 NA 
HETATM   21  C   UNL     1      -7.213   3.752  72.329  1.00  0.00    -0.048 C  
HETATM   22  C   UNL     1      -6.558   2.496  72.950  1.00  0.00    -0.021 C  
HETATM   23  C   UNL     1      -5.299   2.115  70.919  1.00  0.00    -0.004 C  
HETATM   24  H   UNL     1      -4.833   1.331  72.797  1.00  0.00     0.000 HD 
HETATM   25  C   UNL     1      -5.951   3.356  70.265  1.00  0.00    -0.019 C  
ENDBRANCH  11  19
TORSDOF 2
ENDMDL
MODEL      142
REMARK 921   NORMALIZED FREE ENERGY PREDICTED BY IDOCK:   34.90 KCAL/MOL
REMARK 922        TOTAL FREE ENERGY PREDICTED BY IDOCK:   38.41 KCAL/MOL
REMARK 923 INTER-LIGAND FREE ENERGY PREDICTED BY IDOCK:   37.37 KCAL/MOL
REMARK 924 INTRA-LIGAND FREE ENERGY PREDICTED BY IDOCK:    1.04 KCAL/MOL
REMARK 927      BINDING AFFINITY PREDICTED BY RF-SCORE:    0.00 PKD
ROOT
HETATM    1  O   UNL     1     -10.510  13.621  74.062  1.00  0.00     5.996 OA 
HETATM    2  C   UNL     1     -11.093  13.154  72.932  1.00  0.00     8.207 C  
HETATM    3  O   UNL     1     -11.574  12.030  72.866  1.00  0.00     5.661 OA 
HETATM    4  C   UNL     1     -11.105  14.111  71.810  1.00  0.00     1.966 C  
HETATM    5  C   UNL     1     -11.645  13.749  70.635  1.00  0.00     0.062 C  
HETATM    6  N   UNL     1     -11.763  14.553  69.515  1.00  0.00    -0.295 NA 
HETATM    7  C   UNL     1     -11.233  15.876  69.542  1.00  0.00    -0.325 A  
HETATM    8  C   UNL     1     -10.648  16.358  70.725  1.00  0.00     0.512 A  
HETATM    9  C   UNL     1     -10.141  17.652  70.811  1.00  0.00     2.688 A  
HETATM   10  C   UNL     1     -11.251  16.737  68.429  1.00  0.00    -0.176 A  
HETATM   11  C   UNL     1     -10.731  18.051  68.469  1.00  0.00    -0.035 A  
HETATM   12  C   UNL     1     -10.559  15.478  71.908  1.00  0.00     0.937 C  
HETATM   13  C   UNL     1     -10.197  18.482  69.698  1.00  0.00     0.572 A  
HETATM   14  O   UNL     1     -10.035  15.859  72.953  1.00  0.00     4.898 OA 
HETATM   15  F   UNL     1      -9.730  19.730  69.845  1.00  0.00    -0.294 F  
ENDROOT
BRANCH   6  16
HETATM   16  C   UNL     1     -12.460  14.025  68.321  1.00  0.00     0.265 C  
HETATM   17  C   UNL     1     -13.397  14.830  67.452  1.00  0.00     4.097 C  
HETATM   18  C   UNL     1     -12.036  14.475  66.944  1.00  0.00    -0.371 C  
ENDBRANCH   6  16
BRANCH  11  19
HETATM   19  N   UNL     1     -10.687  18.808  67.309  1.00  0.00    -0.446 NA 
HETATM   20  N   UNL     1     -10.266  20.328  64.861  1.00  0.00     0.263 NA 
HETATM   21  C   UNL     1     -10.745  20.281  67.348  1.00  0.00     0.060 C  
HETATM   22  C   UNL     1      -9.881  20.839  66.192  1.00  0.00     0.412 C  
HETATM   23  C   UNL     1     -10.305  18.850  64.880  1.00  0.00     2.193 C  
HETATM   24  H   UNL     1      -9.659  20.685  64.123  1.00  0.00     0.000 HD 
HETATM   25  C   UNL     1     -11.161  18.259  66.026  1.00  0.00     0.521 C  
ENDBRANCH  11  19
TORSDOF 2
ENDMDL
MODEL      143
REMARK 921   NORMALIZED FREE ENERGY PREDICTED BY IDOCK:   47.58 KCAL/MOL
REMARK 922        TOTAL FREE ENERGY PREDICTED BY IDOCK:   52.57 KCAL/MOL
REMARK 923 INTER-LIGAND FREE ENERGY PREDICTED BY IDOCK:   53.17 KCAL/MOL
REMARK 924 INTRA-LIGAND FREE ENERGY PREDICTED BY IDOCK:   -0.60 KCAL/MOL
REMARK 927      BINDING AFFINITY PREDICTED BY RF-SCORE:    0.00 PKD
ROOT
HETATM    1  O   UNL     1     -13.432   8.166  64.593  1.00  0.00    19.439 OA 
HETATM    2  C   UNL     1     -12.748   9.183  65.169  1.00  0.00    17.635 C  
HETATM    3  O   UNL     1     -12.893  10.346  64.813  1.00  0.00     5.252 OA 
HETATM    4  C   UNL     1     -11.837   8.771  66.253  1.00  0.00     6.315 C  
HETATM    5  C   UNL     1     -11.097   9.697  66.885  1.00  0.00     0.294 C  
HETATM    6  N   UNL     1     -10.235   9.463  67.943  1.00  0.00    -0.198 NA 
HETATM    7  C   UNL     1     -10.042   8.129  68.407  1.00  0.00    -0.200 A  
HETATM    8  C   UNL     1     -10.770   7.083  67.816  1.00  0.00    -0.300 A  
HETATM    9  C   UNL     1     -10.637   5.767  68.253  1.00  0.00    -0.286 A  
HETATM   10  C   UNL     1      -9.137   7.793  69.432  1.00  0.00    -0.146 A  
HETATM   11  C   UNL     1      -8.959   6.469  69.891  1.00  0.00    -0.143 A  
HETATM   12  C   UNL     1     -11.696   7.374  66.704  1.00  0.00     2.949 C  
HETATM   13  C   UNL     1      -9.751   5.477  69.283  1.00  0.00    -0.159 A  
HETATM   14  O   UNL     1     -12.334   6.480  66.150  1.00  0.00     3.383 OA 
HETATM   15  F   UNL     1      -9.688   4.201  69.691  1.00  0.00    -0.239 F  
ENDROOT
BRANCH   6  16
HETATM   16  C   UNL     1      -9.554  10.610  68.582  1.00  0.00    -0.179 C  
HETATM   17  C   UNL     1      -9.894  12.059  68.323  1.00  0.00    -0.204 C  
HETATM   18  C   UNL     1     -10.280  11.429  69.623  1.00  0.00     0.367 C  
ENDBRANCH   6  16
BRANCH  11  19
HETATM   19  N   UNL     1      -7.978   6.194  70.831  1.00  0.00    -0.113 NA 
HETATM   20  N   UNL     1      -5.830   5.941  72.782  1.00  0.00    -0.036 NA 
HETATM   21  C   UNL     1      -6.752   5.457  70.472  1.00  0.00    -0.047 C  
HETATM   22  C   UNL     1      -5.582   6.001  71.327  1.00  0.00    -0.021 C  
HETATM   23  C   UNL     1      -7.119   6.591  73.101  1.00  0.00    -0.078 C  
HETATM   24  H   UNL     1      -5.059   6.337  73.319  1.00  0.00     0.000 HD 
HETATM   25  C   UNL     1      -8.310   6.071  72.261  1.00  0.00    -0.113 C  
ENDBRANCH  11  19
TORSDOF 2
ENDMDL
MODEL      144
REMARK 921   NORMALIZED FREE ENERGY PREDICTED BY IDOCK:   54.11 KCAL/MOL
REMARK 922        TOTAL FREE ENERGY PREDICTED BY IDOCK:   59.88 KCAL/MOL
REMARK 923 INTER-LIGAND FREE ENERGY PREDICTED BY IDOCK:   60.09 KCAL/MOL
REMARK 924 INTRA-LIGAND FREE ENERGY PREDICTED BY IDOCK:   -0.21 KCAL/MOL
REMARK 927      BINDING AFFINITY PREDICTED BY RF-SCORE:    0.00 PKD
ROOT
HETATM    1  O   UNL     1      -9.647  14.171  73.735  1.00  0.00     6.306 OA 
HETATM    2  C   UNL     1      -9.979  13.012  73.118  1.00  0.00    17.459 C  
HETATM    3  O   UNL     1      -9.944  11.934  73.699  1.00  0.00    19.541 OA 
HETATM    4  C   UNL     1     -10.389  13.164  71.709  1.00  0.00     9.316 C  
HETATM    5  C   UNL     1     -10.725  12.078  70.996  1.00  0.00     4.255 C  
HETATM    6  N   UNL     1     -11.167  12.074  69.684  1.00  0.00    -0.158 NA 
HETATM    7  C   UNL     1     -11.241  13.303  68.966  1.00  0.00    -0.270 A  
HETATM    8  C   UNL     1     -10.915  14.503  69.621  1.00  0.00    -0.225 A  
HETATM    9  C   UNL     1     -10.998  15.732  68.971  1.00  0.00    -0.262 A  
HETATM   10  C   UNL     1     -11.618  13.384  67.612  1.00  0.00    -0.377 A  
HETATM   11  C   UNL     1     -11.697  14.608  66.911  1.00  0.00    -0.350 A  
HETATM   12  C   UNL     1     -10.467  14.469  71.027  1.00  0.00     1.343 C  
HETATM   13  C   UNL     1     -11.395  15.774  67.640  1.00  0.00    -0.194 A  
HETATM   14  O   UNL     1     -10.153  15.497  71.625  1.00  0.00     1.093 OA 
HETATM   15  F   UNL     1     -11.495  16.985  67.072  1.00  0.00     0.169 F  
ENDROOT
BRANCH   6  16
HETATM   16  C   UNL     1     -11.576  10.793  69.067  1.00  0.00    -0.299 C  
HETATM   17  C   UNL     1     -10.692   9.952  68.176  1.00  0.00    -0.279 C  
HETATM   18  C   UNL     1     -10.987   9.496  69.570  1.00  0.00    -0.217 C  
ENDBRANCH   6  16
BRANCH  11  19
HETATM   19  N   UNL     1     -11.973  14.606  65.553  1.00  0.00    -0.301 NA 
HETATM   20  N   UNL     1     -12.225  14.671  62.652  1.00  0.00     1.161 NA 
HETATM   21  C   UNL     1     -12.684  15.726  64.909  1.00  0.00     1.084 C  
HETATM   22  C   UNL     1     -12.136  15.897  63.472  1.00  0.00     1.610 C  
HETATM   23  C   UNL     1     -11.600  13.539  63.369  1.00  0.00     0.092 C  
HETATM   24  H   UNL     1     -11.827  14.802  61.723  1.00  0.00     0.000 HD 
HETATM   25  C   UNL     1     -12.124  13.342  64.812  1.00  0.00    -0.409 C  
ENDBRANCH  11  19
TORSDOF 2
ENDMDL
