MODEL        1
REMARK 921   NORMALIZED FREE ENERGY PREDICTED BY IDOCK:   -6.96 KCAL/MOL
REMARK 922        TOTAL FREE ENERGY PREDICTED BY IDOCK:  -10.08 KCAL/MOL
REMARK 923 INTER-LIGAND FREE ENERGY PREDICTED BY IDOCK:   -8.99 KCAL/MOL
REMARK 924 INTRA-LIGAND FREE ENERGY PREDICTED BY IDOCK:   -1.09 KCAL/MOL
REMARK 927      BINDING AFFINITY PREDICTED BY RF-SCORE:    0.00 PKD
ROOT
HETATM    1  C   UNL     1     -12.516  15.320  73.798  1.00  0.00    -0.615 C  
HETATM    2  N   UNL     1     -12.762  14.865  72.429  1.00  0.00    -0.327 NA 
HETATM    3  C   UNL     1     -14.101  15.277  72.001  1.00  0.00    -0.562 C  
ENDROOT
BRANCH   2   4
HETATM    4  C   UNL     1     -11.756  15.369  71.481  1.00  0.00    -0.404 C  
BRANCH   4   5
HETATM    5  C   UNL     1     -11.782  14.685  70.108  1.00  0.00    -0.353 C  
BRANCH   5   6
HETATM    6  C   UNL     1     -11.768  15.677  68.930  1.00  0.00    -0.396 C  
BRANCH   6   7
HETATM    7  C   UNL     1     -10.551  15.524  67.980  1.00  0.00    -0.270 C  
HETATM    8  O   UNL     1      -9.516  14.819  68.738  1.00  0.00    -0.201 OA 
HETATM    9  N   UNL     1      -7.001  21.379  67.402  1.00  0.00    -0.560 NA 
HETATM   10  C   UNL     1      -7.886  18.076  68.198  1.00  0.00    -0.274 A  
HETATM   11  C   UNL     1      -8.376  15.666  68.981  1.00  0.00    -0.235 C  
HETATM   12  C   UNL     1      -8.662  16.926  68.257  1.00  0.00    -0.235 A  
HETATM   13  C   UNL     1      -7.617  20.392  67.434  1.00  0.00    -0.326 C  
HETATM   14  C   UNL     1      -9.906  16.848  67.644  1.00  0.00    -0.259 A  
HETATM   15  C   UNL     1      -8.377  19.179  67.491  1.00  0.00    -0.315 A  
HETATM   16  C   UNL     1      -9.630  19.102  66.856  1.00  0.00    -0.379 A  
HETATM   17  C   UNL     1     -10.402  17.936  66.935  1.00  0.00    -0.358 A  
BRANCH   7  18
HETATM   18  C   UNL     1     -10.914  14.682  66.743  1.00  0.00    -0.323 A  
HETATM   19  C   UNL     1     -12.204  14.136  66.580  1.00  0.00    -0.463 A  
HETATM   20  F   UNL     1     -11.893  12.419  63.397  1.00  0.00    -0.471 F  
HETATM   21  C   UNL     1     -11.580  13.152  64.473  1.00  0.00    -0.364 A  
HETATM   22  C   UNL     1     -10.303  13.681  64.594  1.00  0.00    -0.407 A  
HETATM   23  C   UNL     1      -9.974  14.445  65.718  1.00  0.00    -0.354 A  
HETATM   24  C   UNL     1     -12.535  13.378  65.452  1.00  0.00    -0.543 A  
ENDBRANCH   7  18
ENDBRANCH   6   7
ENDBRANCH   5   6
ENDBRANCH   4   5
ENDBRANCH   2   4
TORSDOF 5
ENDMDL
MODEL        2
REMARK 921   NORMALIZED FREE ENERGY PREDICTED BY IDOCK:   -6.51 KCAL/MOL
REMARK 922        TOTAL FREE ENERGY PREDICTED BY IDOCK:   -9.50 KCAL/MOL
REMARK 923 INTER-LIGAND FREE ENERGY PREDICTED BY IDOCK:   -8.15 KCAL/MOL
REMARK 924 INTRA-LIGAND FREE ENERGY PREDICTED BY IDOCK:   -1.35 KCAL/MOL
REMARK 927      BINDING AFFINITY PREDICTED BY RF-SCORE:    0.00 PKD
ROOT
HETATM    1  C   UNL     1     -10.198  18.590  67.679  1.00  0.00    -0.387 C  
HETATM    2  N   UNL     1     -10.176  17.156  67.386  1.00  0.00    -0.312 NA 
HETATM    3  C   UNL     1     -10.289  16.941  65.942  1.00  0.00    -0.315 C  
ENDROOT
BRANCH   2   4
HETATM    4  C   UNL     1      -8.963  16.498  67.898  1.00  0.00    -0.205 C  
BRANCH   4   5
HETATM    5  C   UNL     1      -9.217  15.500  69.034  1.00  0.00    -0.238 C  
BRANCH   5   6
HETATM    6  C   UNL     1      -9.370  14.046  68.549  1.00  0.00    -0.182 C  
BRANCH   6   7
HETATM    7  C   UNL     1     -10.840  13.590  68.349  1.00  0.00    -0.267 C  
HETATM    8  O   UNL     1     -11.678  14.574  69.035  1.00  0.00    -0.278 OA 
HETATM    9  N   UNL     1     -12.493   8.376  72.508  1.00  0.00    -0.338 NA 
HETATM   10  C   UNL     1     -12.374  11.557  71.028  1.00  0.00    -0.434 A  
HETATM   11  C   UNL     1     -12.351  13.991  70.168  1.00  0.00    -0.345 C  
HETATM   12  C   UNL     1     -12.000  12.552  70.134  1.00  0.00    -0.377 A  
HETATM   13  C   UNL     1     -12.222   9.218  71.751  1.00  0.00    -0.385 C  
HETATM   14  C   UNL     1     -11.149  12.297  69.066  1.00  0.00    -0.289 A  
HETATM   15  C   UNL     1     -11.881  10.263  70.832  1.00  0.00    -0.473 A  
HETATM   16  C   UNL     1     -11.031   9.994  69.744  1.00  0.00    -0.317 A  
HETATM   17  C   UNL     1     -10.658  11.014  68.859  1.00  0.00    -0.239 A  
BRANCH   7  18
HETATM   18  C   UNL     1     -11.218  13.576  66.857  1.00  0.00    -0.329 A  
HETATM   19  C   UNL     1     -10.248  13.367  65.855  1.00  0.00    -0.302 A  
HETATM   20  F   UNL     1     -12.247  13.527  62.830  1.00  0.00    -0.551 F  
HETATM   21  C   UNL     1     -11.916  13.538  64.127  1.00  0.00    -0.448 A  
HETATM   22  C   UNL     1     -12.900  13.736  65.085  1.00  0.00    -0.386 A  
HETATM   23  C   UNL     1     -12.555  13.750  66.440  1.00  0.00    -0.309 A  
HETATM   24  C   UNL     1     -10.594  13.348  64.500  1.00  0.00    -0.441 A  
ENDBRANCH   7  18
ENDBRANCH   6   7
ENDBRANCH   5   6
ENDBRANCH   4   5
ENDBRANCH   2   4
TORSDOF 5
ENDMDL
MODEL        3
REMARK 921   NORMALIZED FREE ENERGY PREDICTED BY IDOCK:   -6.42 KCAL/MOL
REMARK 922        TOTAL FREE ENERGY PREDICTED BY IDOCK:   -9.39 KCAL/MOL
REMARK 923 INTER-LIGAND FREE ENERGY PREDICTED BY IDOCK:   -8.28 KCAL/MOL
REMARK 924 INTRA-LIGAND FREE ENERGY PREDICTED BY IDOCK:   -1.11 KCAL/MOL
REMARK 927      BINDING AFFINITY PREDICTED BY RF-SCORE:    0.00 PKD
ROOT
HETATM    1  C   UNL     1      -8.030  19.760  66.161  1.00  0.00    -0.340 C  
HETATM    2  N   UNL     1      -9.205  19.291  66.897  1.00  0.00    -0.300 NA 
HETATM    3  C   UNL     1     -10.422  19.613  66.149  1.00  0.00    -0.524 C  
ENDROOT
BRANCH   2   4
HETATM    4  C   UNL     1      -9.154  17.848  67.175  1.00  0.00    -0.251 C  
BRANCH   4   5
HETATM    5  C   UNL     1      -9.883  17.423  68.455  1.00  0.00    -0.320 C  
BRANCH   5   6
HETATM    6  C   UNL     1     -11.122  16.548  68.192  1.00  0.00    -0.303 C  
BRANCH   6   7
HETATM    7  C   UNL     1     -10.937  15.051  68.560  1.00  0.00    -0.256 C  
HETATM    8  O   UNL     1      -9.549  14.897  68.995  1.00  0.00    -0.213 OA 
HETATM    9  N   UNL     1     -10.269  11.103  62.975  1.00  0.00    -0.278 NA 
HETATM   10  C   UNL     1      -9.563  12.813  65.959  1.00  0.00    -0.182 A  
HETATM   11  C   UNL     1      -8.800  14.077  68.077  1.00  0.00    -0.181 C  
HETATM   12  C   UNL     1      -9.785  13.610  67.074  1.00  0.00    -0.251 A  
HETATM   13  C   UNL     1     -10.439  11.739  63.936  1.00  0.00    -0.390 C  
HETATM   14  C   UNL     1     -11.037  14.141  67.359  1.00  0.00    -0.318 A  
HETATM   15  C   UNL     1     -10.639  12.535  65.111  1.00  0.00    -0.322 A  
HETATM   16  C   UNL     1     -11.912  13.056  65.400  1.00  0.00    -0.457 A  
HETATM   17  C   UNL     1     -12.115  13.867  66.525  1.00  0.00    -0.484 A  
BRANCH   7  18
HETATM   18  C   UNL     1     -11.864  14.646  69.721  1.00  0.00    -0.366 A  
HETATM   19  C   UNL     1     -12.707  15.586  70.350  1.00  0.00    -0.382 A  
HETATM   20  F   UNL     1     -14.372  13.546  72.847  1.00  0.00    -0.403 F  
HETATM   21  C   UNL     1     -13.568  13.900  71.837  1.00  0.00    -0.430 A  
HETATM   22  C   UNL     1     -12.761  12.945  71.236  1.00  0.00    -0.371 A  
HETATM   23  C   UNL     1     -11.918  13.314  70.183  1.00  0.00    -0.388 A  
HETATM   24  C   UNL     1     -13.553  15.216  71.399  1.00  0.00    -0.570 A  
ENDBRANCH   7  18
ENDBRANCH   6   7
ENDBRANCH   5   6
ENDBRANCH   4   5
ENDBRANCH   2   4
TORSDOF 5
ENDMDL
MODEL        4
REMARK 921   NORMALIZED FREE ENERGY PREDICTED BY IDOCK:   -6.40 KCAL/MOL
REMARK 922        TOTAL FREE ENERGY PREDICTED BY IDOCK:   -9.35 KCAL/MOL
REMARK 923 INTER-LIGAND FREE ENERGY PREDICTED BY IDOCK:   -8.17 KCAL/MOL
REMARK 924 INTRA-LIGAND FREE ENERGY PREDICTED BY IDOCK:   -1.18 KCAL/MOL
REMARK 927      BINDING AFFINITY PREDICTED BY RF-SCORE:    0.00 PKD
ROOT
HETATM    1  C   UNL     1     -12.687  13.949  65.581  1.00  0.00    -0.495 C  
HETATM    2  N   UNL     1     -11.651  13.218  64.850  1.00  0.00    -0.314 NA 
HETATM    3  C   UNL     1     -12.189  12.730  63.579  1.00  0.00    -0.525 C  
ENDROOT
BRANCH   2   4
HETATM    4  C   UNL     1     -10.453  14.037  64.606  1.00  0.00    -0.373 C  
BRANCH   4   5
HETATM    5  C   UNL     1     -10.583  15.497  65.056  1.00  0.00    -0.435 C  
BRANCH   5   6
HETATM    6  C   UNL     1      -9.437  15.959  65.974  1.00  0.00    -0.389 C  
BRANCH   6   7
HETATM    7  C   UNL     1      -9.900  16.494  67.356  1.00  0.00    -0.253 C  
HETATM    8  O   UNL     1     -10.910  17.518  67.088  1.00  0.00    -0.242 OA 
HETATM    9  N   UNL     1      -5.331  20.843  70.082  1.00  0.00    -0.507 NA 
HETATM   10  C   UNL     1      -8.258  19.546  68.640  1.00  0.00    -0.369 A  
HETATM   11  C   UNL     1     -10.449  18.825  67.481  1.00  0.00    -0.435 C  
HETATM   12  C   UNL     1      -9.130  18.601  68.117  1.00  0.00    -0.337 A  
HETATM   13  C   UNL     1      -6.094  20.064  69.672  1.00  0.00    -0.341 C  
HETATM   14  C   UNL     1      -8.811  17.249  68.081  1.00  0.00    -0.239 A  
HETATM   15  C   UNL     1      -7.030  19.113  69.151  1.00  0.00    -0.361 A  
HETATM   16  C   UNL     1      -6.706  17.745  69.131  1.00  0.00    -0.239 A  
HETATM   17  C   UNL     1      -7.596  16.807  68.590  1.00  0.00    -0.222 A  
BRANCH   7  18
HETATM   18  C   UNL     1     -10.542  15.376  68.197  1.00  0.00    -0.263 A  
HETATM   19  C   UNL     1     -11.660  15.625  69.019  1.00  0.00    -0.396 A  
HETATM   20  F   UNL     1     -12.278  12.349  70.456  1.00  0.00    -0.401 F  
HETATM   21  C   UNL     1     -11.722  13.324  69.725  1.00  0.00    -0.284 A  
HETATM   22  C   UNL     1     -10.629  13.038  68.919  1.00  0.00    -0.157 A  
HETATM   23  C   UNL     1     -10.046  14.055  68.157  1.00  0.00    -0.244 A  
HETATM   24  C   UNL     1     -12.247  14.606  69.777  1.00  0.00    -0.347 A  
ENDBRANCH   7  18
ENDBRANCH   6   7
ENDBRANCH   5   6
ENDBRANCH   4   5
ENDBRANCH   2   4
TORSDOF 5
ENDMDL
MODEL        5
REMARK 921   NORMALIZED FREE ENERGY PREDICTED BY IDOCK:   -6.34 KCAL/MOL
REMARK 922        TOTAL FREE ENERGY PREDICTED BY IDOCK:   -9.28 KCAL/MOL
REMARK 923 INTER-LIGAND FREE ENERGY PREDICTED BY IDOCK:   -8.28 KCAL/MOL
REMARK 924 INTRA-LIGAND FREE ENERGY PREDICTED BY IDOCK:   -0.99 KCAL/MOL
REMARK 927      BINDING AFFINITY PREDICTED BY RF-SCORE:    0.00 PKD
ROOT
HETATM    1  C   UNL     1      -7.867  19.573  66.432  1.00  0.00    -0.306 C  
HETATM    2  N   UNL     1      -8.607  18.371  66.043  1.00  0.00    -0.511 NA 
HETATM    3  C   UNL     1      -7.813  17.178  66.342  1.00  0.00    -0.317 C  
ENDROOT
BRANCH   2   4
HETATM    4  C   UNL     1      -9.918  18.281  66.706  1.00  0.00    -0.352 C  
BRANCH   4   5
HETATM    5  C   UNL     1     -10.487  16.859  66.790  1.00  0.00    -0.260 C  
BRANCH   5   6
HETATM    6  C   UNL     1     -11.013  16.492  68.190  1.00  0.00    -0.336 C  
BRANCH   6   7
HETATM    7  C   UNL     1     -10.852  14.994  68.561  1.00  0.00    -0.250 C  
HETATM    8  O   UNL     1      -9.463  14.817  68.986  1.00  0.00    -0.208 OA 
HETATM    9  N   UNL     1     -10.297  11.018  62.985  1.00  0.00    -0.205 NA 
HETATM   10  C   UNL     1      -9.537  12.724  65.957  1.00  0.00    -0.182 A  
HETATM   11  C   UNL     1      -8.736  13.981  68.065  1.00  0.00    -0.180 C  
HETATM   12  C   UNL     1      -9.737  13.528  67.071  1.00  0.00    -0.251 A  
HETATM   13  C   UNL     1     -10.448  11.659  63.944  1.00  0.00    -0.382 C  
HETATM   14  C   UNL     1     -10.977  14.082  67.364  1.00  0.00    -0.302 A  
HETATM   15  C   UNL     1     -10.625  12.462  65.118  1.00  0.00    -0.324 A  
HETATM   16  C   UNL     1     -11.886  13.007  65.415  1.00  0.00    -0.428 A  
HETATM   17  C   UNL     1     -12.066  13.825  66.538  1.00  0.00    -0.483 A  
BRANCH   7  18
HETATM   18  C   UNL     1     -11.777  14.610  69.730  1.00  0.00    -0.361 A  
HETATM   19  C   UNL     1     -11.927  13.268  70.139  1.00  0.00    -0.388 A  
HETATM   20  F   UNL     1     -14.269  13.581  72.894  1.00  0.00    -0.456 F  
HETATM   21  C   UNL     1     -13.463  13.912  71.877  1.00  0.00    -0.427 A  
HETATM   22  C   UNL     1     -13.333  15.244  71.511  1.00  0.00    -0.559 A  
HETATM   23  C   UNL     1     -12.493  15.591  70.448  1.00  0.00    -0.443 A  
HETATM   24  C   UNL     1     -12.762  12.922  71.205  1.00  0.00    -0.371 A  
ENDBRANCH   7  18
ENDBRANCH   6   7
ENDBRANCH   5   6
ENDBRANCH   4   5
ENDBRANCH   2   4
TORSDOF 5
ENDMDL
MODEL        6
REMARK 921   NORMALIZED FREE ENERGY PREDICTED BY IDOCK:   -6.23 KCAL/MOL
REMARK 922        TOTAL FREE ENERGY PREDICTED BY IDOCK:   -9.14 KCAL/MOL
REMARK 923 INTER-LIGAND FREE ENERGY PREDICTED BY IDOCK:   -8.13 KCAL/MOL
REMARK 924 INTRA-LIGAND FREE ENERGY PREDICTED BY IDOCK:   -1.01 KCAL/MOL
REMARK 927      BINDING AFFINITY PREDICTED BY RF-SCORE:    0.00 PKD
ROOT
HETATM    1  C   UNL     1     -10.450  12.368  63.584  1.00  0.00    -0.426 C  
HETATM    2  N   UNL     1     -11.787  12.919  63.362  1.00  0.00    -0.539 NA 
HETATM    3  C   UNL     1     -12.779  11.842  63.382  1.00  0.00    -0.366 C  
ENDROOT
BRANCH   2   4
HETATM    4  C   UNL     1     -12.142  13.947  64.353  1.00  0.00    -0.443 C  
BRANCH   4   5
HETATM    5  C   UNL     1     -12.520  13.391  65.732  1.00  0.00    -0.496 C  
BRANCH   5   6
HETATM    6  C   UNL     1     -12.109  14.311  66.896  1.00  0.00    -0.440 C  
BRANCH   6   7
HETATM    7  C   UNL     1     -10.975  13.742  67.791  1.00  0.00    -0.256 C  
HETATM    8  O   UNL     1     -10.281  12.732  66.991  1.00  0.00    -0.238 OA 
HETATM    9  N   UNL     1     -13.370   9.295  72.449  1.00  0.00    -0.464 NA 
HETATM   10  C   UNL     1     -11.684  10.647  69.683  1.00  0.00    -0.368 A  
HETATM   11  C   UNL     1     -10.467  11.412  67.538  1.00  0.00    -0.201 C  
HETATM   12  C   UNL     1     -11.227  11.612  68.794  1.00  0.00    -0.304 A  
HETATM   13  C   UNL     1     -12.945  10.089  71.711  1.00  0.00    -0.458 C  
HETATM   14  C   UNL     1     -11.502  12.962  68.972  1.00  0.00    -0.358 A  
HETATM   15  C   UNL     1     -12.433  11.059  70.789  1.00  0.00    -0.491 A  
HETATM   16  C   UNL     1     -12.704  12.425  70.983  1.00  0.00    -0.315 A  
HETATM   17  C   UNL     1     -12.242  13.383  70.070  1.00  0.00    -0.367 A  
BRANCH   7  18
HETATM   18  C   UNL     1      -9.969  14.842  68.176  1.00  0.00    -0.222 A  
HETATM   19  C   UNL     1      -8.682  14.525  68.657  1.00  0.00    -0.172 A  
HETATM   20  F   UNL     1      -7.255  17.817  69.205  1.00  0.00    -0.249 F  
HETATM   21  C   UNL     1      -8.127  16.858  68.869  1.00  0.00    -0.219 A  
HETATM   22  C   UNL     1      -9.380  17.209  68.390  1.00  0.00    -0.273 A  
HETATM   23  C   UNL     1     -10.294  16.209  68.041  1.00  0.00    -0.271 A  
HETATM   24  C   UNL     1      -7.767  15.526  69.000  1.00  0.00    -0.192 A  
ENDBRANCH   7  18
ENDBRANCH   6   7
ENDBRANCH   5   6
ENDBRANCH   4   5
ENDBRANCH   2   4
TORSDOF 5
ENDMDL
MODEL        7
REMARK 921   NORMALIZED FREE ENERGY PREDICTED BY IDOCK:   -6.22 KCAL/MOL
REMARK 922        TOTAL FREE ENERGY PREDICTED BY IDOCK:   -9.12 KCAL/MOL
REMARK 923 INTER-LIGAND FREE ENERGY PREDICTED BY IDOCK:   -7.97 KCAL/MOL
REMARK 924 INTRA-LIGAND FREE ENERGY PREDICTED BY IDOCK:   -1.15 KCAL/MOL
REMARK 927      BINDING AFFINITY PREDICTED BY RF-SCORE:    0.00 PKD
ROOT
HETATM    1  C   UNL     1      -9.369  11.338  62.799  1.00  0.00    -0.332 C  
HETATM    2  N   UNL     1     -10.207  11.718  63.937  1.00  0.00    -0.337 NA 
HETATM    3  C   UNL     1     -11.601  11.851  63.507  1.00  0.00    -0.441 C  
ENDROOT
BRANCH   2   4
HETATM    4  C   UNL     1     -10.115  10.756  65.047  1.00  0.00    -0.313 C  
BRANCH   4   5
HETATM    5  C   UNL     1     -11.096  11.020  66.195  1.00  0.00    -0.082 C  
BRANCH   5   6
HETATM    6  C   UNL     1     -10.458  11.750  67.391  1.00  0.00    -0.238 C  
BRANCH   6   7
HETATM    7  C   UNL     1     -11.090  13.132  67.708  1.00  0.00    -0.262 C  
HETATM    8  O   UNL     1     -12.119  13.362  66.692  1.00  0.00    -0.391 OA 
HETATM    9  N   UNL     1      -7.062  18.317  65.680  1.00  0.00    -0.526 NA 
HETATM   10  C   UNL     1      -9.751  16.072  65.911  1.00  0.00    -0.378 A  
HETATM   11  C   UNL     1     -11.769  14.463  65.832  1.00  0.00    -0.369 C  
HETATM   12  C   UNL     1     -10.514  15.016  66.392  1.00  0.00    -0.296 A  
HETATM   13  C   UNL     1      -7.736  17.459  66.087  1.00  0.00    -0.276 C  
HETATM   14  C   UNL     1     -10.124  14.274  67.500  1.00  0.00    -0.236 A  
HETATM   15  C   UNL     1      -8.563  16.395  66.573  1.00  0.00    -0.329 A  
HETATM   16  C   UNL     1      -8.169  15.658  67.704  1.00  0.00    -0.165 A  
HETATM   17  C   UNL     1      -8.947  14.590  68.169  1.00  0.00    -0.182 A  
BRANCH   7  18
HETATM   18  C   UNL     1     -11.758  13.132  69.094  1.00  0.00    -0.376 A  
HETATM   19  C   UNL     1     -12.206  14.327  69.695  1.00  0.00    -0.371 A  
HETATM   20  F   UNL     1     -13.570  13.122  72.835  1.00  0.00    -0.562 F  
HETATM   21  C   UNL     1     -12.991  13.125  71.628  1.00  0.00    -0.335 A  
HETATM   22  C   UNL     1     -12.573  11.928  71.065  1.00  0.00    -0.381 A  
HETATM   23  C   UNL     1     -11.965  11.930  69.805  1.00  0.00    -0.377 A  
HETATM   24  C   UNL     1     -12.819  14.323  70.952  1.00  0.00    -0.416 A  
ENDBRANCH   7  18
ENDBRANCH   6   7
ENDBRANCH   5   6
ENDBRANCH   4   5
ENDBRANCH   2   4
TORSDOF 5
ENDMDL
MODEL        8
REMARK 921   NORMALIZED FREE ENERGY PREDICTED BY IDOCK:   -6.21 KCAL/MOL
REMARK 922        TOTAL FREE ENERGY PREDICTED BY IDOCK:   -9.11 KCAL/MOL
REMARK 923 INTER-LIGAND FREE ENERGY PREDICTED BY IDOCK:   -8.04 KCAL/MOL
REMARK 924 INTRA-LIGAND FREE ENERGY PREDICTED BY IDOCK:   -1.07 KCAL/MOL
REMARK 927      BINDING AFFINITY PREDICTED BY RF-SCORE:    0.00 PKD
ROOT
HETATM    1  C   UNL     1      -9.617  11.042  62.862  1.00  0.00    -0.343 C  
HETATM    2  N   UNL     1     -10.414  11.683  63.910  1.00  0.00    -0.341 NA 
HETATM    3  C   UNL     1     -11.795  11.851  63.451  1.00  0.00    -0.413 C  
ENDROOT
BRANCH   2   4
HETATM    4  C   UNL     1     -10.393  10.928  65.172  1.00  0.00    -0.278 C  
BRANCH   4   5
HETATM    5  C   UNL     1      -9.712  11.659  66.335  1.00  0.00    -0.236 C  
BRANCH   5   6
HETATM    6  C   UNL     1     -10.590  11.754  67.596  1.00  0.00    -0.237 C  
BRANCH   6   7
HETATM    7  C   UNL     1     -11.204  13.159  67.844  1.00  0.00    -0.270 C  
HETATM    8  O   UNL     1     -12.222  13.356  66.812  1.00  0.00    -0.377 OA 
HETATM    9  N   UNL     1      -7.084  18.184  65.609  1.00  0.00    -0.530 NA 
HETATM   10  C   UNL     1      -9.808  15.992  65.923  1.00  0.00    -0.380 A  
HETATM   11  C   UNL     1     -11.849  14.411  65.904  1.00  0.00    -0.367 C  
HETATM   12  C   UNL     1     -10.590  14.971  66.448  1.00  0.00    -0.310 A  
HETATM   13  C   UNL     1      -7.774  17.356  66.050  1.00  0.00    -0.198 C  
HETATM   14  C   UNL     1     -10.219  14.275  67.592  1.00  0.00    -0.237 A  
HETATM   15  C   UNL     1      -8.619  16.328  66.579  1.00  0.00    -0.332 A  
HETATM   16  C   UNL     1      -8.244  15.638  67.746  1.00  0.00    -0.155 A  
HETATM   17  C   UNL     1      -9.041  14.604  68.254  1.00  0.00    -0.189 A  
BRANCH   7  18
HETATM   18  C   UNL     1     -11.881  13.233  69.224  1.00  0.00    -0.383 A  
HETATM   19  C   UNL     1     -12.016  12.089  70.039  1.00  0.00    -0.400 A  
HETATM   20  F   UNL     1     -13.702  13.441  72.955  1.00  0.00    -0.580 F  
HETATM   21  C   UNL     1     -13.111  13.374  71.755  1.00  0.00    -0.388 A  
HETATM   22  C   UNL     1     -12.987  14.522  70.987  1.00  0.00    -0.423 A  
HETATM   23  C   UNL     1     -12.373  14.454  69.733  1.00  0.00    -0.333 A  
HETATM   24  C   UNL     1     -12.626  12.159  71.295  1.00  0.00    -0.341 A  
ENDBRANCH   7  18
ENDBRANCH   6   7
ENDBRANCH   5   6
ENDBRANCH   4   5
ENDBRANCH   2   4
TORSDOF 5
ENDMDL
MODEL        9
REMARK 921   NORMALIZED FREE ENERGY PREDICTED BY IDOCK:   -6.20 KCAL/MOL
REMARK 922        TOTAL FREE ENERGY PREDICTED BY IDOCK:   -9.09 KCAL/MOL
REMARK 923 INTER-LIGAND FREE ENERGY PREDICTED BY IDOCK:   -8.06 KCAL/MOL
REMARK 924 INTRA-LIGAND FREE ENERGY PREDICTED BY IDOCK:   -1.03 KCAL/MOL
REMARK 927      BINDING AFFINITY PREDICTED BY RF-SCORE:    0.00 PKD
ROOT
HETATM    1  C   UNL     1     -11.299  12.076  63.559  1.00  0.00    -0.442 C  
HETATM    2  N   UNL     1     -10.565  10.984  64.200  1.00  0.00    -0.380 NA 
HETATM    3  C   UNL     1      -9.514  10.497  63.304  1.00  0.00    -0.325 C  
ENDROOT
BRANCH   2   4
HETATM    4  C   UNL     1      -9.980  11.382  65.490  1.00  0.00    -0.239 C  
BRANCH   4   5
HETATM    5  C   UNL     1     -10.969  11.378  66.661  1.00  0.00    -0.341 C  
BRANCH   5   6
HETATM    6  C   UNL     1     -10.492  12.206  67.869  1.00  0.00    -0.224 C  
BRANCH   6   7
HETATM    7  C   UNL     1     -11.103  13.631  67.950  1.00  0.00    -0.261 C  
HETATM    8  O   UNL     1     -12.059  13.737  66.847  1.00  0.00    -0.414 OA 
HETATM    9  N   UNL     1      -6.809  18.404  65.501  1.00  0.00    -0.500 NA 
HETATM   10  C   UNL     1      -9.570  16.265  65.859  1.00  0.00    -0.336 A  
HETATM   11  C   UNL     1     -11.624  14.701  65.868  1.00  0.00    -0.327 C  
HETATM   12  C   UNL     1     -10.392  15.302  66.429  1.00  0.00    -0.296 A  
HETATM   13  C   UNL     1      -7.532  17.624  65.976  1.00  0.00    -0.247 C  
HETATM   14  C   UNL     1     -10.093  14.714  67.652  1.00  0.00    -0.228 A  
HETATM   15  C   UNL     1      -8.417  16.654  66.548  1.00  0.00    -0.327 A  
HETATM   16  C   UNL     1      -8.116  16.074  67.793  1.00  0.00    -0.154 A  
HETATM   17  C   UNL     1      -8.952  15.096  68.348  1.00  0.00    -0.183 A  
BRANCH   7  18
HETATM   18  C   UNL     1     -11.857  13.836  69.276  1.00  0.00    -0.392 A  
HETATM   19  C   UNL     1     -12.151  12.753  70.130  1.00  0.00    -0.370 A  
HETATM   20  F   UNL     1     -13.883  14.399  72.861  1.00  0.00    -0.522 F  
HETATM   21  C   UNL     1     -13.226  14.218  71.709  1.00  0.00    -0.367 A  
HETATM   22  C   UNL     1     -12.946  15.310  70.900  1.00  0.00    -0.522 A  
HETATM   23  C   UNL     1     -12.262  15.122  69.695  1.00  0.00    -0.292 A  
HETATM   24  C   UNL     1     -12.829  12.942  71.338  1.00  0.00    -0.377 A  
ENDBRANCH   7  18
ENDBRANCH   6   7
ENDBRANCH   5   6
ENDBRANCH   4   5
ENDBRANCH   2   4
TORSDOF 5
ENDMDL
MODEL       10
REMARK 921   NORMALIZED FREE ENERGY PREDICTED BY IDOCK:   -6.18 KCAL/MOL
REMARK 922        TOTAL FREE ENERGY PREDICTED BY IDOCK:   -9.07 KCAL/MOL
REMARK 923 INTER-LIGAND FREE ENERGY PREDICTED BY IDOCK:   -7.94 KCAL/MOL
REMARK 924 INTRA-LIGAND FREE ENERGY PREDICTED BY IDOCK:   -1.12 KCAL/MOL
REMARK 927      BINDING AFFINITY PREDICTED BY RF-SCORE:    0.00 PKD
ROOT
HETATM    1  C   UNL     1     -12.022  12.149  63.685  1.00  0.00    -0.534 C  
HETATM    2  N   UNL     1     -10.882  11.328  64.097  1.00  0.00    -0.360 NA 
HETATM    3  C   UNL     1      -9.809  11.433  63.105  1.00  0.00    -0.388 C  
ENDROOT
BRANCH   2   4
HETATM    4  C   UNL     1     -10.374  11.701  65.426  1.00  0.00    -0.267 C  
BRANCH   4   5
HETATM    5  C   UNL     1     -11.440  11.719  66.529  1.00  0.00    -0.325 C  
BRANCH   5   6
HETATM    6  C   UNL     1     -10.946  12.340  67.848  1.00  0.00    -0.265 C  
BRANCH   6   7
HETATM    7  C   UNL     1     -11.367  13.820  68.056  1.00  0.00    -0.288 C  
HETATM    8  O   UNL     1     -12.374  14.113  67.035  1.00  0.00    -0.396 OA 
HETATM    9  N   UNL     1      -6.685  18.192  65.572  1.00  0.00    -0.432 NA 
HETATM   10  C   UNL     1      -9.661  16.383  66.012  1.00  0.00    -0.356 A  
HETATM   11  C   UNL     1     -11.889  15.080  66.084  1.00  0.00    -0.023 C  
HETATM   12  C   UNL     1     -10.557  15.490  66.586  1.00  0.00    -0.307 A  
HETATM   13  C   UNL     1      -7.466  17.476  66.054  1.00  0.00    -0.239 C  
HETATM   14  C   UNL     1     -10.253  14.790  67.747  1.00  0.00    -0.232 A  
HETATM   15  C   UNL     1      -8.425  16.584  66.634  1.00  0.00    -0.299 A  
HETATM   16  C   UNL     1      -8.116  15.890  67.818  1.00  0.00    -0.155 A  
HETATM   17  C   UNL     1      -9.029  14.986  68.377  1.00  0.00    -0.179 A  
BRANCH   7  18
HETATM   18  C   UNL     1     -11.999  14.026  69.445  1.00  0.00    -0.390 A  
HETATM   19  C   UNL     1     -12.383  15.307  69.895  1.00  0.00    -0.323 A  
HETATM   20  F   UNL     1     -13.714  14.575  73.191  1.00  0.00    -0.494 F  
HETATM   21  C   UNL     1     -13.166  14.398  71.983  1.00  0.00    -0.369 A  
HETATM   22  C   UNL     1     -12.811  13.122  71.570  1.00  0.00    -0.401 A  
HETATM   23  C   UNL     1     -12.236  12.936  70.309  1.00  0.00    -0.362 A  
HETATM   24  C   UNL     1     -12.963  15.491  71.154  1.00  0.00    -0.560 A  
ENDBRANCH   7  18
ENDBRANCH   6   7
ENDBRANCH   5   6
ENDBRANCH   4   5
ENDBRANCH   2   4
TORSDOF 5
ENDMDL
MODEL       11
REMARK 921   NORMALIZED FREE ENERGY PREDICTED BY IDOCK:   -6.17 KCAL/MOL
REMARK 922        TOTAL FREE ENERGY PREDICTED BY IDOCK:   -9.06 KCAL/MOL
REMARK 923 INTER-LIGAND FREE ENERGY PREDICTED BY IDOCK:   -8.04 KCAL/MOL
REMARK 924 INTRA-LIGAND FREE ENERGY PREDICTED BY IDOCK:   -1.02 KCAL/MOL
REMARK 927      BINDING AFFINITY PREDICTED BY RF-SCORE:    0.00 PKD
ROOT
HETATM    1  C   UNL     1     -12.384  12.157  63.560  1.00  0.00    -0.574 C  
HETATM    2  N   UNL     1     -12.681  12.814  64.834  1.00  0.00    -0.748 NA 
HETATM    3  C   UNL     1     -11.874  12.219  65.901  1.00  0.00    -0.354 C  
ENDROOT
BRANCH   2   4
HETATM    4  C   UNL     1     -12.451  14.267  64.783  1.00  0.00    -0.374 C  
BRANCH   4   5
HETATM    5  C   UNL     1     -10.973  14.674  64.803  1.00  0.00    -0.399 C  
BRANCH   5   6
HETATM    6  C   UNL     1     -10.728  16.059  65.430  1.00  0.00    -0.399 C  
BRANCH   6   7
HETATM    7  C   UNL     1      -9.887  16.031  66.735  1.00  0.00    -0.250 C  
HETATM    8  O   UNL     1      -8.851  15.016  66.540  1.00  0.00    -0.273 OA 
HETATM    9  N   UNL     1     -13.106  12.659  71.783  1.00  0.00    -0.404 NA 
HETATM   10  C   UNL     1     -10.788  13.516  69.289  1.00  0.00    -0.107 A  
HETATM   11  C   UNL     1      -9.042  13.896  67.427  1.00  0.00    -0.217 C  
HETATM   12  C   UNL     1     -10.189  14.267  68.287  1.00  0.00    -0.244 A  
HETATM   13  C   UNL     1     -12.565  13.286  70.965  1.00  0.00    -0.324 C  
HETATM   14  C   UNL     1     -10.671  15.517  67.919  1.00  0.00    -0.294 A  
HETATM   15  C   UNL     1     -11.904  14.046  69.946  1.00  0.00    -0.393 A  
HETATM   16  C   UNL     1     -12.388  15.317  69.589  1.00  0.00    -0.245 A  
HETATM   17  C   UNL     1     -11.776  16.056  68.569  1.00  0.00    -0.244 A  
BRANCH   7  18
HETATM   18  C   UNL     1      -9.206  17.388  66.985  1.00  0.00    -0.252 A  
HETATM   19  C   UNL     1      -9.720  18.581  66.435  1.00  0.00    -0.347 A  
HETATM   20  F   UNL     1      -7.368  21.051  67.674  1.00  0.00    -0.359 F  
HETATM   21  C   UNL     1      -7.963  19.872  67.456  1.00  0.00    -0.296 A  
HETATM   22  C   UNL     1      -7.434  18.722  68.022  1.00  0.00    -0.273 A  
HETATM   23  C   UNL     1      -8.053  17.489  67.793  1.00  0.00    -0.221 A  
HETATM   24  C   UNL     1      -9.104  19.814  66.670  1.00  0.00    -0.452 A  
ENDBRANCH   7  18
ENDBRANCH   6   7
ENDBRANCH   5   6
ENDBRANCH   4   5
ENDBRANCH   2   4
TORSDOF 5
ENDMDL
MODEL       12
REMARK 921   NORMALIZED FREE ENERGY PREDICTED BY IDOCK:   -6.14 KCAL/MOL
REMARK 922        TOTAL FREE ENERGY PREDICTED BY IDOCK:   -9.02 KCAL/MOL
REMARK 923 INTER-LIGAND FREE ENERGY PREDICTED BY IDOCK:   -8.09 KCAL/MOL
REMARK 924 INTRA-LIGAND FREE ENERGY PREDICTED BY IDOCK:   -0.93 KCAL/MOL
REMARK 927      BINDING AFFINITY PREDICTED BY RF-SCORE:    0.00 PKD
ROOT
HETATM    1  C   UNL     1     -10.416  12.186  63.700  1.00  0.00    -0.460 C  
HETATM    2  N   UNL     1     -11.700  12.839  63.441  1.00  0.00    -0.522 NA 
HETATM    3  C   UNL     1     -12.779  11.851  63.487  1.00  0.00    -0.405 C  
ENDROOT
BRANCH   2   4
HETATM    4  C   UNL     1     -11.976  13.928  64.390  1.00  0.00    -0.450 C  
BRANCH   4   5
HETATM    5  C   UNL     1     -10.733  14.706  64.840  1.00  0.00    -0.447 C  
BRANCH   5   6
HETATM    6  C   UNL     1     -10.970  15.564  66.097  1.00  0.00    -0.247 C  
BRANCH   6   7
HETATM    7  C   UNL     1     -10.138  15.129  67.334  1.00  0.00    -0.229 C  
HETATM    8  O   UNL     1      -9.674  13.767  67.065  1.00  0.00    -0.237 OA 
HETATM    9  N   UNL     1     -14.152  13.371  72.627  1.00  0.00    -0.716 NA 
HETATM   10  C   UNL     1     -11.876  13.193  69.960  1.00  0.00    -0.360 A  
HETATM   11  C   UNL     1     -10.277  12.820  67.968  1.00  0.00    -0.228 C  
HETATM   12  C   UNL     1     -11.078  13.633  68.912  1.00  0.00    -0.292 A  
HETATM   13  C   UNL     1     -13.448  13.720  71.768  1.00  0.00    -0.376 C  
HETATM   14  C   UNL     1     -10.983  14.978  68.577  1.00  0.00    -0.259 A  
HETATM   15  C   UNL     1     -12.593  14.141  70.698  1.00  0.00    -0.421 A  
HETATM   16  C   UNL     1     -12.490  15.505  70.374  1.00  0.00    -0.443 A  
HETATM   17  C   UNL     1     -11.687  15.929  69.307  1.00  0.00    -0.360 A  
BRANCH   7  18
HETATM   18  C   UNL     1      -8.912  16.039  67.526  1.00  0.00    -0.201 A  
HETATM   19  C   UNL     1      -8.365  16.275  68.804  1.00  0.00    -0.235 A  
HETATM   20  F   UNL     1      -5.594  18.490  68.036  1.00  0.00    -0.165 F  
HETATM   21  C   UNL     1      -6.660  17.697  67.872  1.00  0.00    -0.187 A  
HETATM   22  C   UNL     1      -7.164  17.480  66.598  1.00  0.00    -0.269 A  
HETATM   23  C   UNL     1      -8.279  16.653  66.425  1.00  0.00    -0.353 A  
HETATM   24  C   UNL     1      -7.247  17.097  68.976  1.00  0.00    -0.229 A  
ENDBRANCH   7  18
ENDBRANCH   6   7
ENDBRANCH   5   6
ENDBRANCH   4   5
ENDBRANCH   2   4
TORSDOF 5
ENDMDL
MODEL       13
REMARK 921   NORMALIZED FREE ENERGY PREDICTED BY IDOCK:   -6.11 KCAL/MOL
REMARK 922        TOTAL FREE ENERGY PREDICTED BY IDOCK:   -8.99 KCAL/MOL
REMARK 923 INTER-LIGAND FREE ENERGY PREDICTED BY IDOCK:   -7.80 KCAL/MOL
REMARK 924 INTRA-LIGAND FREE ENERGY PREDICTED BY IDOCK:   -1.19 KCAL/MOL
REMARK 927      BINDING AFFINITY PREDICTED BY RF-SCORE:    0.00 PKD
ROOT
HETATM    1  C   UNL     1      -5.868  14.049  70.921  1.00  0.00    -0.207 C  
HETATM    2  N   UNL     1      -6.739  14.369  69.788  1.00  0.00    -0.144 NA 
HETATM    3  C   UNL     1      -6.570  15.775  69.413  1.00  0.00    -0.174 C  
ENDROOT
BRANCH   2   4
HETATM    4  C   UNL     1      -6.485  13.506  68.624  1.00  0.00    -0.094 C  
BRANCH   4   5
HETATM    5  C   UNL     1      -7.594  13.530  67.565  1.00  0.00    -0.176 C  
BRANCH   5   6
HETATM    6  C   UNL     1      -8.949  13.018  68.086  1.00  0.00    -0.198 C  
BRANCH   6   7
HETATM    7  C   UNL     1     -10.157  13.924  67.727  1.00  0.00    -0.241 C  
HETATM    8  O   UNL     1      -9.606  15.235  67.382  1.00  0.00    -0.206 OA 
HETATM    9  N   UNL     1     -13.477  16.112  73.331  1.00  0.00    -0.605 NA 
HETATM   10  C   UNL     1     -11.539  16.065  70.404  1.00  0.00    -0.364 A  
HETATM   11  C   UNL     1      -9.993  16.235  68.344  1.00  0.00    -0.234 C  
HETATM   12  C   UNL     1     -10.911  15.546  69.279  1.00  0.00    -0.268 A  
HETATM   13  C   UNL     1     -12.970  15.708  72.364  1.00  0.00    -0.448 C  
HETATM   14  C   UNL     1     -11.042  14.211  68.916  1.00  0.00    -0.288 A  
HETATM   15  C   UNL     1     -12.331  15.213  71.181  1.00  0.00    -0.404 A  
HETATM   16  C   UNL     1     -12.480  13.865  70.811  1.00  0.00    -0.445 A  
HETATM   17  C   UNL     1     -11.831  13.357  69.678  1.00  0.00    -0.394 A  
BRANCH   7  18
HETATM   18  C   UNL     1     -10.919  13.374  66.508  1.00  0.00    -0.299 A  
HETATM   19  C   UNL     1     -10.420  12.290  65.757  1.00  0.00    -0.287 A  
HETATM   20  F   UNL     1     -12.988  11.888  63.223  1.00  0.00    -0.685 F  
HETATM   21  C   UNL     1     -12.323  12.363  64.283  1.00  0.00    -0.455 A  
HETATM   22  C   UNL     1     -12.851  13.425  65.004  1.00  0.00    -0.344 A  
HETATM   23  C   UNL     1     -12.157  13.924  66.110  1.00  0.00    -0.478 A  
HETATM   24  C   UNL     1     -11.117  11.787  64.654  1.00  0.00    -0.363 A  
ENDBRANCH   7  18
ENDBRANCH   6   7
ENDBRANCH   5   6
ENDBRANCH   4   5
ENDBRANCH   2   4
TORSDOF 5
ENDMDL
MODEL       14
REMARK 921   NORMALIZED FREE ENERGY PREDICTED BY IDOCK:   -6.05 KCAL/MOL
REMARK 922        TOTAL FREE ENERGY PREDICTED BY IDOCK:   -8.90 KCAL/MOL
REMARK 923 INTER-LIGAND FREE ENERGY PREDICTED BY IDOCK:   -8.00 KCAL/MOL
REMARK 924 INTRA-LIGAND FREE ENERGY PREDICTED BY IDOCK:   -0.91 KCAL/MOL
REMARK 927      BINDING AFFINITY PREDICTED BY RF-SCORE:    0.00 PKD
ROOT
HETATM    1  C   UNL     1     -11.823  15.101  64.214  1.00  0.00    -0.251 C  
HETATM    2  N   UNL     1     -12.526  13.819  64.277  1.00  0.00    -0.671 NA 
HETATM    3  C   UNL     1     -11.887  12.857  63.377  1.00  0.00    -0.507 C  
ENDROOT
BRANCH   2   4
HETATM    4  C   UNL     1     -12.577  13.273  65.642  1.00  0.00    -0.406 C  
BRANCH   4   5
HETATM    5  C   UNL     1     -11.427  12.318  65.984  1.00  0.00    -0.434 C  
BRANCH   5   6
HETATM    6  C   UNL     1     -11.661  11.516  67.277  1.00  0.00    -0.280 C  
BRANCH   6   7
HETATM    7  C   UNL     1     -10.681  11.862  68.430  1.00  0.00    -0.220 C  
HETATM    8  O   UNL     1      -9.343  11.493  67.965  1.00  0.00    -0.162 OA 
HETATM    9  N   UNL     1     -10.889   7.182  73.458  1.00  0.00    -0.336 NA 
HETATM   10  C   UNL     1      -9.775   9.147  70.770  1.00  0.00    -0.337 A  
HETATM   11  C   UNL     1      -8.807  10.395  68.729  1.00  0.00    -0.157 C  
HETATM   12  C   UNL     1      -9.807  10.128  69.788  1.00  0.00    -0.245 A  
HETATM   13  C   UNL     1     -10.877   8.020  72.650  1.00  0.00    -0.368 C  
HETATM   14  C   UNL     1     -10.887  10.992  69.648  1.00  0.00    -0.241 A  
HETATM   15  C   UNL     1     -10.863   9.040  71.644  1.00  0.00    -0.437 A  
HETATM   16  C   UNL     1     -11.952   9.920  71.517  1.00  0.00    -0.473 A  
HETATM   17  C   UNL     1     -11.970  10.897  70.513  1.00  0.00    -0.466 A  
BRANCH   7  18
HETATM   18  C   UNL     1     -10.696  13.370  68.738  1.00  0.00    -0.257 A  
HETATM   19  C   UNL     1      -9.518  14.143  68.685  1.00  0.00    -0.163 A  
HETATM   20  F   UNL     1     -10.749  17.443  69.561  1.00  0.00    -0.311 F  
HETATM   21  C   UNL     1     -10.732  16.132  69.292  1.00  0.00    -0.295 A  
HETATM   22  C   UNL     1     -11.913  15.406  69.344  1.00  0.00    -0.351 A  
HETATM   23  C   UNL     1     -11.897  14.036  69.066  1.00  0.00    -0.391 A  
HETATM   24  C   UNL     1      -9.536  15.514  68.958  1.00  0.00    -0.238 A  
ENDBRANCH   7  18
ENDBRANCH   6   7
ENDBRANCH   5   6
ENDBRANCH   4   5
ENDBRANCH   2   4
TORSDOF 5
ENDMDL
MODEL       15
REMARK 921   NORMALIZED FREE ENERGY PREDICTED BY IDOCK:   -6.05 KCAL/MOL
REMARK 922        TOTAL FREE ENERGY PREDICTED BY IDOCK:   -8.90 KCAL/MOL
REMARK 923 INTER-LIGAND FREE ENERGY PREDICTED BY IDOCK:   -7.75 KCAL/MOL
REMARK 924 INTRA-LIGAND FREE ENERGY PREDICTED BY IDOCK:   -1.15 KCAL/MOL
REMARK 927      BINDING AFFINITY PREDICTED BY RF-SCORE:    0.00 PKD
ROOT
HETATM    1  C   UNL     1      -8.081  10.713  65.950  1.00  0.00    -0.159 C  
HETATM    2  N   UNL     1      -9.493  11.095  65.896  1.00  0.00    -0.207 NA 
HETATM    3  C   UNL     1      -9.985  10.988  64.521  1.00  0.00    -0.310 C  
ENDROOT
BRANCH   2   4
HETATM    4  C   UNL     1     -10.329  10.281  66.792  1.00  0.00    -0.227 C  
BRANCH   4   5
HETATM    5  C   UNL     1     -11.286  11.093  67.674  1.00  0.00    -0.364 C  
BRANCH   5   6
HETATM    6  C   UNL     1     -10.576  12.165  68.522  1.00  0.00    -0.252 C  
BRANCH   6   7
HETATM    7  C   UNL     1     -11.192  13.585  68.403  1.00  0.00    -0.278 C  
HETATM    8  O   UNL     1     -12.105  13.548  67.260  1.00  0.00    -0.368 OA 
HETATM    9  N   UNL     1      -6.813  18.042  65.541  1.00  0.00    -0.453 NA 
HETATM   10  C   UNL     1      -9.584  15.948  66.059  1.00  0.00    -0.385 A  
HETATM   11  C   UNL     1     -11.635  14.386  66.186  1.00  0.00    -0.369 C  
HETATM   12  C   UNL     1     -10.425  15.058  66.714  1.00  0.00    -0.283 A  
HETATM   13  C   UNL     1      -7.553  17.323  66.082  1.00  0.00    -0.282 C  
HETATM   14  C   UNL     1     -10.172  14.628  68.010  1.00  0.00    -0.231 A  
HETATM   15  C   UNL     1      -8.458  16.426  66.737  1.00  0.00    -0.279 A  
HETATM   16  C   UNL     1      -8.203  16.007  68.055  1.00  0.00    -0.151 A  
HETATM   17  C   UNL     1      -9.059  15.100  68.695  1.00  0.00    -0.195 A  
BRANCH   7  18
HETATM   18  C   UNL     1     -11.995  13.949  69.664  1.00  0.00    -0.399 A  
HETATM   19  C   UNL     1     -12.406  12.962  70.584  1.00  0.00    -0.385 A  
HETATM   20  F   UNL     1     -14.155  14.940  73.074  1.00  0.00    -0.426 F  
HETATM   21  C   UNL     1     -13.455  14.621  71.978  1.00  0.00    -0.380 A  
HETATM   22  C   UNL     1     -13.059  15.621  71.102  1.00  0.00    -0.523 A  
HETATM   23  C   UNL     1     -12.331  15.289  69.955  1.00  0.00    -0.366 A  
HETATM   24  C   UNL     1     -13.130  13.295  71.733  1.00  0.00    -0.472 A  
ENDBRANCH   7  18
ENDBRANCH   6   7
ENDBRANCH   5   6
ENDBRANCH   4   5
ENDBRANCH   2   4
TORSDOF 5
ENDMDL
MODEL       16
REMARK 921   NORMALIZED FREE ENERGY PREDICTED BY IDOCK:   -6.01 KCAL/MOL
REMARK 922        TOTAL FREE ENERGY PREDICTED BY IDOCK:   -8.85 KCAL/MOL
REMARK 923 INTER-LIGAND FREE ENERGY PREDICTED BY IDOCK:   -8.23 KCAL/MOL
REMARK 924 INTRA-LIGAND FREE ENERGY PREDICTED BY IDOCK:   -0.63 KCAL/MOL
REMARK 927      BINDING AFFINITY PREDICTED BY RF-SCORE:    0.00 PKD
ROOT
HETATM    1  C   UNL     1     -10.340   8.668  71.822  1.00  0.00    -0.316 C  
HETATM    2  N   UNL     1     -10.861   9.221  70.571  1.00  0.00    -0.243 NA 
HETATM    3  C   UNL     1     -12.020  10.072  70.848  1.00  0.00    -0.361 C  
ENDROOT
BRANCH   2   4
HETATM    4  C   UNL     1      -9.844   9.983  69.829  1.00  0.00    -0.235 C  
BRANCH   4   5
HETATM    5  C   UNL     1     -10.417  11.013  68.848  1.00  0.00    -0.229 C  
BRANCH   5   6
HETATM    6  C   UNL     1      -9.446  12.167  68.536  1.00  0.00    -0.125 C  
BRANCH   6   7
HETATM    7  C   UNL     1     -10.141  13.506  68.169  1.00  0.00    -0.250 C  
HETATM    8  O   UNL     1      -9.093  14.527  68.149  1.00  0.00    -0.178 OA 
HETATM    9  N   UNL     1     -13.512  16.194  73.519  1.00  0.00    -0.605 NA 
HETATM   10  C   UNL     1     -11.168  15.713  70.950  1.00  0.00    -0.407 A  
HETATM   11  C   UNL     1      -9.278  15.488  69.206  1.00  0.00    -0.268 C  
HETATM   12  C   UNL     1     -10.555  15.115  69.856  1.00  0.00    -0.253 A  
HETATM   13  C   UNL     1     -13.000  15.732  72.581  1.00  0.00    -0.478 C  
HETATM   14  C   UNL     1     -11.085  13.985  69.246  1.00  0.00    -0.271 A  
HETATM   15  C   UNL     1     -12.356  15.159  71.437  1.00  0.00    -0.411 A  
HETATM   16  C   UNL     1     -12.906  14.024  70.815  1.00  0.00    -0.355 A  
HETATM   17  C   UNL     1     -12.268  13.429  69.718  1.00  0.00    -0.307 A  
BRANCH   7  18
HETATM   18  C   UNL     1     -10.784  13.432  66.772  1.00  0.00    -0.277 A  
HETATM   19  C   UNL     1     -12.037  14.023  66.507  1.00  0.00    -0.488 A  
HETATM   20  F   UNL     1     -12.508  13.238  62.995  1.00  0.00    -0.560 F  
HETATM   21  C   UNL     1     -11.951  13.305  64.211  1.00  0.00    -0.421 A  
HETATM   22  C   UNL     1     -10.712  12.721  64.430  1.00  0.00    -0.398 A  
HETATM   23  C   UNL     1     -10.130  12.788  65.700  1.00  0.00    -0.281 A  
HETATM   24  C   UNL     1     -12.616  13.961  65.236  1.00  0.00    -0.508 A  
ENDBRANCH   7  18
ENDBRANCH   6   7
ENDBRANCH   5   6
ENDBRANCH   4   5
ENDBRANCH   2   4
TORSDOF 5
ENDMDL
MODEL       17
REMARK 921   NORMALIZED FREE ENERGY PREDICTED BY IDOCK:   -5.99 KCAL/MOL
REMARK 922        TOTAL FREE ENERGY PREDICTED BY IDOCK:   -8.83 KCAL/MOL
REMARK 923 INTER-LIGAND FREE ENERGY PREDICTED BY IDOCK:   -7.89 KCAL/MOL
REMARK 924 INTRA-LIGAND FREE ENERGY PREDICTED BY IDOCK:   -0.94 KCAL/MOL
REMARK 927      BINDING AFFINITY PREDICTED BY RF-SCORE:    0.00 PKD
ROOT
HETATM    1  C   UNL     1     -10.999   9.357  71.425  1.00  0.00    -0.373 C  
HETATM    2  N   UNL     1     -12.302   9.835  70.961  1.00  0.00    -0.322 NA 
HETATM    3  C   UNL     1     -13.330   9.523  71.956  1.00  0.00    -0.452 C  
ENDROOT
BRANCH   2   4
HETATM    4  C   UNL     1     -12.300  11.279  70.677  1.00  0.00    -0.383 C  
BRANCH   4   5
HETATM    5  C   UNL     1     -11.876  11.642  69.249  1.00  0.00    -0.396 C  
BRANCH   5   6
HETATM    6  C   UNL     1     -11.591  13.143  69.058  1.00  0.00    -0.360 C  
BRANCH   6   7
HETATM    7  C   UNL     1     -10.590  13.465  67.916  1.00  0.00    -0.245 C  
HETATM    8  O   UNL     1      -9.366  12.721  68.214  1.00  0.00    -0.209 OA 
HETATM    9  N   UNL     1      -7.737  19.669  68.678  1.00  0.00    -0.348 NA 
HETATM   10  C   UNL     1      -8.160  16.189  68.494  1.00  0.00    -0.181 A  
HETATM   11  C   UNL     1      -8.274  13.610  68.520  1.00  0.00    -0.112 C  
HETATM   12  C   UNL     1      -8.808  14.975  68.306  1.00  0.00    -0.172 A  
HETATM   13  C   UNL     1      -8.249  18.640  68.492  1.00  0.00    -0.341 C  
HETATM   14  C   UNL     1     -10.142  14.907  67.925  1.00  0.00    -0.227 A  
HETATM   15  C   UNL     1      -8.877  17.370  68.280  1.00  0.00    -0.264 A  
HETATM   16  C   UNL     1     -10.224  17.309  67.880  1.00  0.00    -0.332 A  
HETATM   17  C   UNL     1     -10.864  16.075  67.705  1.00  0.00    -0.324 A  
BRANCH   7  18
HETATM   18  C   UNL     1     -11.133  12.994  66.555  1.00  0.00    -0.315 A  
HETATM   19  C   UNL     1     -10.408  12.096  65.745  1.00  0.00    -0.289 A  
HETATM   20  F   UNL     1     -12.611  11.721  62.884  1.00  0.00    -0.581 F  
HETATM   21  C   UNL     1     -12.137  12.127  64.068  1.00  0.00    -0.443 A  
HETATM   22  C   UNL     1     -12.883  13.004  64.842  1.00  0.00    -0.368 A  
HETATM   23  C   UNL     1     -12.388  13.431  66.078  1.00  0.00    -0.471 A  
HETATM   24  C   UNL     1     -10.906  11.665  64.511  1.00  0.00    -0.383 A  
ENDBRANCH   7  18
ENDBRANCH   6   7
ENDBRANCH   5   6
ENDBRANCH   4   5
ENDBRANCH   2   4
TORSDOF 5
ENDMDL
MODEL       18
REMARK 921   NORMALIZED FREE ENERGY PREDICTED BY IDOCK:   -5.97 KCAL/MOL
REMARK 922        TOTAL FREE ENERGY PREDICTED BY IDOCK:   -8.81 KCAL/MOL
REMARK 923 INTER-LIGAND FREE ENERGY PREDICTED BY IDOCK:   -7.54 KCAL/MOL
REMARK 924 INTRA-LIGAND FREE ENERGY PREDICTED BY IDOCK:   -1.27 KCAL/MOL
REMARK 927      BINDING AFFINITY PREDICTED BY RF-SCORE:    0.00 PKD
ROOT
HETATM    1  C   UNL     1     -12.843  11.783  63.520  1.00  0.00    -0.220 C  
HETATM    2  N   UNL     1     -11.769  12.617  64.061  1.00  0.00    -0.387 NA 
HETATM    3  C   UNL     1     -10.490  12.233  63.460  1.00  0.00    -0.424 C  
ENDROOT
BRANCH   2   4
HETATM    4  C   UNL     1     -12.012  14.052  63.849  1.00  0.00    -0.287 C  
BRANCH   4   5
HETATM    5  C   UNL     1     -11.334  14.967  64.876  1.00  0.00    -0.419 C  
BRANCH   5   6
HETATM    6  C   UNL     1     -11.789  14.705  66.324  1.00  0.00    -0.299 C  
BRANCH   6   7
HETATM    7  C   UNL     1     -10.632  14.399  67.313  1.00  0.00    -0.279 C  
HETATM    8  O   UNL     1      -9.654  13.599  66.574  1.00  0.00    -0.276 OA 
HETATM    9  N   UNL     1     -12.292   9.409  71.734  1.00  0.00    -0.374 NA 
HETATM   10  C   UNL     1     -10.746  11.182  69.129  1.00  0.00    -0.262 A  
HETATM   11  C   UNL     1      -9.569  12.260  67.100  1.00  0.00    -0.200 C  
HETATM   12  C   UNL     1     -10.457  12.247  68.285  1.00  0.00    -0.236 A  
HETATM   13  C   UNL     1     -12.007  10.296  71.038  1.00  0.00    -0.385 C  
HETATM   14  C   UNL     1     -11.058  13.490  68.441  1.00  0.00    -0.298 A  
HETATM   15  C   UNL     1     -11.663  11.381  70.166  1.00  0.00    -0.414 A  
HETATM   16  C   UNL     1     -12.264  12.640  70.339  1.00  0.00    -0.368 A  
HETATM   17  C   UNL     1     -11.966  13.700  69.472  1.00  0.00    -0.397 A  
BRANCH   7  18
HETATM   18  C   UNL     1      -9.951  15.696  67.787  1.00  0.00    -0.223 A  
HETATM   19  C   UNL     1     -10.701  16.845  68.108  1.00  0.00    -0.375 A  
HETATM   20  F   UNL     1      -8.104  19.189  69.076  1.00  0.00    -0.365 F  
HETATM   21  C   UNL     1      -8.700  18.063  68.665  1.00  0.00    -0.262 A  
HETATM   22  C   UNL     1      -7.929  16.949  68.367  1.00  0.00    -0.232 A  
HETATM   23  C   UNL     1      -8.549  15.772  67.936  1.00  0.00    -0.160 A  
HETATM   24  C   UNL     1     -10.081  18.020  68.546  1.00  0.00    -0.399 A  
ENDBRANCH   7  18
ENDBRANCH   6   7
ENDBRANCH   5   6
ENDBRANCH   4   5
ENDBRANCH   2   4
TORSDOF 5
ENDMDL
MODEL       19
REMARK 921   NORMALIZED FREE ENERGY PREDICTED BY IDOCK:   -5.96 KCAL/MOL
REMARK 922        TOTAL FREE ENERGY PREDICTED BY IDOCK:   -8.78 KCAL/MOL
REMARK 923 INTER-LIGAND FREE ENERGY PREDICTED BY IDOCK:   -7.81 KCAL/MOL
REMARK 924 INTRA-LIGAND FREE ENERGY PREDICTED BY IDOCK:   -0.97 KCAL/MOL
REMARK 927      BINDING AFFINITY PREDICTED BY RF-SCORE:    0.00 PKD
ROOT
HETATM    1  C   UNL     1     -10.074  11.626  64.029  1.00  0.00    -0.323 C  
HETATM    2  N   UNL     1     -11.085  12.627  63.683  1.00  0.00    -0.451 NA 
HETATM    3  C   UNL     1     -12.362  11.968  63.404  1.00  0.00    -0.523 C  
ENDROOT
BRANCH   2   4
HETATM    4  C   UNL     1     -11.261  13.634  64.740  1.00  0.00    -0.360 C  
BRANCH   4   5
HETATM    5  C   UNL     1     -12.109  13.163  65.928  1.00  0.00    -0.501 C  
BRANCH   5   6
HETATM    6  C   UNL     1     -12.002  14.082  67.159  1.00  0.00    -0.465 C  
BRANCH   6   7
HETATM    7  C   UNL     1     -11.234  13.460  68.356  1.00  0.00    -0.279 C  
HETATM    8  O   UNL     1     -11.874  12.175  68.639  1.00  0.00    -0.309 OA 
HETATM    9  N   UNL     1     -13.019  16.356  74.327  1.00  0.00    -0.602 NA 
HETATM   10  C   UNL     1     -12.612  14.017  71.741  1.00  0.00    -0.376 A  
HETATM   11  C   UNL     1     -12.527  12.186  69.923  1.00  0.00     0.072 C  
HETATM   12  C   UNL     1     -12.199  13.501  70.519  1.00  0.00    -0.433 A  
HETATM   13  C   UNL     1     -12.654  15.890  73.324  1.00  0.00    -0.527 C  
HETATM   14  C   UNL     1     -11.423  14.241  69.635  1.00  0.00    -0.334 A  
HETATM   15  C   UNL     1     -12.222  15.315  72.085  1.00  0.00    -0.457 A  
HETATM   16  C   UNL     1     -11.424  16.064  71.202  1.00  0.00    -0.470 A  
HETATM   17  C   UNL     1     -11.025  15.531  69.970  1.00  0.00    -0.331 A  
BRANCH   7  18
HETATM   18  C   UNL     1      -9.759  13.208  67.998  1.00  0.00    -0.224 A  
HETATM   19  C   UNL     1      -8.868  14.275  67.758  1.00  0.00    -0.185 A  
HETATM   20  F   UNL     1      -5.773  12.520  67.040  1.00  0.00    -0.136 F  
HETATM   21  C   UNL     1      -7.056  12.743  67.353  1.00  0.00    -0.132 A  
HETATM   22  C   UNL     1      -7.899  11.668  67.592  1.00  0.00    -0.135 A  
HETATM   23  C   UNL     1      -9.240  11.898  67.916  1.00  0.00    -0.187 A  
HETATM   24  C   UNL     1      -7.526  14.044  67.439  1.00  0.00    -0.147 A  
ENDBRANCH   7  18
ENDBRANCH   6   7
ENDBRANCH   5   6
ENDBRANCH   4   5
ENDBRANCH   2   4
TORSDOF 5
ENDMDL
MODEL       20
REMARK 921   NORMALIZED FREE ENERGY PREDICTED BY IDOCK:   -5.93 KCAL/MOL
REMARK 922        TOTAL FREE ENERGY PREDICTED BY IDOCK:   -8.75 KCAL/MOL
REMARK 923 INTER-LIGAND FREE ENERGY PREDICTED BY IDOCK:   -8.32 KCAL/MOL
REMARK 924 INTRA-LIGAND FREE ENERGY PREDICTED BY IDOCK:   -0.43 KCAL/MOL
REMARK 927      BINDING AFFINITY PREDICTED BY RF-SCORE:    0.00 PKD
ROOT
HETATM    1  C   UNL     1     -10.189  19.847  65.914  1.00  0.00    -0.451 C  
HETATM    2  N   UNL     1      -9.757  19.093  67.092  1.00  0.00    -0.317 NA 
HETATM    3  C   UNL     1     -10.139  19.811  68.310  1.00  0.00    -0.458 C  
ENDROOT
BRANCH   2   4
HETATM    4  C   UNL     1     -10.310  17.730  67.119  1.00  0.00    -0.353 C  
BRANCH   4   5
HETATM    5  C   UNL     1     -10.346  17.089  68.512  1.00  0.00    -0.359 C  
BRANCH   5   6
HETATM    6  C   UNL     1      -9.635  15.725  68.577  1.00  0.00    -0.204 C  
BRANCH   6   7
HETATM    7  C   UNL     1     -10.579  14.524  68.856  1.00  0.00    -0.249 C  
HETATM    8  O   UNL     1      -9.720  13.391  69.201  1.00  0.00     0.179 OA 
HETATM    9  N   UNL     1     -12.968  11.737  63.047  1.00  0.00    -0.356 NA 
HETATM   10  C   UNL     1     -11.238  12.188  66.069  1.00  0.00    -0.382 A  
HETATM   11  C   UNL     1      -9.791  12.357  68.200  1.00  0.00    -0.213 C  
HETATM   12  C   UNL     1     -10.816  12.815  67.234  1.00  0.00    -0.277 A  
HETATM   13  C   UNL     1     -12.626  12.226  64.047  1.00  0.00    -0.420 C  
HETATM   14  C   UNL     1     -11.306  14.057  67.618  1.00  0.00    -0.336 A  
HETATM   15  C   UNL     1     -12.190  12.830  65.271  1.00  0.00    -0.535 A  
HETATM   16  C   UNL     1     -12.702  14.081  65.660  1.00  0.00    -0.515 A  
HETATM   17  C   UNL     1     -12.257  14.702  66.835  1.00  0.00    -0.114 A  
BRANCH   7  18
HETATM   18  C   UNL     1     -11.510  14.817  70.046  1.00  0.00    -0.321 A  
HETATM   19  C   UNL     1     -12.732  14.131  70.210  1.00  0.00    -0.287 A  
HETATM   20  F   UNL     1     -14.015  15.604  73.269  1.00  0.00    -0.519 F  
HETATM   21  C   UNL     1     -13.207  15.347  72.233  1.00  0.00    -0.421 A  
HETATM   22  C   UNL     1     -12.008  16.034  72.112  1.00  0.00    -0.629 A  
HETATM   23  C   UNL     1     -11.163  15.769  71.029  1.00  0.00    -0.396 A  
HETATM   24  C   UNL     1     -13.573  14.393  71.295  1.00  0.00    -0.389 A  
ENDBRANCH   7  18
ENDBRANCH   6   7
ENDBRANCH   5   6
ENDBRANCH   4   5
ENDBRANCH   2   4
TORSDOF 5
ENDMDL
MODEL       21
REMARK 921   NORMALIZED FREE ENERGY PREDICTED BY IDOCK:   -5.89 KCAL/MOL
REMARK 922        TOTAL FREE ENERGY PREDICTED BY IDOCK:   -8.70 KCAL/MOL
REMARK 923 INTER-LIGAND FREE ENERGY PREDICTED BY IDOCK:   -7.62 KCAL/MOL
REMARK 924 INTRA-LIGAND FREE ENERGY PREDICTED BY IDOCK:   -1.08 KCAL/MOL
REMARK 927      BINDING AFFINITY PREDICTED BY RF-SCORE:    0.00 PKD
ROOT
HETATM    1  C   UNL     1     -12.627   7.787  71.791  1.00  0.00    -0.329 C  
HETATM    2  N   UNL     1     -12.013   9.091  72.043  1.00  0.00    -0.368 NA 
HETATM    3  C   UNL     1     -10.597   9.054  71.673  1.00  0.00    -0.364 C  
ENDROOT
BRANCH   2   4
HETATM    4  C   UNL     1     -12.692  10.179  71.321  1.00  0.00    -0.407 C  
BRANCH   4   5
HETATM    5  C   UNL     1     -11.763  11.038  70.453  1.00  0.00    -0.437 C  
BRANCH   5   6
HETATM    6  C   UNL     1     -12.116  10.997  68.954  1.00  0.00    -0.239 C  
BRANCH   6   7
HETATM    7  C   UNL     1     -10.898  11.165  68.006  1.00  0.00    -0.225 C  
HETATM    8  O   UNL     1      -9.814  11.722  68.816  1.00  0.00    -0.178 OA 
HETATM    9  N   UNL     1     -11.540  16.684  63.964  1.00  0.00    -1.119 NA 
HETATM   10  C   UNL     1     -10.397  14.476  66.443  1.00  0.00    -0.296 A  
HETATM   11  C   UNL     1      -9.480  13.059  68.396  1.00  0.00    -0.165 C  
HETATM   12  C   UNL     1     -10.322  13.318  67.205  1.00  0.00    -0.248 A  
HETATM   13  C   UNL     1     -11.433  15.710  64.593  1.00  0.00    -0.303 C  
HETATM   14  C   UNL     1     -11.128  12.216  66.947  1.00  0.00    -0.348 A  
HETATM   15  C   UNL     1     -11.308  14.521  65.382  1.00  0.00    -0.341 A  
HETATM   16  C   UNL     1     -12.116  13.404  65.106  1.00  0.00    -0.442 A  
HETATM   17  C   UNL     1     -12.032  12.248  65.892  1.00  0.00    -0.358 A  
BRANCH   7  18
HETATM   18  C   UNL     1     -10.443   9.807  67.442  1.00  0.00    -0.319 A  
HETATM   19  C   UNL     1      -9.592   9.725  66.321  1.00  0.00    -0.271 A  
HETATM   20  F   UNL     1      -9.212   6.136  65.929  1.00  0.00    -0.167 F  
HETATM   21  C   UNL     1      -9.605   7.319  66.419  1.00  0.00    -0.104 A  
HETATM   22  C   UNL     1     -10.435   7.360  67.530  1.00  0.00    -0.338 A  
HETATM   23  C   UNL     1     -10.848   8.594  68.041  1.00  0.00    -0.040 A  
HETATM   24  C   UNL     1      -9.174   8.490  65.814  1.00  0.00    -0.210 A  
ENDBRANCH   7  18
ENDBRANCH   6   7
ENDBRANCH   5   6
ENDBRANCH   4   5
ENDBRANCH   2   4
TORSDOF 5
ENDMDL
MODEL       22
REMARK 921   NORMALIZED FREE ENERGY PREDICTED BY IDOCK:   -5.88 KCAL/MOL
REMARK 922        TOTAL FREE ENERGY PREDICTED BY IDOCK:   -8.69 KCAL/MOL
REMARK 923 INTER-LIGAND FREE ENERGY PREDICTED BY IDOCK:   -7.79 KCAL/MOL
REMARK 924 INTRA-LIGAND FREE ENERGY PREDICTED BY IDOCK:   -0.90 KCAL/MOL
REMARK 927      BINDING AFFINITY PREDICTED BY RF-SCORE:    0.00 PKD
ROOT
HETATM    1  C   UNL     1      -8.676   8.341  65.676  1.00  0.00    -0.156 C  
HETATM    2  N   UNL     1      -8.579   9.768  65.364  1.00  0.00    -0.141 NA 
HETATM    3  C   UNL     1      -7.262  10.064  64.797  1.00  0.00    -0.136 C  
ENDROOT
BRANCH   2   4
HETATM    4  C   UNL     1      -9.635  10.214  64.442  1.00  0.00    -0.302 C  
BRANCH   4   5
HETATM    5  C   UNL     1     -10.551  11.304  65.011  1.00  0.00    -0.353 C  
BRANCH   5   6
HETATM    6  C   UNL     1     -10.613  11.311  66.549  1.00  0.00    -0.315 C  
BRANCH   6   7
HETATM    7  C   UNL     1     -11.222  12.602  67.160  1.00  0.00    -0.300 C  
HETATM    8  O   UNL     1     -12.354  12.970  66.309  1.00  0.00    -0.429 OA 
HETATM    9  N   UNL     1      -7.483  18.163  65.638  1.00  0.00    -0.544 NA 
HETATM   10  C   UNL     1     -10.110  15.837  65.760  1.00  0.00    -0.399 A  
HETATM   11  C   UNL     1     -12.108  14.210  65.617  1.00  0.00    -0.415 C  
HETATM   12  C   UNL     1     -10.807  14.695  66.131  1.00  0.00    -0.321 A  
HETATM   13  C   UNL     1      -8.101  17.231  65.960  1.00  0.00    -0.151 C  
HETATM   14  C   UNL     1     -10.294  13.789  67.051  1.00  0.00    -0.260 A  
HETATM   15  C   UNL     1      -8.861  16.077  66.342  1.00  0.00    -0.363 A  
HETATM   16  C   UNL     1      -8.342  15.172  67.284  1.00  0.00    -0.225 A  
HETATM   17  C   UNL     1      -9.056  14.020  67.639  1.00  0.00    -0.192 A  
BRANCH   7  18
HETATM   18  C   UNL     1     -11.739  12.351  68.587  1.00  0.00    -0.372 A  
HETATM   19  C   UNL     1     -11.904  11.043  69.089  1.00  0.00    -0.407 A  
HETATM   20  F   UNL     1     -13.126  11.679  72.447  1.00  0.00    -0.559 F  
HETATM   21  C   UNL     1     -12.675  11.895  71.206  1.00  0.00    -0.298 A  
HETATM   22  C   UNL     1     -12.516  13.195  70.750  1.00  0.00    -0.389 A  
HETATM   23  C   UNL     1     -12.047  13.422  69.452  1.00  0.00    -0.321 A  
HETATM   24  C   UNL     1     -12.367  10.817  70.389  1.00  0.00    -0.438 A  
ENDBRANCH   7  18
ENDBRANCH   6   7
ENDBRANCH   5   6
ENDBRANCH   4   5
ENDBRANCH   2   4
TORSDOF 5
ENDMDL
MODEL       23
REMARK 921   NORMALIZED FREE ENERGY PREDICTED BY IDOCK:   -5.84 KCAL/MOL
REMARK 922        TOTAL FREE ENERGY PREDICTED BY IDOCK:   -8.63 KCAL/MOL
REMARK 923 INTER-LIGAND FREE ENERGY PREDICTED BY IDOCK:   -7.69 KCAL/MOL
REMARK 924 INTRA-LIGAND FREE ENERGY PREDICTED BY IDOCK:   -0.94 KCAL/MOL
REMARK 927      BINDING AFFINITY PREDICTED BY RF-SCORE:    0.00 PKD
ROOT
HETATM    1  C   UNL     1      -7.523   8.962  64.335  1.00  0.00    -0.106 C  
HETATM    2  N   UNL     1      -7.946  10.200  63.679  1.00  0.00    -0.160 NA 
HETATM    3  C   UNL     1      -7.251  10.347  62.398  1.00  0.00    -0.144 C  
ENDROOT
BRANCH   2   4
HETATM    4  C   UNL     1      -9.401  10.255  63.469  1.00  0.00    -0.301 C  
BRANCH   4   5
HETATM    5  C   UNL     1     -10.134  11.247  64.381  1.00  0.00    -0.357 C  
BRANCH   5   6
HETATM    6  C   UNL     1     -10.353  10.718  65.810  1.00  0.00    -0.295 C  
BRANCH   6   7
HETATM    7  C   UNL     1     -10.979  11.751  66.786  1.00  0.00    -0.288 C  
HETATM    8  O   UNL     1     -12.281  12.115  66.226  1.00  0.00    -0.604 OA 
HETATM    9  N   UNL     1      -8.218  17.997  66.022  1.00  0.00    -0.516 NA 
HETATM   10  C   UNL     1     -10.505  15.334  66.009  1.00  0.00    -0.328 A  
HETATM   11  C   UNL     1     -12.304  13.493  65.806  1.00  0.00    -0.468 C  
HETATM   12  C   UNL     1     -10.992  14.049  66.212  1.00  0.00    -0.300 A  
HETATM   13  C   UNL     1      -8.660  16.937  66.213  1.00  0.00    -0.284 C  
HETATM   14  C   UNL     1     -10.223  13.059  66.810  1.00  0.00    -0.246 A  
HETATM   15  C   UNL     1      -9.206  15.630  66.432  1.00  0.00    -0.346 A  
HETATM   16  C   UNL     1      -8.427  14.637  67.052  1.00  0.00    -0.237 A  
HETATM   17  C   UNL     1      -8.932  13.344  67.239  1.00  0.00    -0.221 A  
BRANCH   7  18
HETATM   18  C   UNL     1     -11.196  11.136  68.180  1.00  0.00    -0.356 A  
HETATM   19  C   UNL     1     -10.713   9.851  68.500  1.00  0.00    -0.260 A  
HETATM   20  F   UNL     1     -11.777   9.487  71.950  1.00  0.00    -0.426 F  
HETATM   21  C   UNL     1     -11.586  10.019  70.737  1.00  0.00    -0.360 A  
HETATM   22  C   UNL     1     -12.067  11.291  70.463  1.00  0.00    -0.481 A  
HETATM   23  C   UNL     1     -11.870  11.848  69.196  1.00  0.00    -0.371 A  
HETATM   24  C   UNL     1     -10.905   9.297  69.769  1.00  0.00    -0.239 A  
ENDBRANCH   7  18
ENDBRANCH   6   7
ENDBRANCH   5   6
ENDBRANCH   4   5
ENDBRANCH   2   4
TORSDOF 5
ENDMDL
MODEL       24
REMARK 921   NORMALIZED FREE ENERGY PREDICTED BY IDOCK:   -5.83 KCAL/MOL
REMARK 922        TOTAL FREE ENERGY PREDICTED BY IDOCK:   -8.62 KCAL/MOL
REMARK 923 INTER-LIGAND FREE ENERGY PREDICTED BY IDOCK:   -7.80 KCAL/MOL
REMARK 924 INTRA-LIGAND FREE ENERGY PREDICTED BY IDOCK:   -0.82 KCAL/MOL
REMARK 927      BINDING AFFINITY PREDICTED BY RF-SCORE:    0.00 PKD
ROOT
HETATM    1  C   UNL     1     -10.987   9.006  71.878  1.00  0.00    -0.353 C  
HETATM    2  N   UNL     1     -11.827   9.691  70.894  1.00  0.00    -0.304 NA 
HETATM    3  C   UNL     1     -12.774  10.574  71.577  1.00  0.00    -0.452 C  
ENDROOT
BRANCH   2   4
HETATM    4  C   UNL     1     -11.037  10.460  69.920  1.00  0.00    -0.305 C  
BRANCH   4   5
HETATM    5  C   UNL     1     -11.629  11.829  69.566  1.00  0.00    -0.398 C  
BRANCH   5   6
HETATM    6  C   UNL     1     -10.563  12.887  69.222  1.00  0.00     0.117 C  
BRANCH   6   7
HETATM    7  C   UNL     1     -11.131  14.310  68.974  1.00  0.00    -0.259 C  
HETATM    8  O   UNL     1     -12.091  14.190  67.876  1.00  0.00    -0.358 OA 
HETATM    9  N   UNL     1      -6.714  18.260  65.494  1.00  0.00    -0.453 NA 
HETATM   10  C   UNL     1      -9.535  16.346  66.334  1.00  0.00    -0.320 A  
HETATM   11  C   UNL     1     -11.635  14.890  66.702  1.00  0.00    -0.261 C  
HETATM   12  C   UNL     1     -10.381  15.565  67.110  1.00  0.00    -0.272 A  
HETATM   13  C   UNL     1      -7.456  17.633  66.135  1.00  0.00    -0.299 C  
HETATM   14  C   UNL     1     -10.091  15.264  68.436  1.00  0.00    -0.220 A  
HETATM   15  C   UNL     1      -8.366  16.847  66.915  1.00  0.00    -0.244 A  
HETATM   16  C   UNL     1      -8.073  16.559  68.260  1.00  0.00    -0.179 A  
HETATM   17  C   UNL     1      -8.934  15.760  69.025  1.00  0.00    -0.246 A  
BRANCH   7  18
HETATM   18  C   UNL     1     -11.868  14.837  70.218  1.00  0.00    -0.357 A  
HETATM   19  C   UNL     1     -11.166  15.239  71.373  1.00  0.00    -0.364 A  
HETATM   20  F   UNL     1     -13.865  16.269  73.570  1.00  0.00    -0.623 F  
HETATM   21  C   UNL     1     -13.221  15.812  72.489  1.00  0.00    -0.487 A  
HETATM   22  C   UNL     1     -13.945  15.436  71.367  1.00  0.00    -0.565 A  
HETATM   23  C   UNL     1     -13.274  14.956  70.238  1.00  0.00     0.005 A  
HETATM   24  C   UNL     1     -11.837  15.724  72.500  1.00  0.00    -0.605 A  
ENDBRANCH   7  18
ENDBRANCH   6   7
ENDBRANCH   5   6
ENDBRANCH   4   5
ENDBRANCH   2   4
TORSDOF 5
ENDMDL
MODEL       25
REMARK 921   NORMALIZED FREE ENERGY PREDICTED BY IDOCK:   -5.82 KCAL/MOL
REMARK 922        TOTAL FREE ENERGY PREDICTED BY IDOCK:   -8.61 KCAL/MOL
REMARK 923 INTER-LIGAND FREE ENERGY PREDICTED BY IDOCK:   -7.92 KCAL/MOL
REMARK 924 INTRA-LIGAND FREE ENERGY PREDICTED BY IDOCK:   -0.68 KCAL/MOL
REMARK 927      BINDING AFFINITY PREDICTED BY RF-SCORE:    0.00 PKD
ROOT
HETATM    1  C   UNL     1     -10.468  12.746  64.381  1.00  0.00    -0.386 C  
HETATM    2  N   UNL     1     -11.846  13.187  64.156  1.00  0.00    -0.403 NA 
HETATM    3  C   UNL     1     -12.660  12.062  63.693  1.00  0.00    -0.490 C  
ENDROOT
BRANCH   2   4
HETATM    4  C   UNL     1     -12.448  13.781  65.359  1.00  0.00    -0.500 C  
BRANCH   4   5
HETATM    5  C   UNL     1     -11.478  14.610  66.209  1.00  0.00    -0.351 C  
BRANCH   5   6
HETATM    6  C   UNL     1     -11.989  14.876  67.638  1.00  0.00    -0.173 C  
BRANCH   6   7
HETATM    7  C   UNL     1     -11.137  14.216  68.755  1.00  0.00    -0.262 C  
HETATM    8  O   UNL     1      -9.799  14.801  68.659  1.00  0.00    -0.213 OA 
HETATM    9  N   UNL     1      -9.149   7.864  67.045  1.00  0.00    -0.132 NA 
HETATM   10  C   UNL     1      -9.083  11.286  67.827  1.00  0.00    -0.152 A  
HETATM   11  C   UNL     1      -8.825  13.819  68.256  1.00  0.00    -0.185 C  
HETATM   12  C   UNL     1      -9.564  12.536  68.194  1.00  0.00    -0.215 A  
HETATM   13  C   UNL     1      -9.521   8.914  67.385  1.00  0.00    -0.145 C  
HETATM   14  C   UNL     1     -10.900  12.744  68.511  1.00  0.00    -0.279 A  
HETATM   15  C   UNL     1      -9.977  10.211  67.788  1.00  0.00    -0.198 A  
HETATM   16  C   UNL     1     -11.328  10.411  68.122  1.00  0.00    -0.284 A  
HETATM   17  C   UNL     1     -11.796  11.682  68.480  1.00  0.00    -0.357 A  
BRANCH   7  18
HETATM   18  C   UNL     1     -11.712  14.527  70.148  1.00  0.00    -0.357 A  
HETATM   19  C   UNL     1     -12.630  13.659  70.775  1.00  0.00    -0.397 A  
HETATM   20  F   UNL     1     -13.255  15.370  73.915  1.00  0.00    -0.547 F  
HETATM   21  C   UNL     1     -12.755  15.096  72.703  1.00  0.00    -0.380 A  
HETATM   22  C   UNL     1     -11.847  15.969  72.123  1.00  0.00    -0.623 A  
HETATM   23  C   UNL     1     -11.325  15.685  70.856  1.00  0.00    -0.417 A  
HETATM   24  C   UNL     1     -13.146  13.940  72.044  1.00  0.00    -0.480 A  
ENDBRANCH   7  18
ENDBRANCH   6   7
ENDBRANCH   5   6
ENDBRANCH   4   5
ENDBRANCH   2   4
TORSDOF 5
ENDMDL
MODEL       26
REMARK 921   NORMALIZED FREE ENERGY PREDICTED BY IDOCK:   -5.81 KCAL/MOL
REMARK 922        TOTAL FREE ENERGY PREDICTED BY IDOCK:   -8.60 KCAL/MOL
REMARK 923 INTER-LIGAND FREE ENERGY PREDICTED BY IDOCK:   -7.64 KCAL/MOL
REMARK 924 INTRA-LIGAND FREE ENERGY PREDICTED BY IDOCK:   -0.96 KCAL/MOL
REMARK 927      BINDING AFFINITY PREDICTED BY RF-SCORE:    0.00 PKD
ROOT
HETATM    1  C   UNL     1      -7.813  10.096  68.128  1.00  0.00    -0.096 C  
HETATM    2  N   UNL     1      -7.984  11.346  67.386  1.00  0.00    -0.132 NA 
HETATM    3  C   UNL     1      -9.158  11.252  66.517  1.00  0.00    -0.184 C  
ENDROOT
BRANCH   2   4
HETATM    4  C   UNL     1      -8.109  12.512  68.274  1.00  0.00    -0.165 C  
BRANCH   4   5
HETATM    5  C   UNL     1      -7.928  13.864  67.572  1.00  0.00    -0.190 C  
BRANCH   5   6
HETATM    6  C   UNL     1      -8.341  15.065  68.441  1.00  0.00    -0.154 C  
BRANCH   6   7
HETATM    7  C   UNL     1      -9.696  15.709  68.042  1.00  0.00    -0.204 C  
HETATM    8  O   UNL     1     -10.621  15.451  69.145  1.00  0.00    -0.226 OA 
HETATM    9  N   UNL     1     -13.107  11.872  63.475  1.00  0.00    -0.638 NA 
HETATM   10  C   UNL     1     -12.213  13.528  66.438  1.00  0.00    -0.454 A  
HETATM   11  C   UNL     1     -11.683  14.564  68.742  1.00  0.00    -0.327 C  
HETATM   12  C   UNL     1     -11.474  14.334  67.294  1.00  0.00    -0.371 A  
HETATM   13  C   UNL     1     -12.524  12.570  64.202  1.00  0.00    -0.430 C  
HETATM   14  C   UNL     1     -10.343  15.017  66.865  1.00  0.00    -0.266 A  
HETATM   15  C   UNL     1     -11.803  13.416  65.106  1.00  0.00    -0.375 A  
HETATM   16  C   UNL     1     -10.667  14.116  64.660  1.00  0.00    -0.408 A  
HETATM   17  C   UNL     1      -9.929  14.916  65.542  1.00  0.00    -0.392 A  
BRANCH   7  18
HETATM   18  C   UNL     1      -9.555  17.231  67.863  1.00  0.00    -0.269 A  
HETATM   19  C   UNL     1      -8.301  17.869  67.953  1.00  0.00    -0.247 A  
HETATM   20  F   UNL     1      -9.181  21.341  67.368  1.00  0.00    -0.456 F  
HETATM   21  C   UNL     1      -9.300  20.017  67.523  1.00  0.00    -0.367 A  
HETATM   22  C   UNL     1     -10.550  19.424  67.417  1.00  0.00    -0.603 A  
HETATM   23  C   UNL     1     -10.676  18.041  67.581  1.00  0.00    -0.360 A  
HETATM   24  C   UNL     1      -8.174  19.251  67.783  1.00  0.00    -0.322 A  
ENDBRANCH   7  18
ENDBRANCH   6   7
ENDBRANCH   5   6
ENDBRANCH   4   5
ENDBRANCH   2   4
TORSDOF 5
ENDMDL
MODEL       27
REMARK 921   NORMALIZED FREE ENERGY PREDICTED BY IDOCK:   -5.80 KCAL/MOL
REMARK 922        TOTAL FREE ENERGY PREDICTED BY IDOCK:   -8.58 KCAL/MOL
REMARK 923 INTER-LIGAND FREE ENERGY PREDICTED BY IDOCK:   -7.63 KCAL/MOL
REMARK 924 INTRA-LIGAND FREE ENERGY PREDICTED BY IDOCK:   -0.95 KCAL/MOL
REMARK 927      BINDING AFFINITY PREDICTED BY RF-SCORE:    0.00 PKD
ROOT
HETATM    1  C   UNL     1      -9.123  10.725  64.758  1.00  0.00    -0.200 C  
HETATM    2  N   UNL     1      -9.355  10.386  66.163  1.00  0.00    -0.166 NA 
HETATM    3  C   UNL     1      -9.468   8.934  66.313  1.00  0.00    -0.239 C  
ENDROOT
BRANCH   2   4
HETATM    4  C   UNL     1      -8.298  10.901  67.047  1.00  0.00    -0.132 C  
BRANCH   4   5
HETATM    5  C   UNL     1      -8.276  12.429  67.184  1.00  0.00    -0.176 C  
BRANCH   5   6
HETATM    6  C   UNL     1      -9.073  12.945  68.396  1.00  0.00    -0.126 C  
BRANCH   6   7
HETATM    7  C   UNL     1     -10.065  14.093  68.067  1.00  0.00    -0.233 C  
HETATM    8  O   UNL     1      -9.271  15.319  67.986  1.00  0.00    -0.185 OA 
HETATM    9  N   UNL     1     -13.642  16.051  73.599  1.00  0.00    -0.428 NA 
HETATM   10  C   UNL     1     -11.396  16.060  70.900  1.00  0.00    -0.421 A  
HETATM   11  C   UNL     1      -9.604  16.231  69.050  1.00  0.00    -0.257 C  
HETATM   12  C   UNL     1     -10.729  15.596  69.774  1.00  0.00    -0.309 A  
HETATM   13  C   UNL     1     -13.094  15.699  72.634  1.00  0.00    -0.480 C  
HETATM   14  C   UNL     1     -11.030  14.368  69.197  1.00  0.00    -0.288 A  
HETATM   15  C   UNL     1     -12.404  15.265  71.455  1.00  0.00    -0.424 A  
HETATM   16  C   UNL     1     -12.724  14.028  70.867  1.00  0.00    -0.420 A  
HETATM   17  C   UNL     1     -12.033  13.572  69.737  1.00  0.00    -0.405 A  
BRANCH   7  18
HETATM   18  C   UNL     1     -10.753  13.860  66.710  1.00  0.00    -0.281 A  
HETATM   19  C   UNL     1     -10.432  14.641  65.580  1.00  0.00    -0.358 A  
HETATM   20  F   UNL     1     -12.606  13.219  63.045  1.00  0.00    -0.478 F  
HETATM   21  C   UNL     1     -12.006  13.423  64.224  1.00  0.00    -0.430 A  
HETATM   22  C   UNL     1     -12.340  12.628  65.311  1.00  0.00    -0.528 A  
HETATM   23  C   UNL     1     -11.715  12.842  66.544  1.00  0.00    -0.463 A  
HETATM   24  C   UNL     1     -11.053  14.423  64.346  1.00  0.00    -0.203 A  
ENDBRANCH   7  18
ENDBRANCH   6   7
ENDBRANCH   5   6
ENDBRANCH   4   5
ENDBRANCH   2   4
TORSDOF 5
ENDMDL
MODEL       28
REMARK 921   NORMALIZED FREE ENERGY PREDICTED BY IDOCK:   -5.79 KCAL/MOL
REMARK 922        TOTAL FREE ENERGY PREDICTED BY IDOCK:   -8.57 KCAL/MOL
REMARK 923 INTER-LIGAND FREE ENERGY PREDICTED BY IDOCK:   -7.40 KCAL/MOL
REMARK 924 INTRA-LIGAND FREE ENERGY PREDICTED BY IDOCK:   -1.17 KCAL/MOL
REMARK 927      BINDING AFFINITY PREDICTED BY RF-SCORE:    0.00 PKD
ROOT
HETATM    1  C   UNL     1     -12.804  13.957  65.146  1.00  0.00    -0.342 C  
HETATM    2  N   UNL     1     -11.651  13.433  64.412  1.00  0.00    -0.368 NA 
HETATM    3  C   UNL     1     -10.426  14.087  64.878  1.00  0.00    -0.431 C  
ENDROOT
BRANCH   2   4
HETATM    4  C   UNL     1     -11.520  11.974  64.540  1.00  0.00    -0.319 C  
BRANCH   4   5
HETATM    5  C   UNL     1     -10.552  11.519  65.638  1.00  0.00    -0.326 C  
BRANCH   5   6
HETATM    6  C   UNL     1     -11.229  11.319  67.007  1.00  0.00    -0.324 C  
BRANCH   6   7
HETATM    7  C   UNL     1     -10.364  11.757  68.219  1.00  0.00    -0.206 C  
HETATM    8  O   UNL     1      -8.977  11.435  67.879  1.00  0.00    -0.143 OA 
HETATM    9  N   UNL     1     -10.774   7.276  73.412  1.00  0.00    -0.387 NA 
HETATM   10  C   UNL     1      -9.533   9.184  70.739  1.00  0.00    -0.334 A  
HETATM   11  C   UNL     1      -8.457  10.396  68.730  1.00  0.00    -0.132 C  
HETATM   12  C   UNL     1      -9.528  10.123  69.716  1.00  0.00    -0.201 A  
HETATM   13  C   UNL     1     -10.733   8.081  72.572  1.00  0.00    -0.341 C  
HETATM   14  C   UNL     1     -10.630  10.927  69.452  1.00  0.00    -0.233 A  
HETATM   15  C   UNL     1     -10.682   9.059  71.527  1.00  0.00    -0.421 A  
HETATM   16  C   UNL     1     -11.796   9.880  71.275  1.00  0.00    -0.479 A  
HETATM   17  C   UNL     1     -11.776  10.815  70.232  1.00  0.00    -0.442 A  
BRANCH   7  18
HETATM   18  C   UNL     1     -10.473  13.274  68.459  1.00  0.00    -0.259 A  
HETATM   19  C   UNL     1     -11.725  13.909  68.592  1.00  0.00    -0.396 A  
HETATM   20  F   UNL     1     -10.759  17.368  69.117  1.00  0.00    -0.317 F  
HETATM   21  C   UNL     1     -10.667  16.048  68.910  1.00  0.00    -0.275 A  
HETATM   22  C   UNL     1      -9.417  15.457  68.795  1.00  0.00    -0.211 A  
HETATM   23  C   UNL     1      -9.320  14.080  68.575  1.00  0.00    -0.182 A  
HETATM   24  C   UNL     1     -11.821  15.286  68.817  1.00  0.00    -0.332 A  
ENDBRANCH   7  18
ENDBRANCH   6   7
ENDBRANCH   5   6
ENDBRANCH   4   5
ENDBRANCH   2   4
TORSDOF 5
ENDMDL
MODEL       29
REMARK 921   NORMALIZED FREE ENERGY PREDICTED BY IDOCK:   -5.77 KCAL/MOL
REMARK 922        TOTAL FREE ENERGY PREDICTED BY IDOCK:   -8.54 KCAL/MOL
REMARK 923 INTER-LIGAND FREE ENERGY PREDICTED BY IDOCK:   -7.72 KCAL/MOL
REMARK 924 INTRA-LIGAND FREE ENERGY PREDICTED BY IDOCK:   -0.82 KCAL/MOL
REMARK 927      BINDING AFFINITY PREDICTED BY RF-SCORE:    0.00 PKD
ROOT
HETATM    1  C   UNL     1     -10.913   9.577  70.950  1.00  0.00    -0.337 C  
HETATM    2  N   UNL     1     -12.142  10.190  70.443  1.00  0.00    -0.265 NA 
HETATM    3  C   UNL     1     -13.239   9.955  71.384  1.00  0.00    -0.400 C  
ENDROOT
BRANCH   2   4
HETATM    4  C   UNL     1     -11.990  11.633  70.200  1.00  0.00    -0.359 C  
BRANCH   4   5
HETATM    5  C   UNL     1     -11.849  12.014  68.721  1.00  0.00    -0.358 C  
BRANCH   5   6
HETATM    6  C   UNL     1     -12.007  13.523  68.460  1.00  0.00    -0.379 C  
BRANCH   6   7
HETATM    7  C   UNL     1     -11.523  13.984  67.059  1.00  0.00    -0.351 C  
HETATM    8  O   UNL     1     -12.708  14.018  66.201  1.00  0.00    -0.450 OA 
HETATM    9  N   UNL     1      -8.427   8.904  63.620  1.00  0.00    -0.172 NA 
HETATM   10  C   UNL     1     -10.748  11.359  64.575  1.00  0.00    -0.391 A  
HETATM   11  C   UNL     1     -12.634  13.020  65.165  1.00  0.00    -0.469 C  
HETATM   12  C   UNL     1     -11.299  12.397  65.315  1.00  0.00    -0.374 A  
HETATM   13  C   UNL     1      -8.893   9.798  64.203  1.00  0.00    -0.231 C  
HETATM   14  C   UNL     1     -10.629  12.967  66.390  1.00  0.00    -0.294 A  
HETATM   15  C   UNL     1      -9.479  10.888  64.926  1.00  0.00    -0.277 A  
HETATM   16  C   UNL     1      -8.789  11.470  66.004  1.00  0.00    -0.144 A  
HETATM   17  C   UNL     1      -9.365  12.510  66.744  1.00  0.00    -0.230 A  
BRANCH   7  18
HETATM   18  C   UNL     1     -10.917  15.397  67.118  1.00  0.00    -0.317 A  
HETATM   19  C   UNL     1     -10.350  16.002  65.977  1.00  0.00    -0.366 A  
HETATM   20  F   UNL     1      -9.290  19.218  67.283  1.00  0.00    -0.310 F  
HETATM   21  C   UNL     1      -9.818  17.989  67.229  1.00  0.00    -0.306 A  
HETATM   22  C   UNL     1     -10.376  17.431  68.369  1.00  0.00    -0.379 A  
HETATM   23  C   UNL     1     -10.925  16.147  68.314  1.00  0.00    -0.340 A  
HETATM   24  C   UNL     1      -9.806  17.289  66.032  1.00  0.00    -0.219 A  
ENDBRANCH   7  18
ENDBRANCH   6   7
ENDBRANCH   5   6
ENDBRANCH   4   5
ENDBRANCH   2   4
TORSDOF 5
ENDMDL
MODEL       30
REMARK 921   NORMALIZED FREE ENERGY PREDICTED BY IDOCK:   -5.72 KCAL/MOL
REMARK 922        TOTAL FREE ENERGY PREDICTED BY IDOCK:   -8.48 KCAL/MOL
REMARK 923 INTER-LIGAND FREE ENERGY PREDICTED BY IDOCK:   -7.56 KCAL/MOL
REMARK 924 INTRA-LIGAND FREE ENERGY PREDICTED BY IDOCK:   -0.93 KCAL/MOL
REMARK 927      BINDING AFFINITY PREDICTED BY RF-SCORE:    0.00 PKD
ROOT
HETATM    1  C   UNL     1     -12.100  16.116  72.208  1.00  0.00    -0.531 C  
HETATM    2  N   UNL     1     -12.962  14.935  72.292  1.00  0.00    -0.320 NA 
HETATM    3  C   UNL     1     -14.325  15.284  71.886  1.00  0.00    -0.589 C  
ENDROOT
BRANCH   2   4
HETATM    4  C   UNL     1     -12.465  13.819  71.472  1.00  0.00    -0.274 C  
BRANCH   4   5
HETATM    5  C   UNL     1     -12.616  14.028  69.960  1.00  0.00    -0.250 C  
BRANCH   5   6
HETATM    6  C   UNL     1     -11.306  13.815  69.179  1.00  0.00    -0.329 C  
BRANCH   6   7
HETATM    7  C   UNL     1     -11.243  12.481  68.388  1.00  0.00    -0.272 C  
HETATM    8  O   UNL     1     -12.283  11.616  68.947  1.00  0.00    -0.377 OA 
HETATM    9  N   UNL     1      -6.004   8.535  70.437  1.00  0.00    -0.027 NA 
HETATM   10  C   UNL     1      -9.252   9.728  69.845  1.00  0.00    -0.263 A  
HETATM   11  C   UNL     1     -11.712  10.476  69.617  1.00  0.00    -0.256 C  
HETATM   12  C   UNL     1     -10.253  10.573  69.383  1.00  0.00    -0.245 A  
HETATM   13  C   UNL     1      -6.862   9.208  70.030  1.00  0.00    -0.049 C  
HETATM   14  C   UNL     1      -9.967  11.714  68.644  1.00  0.00    -0.192 A  
HETATM   15  C   UNL     1      -7.922  10.040  69.545  1.00  0.00    -0.161 A  
HETATM   16  C   UNL     1      -7.626  11.186  68.785  1.00  0.00    -0.129 A  
HETATM   17  C   UNL     1      -8.649  12.031  68.336  1.00  0.00    -0.147 A  
BRANCH   7  18
HETATM   18  C   UNL     1     -11.539  12.706  66.895  1.00  0.00    -0.438 A  
HETATM   19  C   UNL     1     -12.268  13.830  66.452  1.00  0.00    -0.480 A  
HETATM   20  F   UNL     1     -12.328  13.315  62.859  1.00  0.00    -0.577 F  
HETATM   21  C   UNL     1     -12.070  13.122  64.159  1.00  0.00    -0.430 A  
HETATM   22  C   UNL     1     -11.341  12.010  64.556  1.00  0.00    -0.393 A  
HETATM   23  C   UNL     1     -11.074  11.806  65.913  1.00  0.00    -0.355 A  
HETATM   24  C   UNL     1     -12.530  14.037  65.094  1.00  0.00    -0.472 A  
ENDBRANCH   7  18
ENDBRANCH   6   7
ENDBRANCH   5   6
ENDBRANCH   4   5
ENDBRANCH   2   4
TORSDOF 5
ENDMDL
MODEL       31
REMARK 921   NORMALIZED FREE ENERGY PREDICTED BY IDOCK:   -5.65 KCAL/MOL
REMARK 922        TOTAL FREE ENERGY PREDICTED BY IDOCK:   -8.39 KCAL/MOL
REMARK 923 INTER-LIGAND FREE ENERGY PREDICTED BY IDOCK:   -7.78 KCAL/MOL
REMARK 924 INTRA-LIGAND FREE ENERGY PREDICTED BY IDOCK:   -0.61 KCAL/MOL
REMARK 927      BINDING AFFINITY PREDICTED BY RF-SCORE:    0.00 PKD
ROOT
HETATM    1  C   UNL     1     -13.000  10.483  71.706  1.00  0.00    -0.476 C  
HETATM    2  N   UNL     1     -11.806  10.706  70.889  1.00  0.00    -0.341 NA 
HETATM    3  C   UNL     1     -10.919   9.545  70.976  1.00  0.00    -0.353 C  
ENDROOT
BRANCH   2   4
HETATM    4  C   UNL     1     -12.134  10.983  69.481  1.00  0.00    -0.329 C  
BRANCH   4   5
HETATM    5  C   UNL     1     -11.282  12.085  68.839  1.00  0.00    -0.315 C  
BRANCH   5   6
HETATM    6  C   UNL     1     -12.116  13.230  68.234  1.00  0.00    -0.246 C  
BRANCH   6   7
HETATM    7  C   UNL     1     -11.592  13.750  66.869  1.00  0.00    -0.370 C  
HETATM    8  O   UNL     1     -12.752  13.827  65.980  1.00  0.00    -0.444 OA 
HETATM    9  N   UNL     1      -8.410   8.818  63.296  1.00  0.00    -0.183 NA 
HETATM   10  C   UNL     1     -10.753  11.236  64.293  1.00  0.00    -0.416 A  
HETATM   11  C   UNL     1     -12.651  12.875  64.903  1.00  0.00    -0.458 C  
HETATM   12  C   UNL     1     -11.321  12.242  65.063  1.00  0.00    -0.376 A  
HETATM   13  C   UNL     1      -8.891   9.687  63.904  1.00  0.00    -0.228 C  
HETATM   14  C   UNL     1     -10.681  12.762  66.181  1.00  0.00    -0.297 A  
HETATM   15  C   UNL     1      -9.495  10.745  64.658  1.00  0.00    -0.297 A  
HETATM   16  C   UNL     1      -8.834  11.276  65.780  1.00  0.00    -0.154 A  
HETATM   17  C   UNL     1      -9.428  12.285  66.550  1.00  0.00    -0.238 A  
BRANCH   7  18
HETATM   18  C   UNL     1     -10.984  15.158  67.008  1.00  0.00    -0.322 A  
HETATM   19  C   UNL     1     -11.059  15.874  68.221  1.00  0.00    -0.345 A  
HETATM   20  F   UNL     1      -9.332  18.953  67.380  1.00  0.00    -0.286 F  
HETATM   21  C   UNL     1      -9.860  17.729  67.262  1.00  0.00    -0.312 A  
HETATM   22  C   UNL     1      -9.758  17.051  66.056  1.00  0.00    -0.243 A  
HETATM   23  C   UNL     1     -10.311  15.773  65.931  1.00  0.00    -0.372 A  
HETATM   24  C   UNL     1     -10.500  17.149  68.347  1.00  0.00    -0.376 A  
ENDBRANCH   7  18
ENDBRANCH   6   7
ENDBRANCH   5   6
ENDBRANCH   4   5
ENDBRANCH   2   4
TORSDOF 5
ENDMDL
MODEL       32
REMARK 921   NORMALIZED FREE ENERGY PREDICTED BY IDOCK:   -5.63 KCAL/MOL
REMARK 922        TOTAL FREE ENERGY PREDICTED BY IDOCK:   -8.37 KCAL/MOL
REMARK 923 INTER-LIGAND FREE ENERGY PREDICTED BY IDOCK:   -7.33 KCAL/MOL
REMARK 924 INTRA-LIGAND FREE ENERGY PREDICTED BY IDOCK:   -1.04 KCAL/MOL
REMARK 927      BINDING AFFINITY PREDICTED BY RF-SCORE:    0.00 PKD
ROOT
HETATM    1  C   UNL     1     -11.714  16.148  71.599  1.00  0.00    -0.484 C  
HETATM    2  N   UNL     1     -11.981  14.860  72.242  1.00  0.00    -0.339 NA 
HETATM    3  C   UNL     1     -12.962  15.034  73.315  1.00  0.00    -0.525 C  
ENDROOT
BRANCH   2   4
HETATM    4  C   UNL     1     -12.456  13.845  71.288  1.00  0.00    -0.359 C  
BRANCH   4   5
HETATM    5  C   UNL     1     -12.348  14.261  69.816  1.00  0.00    -0.342 C  
BRANCH   5   6
HETATM    6  C   UNL     1     -11.391  13.375  68.998  1.00  0.00    -0.335 C  
BRANCH   6   7
HETATM    7  C   UNL     1     -10.979  13.974  67.626  1.00  0.00    -0.269 C  
HETATM    8  O   UNL     1     -12.220  14.225  66.893  1.00  0.00    -0.438 OA 
HETATM    9  N   UNL     1      -8.685   9.147  63.307  1.00  0.00    -0.178 NA 
HETATM   10  C   UNL     1     -10.669  11.645  64.773  1.00  0.00    -0.365 A  
HETATM   11  C   UNL     1     -12.329  13.371  65.738  1.00  0.00    -0.460 C  
HETATM   12  C   UNL     1     -11.053  12.620  65.684  1.00  0.00    -0.327 A  
HETATM   13  C   UNL     1      -9.012   9.993  64.038  1.00  0.00    -0.240 C  
HETATM   14  C   UNL     1     -10.246  12.981  66.756  1.00  0.00    -0.246 A  
HETATM   15  C   UNL     1      -9.428  11.023  64.942  1.00  0.00    -0.270 A  
HETATM   16  C   UNL     1      -8.599  11.394  66.016  1.00  0.00    -0.094 A  
HETATM   17  C   UNL     1      -9.008  12.373  66.931  1.00  0.00    -0.212 A  
BRANCH   7  18
HETATM   18  C   UNL     1     -10.234  15.309  67.805  1.00  0.00    -0.237 A  
HETATM   19  C   UNL     1      -9.098  15.411  68.635  1.00  0.00    -0.195 A  
HETATM   20  F   UNL     1      -8.220  18.914  68.276  1.00  0.00    -0.303 F  
HETATM   21  C   UNL     1      -8.865  17.751  68.121  1.00  0.00    -0.267 A  
HETATM   22  C   UNL     1      -9.973  17.687  67.288  1.00  0.00    -0.322 A  
HETATM   23  C   UNL     1     -10.650  16.475  67.127  1.00  0.00    -0.270 A  
HETATM   24  C   UNL     1      -8.418  16.622  68.791  1.00  0.00    -0.255 A  
ENDBRANCH   7  18
ENDBRANCH   6   7
ENDBRANCH   5   6
ENDBRANCH   4   5
ENDBRANCH   2   4
TORSDOF 5
ENDMDL
MODEL       33
REMARK 921   NORMALIZED FREE ENERGY PREDICTED BY IDOCK:   -5.57 KCAL/MOL
REMARK 922        TOTAL FREE ENERGY PREDICTED BY IDOCK:   -8.28 KCAL/MOL
REMARK 923 INTER-LIGAND FREE ENERGY PREDICTED BY IDOCK:   -7.62 KCAL/MOL
REMARK 924 INTRA-LIGAND FREE ENERGY PREDICTED BY IDOCK:   -0.67 KCAL/MOL
REMARK 927      BINDING AFFINITY PREDICTED BY RF-SCORE:    0.00 PKD
ROOT
HETATM    1  C   UNL     1     -12.087  13.035  63.405  1.00  0.00    -0.515 C  
HETATM    2  N   UNL     1     -11.214  13.118  64.576  1.00  0.00    -0.337 NA 
HETATM    3  C   UNL     1     -10.713  14.485  64.728  1.00  0.00    -0.393 C  
ENDROOT
BRANCH   2   4
HETATM    4  C   UNL     1     -11.890  12.691  65.811  1.00  0.00    -0.444 C  
BRANCH   4   5
HETATM    5  C   UNL     1     -11.138  11.615  66.605  1.00  0.00    -0.364 C  
BRANCH   5   6
HETATM    6  C   UNL     1     -11.911  11.112  67.838  1.00  0.00    -0.162 C  
BRANCH   6   7
HETATM    7  C   UNL     1     -11.206  11.394  69.193  1.00  0.00    -0.272 C  
HETATM    8  O   UNL     1      -9.793  11.618  68.888  1.00  0.00    -0.154 OA 
HETATM    9  N   UNL     1     -10.149   5.627  72.777  1.00  0.00    -0.176 NA 
HETATM   10  C   UNL     1      -9.591   8.541  70.899  1.00  0.00    -0.228 A  
HETATM   11  C   UNL     1      -8.966  10.572  69.434  1.00  0.00    -0.093 C  
HETATM   12  C   UNL     1      -9.888   9.705  70.204  1.00  0.00    -0.310 A  
HETATM   13  C   UNL     1     -10.369   6.625  72.219  1.00  0.00    -0.197 C  
HETATM   14  C   UNL     1     -11.188  10.186  70.099  1.00  0.00    -0.377 A  
HETATM   15  C   UNL     1     -10.635   7.845  71.517  1.00  0.00    -0.262 A  
HETATM   16  C   UNL     1     -11.951   8.334  71.428  1.00  0.00    -0.333 A  
HETATM   17  C   UNL     1     -12.233   9.505  70.713  1.00  0.00    -0.269 A  
BRANCH   7  18
HETATM   18  C   UNL     1     -11.773  12.659  69.860  1.00  0.00    -0.320 A  
HETATM   19  C   UNL     1     -12.537  12.587  71.044  1.00  0.00    -0.350 A  
HETATM   20  F   UNL     1     -13.294  16.082  71.663  1.00  0.00    -0.508 F  
HETATM   21  C   UNL     1     -12.800  14.980  71.085  1.00  0.00    -0.373 A  
HETATM   22  C   UNL     1     -12.045  15.092  69.927  1.00  0.00    -0.376 A  
HETATM   23  C   UNL     1     -11.531  13.941  69.321  1.00  0.00    -0.348 A  
HETATM   24  C   UNL     1     -13.045  13.738  71.653  1.00  0.00    -0.456 A  
ENDBRANCH   7  18
ENDBRANCH   6   7
ENDBRANCH   5   6
ENDBRANCH   4   5
ENDBRANCH   2   4
TORSDOF 5
ENDMDL
MODEL       34
REMARK 921   NORMALIZED FREE ENERGY PREDICTED BY IDOCK:   -5.56 KCAL/MOL
REMARK 922        TOTAL FREE ENERGY PREDICTED BY IDOCK:   -8.27 KCAL/MOL
REMARK 923 INTER-LIGAND FREE ENERGY PREDICTED BY IDOCK:   -7.12 KCAL/MOL
REMARK 924 INTRA-LIGAND FREE ENERGY PREDICTED BY IDOCK:   -1.15 KCAL/MOL
REMARK 927      BINDING AFFINITY PREDICTED BY RF-SCORE:    0.00 PKD
ROOT
HETATM    1  C   UNL     1      -8.329   6.628  67.326  1.00  0.00    -0.120 C  
HETATM    2  N   UNL     1      -9.235   7.295  66.389  1.00  0.00    -0.169 NA 
HETATM    3  C   UNL     1     -10.566   7.418  66.986  1.00  0.00    -0.344 C  
ENDROOT
BRANCH   2   4
HETATM    4  C   UNL     1      -8.744   8.621  65.982  1.00  0.00    -0.170 C  
BRANCH   4   5
HETATM    5  C   UNL     1      -9.809   9.724  66.007  1.00  0.00    -0.342 C  
BRANCH   5   6
HETATM    6  C   UNL     1      -9.448  10.902  66.931  1.00  0.00    -0.198 C  
BRANCH   6   7
HETATM    7  C   UNL     1     -10.672  11.622  67.558  1.00  0.00    -0.215 C  
HETATM    8  O   UNL     1     -11.769  11.488  66.600  1.00  0.00    -0.486 OA 
HETATM    9  N   UNL     1     -10.196  18.453  66.992  1.00  0.00    -0.360 NA 
HETATM   10  C   UNL     1     -11.270  15.136  66.581  1.00  0.00    -0.274 A  
HETATM   11  C   UNL     1     -12.141  12.765  66.048  1.00  0.00    -0.395 C  
HETATM   12  C   UNL     1     -11.311  13.760  66.765  1.00  0.00    -0.345 A  
HETATM   13  C   UNL     1     -10.274  17.303  67.155  1.00  0.00    -0.319 C  
HETATM   14  C   UNL     1     -10.474  13.115  67.668  1.00  0.00    -0.225 A  
HETATM   15  C   UNL     1     -10.364  15.885  67.339  1.00  0.00    -0.288 A  
HETATM   16  C   UNL     1      -9.524  15.241  68.265  1.00  0.00    -0.205 A  
HETATM   17  C   UNL     1      -9.573  13.850  68.429  1.00  0.00    -0.215 A  
BRANCH   7  18
HETATM   18  C   UNL     1     -11.089  10.955  68.881  1.00  0.00    -0.307 A  
HETATM   19  C   UNL     1     -12.353  11.193  69.458  1.00  0.00    -0.262 A  
HETATM   20  F   UNL     1     -12.212   9.142  72.449  1.00  0.00    -0.414 F  
HETATM   21  C   UNL     1     -11.852   9.722  71.298  1.00  0.00    -0.399 A  
HETATM   22  C   UNL     1     -10.603   9.456  70.755  1.00  0.00    -0.371 A  
HETATM   23  C   UNL     1     -10.226  10.063  69.554  1.00  0.00    -0.255 A  
HETATM   24  C   UNL     1     -12.733  10.580  70.656  1.00  0.00    -0.441 A  
ENDBRANCH   7  18
ENDBRANCH   6   7
ENDBRANCH   5   6
ENDBRANCH   4   5
ENDBRANCH   2   4
TORSDOF 5
ENDMDL
MODEL       35
REMARK 921   NORMALIZED FREE ENERGY PREDICTED BY IDOCK:   -5.56 KCAL/MOL
REMARK 922        TOTAL FREE ENERGY PREDICTED BY IDOCK:   -8.27 KCAL/MOL
REMARK 923 INTER-LIGAND FREE ENERGY PREDICTED BY IDOCK:   -7.36 KCAL/MOL
REMARK 924 INTRA-LIGAND FREE ENERGY PREDICTED BY IDOCK:   -0.90 KCAL/MOL
REMARK 927      BINDING AFFINITY PREDICTED BY RF-SCORE:    0.00 PKD
ROOT
HETATM    1  C   UNL     1     -10.253  11.824  63.330  1.00  0.00    -0.449 C  
HETATM    2  N   UNL     1     -11.451  12.661  63.423  1.00  0.00    -0.488 NA 
HETATM    3  C   UNL     1     -12.646  11.815  63.454  1.00  0.00    -0.336 C  
ENDROOT
BRANCH   2   4
HETATM    4  C   UNL     1     -11.429  13.542  64.601  1.00  0.00    -0.358 C  
BRANCH   4   5
HETATM    5  C   UNL     1     -12.284  13.050  65.775  1.00  0.00    -0.511 C  
BRANCH   5   6
HETATM    6  C   UNL     1     -11.508  12.166  66.769  1.00  0.00    -0.418 C  
BRANCH   6   7
HETATM    7  C   UNL     1     -11.313  12.800  68.172  1.00  0.00    -0.288 C  
HETATM    8  O   UNL     1     -12.321  13.854  68.296  1.00  0.00    -0.254 OA 
HETATM    9  N   UNL     1      -5.936  17.075  68.329  1.00  0.00    -0.132 NA 
HETATM   10  C   UNL     1      -9.221  15.839  68.395  1.00  0.00    -0.192 A  
HETATM   11  C   UNL     1     -11.711  15.158  68.355  1.00  0.00    -0.316 C  
HETATM   12  C   UNL     1     -10.251  14.908  68.371  1.00  0.00    -0.231 A  
HETATM   13  C   UNL     1      -6.815  16.312  68.347  1.00  0.00    -0.137 C  
HETATM   14  C   UNL     1     -10.004  13.543  68.298  1.00  0.00    -0.237 A  
HETATM   15  C   UNL     1      -7.901  15.378  68.353  1.00  0.00    -0.129 A  
HETATM   16  C   UNL     1      -7.643  13.997  68.293  1.00  0.00    -0.135 A  
HETATM   17  C   UNL     1      -8.696  13.073  68.260  1.00  0.00    -0.173 A  
BRANCH   7  18
HETATM   18  C   UNL     1     -11.545  11.763  69.286  1.00  0.00    -0.378 A  
HETATM   19  C   UNL     1     -12.381  12.042  70.387  1.00  0.00    -0.317 A  
HETATM   20  F   UNL     1     -12.175   8.955  72.285  1.00  0.00    -0.396 F  
HETATM   21  C   UNL     1     -11.976   9.858  71.317  1.00  0.00    -0.402 A  
HETATM   22  C   UNL     1     -11.155   9.544  70.244  1.00  0.00    -0.317 A  
HETATM   23  C   UNL     1     -10.944  10.487  69.233  1.00  0.00    -0.291 A  
HETATM   24  C   UNL     1     -12.596  11.096  71.395  1.00  0.00    -0.479 A  
ENDBRANCH   7  18
ENDBRANCH   6   7
ENDBRANCH   5   6
ENDBRANCH   4   5
ENDBRANCH   2   4
TORSDOF 5
ENDMDL
MODEL       36
REMARK 921   NORMALIZED FREE ENERGY PREDICTED BY IDOCK:   -5.55 KCAL/MOL
REMARK 922        TOTAL FREE ENERGY PREDICTED BY IDOCK:   -8.26 KCAL/MOL
REMARK 923 INTER-LIGAND FREE ENERGY PREDICTED BY IDOCK:   -7.28 KCAL/MOL
REMARK 924 INTRA-LIGAND FREE ENERGY PREDICTED BY IDOCK:   -0.99 KCAL/MOL
REMARK 927      BINDING AFFINITY PREDICTED BY RF-SCORE:    0.00 PKD
ROOT
HETATM    1  C   UNL     1     -10.177  10.457  65.462  1.00  0.00    -0.246 C  
HETATM    2  N   UNL     1     -10.507  11.756  64.872  1.00  0.00    -0.273 NA 
HETATM    3  C   UNL     1     -10.333  11.701  63.419  1.00  0.00    -0.435 C  
ENDROOT
BRANCH   2   4
HETATM    4  C   UNL     1     -11.874  12.188  65.198  1.00  0.00    -0.298 C  
BRANCH   4   5
HETATM    5  C   UNL     1     -11.948  13.439  66.083  1.00  0.00    -0.460 C  
BRANCH   5   6
HETATM    6  C   UNL     1     -10.656  13.703  66.878  1.00  0.00    -0.271 C  
BRANCH   6   7
HETATM    7  C   UNL     1     -10.849  14.594  68.135  1.00  0.00    -0.252 C  
HETATM    8  O   UNL     1     -11.718  15.700  67.731  1.00  0.00    -0.221 OA 
HETATM    9  N   UNL     1      -5.356  18.541  69.343  1.00  0.00    -0.199 NA 
HETATM   10  C   UNL     1      -8.608  17.508  68.518  1.00  0.00    -0.276 A  
HETATM   11  C   UNL     1     -11.015  16.958  67.765  1.00  0.00    -0.212 C  
HETATM   12  C   UNL     1      -9.675  16.643  68.312  1.00  0.00    -0.244 A  
HETATM   13  C   UNL     1      -6.275  17.842  69.197  1.00  0.00    -0.230 C  
HETATM   14  C   UNL     1      -9.573  15.280  68.561  1.00  0.00    -0.211 A  
HETATM   15  C   UNL     1      -7.405  16.983  69.000  1.00  0.00    -0.225 A  
HETATM   16  C   UNL     1      -7.299  15.607  69.268  1.00  0.00    -0.207 A  
HETATM   17  C   UNL     1      -8.383  14.748  69.044  1.00  0.00    -0.144 A  
BRANCH   7  18
HETATM   18  C   UNL     1     -11.540  13.814  69.267  1.00  0.00    -0.362 A  
HETATM   19  C   UNL     1     -11.507  12.405  69.315  1.00  0.00    -0.349 A  
HETATM   20  F   UNL     1     -13.398  11.713  72.335  1.00  0.00    -0.599 F  
HETATM   21  C   UNL     1     -12.795  12.389  71.349  1.00  0.00    -0.260 A  
HETATM   22  C   UNL     1     -12.840  13.776  71.341  1.00  0.00    -0.449 A  
HETATM   23  C   UNL     1     -12.213  14.483  70.311  1.00  0.00    -0.391 A  
HETATM   24  C   UNL     1     -12.129  11.697  70.348  1.00  0.00    -0.462 A  
ENDBRANCH   7  18
ENDBRANCH   6   7
ENDBRANCH   5   6
ENDBRANCH   4   5
ENDBRANCH   2   4
TORSDOF 5
ENDMDL
MODEL       37
REMARK 921   NORMALIZED FREE ENERGY PREDICTED BY IDOCK:   -5.53 KCAL/MOL
REMARK 922        TOTAL FREE ENERGY PREDICTED BY IDOCK:   -8.23 KCAL/MOL
REMARK 923 INTER-LIGAND FREE ENERGY PREDICTED BY IDOCK:   -7.80 KCAL/MOL
REMARK 924 INTRA-LIGAND FREE ENERGY PREDICTED BY IDOCK:   -0.43 KCAL/MOL
REMARK 927      BINDING AFFINITY PREDICTED BY RF-SCORE:    0.00 PKD
ROOT
HETATM    1  C   UNL     1     -12.731  15.620  71.364  1.00  0.00    -0.471 C  
HETATM    2  N   UNL     1     -12.661  14.222  71.795  1.00  0.00    -0.337 NA 
HETATM    3  C   UNL     1     -13.925  13.831  72.422  1.00  0.00    -0.548 C  
ENDROOT
BRANCH   2   4
HETATM    4  C   UNL     1     -12.348  13.309  70.685  1.00  0.00    -0.339 C  
BRANCH   4   5
HETATM    5  C   UNL     1     -11.459  13.919  69.595  1.00  0.00    -0.310 C  
BRANCH   5   6
HETATM    6  C   UNL     1     -10.695  12.868  68.769  1.00  0.00    -0.249 C  
BRANCH   6   7
HETATM    7  C   UNL     1     -10.024  13.427  67.485  1.00  0.00    -0.230 C  
HETATM    8  O   UNL     1      -8.668  12.879  67.451  1.00  0.00    -0.177 OA 
HETATM    9  N   UNL     1      -8.022  19.953  68.276  1.00  0.00    -0.287 NA 
HETATM   10  C   UNL     1      -7.956  16.471  67.830  1.00  0.00    -0.171 A  
HETATM   11  C   UNL     1      -7.680  13.914  67.617  1.00  0.00    -0.184 C  
HETATM   12  C   UNL     1      -8.443  15.182  67.656  1.00  0.00    -0.171 A  
HETATM   13  C   UNL     1      -8.405  18.868  68.095  1.00  0.00    -0.309 C  
HETATM   14  C   UNL     1      -9.803  14.920  67.549  1.00  0.00    -0.217 A  
HETATM   15  C   UNL     1      -8.869  17.529  67.888  1.00  0.00    -0.247 A  
HETATM   16  C   UNL     1     -10.247  17.273  67.765  1.00  0.00    -0.332 A  
HETATM   17  C   UNL     1     -10.719  15.964  67.600  1.00  0.00    -0.312 A  
BRANCH   7  18
HETATM   18  C   UNL     1     -10.774  12.967  66.222  1.00  0.00    -0.290 A  
HETATM   19  C   UNL     1     -12.124  13.310  66.003  1.00  0.00    -0.491 A  
HETATM   20  F   UNL     1     -12.790  11.729  62.804  1.00  0.00    -0.532 F  
HETATM   21  C   UNL     1     -12.139  12.132  63.903  1.00  0.00    -0.488 A  
HETATM   22  C   UNL     1     -10.808  11.783  64.079  1.00  0.00    -0.446 A  
HETATM   23  C   UNL     1     -10.129  12.201  65.227  1.00  0.00    -0.291 A  
HETATM   24  C   UNL     1     -12.802  12.897  64.852  1.00  0.00    -0.370 A  
ENDBRANCH   7  18
ENDBRANCH   6   7
ENDBRANCH   5   6
ENDBRANCH   4   5
ENDBRANCH   2   4
TORSDOF 5
ENDMDL
MODEL       38
REMARK 921   NORMALIZED FREE ENERGY PREDICTED BY IDOCK:   -5.53 KCAL/MOL
REMARK 922        TOTAL FREE ENERGY PREDICTED BY IDOCK:   -8.23 KCAL/MOL
REMARK 923 INTER-LIGAND FREE ENERGY PREDICTED BY IDOCK:   -7.36 KCAL/MOL
REMARK 924 INTRA-LIGAND FREE ENERGY PREDICTED BY IDOCK:   -0.87 KCAL/MOL
REMARK 927      BINDING AFFINITY PREDICTED BY RF-SCORE:    0.00 PKD
ROOT
HETATM    1  C   UNL     1      -8.274  19.043  68.263  1.00  0.00    -0.329 C  
HETATM    2  N   UNL     1      -9.399  18.714  67.387  1.00  0.00    -0.280 NA 
HETATM    3  C   UNL     1      -9.800  19.899  66.626  1.00  0.00    -0.435 C  
ENDROOT
BRANCH   2   4
HETATM    4  C   UNL     1      -9.090  17.608  66.468  1.00  0.00    -0.265 C  
BRANCH   4   5
HETATM    5  C   UNL     1     -10.092  16.448  66.515  1.00  0.00    -0.304 C  
BRANCH   5   6
HETATM    6  C   UNL     1     -11.003  16.476  67.756  1.00  0.00    -0.252 C  
BRANCH   6   7
HETATM    7  C   UNL     1     -10.705  15.359  68.793  1.00  0.00    -0.241 C  
HETATM    8  O   UNL     1      -9.306  15.521  69.189  1.00  0.00    -0.214 OA 
HETATM    9  N   UNL     1      -9.783   9.250  65.784  1.00  0.00    -0.286 NA 
HETATM   10  C   UNL     1      -9.186  12.231  67.540  1.00  0.00    -0.181 A  
HETATM   11  C   UNL     1      -8.505  14.407  68.751  1.00  0.00    -0.120 C  
HETATM   12  C   UNL     1      -9.460  13.453  68.140  1.00  0.00    -0.218 A  
HETATM   13  C   UNL     1      -9.994  10.260  66.324  1.00  0.00    -0.235 C  
HETATM   14  C   UNL     1     -10.746  13.977  68.185  1.00  0.00    -0.254 A  
HETATM   15  C   UNL     1     -10.244  11.511  66.976  1.00  0.00    -0.244 A  
HETATM   16  C   UNL     1     -11.551  12.028  67.031  1.00  0.00    -0.387 A  
HETATM   17  C   UNL     1     -11.805  13.268  67.632  1.00  0.00    -0.400 A  
BRANCH   7  18
HETATM   18  C   UNL     1     -11.592  15.511  70.041  1.00  0.00    -0.356 A  
HETATM   19  C   UNL     1     -12.981  15.269  69.990  1.00  0.00    -0.026 A  
HETATM   20  F   UNL     1     -13.980  15.914  73.420  1.00  0.00    -0.539 F  
HETATM   21  C   UNL     1     -13.211  15.780  72.332  1.00  0.00    -0.462 A  
HETATM   22  C   UNL     1     -11.847  16.016  72.424  1.00  0.00    -0.639 A  
HETATM   23  C   UNL     1     -11.042  15.878  71.288  1.00  0.00    -0.197 A  
HETATM   24  C   UNL     1     -13.784  15.401  71.128  1.00  0.00    -0.497 A  
ENDBRANCH   7  18
ENDBRANCH   6   7
ENDBRANCH   5   6
ENDBRANCH   4   5
ENDBRANCH   2   4
TORSDOF 5
ENDMDL
MODEL       39
REMARK 921   NORMALIZED FREE ENERGY PREDICTED BY IDOCK:   -5.50 KCAL/MOL
REMARK 922        TOTAL FREE ENERGY PREDICTED BY IDOCK:   -8.20 KCAL/MOL
REMARK 923 INTER-LIGAND FREE ENERGY PREDICTED BY IDOCK:   -7.42 KCAL/MOL
REMARK 924 INTRA-LIGAND FREE ENERGY PREDICTED BY IDOCK:   -0.77 KCAL/MOL
REMARK 927      BINDING AFFINITY PREDICTED BY RF-SCORE:    0.00 PKD
ROOT
HETATM    1  C   UNL     1      -8.529  15.220  69.253  1.00  0.00    -0.238 C  
HETATM    2  N   UNL     1      -7.975  14.391  68.182  1.00  0.00    -0.126 NA 
HETATM    3  C   UNL     1      -7.002  15.163  67.407  1.00  0.00    -0.163 C  
ENDROOT
BRANCH   2   4
HETATM    4  C   UNL     1      -7.347  13.161  68.692  1.00  0.00    -0.102 C  
BRANCH   4   5
HETATM    5  C   UNL     1      -7.952  11.866  68.137  1.00  0.00    -0.151 C  
BRANCH   5   6
HETATM    6  C   UNL     1      -8.763  11.074  69.180  1.00  0.00    -0.002 C  
BRANCH   6   7
HETATM    7  C   UNL     1     -10.174  10.641  68.698  1.00  0.00    -0.182 C  
HETATM    8  O   UNL     1      -9.975   9.509  67.792  1.00  0.00    -0.158 OA 
HETATM    9  N   UNL     1     -12.641  14.863  63.870  1.00  0.00    -0.760 NA 
HETATM   10  C   UNL     1     -11.374  12.013  65.482  1.00  0.00    -0.381 A  
HETATM   11  C   UNL     1     -10.347   9.848  66.441  1.00  0.00    -0.176 C  
HETATM   12  C   UNL     1     -10.900  11.220  66.519  1.00  0.00    -0.319 A  
HETATM   13  C   UNL     1     -12.273  14.167  64.728  1.00  0.00    -0.440 C  
HETATM   14  C   UNL     1     -10.836  11.683  67.827  1.00  0.00    -0.264 A  
HETATM   15  C   UNL     1     -11.805  13.311  65.777  1.00  0.00    -0.428 A  
HETATM   16  C   UNL     1     -11.757  13.781  67.102  1.00  0.00    -0.417 A  
HETATM   17  C   UNL     1     -11.266  12.969  68.132  1.00  0.00    -0.305 A  
BRANCH   7  18
HETATM   18  C   UNL     1     -11.046  10.179  69.879  1.00  0.00    -0.346 A  
HETATM   19  C   UNL     1     -10.585   9.215  70.800  1.00  0.00    -0.324 A  
HETATM   20  F   UNL     1     -13.401   8.943  73.073  1.00  0.00    -0.445 F  
HETATM   21  C   UNL     1     -12.641   9.344  72.047  1.00  0.00    -0.384 A  
HETATM   22  C   UNL     1     -13.124  10.302  71.168  1.00  0.00    -0.481 A  
HETATM   23  C   UNL     1     -12.332  10.720  70.094  1.00  0.00    -0.401 A  
HETATM   24  C   UNL     1     -11.376   8.801  71.876  1.00  0.00    -0.431 A  
ENDBRANCH   7  18
ENDBRANCH   6   7
ENDBRANCH   5   6
ENDBRANCH   4   5
ENDBRANCH   2   4
TORSDOF 5
ENDMDL
MODEL       40
REMARK 921   NORMALIZED FREE ENERGY PREDICTED BY IDOCK:   -5.44 KCAL/MOL
REMARK 922        TOTAL FREE ENERGY PREDICTED BY IDOCK:   -8.11 KCAL/MOL
REMARK 923 INTER-LIGAND FREE ENERGY PREDICTED BY IDOCK:   -7.20 KCAL/MOL
REMARK 924 INTRA-LIGAND FREE ENERGY PREDICTED BY IDOCK:   -0.91 KCAL/MOL
REMARK 927      BINDING AFFINITY PREDICTED BY RF-SCORE:    0.00 PKD
ROOT
HETATM    1  C   UNL     1     -12.041  15.128  64.084  1.00  0.00    -0.176 C  
HETATM    2  N   UNL     1     -12.669  13.855  64.445  1.00  0.00    -0.655 NA 
HETATM    3  C   UNL     1     -12.045  12.763  63.695  1.00  0.00    -0.543 C  
ENDROOT
BRANCH   2   4
HETATM    4  C   UNL     1     -12.592  13.581  65.888  1.00  0.00    -0.396 C  
BRANCH   4   5
HETATM    5  C   UNL     1     -11.547  12.527  66.277  1.00  0.00    -0.449 C  
BRANCH   5   6
HETATM    6  C   UNL     1     -11.730  11.982  67.705  1.00  0.00    -0.379 C  
BRANCH   6   7
HETATM    7  C   UNL     1     -10.454  11.337  68.311  1.00  0.00    -0.196 C  
HETATM    8  O   UNL     1      -9.559  12.438  68.666  1.00  0.00    -0.147 OA 
HETATM    9  N   UNL     1      -6.340   8.744  63.456  1.00  0.00    -0.088 NA 
HETATM   10  C   UNL     1      -7.593  10.760  66.044  1.00  0.00    -0.130 A  
HETATM   11  C   UNL     1      -8.370  12.430  67.852  1.00  0.00    -0.165 C  
HETATM   12  C   UNL     1      -8.474  11.211  67.018  1.00  0.00    -0.146 A  
HETATM   13  C   UNL     1      -7.046   9.121  64.302  1.00  0.00    -0.095 C  
HETATM   14  C   UNL     1      -9.664  10.548  67.295  1.00  0.00    -0.197 A  
HETATM   15  C   UNL     1      -7.918   9.599  65.334  1.00  0.00    -0.120 A  
HETATM   16  C   UNL     1      -9.113   8.915  65.619  1.00  0.00    -0.269 A  
HETATM   17  C   UNL     1      -9.994   9.391  66.599  1.00  0.00    -0.326 A  
BRANCH   7  18
HETATM   18  C   UNL     1     -10.788  10.542  69.587  1.00  0.00    -0.320 A  
HETATM   19  C   UNL     1     -12.060  10.620  70.190  1.00  0.00    -0.414 A  
HETATM   20  F   UNL     1     -11.684   8.386  73.025  1.00  0.00    -0.420 F  
HETATM   21  C   UNL     1     -11.397   9.078  71.915  1.00  0.00    -0.368 A  
HETATM   22  C   UNL     1     -10.137   8.967  71.345  1.00  0.00    -0.399 A  
HETATM   23  C   UNL     1      -9.836   9.690  70.187  1.00  0.00    -0.310 A  
HETATM   24  C   UNL     1     -12.363   9.892  71.344  1.00  0.00    -0.498 A  
ENDBRANCH   7  18
ENDBRANCH   6   7
ENDBRANCH   5   6
ENDBRANCH   4   5
ENDBRANCH   2   4
TORSDOF 5
ENDMDL
MODEL       41
REMARK 921   NORMALIZED FREE ENERGY PREDICTED BY IDOCK:   -5.43 KCAL/MOL
REMARK 922        TOTAL FREE ENERGY PREDICTED BY IDOCK:   -8.10 KCAL/MOL
REMARK 923 INTER-LIGAND FREE ENERGY PREDICTED BY IDOCK:   -7.01 KCAL/MOL
REMARK 924 INTRA-LIGAND FREE ENERGY PREDICTED BY IDOCK:   -1.10 KCAL/MOL
REMARK 927      BINDING AFFINITY PREDICTED BY RF-SCORE:    0.00 PKD
ROOT
HETATM    1  C   UNL     1     -12.218  15.286  69.210  1.00  0.00    -0.184 C  
HETATM    2  N   UNL     1     -11.687  14.700  70.442  1.00  0.00    -0.284 NA 
HETATM    3  C   UNL     1     -12.125  15.487  71.596  1.00  0.00    -0.401 C  
ENDROOT
BRANCH   2   4
HETATM    4  C   UNL     1     -12.086  13.295  70.612  1.00  0.00    -0.280 C  
BRANCH   4   5
HETATM    5  C   UNL     1     -12.276  12.527  69.298  1.00  0.00    -0.087 C  
BRANCH   5   6
HETATM    6  C   UNL     1     -11.362  11.295  69.171  1.00  0.00    -0.349 C  
BRANCH   6   7
HETATM    7  C   UNL     1     -10.361  11.360  67.986  1.00  0.00    -0.184 C  
HETATM    8  O   UNL     1      -9.101  11.866  68.533  1.00  0.00    -0.184 OA 
HETATM    9  N   UNL     1     -11.511  16.805  63.957  1.00  0.00    -1.028 NA 
HETATM   10  C   UNL     1     -10.006  14.592  66.229  1.00  0.00    -0.320 A  
HETATM   11  C   UNL     1      -8.786  13.168  68.003  1.00  0.00    -0.191 C  
HETATM   12  C   UNL     1      -9.841  13.450  67.002  1.00  0.00    -0.250 A  
HETATM   13  C   UNL     1     -11.332  15.843  64.587  1.00  0.00    -0.322 C  
HETATM   14  C   UNL     1     -10.745  12.396  66.957  1.00  0.00    -0.268 A  
HETATM   15  C   UNL     1     -11.114  14.668  65.378  1.00  0.00    -0.349 A  
HETATM   16  C   UNL     1     -12.026  13.599  65.317  1.00  0.00    -0.395 A  
HETATM   17  C   UNL     1     -11.847  12.460  66.112  1.00  0.00    -0.442 A  
BRANCH   7  18
HETATM   18  C   UNL     1     -10.114   9.961  67.392  1.00  0.00    -0.254 A  
HETATM   19  C   UNL     1      -9.318   9.782  66.241  1.00  0.00    -0.230 A  
HETATM   20  F   UNL     1      -9.442   6.181  65.799  1.00  0.00    -0.145 F  
HETATM   21  C   UNL     1      -9.654   7.399  66.314  1.00  0.00    -0.051 A  
HETATM   22  C   UNL     1     -10.434   7.535  67.453  1.00  0.00    -0.367 A  
HETATM   23  C   UNL     1     -10.659   8.806  67.991  1.00  0.00    -0.218 A  
HETATM   24  C   UNL     1      -9.089   8.510  65.707  1.00  0.00    -0.222 A  
ENDBRANCH   7  18
ENDBRANCH   6   7
ENDBRANCH   5   6
ENDBRANCH   4   5
ENDBRANCH   2   4
TORSDOF 5
ENDMDL
MODEL       42
REMARK 921   NORMALIZED FREE ENERGY PREDICTED BY IDOCK:   -5.42 KCAL/MOL
REMARK 922        TOTAL FREE ENERGY PREDICTED BY IDOCK:   -8.09 KCAL/MOL
REMARK 923 INTER-LIGAND FREE ENERGY PREDICTED BY IDOCK:   -7.28 KCAL/MOL
REMARK 924 INTRA-LIGAND FREE ENERGY PREDICTED BY IDOCK:   -0.80 KCAL/MOL
REMARK 927      BINDING AFFINITY PREDICTED BY RF-SCORE:    0.00 PKD
ROOT
HETATM    1  C   UNL     1     -11.781   9.511  71.133  1.00  0.00    -0.363 C  
HETATM    2  N   UNL     1     -12.455  10.697  70.601  1.00  0.00    -0.343 NA 
HETATM    3  C   UNL     1     -13.096  11.435  71.691  1.00  0.00    -0.393 C  
ENDROOT
BRANCH   2   4
HETATM    4  C   UNL     1     -11.537  11.582  69.867  1.00  0.00    -0.308 C  
BRANCH   4   5
HETATM    5  C   UNL     1     -11.661  11.495  68.341  1.00  0.00    -0.375 C  
BRANCH   5   6
HETATM    6  C   UNL     1     -11.664  12.870  67.648  1.00  0.00    -0.422 C  
BRANCH   6   7
HETATM    7  C   UNL     1     -10.340  13.222  66.918  1.00  0.00    -0.255 C  
HETATM    8  O   UNL     1      -9.265  13.035  67.893  1.00  0.00    -0.192 OA 
HETATM    9  N   UNL     1      -9.460  20.012  66.338  1.00  0.00    -0.404 NA 
HETATM   10  C   UNL     1      -9.043  16.662  67.302  1.00  0.00    -0.225 A  
HETATM   11  C   UNL     1      -8.637  14.287  68.228  1.00  0.00    -0.176 C  
HETATM   12  C   UNL     1      -9.276  15.294  67.349  1.00  0.00    -0.201 A  
HETATM   13  C   UNL     1      -9.612  18.858  66.369  1.00  0.00    -0.351 C  
HETATM   14  C   UNL     1     -10.245  14.686  66.561  1.00  0.00    -0.282 A  
HETATM   15  C   UNL     1      -9.806  17.440  66.424  1.00  0.00    -0.311 A  
HETATM   16  C   UNL     1     -10.778  16.830  65.612  1.00  0.00    -0.199 A  
HETATM   17  C   UNL     1     -11.005  15.449  65.681  1.00  0.00    -0.330 A  
BRANCH   7  18
HETATM   18  C   UNL     1     -10.095  12.278  65.727  1.00  0.00    -0.274 A  
HETATM   19  C   UNL     1     -10.888  12.343  64.563  1.00  0.00    -0.358 A  
HETATM   20  F   UNL     1      -9.423   9.732  62.512  1.00  0.00    -0.281 F  
HETATM   21  C   UNL     1      -9.637  10.555  63.545  1.00  0.00    -0.326 A  
HETATM   22  C   UNL     1      -8.830  10.468  64.670  1.00  0.00    -0.211 A  
HETATM   23  C   UNL     1      -9.054  11.326  65.752  1.00  0.00    -0.216 A  
HETATM   24  C   UNL     1     -10.660  11.489  63.479  1.00  0.00    -0.487 A  
ENDBRANCH   7  18
ENDBRANCH   6   7
ENDBRANCH   5   6
ENDBRANCH   4   5
ENDBRANCH   2   4
TORSDOF 5
ENDMDL
MODEL       43
REMARK 921   NORMALIZED FREE ENERGY PREDICTED BY IDOCK:   -5.35 KCAL/MOL
REMARK 922        TOTAL FREE ENERGY PREDICTED BY IDOCK:   -8.00 KCAL/MOL
REMARK 923 INTER-LIGAND FREE ENERGY PREDICTED BY IDOCK:   -6.87 KCAL/MOL
REMARK 924 INTRA-LIGAND FREE ENERGY PREDICTED BY IDOCK:   -1.12 KCAL/MOL
REMARK 927      BINDING AFFINITY PREDICTED BY RF-SCORE:    0.00 PKD
ROOT
HETATM    1  C   UNL     1     -12.674  11.855  63.367  1.00  0.00    -0.366 C  
HETATM    2  N   UNL     1     -11.731  12.573  64.225  1.00  0.00    -0.356 NA 
HETATM    3  C   UNL     1     -10.384  12.500  63.655  1.00  0.00    -0.350 C  
ENDROOT
BRANCH   2   4
HETATM    4  C   UNL     1     -12.115  13.979  64.427  1.00  0.00    -0.458 C  
BRANCH   4   5
HETATM    5  C   UNL     1     -11.878  14.501  65.849  1.00  0.00    -0.334 C  
BRANCH   5   6
HETATM    6  C   UNL     1     -12.134  13.445  66.940  1.00  0.00    -0.406 C  
BRANCH   6   7
HETATM    7  C   UNL     1     -11.016  13.350  68.014  1.00  0.00    -0.244 C  
HETATM    8  O   UNL     1      -9.793  13.851  67.386  1.00  0.00    -0.230 OA 
HETATM    9  N   UNL     1      -8.725   6.916  68.766  1.00  0.00    -0.130 NA 
HETATM   10  C   UNL     1      -8.877  10.336  67.988  1.00  0.00    -0.122 A  
HETATM   11  C   UNL     1      -8.815  12.804  67.234  1.00  0.00    -0.198 C  
HETATM   12  C   UNL     1      -9.410  11.614  67.886  1.00  0.00    -0.174 A  
HETATM   13  C   UNL     1      -9.135   8.003  68.702  1.00  0.00    -0.140 C  
HETATM   14  C   UNL     1     -10.675  11.923  68.372  1.00  0.00    -0.248 A  
HETATM   15  C   UNL     1      -9.641   9.341  68.606  1.00  0.00    -0.152 A  
HETATM   16  C   UNL     1     -10.916   9.649  69.113  1.00  0.00    -0.177 A  
HETATM   17  C   UNL     1     -11.440  10.943  68.992  1.00  0.00    -0.371 A  
BRANCH   7  18
HETATM   18  C   UNL     1     -11.343  14.232  69.232  1.00  0.00    -0.322 A  
HETATM   19  C   UNL     1     -10.491  15.285  69.626  1.00  0.00    -0.279 A  
HETATM   20  F   UNL     1     -12.235  16.616  72.518  1.00  0.00    -0.495 F  
HETATM   21  C   UNL     1     -11.949  15.851  71.457  1.00  0.00    -0.471 A  
HETATM   22  C   UNL     1     -12.816  14.831  71.093  1.00  0.00    -0.406 A  
HETATM   23  C   UNL     1     -12.518  14.030  69.987  1.00  0.00    -0.339 A  
HETATM   24  C   UNL     1     -10.793  16.090  70.729  1.00  0.00    -0.105 A  
ENDBRANCH   7  18
ENDBRANCH   6   7
ENDBRANCH   5   6
ENDBRANCH   4   5
ENDBRANCH   2   4
TORSDOF 5
ENDMDL
MODEL       44
REMARK 921   NORMALIZED FREE ENERGY PREDICTED BY IDOCK:   -5.34 KCAL/MOL
REMARK 922        TOTAL FREE ENERGY PREDICTED BY IDOCK:   -7.98 KCAL/MOL
REMARK 923 INTER-LIGAND FREE ENERGY PREDICTED BY IDOCK:   -6.98 KCAL/MOL
REMARK 924 INTRA-LIGAND FREE ENERGY PREDICTED BY IDOCK:   -1.00 KCAL/MOL
REMARK 927      BINDING AFFINITY PREDICTED BY RF-SCORE:    0.00 PKD
ROOT
HETATM    1  C   UNL     1      -8.345   9.020  63.595  1.00  0.00    -0.177 C  
HETATM    2  N   UNL     1      -8.885  10.329  63.967  1.00  0.00    -0.203 NA 
HETATM    3  C   UNL     1      -9.336  11.039  62.769  1.00  0.00    -0.346 C  
ENDROOT
BRANCH   2   4
HETATM    4  C   UNL     1      -9.989  10.226  64.935  1.00  0.00    -0.323 C  
BRANCH   4   5
HETATM    5  C   UNL     1     -10.381  11.556  65.590  1.00  0.00    -0.308 C  
BRANCH   5   6
HETATM    6  C   UNL     1     -11.123  11.383  66.928  1.00  0.00    -0.356 C  
BRANCH   6   7
HETATM    7  C   UNL     1     -10.307  11.823  68.173  1.00  0.00    -0.200 C  
HETATM    8  O   UNL     1      -8.908  11.506  67.887  1.00  0.00    -0.141 OA 
HETATM    9  N   UNL     1     -10.907   7.338  73.344  1.00  0.00    -0.371 NA 
HETATM   10  C   UNL     1      -9.568   9.251  70.723  1.00  0.00    -0.341 A  
HETATM   11  C   UNL     1      -8.418  10.468  68.758  1.00  0.00    -0.141 C  
HETATM   12  C   UNL     1      -9.526  10.191  69.701  1.00  0.00    -0.226 A  
HETATM   13  C   UNL     1     -10.836   8.144  72.507  1.00  0.00    -0.361 C  
HETATM   14  C   UNL     1     -10.619  10.992  69.395  1.00  0.00    -0.212 A  
HETATM   15  C   UNL     1     -10.747   9.123  71.464  1.00  0.00    -0.437 A  
HETATM   16  C   UNL     1     -11.852   9.940  71.170  1.00  0.00    -0.472 A  
HETATM   17  C   UNL     1     -11.794  10.876  70.129  1.00  0.00    -0.438 A  
BRANCH   7  18
HETATM   18  C   UNL     1     -10.430  13.339  68.409  1.00  0.00    -0.261 A  
HETATM   19  C   UNL     1     -11.685  13.983  68.417  1.00  0.00    -0.389 A  
HETATM   20  F   UNL     1     -10.755  17.432  69.058  1.00  0.00    -0.314 F  
HETATM   21  C   UNL     1     -10.651  16.113  68.853  1.00  0.00    -0.275 A  
HETATM   22  C   UNL     1      -9.400  15.514  68.863  1.00  0.00    -0.222 A  
HETATM   23  C   UNL     1      -9.290  14.136  68.647  1.00  0.00    -0.152 A  
HETATM   24  C   UNL     1     -11.795  15.359  68.639  1.00  0.00    -0.317 A  
ENDBRANCH   7  18
ENDBRANCH   6   7
ENDBRANCH   5   6
ENDBRANCH   4   5
ENDBRANCH   2   4
TORSDOF 5
ENDMDL
MODEL       45
REMARK 921   NORMALIZED FREE ENERGY PREDICTED BY IDOCK:   -5.22 KCAL/MOL
REMARK 922        TOTAL FREE ENERGY PREDICTED BY IDOCK:   -7.83 KCAL/MOL
REMARK 923 INTER-LIGAND FREE ENERGY PREDICTED BY IDOCK:   -7.26 KCAL/MOL
REMARK 924 INTRA-LIGAND FREE ENERGY PREDICTED BY IDOCK:   -0.56 KCAL/MOL
REMARK 927      BINDING AFFINITY PREDICTED BY RF-SCORE:    0.00 PKD
ROOT
HETATM    1  C   UNL     1     -13.332  15.121  71.125  1.00  0.00    -0.467 C  
HETATM    2  N   UNL     1     -12.682  13.832  71.367  1.00  0.00    -0.361 NA 
HETATM    3  C   UNL     1     -13.517  13.010  72.246  1.00  0.00    -0.547 C  
ENDROOT
BRANCH   2   4
HETATM    4  C   UNL     1     -12.398  13.104  70.120  1.00  0.00    -0.213 C  
BRANCH   4   5
HETATM    5  C   UNL     1     -11.596  13.906  69.088  1.00  0.00    -0.359 C  
BRANCH   5   6
HETATM    6  C   UNL     1     -12.279  13.988  67.711  1.00  0.00    -0.209 C  
BRANCH   6   7
HETATM    7  C   UNL     1     -11.299  14.166  66.520  1.00  0.00    -0.341 C  
HETATM    8  O   UNL     1     -12.123  14.272  65.315  1.00  0.00    -0.374 OA 
HETATM    9  N   UNL     1      -8.351   8.226  64.720  1.00  0.00    -0.148 NA 
HETATM   10  C   UNL     1     -10.320  11.132  64.650  1.00  0.00    -0.393 A  
HETATM   11  C   UNL     1     -11.927  13.141  64.445  1.00  0.00    -0.397 C  
HETATM   12  C   UNL     1     -10.858  12.338  65.080  1.00  0.00    -0.340 A  
HETATM   13  C   UNL     1      -8.790   9.255  65.042  1.00  0.00    -0.198 C  
HETATM   14  C   UNL     1     -10.460  12.935  66.270  1.00  0.00    -0.282 A  
HETATM   15  C   UNL     1      -9.345  10.514  65.440  1.00  0.00    -0.255 A  
HETATM   16  C   UNL     1      -8.927  11.121  66.638  1.00  0.00    -0.175 A  
HETATM   17  C   UNL     1      -9.488  12.333  67.061  1.00  0.00    -0.204 A  
BRANCH   7  18
HETATM   18  C   UNL     1     -10.475  15.457  66.669  1.00  0.00    -0.293 A  
HETATM   19  C   UNL     1     -10.966  16.563  67.392  1.00  0.00    -0.121 A  
HETATM   20  F   UNL     1      -8.238  18.937  67.074  1.00  0.00    -0.252 F  
HETATM   21  C   UNL     1      -8.957  17.814  66.948  1.00  0.00    -0.255 A  
HETATM   22  C   UNL     1      -8.437  16.743  66.237  1.00  0.00    -0.342 A  
HETATM   23  C   UNL     1      -9.187  15.571  66.102  1.00  0.00    -0.379 A  
HETATM   24  C   UNL     1     -10.212  17.733  67.532  1.00  0.00    -0.356 A  
ENDBRANCH   7  18
ENDBRANCH   6   7
ENDBRANCH   5   6
ENDBRANCH   4   5
ENDBRANCH   2   4
TORSDOF 5
ENDMDL
MODEL       46
REMARK 921   NORMALIZED FREE ENERGY PREDICTED BY IDOCK:   -5.18 KCAL/MOL
REMARK 922        TOTAL FREE ENERGY PREDICTED BY IDOCK:   -7.78 KCAL/MOL
REMARK 923 INTER-LIGAND FREE ENERGY PREDICTED BY IDOCK:   -6.55 KCAL/MOL
REMARK 924 INTRA-LIGAND FREE ENERGY PREDICTED BY IDOCK:   -1.23 KCAL/MOL
REMARK 927      BINDING AFFINITY PREDICTED BY RF-SCORE:    0.00 PKD
ROOT
HETATM    1  C   UNL     1      -7.974   7.734  66.931  1.00  0.00    -0.112 C  
HETATM    2  N   UNL     1      -9.103   7.905  66.015  1.00  0.00    -0.161 NA 
HETATM    3  C   UNL     1     -10.359   7.901  66.768  1.00  0.00    -0.287 C  
ENDROOT
BRANCH   2   4
HETATM    4  C   UNL     1      -8.998   9.139  65.221  1.00  0.00    -0.198 C  
BRANCH   4   5
HETATM    5  C   UNL     1     -10.199  10.083  65.358  1.00  0.00    -0.226 C  
BRANCH   5   6
HETATM    6  C   UNL     1      -9.838  11.567  65.157  1.00  0.00    -0.294 C  
BRANCH   6   7
HETATM    7  C   UNL     1      -9.521  12.331  66.471  1.00  0.00    -0.236 C  
HETATM    8  O   UNL     1      -8.109  12.084  66.766  1.00  0.00    -0.156 OA 
HETATM    9  N   UNL     1     -11.893   9.014  72.001  1.00  0.00    -0.366 NA 
HETATM   10  C   UNL     1      -9.721  10.436  69.638  1.00  0.00    -0.158 A  
HETATM   11  C   UNL     1      -7.954  11.302  67.967  1.00  0.00    -0.119 C  
HETATM   12  C   UNL     1      -9.324  11.136  68.506  1.00  0.00    -0.190 A  
HETATM   13  C   UNL     1     -11.534   9.626  71.079  1.00  0.00    -0.371 C  
HETATM   14  C   UNL     1     -10.242  11.755  67.666  1.00  0.00    -0.216 A  
HETATM   15  C   UNL     1     -11.086  10.365  69.936  1.00  0.00    -0.367 A  
HETATM   16  C   UNL     1     -12.019  11.001  69.098  1.00  0.00    -0.394 A  
HETATM   17  C   UNL     1     -11.600  11.695  67.956  1.00  0.00    -0.383 A  
BRANCH   7  18
HETATM   18  C   UNL     1      -9.729  13.846  66.295  1.00  0.00    -0.304 A  
HETATM   19  C   UNL     1      -9.010  14.782  67.066  1.00  0.00    -0.258 A  
HETATM   20  F   UNL     1     -10.290  17.935  65.807  1.00  0.00    -0.349 F  
HETATM   21  C   UNL     1     -10.106  16.618  65.961  1.00  0.00    -0.340 A  
HETATM   22  C   UNL     1     -10.825  15.729  65.176  1.00  0.00    -0.444 A  
HETATM   23  C   UNL     1     -10.635  14.353  65.338  1.00  0.00    -0.380 A  
HETATM   24  C   UNL     1      -9.195  16.157  66.900  1.00  0.00    -0.246 A  
ENDBRANCH   7  18
ENDBRANCH   6   7
ENDBRANCH   5   6
ENDBRANCH   4   5
ENDBRANCH   2   4
TORSDOF 5
ENDMDL
MODEL       47
REMARK 921   NORMALIZED FREE ENERGY PREDICTED BY IDOCK:   -5.17 KCAL/MOL
REMARK 922        TOTAL FREE ENERGY PREDICTED BY IDOCK:   -7.76 KCAL/MOL
REMARK 923 INTER-LIGAND FREE ENERGY PREDICTED BY IDOCK:   -7.18 KCAL/MOL
REMARK 924 INTRA-LIGAND FREE ENERGY PREDICTED BY IDOCK:   -0.58 KCAL/MOL
REMARK 927      BINDING AFFINITY PREDICTED BY RF-SCORE:    0.00 PKD
ROOT
HETATM    1  C   UNL     1     -10.327  11.481  63.614  1.00  0.00    -0.417 C  
HETATM    2  N   UNL     1     -11.334  12.516  63.369  1.00  0.00    -0.467 NA 
HETATM    3  C   UNL     1     -12.657  11.902  63.239  1.00  0.00    -0.344 C  
ENDROOT
BRANCH   2   4
HETATM    4  C   UNL     1     -11.357  13.537  64.427  1.00  0.00    -0.382 C  
BRANCH   4   5
HETATM    5  C   UNL     1     -11.976  13.065  65.749  1.00  0.00    -0.482 C  
BRANCH   5   6
HETATM    6  C   UNL     1     -12.273  14.214  66.731  1.00  0.00    -0.429 C  
BRANCH   6   7
HETATM    7  C   UNL     1     -11.252  14.341  67.893  1.00  0.00    -0.285 C  
HETATM    8  O   UNL     1     -11.914  15.111  68.947  1.00  0.00    -0.308 OA 
HETATM    9  N   UNL     1      -6.461  19.091  66.587  1.00  0.00    -0.187 NA 
HETATM   10  C   UNL     1      -9.186  17.403  68.021  1.00  0.00    -0.266 A  
HETATM   11  C   UNL     1     -11.282  16.392  69.136  1.00  0.00    -0.275 C  
HETATM   12  C   UNL     1     -10.108  16.387  68.233  1.00  0.00    -0.248 A  
HETATM   13  C   UNL     1      -7.224  18.240  66.808  1.00  0.00    -0.212 C  
HETATM   14  C   UNL     1     -10.058  15.192  67.527  1.00  0.00    -0.232 A  
HETATM   15  C   UNL     1      -8.176  17.202  67.074  1.00  0.00    -0.234 A  
HETATM   16  C   UNL     1      -8.110  15.989  66.367  1.00  0.00    -0.255 A  
HETATM   17  C   UNL     1      -9.056  14.979  66.588  1.00  0.00    -0.309 A  
BRANCH   7  18
HETATM   18  C   UNL     1     -10.876  12.958  68.455  1.00  0.00    -0.283 A  
HETATM   19  C   UNL     1      -9.675  12.317  68.088  1.00  0.00    -0.213 A  
HETATM   20  F   UNL     1      -9.864   9.228  69.985  1.00  0.00    -0.171 F  
HETATM   21  C   UNL     1     -10.188  10.432  69.495  1.00  0.00    -0.231 A  
HETATM   22  C   UNL     1     -11.373  11.036  69.888  1.00  0.00    -0.364 A  
HETATM   23  C   UNL     1     -11.713  12.292  69.376  1.00  0.00    -0.392 A  
HETATM   24  C   UNL     1      -9.333  11.064  68.605  1.00  0.00    -0.196 A  
ENDBRANCH   7  18
ENDBRANCH   6   7
ENDBRANCH   5   6
ENDBRANCH   4   5
ENDBRANCH   2   4
TORSDOF 5
ENDMDL
MODEL       48
REMARK 921   NORMALIZED FREE ENERGY PREDICTED BY IDOCK:   -5.16 KCAL/MOL
REMARK 922        TOTAL FREE ENERGY PREDICTED BY IDOCK:   -7.76 KCAL/MOL
REMARK 923 INTER-LIGAND FREE ENERGY PREDICTED BY IDOCK:   -6.92 KCAL/MOL
REMARK 924 INTRA-LIGAND FREE ENERGY PREDICTED BY IDOCK:   -0.84 KCAL/MOL
REMARK 927      BINDING AFFINITY PREDICTED BY RF-SCORE:    0.00 PKD
ROOT
HETATM    1  C   UNL     1     -12.556  14.157  65.705  1.00  0.00    -0.447 C  
HETATM    2  N   UNL     1     -12.556  12.710  65.483  1.00  0.00    -0.605 NA 
HETATM    3  C   UNL     1     -12.357  12.425  64.061  1.00  0.00    -0.488 C  
ENDROOT
BRANCH   2   4
HETATM    4  C   UNL     1     -11.531  12.020  66.281  1.00  0.00    -0.345 C  
BRANCH   4   5
HETATM    5  C   UNL     1     -11.611  12.297  67.788  1.00  0.00    -0.416 C  
BRANCH   5   6
HETATM    6  C   UNL     1     -11.736  11.019  68.639  1.00  0.00    -0.367 C  
BRANCH   6   7
HETATM    7  C   UNL     1     -10.380  10.353  68.995  1.00  0.00    -0.214 C  
HETATM    8  O   UNL     1      -9.414  11.439  69.164  1.00  0.00    -0.037 OA 
HETATM    9  N   UNL     1      -7.314   7.662  63.466  1.00  0.00    -0.084 NA 
HETATM   10  C   UNL     1      -8.014   9.712  66.228  1.00  0.00    -0.108 A  
HETATM   11  C   UNL     1      -8.403  11.404  68.138  1.00  0.00    -0.149 C  
HETATM   12  C   UNL     1      -8.686  10.184  67.349  1.00  0.00    -0.125 A  
HETATM   13  C   UNL     1      -7.838   8.056  64.428  1.00  0.00    -0.139 C  
HETATM   14  C   UNL     1      -9.812   9.545  67.853  1.00  0.00    -0.186 A  
HETATM   15  C   UNL     1      -8.489   8.554  65.603  1.00  0.00    -0.170 A  
HETATM   16  C   UNL     1      -9.619   7.894  66.116  1.00  0.00    -0.127 A  
HETATM   17  C   UNL     1     -10.289   8.391  67.242  1.00  0.00    -0.369 A  
BRANCH   7  18
HETATM   18  C   UNL     1     -10.478   9.570  70.317  1.00  0.00    -0.319 A  
HETATM   19  C   UNL     1      -9.324   9.112  70.987  1.00  0.00    -0.333 A  
HETATM   20  F   UNL     1     -10.749   7.467  73.892  1.00  0.00    -0.403 F  
HETATM   21  C   UNL     1     -10.661   8.148  72.743  1.00  0.00    -0.316 A  
HETATM   22  C   UNL     1     -11.817   8.592  72.118  1.00  0.00    -0.448 A  
HETATM   23  C   UNL     1     -11.727   9.301  70.917  1.00  0.00    -0.360 A  
HETATM   24  C   UNL     1      -9.415   8.408  72.192  1.00  0.00    -0.360 A  
ENDBRANCH   7  18
ENDBRANCH   6   7
ENDBRANCH   5   6
ENDBRANCH   4   5
ENDBRANCH   2   4
TORSDOF 5
ENDMDL
MODEL       49
REMARK 921   NORMALIZED FREE ENERGY PREDICTED BY IDOCK:   -5.15 KCAL/MOL
REMARK 922        TOTAL FREE ENERGY PREDICTED BY IDOCK:   -7.75 KCAL/MOL
REMARK 923 INTER-LIGAND FREE ENERGY PREDICTED BY IDOCK:   -6.91 KCAL/MOL
REMARK 924 INTRA-LIGAND FREE ENERGY PREDICTED BY IDOCK:   -0.83 KCAL/MOL
REMARK 927      BINDING AFFINITY PREDICTED BY RF-SCORE:    0.00 PKD
ROOT
HETATM    1  C   UNL     1      -5.410  12.321  69.634  1.00  0.00    -0.078 C  
HETATM    2  N   UNL     1      -6.504  12.926  68.873  1.00  0.00    -0.085 NA 
HETATM    3  C   UNL     1      -5.977  13.955  67.975  1.00  0.00    -0.139 C  
ENDROOT
BRANCH   2   4
HETATM    4  C   UNL     1      -7.269  11.933  68.103  1.00  0.00    -0.085 C  
BRANCH   4   5
HETATM    5  C   UNL     1      -8.488  12.504  67.368  1.00  0.00    -0.181 C  
BRANCH   5   6
HETATM    6  C   UNL     1      -9.828  12.150  68.038  1.00  0.00    -0.202 C  
BRANCH   6   7
HETATM    7  C   UNL     1     -10.845  13.322  68.093  1.00  0.00    -0.251 C  
HETATM    8  O   UNL     1     -11.718  13.170  66.929  1.00  0.00    -0.347 OA 
HETATM    9  N   UNL     1      -8.051  19.237  65.991  1.00  0.00    -0.433 NA 
HETATM   10  C   UNL     1     -10.054  16.358  66.138  1.00  0.00    -0.364 A  
HETATM   11  C   UNL     1     -11.536  14.249  65.992  1.00  0.00    -0.347 C  
HETATM   12  C   UNL     1     -10.580  15.175  66.642  1.00  0.00    -0.304 A  
HETATM   13  C   UNL     1      -8.532  18.263  66.408  1.00  0.00    -0.244 C  
HETATM   14  C   UNL     1     -10.193  14.667  67.876  1.00  0.00    -0.226 A  
HETATM   15  C   UNL     1      -9.117  17.054  66.908  1.00  0.00    -0.253 A  
HETATM   16  C   UNL     1      -8.732  16.554  68.165  1.00  0.00    -0.194 A  
HETATM   17  C   UNL     1      -9.266  15.353  68.651  1.00  0.00    -0.199 A  
BRANCH   7  18
HETATM   18  C   UNL     1     -11.705  13.251  69.367  1.00  0.00    -0.383 A  
HETATM   19  C   UNL     1     -11.999  12.019  69.987  1.00  0.00    -0.400 A  
HETATM   20  F   UNL     1     -14.021  13.066  72.814  1.00  0.00    -0.583 F  
HETATM   21  C   UNL     1     -13.271  13.126  71.706  1.00  0.00    -0.403 A  
HETATM   22  C   UNL     1     -12.994  14.357  71.131  1.00  0.00    -0.419 A  
HETATM   23  C   UNL     1     -12.213  14.420  69.972  1.00  0.00    -0.408 A  
HETATM   24  C   UNL     1     -12.775  11.957  71.149  1.00  0.00    -0.384 A  
ENDBRANCH   7  18
ENDBRANCH   6   7
ENDBRANCH   5   6
ENDBRANCH   4   5
ENDBRANCH   2   4
TORSDOF 5
ENDMDL
MODEL       50
REMARK 921   NORMALIZED FREE ENERGY PREDICTED BY IDOCK:   -5.00 KCAL/MOL
REMARK 922        TOTAL FREE ENERGY PREDICTED BY IDOCK:   -7.54 KCAL/MOL
REMARK 923 INTER-LIGAND FREE ENERGY PREDICTED BY IDOCK:   -6.70 KCAL/MOL
REMARK 924 INTRA-LIGAND FREE ENERGY PREDICTED BY IDOCK:   -0.84 KCAL/MOL
REMARK 927      BINDING AFFINITY PREDICTED BY RF-SCORE:    0.00 PKD
ROOT
HETATM    1  C   UNL     1     -12.271  12.598  65.682  1.00  0.00    -0.411 C  
HETATM    2  N   UNL     1     -11.388  13.206  64.685  1.00  0.00    -0.319 NA 
HETATM    3  C   UNL     1     -11.741  12.722  63.348  1.00  0.00    -0.488 C  
ENDROOT
BRANCH   2   4
HETATM    4  C   UNL     1     -11.436  14.676  64.715  1.00  0.00    -0.410 C  
BRANCH   4   5
HETATM    5  C   UNL     1     -10.527  15.316  65.771  1.00  0.00    -0.365 C  
BRANCH   5   6
HETATM    6  C   UNL     1     -11.264  15.678  67.074  1.00  0.00    -0.127 C  
BRANCH   6   7
HETATM    7  C   UNL     1     -10.421  15.478  68.363  1.00  0.00    -0.240 C  
HETATM    8  O   UNL     1      -9.594  16.677  68.510  1.00  0.00    -0.225 OA 
HETATM    9  N   UNL     1      -5.132  11.215  67.326  1.00  0.00    -0.042 NA 
HETATM   10  C   UNL     1      -7.009  14.111  67.972  1.00  0.00    -0.149 A  
HETATM   11  C   UNL     1      -8.196  16.373  68.345  1.00  0.00    -0.190 C  
HETATM   12  C   UNL     1      -8.130  14.901  68.189  1.00  0.00    -0.137 A  
HETATM   13  C   UNL     1      -6.053  11.892  67.545  1.00  0.00    -0.100 C  
HETATM   14  C   UNL     1      -9.411  14.363  68.228  1.00  0.00    -0.206 A  
HETATM   15  C   UNL     1      -7.185  12.734  67.799  1.00  0.00    -0.132 A  
HETATM   16  C   UNL     1      -8.476  12.181  67.852  1.00  0.00    -0.163 A  
HETATM   17  C   UNL     1      -9.596  12.996  68.062  1.00  0.00    -0.224 A  
BRANCH   7  18
HETATM   18  C   UNL     1     -11.324  15.347  69.602  1.00  0.00    -0.315 A  
HETATM   19  C   UNL     1     -12.323  14.355  69.682  1.00  0.00    -0.300 A  
HETATM   20  F   UNL     1     -13.754  14.993  72.955  1.00  0.00    -0.518 F  
HETATM   21  C   UNL     1     -12.969  15.104  71.877  1.00  0.00    -0.359 A  
HETATM   22  C   UNL     1     -11.990  16.086  71.839  1.00  0.00    -0.606 A  
HETATM   23  C   UNL     1     -11.171  16.205  70.712  1.00  0.00    -0.356 A  
HETATM   24  C   UNL     1     -13.138  14.233  70.811  1.00  0.00    -0.321 A  
ENDBRANCH   7  18
ENDBRANCH   6   7
ENDBRANCH   5   6
ENDBRANCH   4   5
ENDBRANCH   2   4
TORSDOF 5
ENDMDL
MODEL       51
REMARK 921   NORMALIZED FREE ENERGY PREDICTED BY IDOCK:   -4.99 KCAL/MOL
REMARK 922        TOTAL FREE ENERGY PREDICTED BY IDOCK:   -7.54 KCAL/MOL
REMARK 923 INTER-LIGAND FREE ENERGY PREDICTED BY IDOCK:   -6.97 KCAL/MOL
REMARK 924 INTRA-LIGAND FREE ENERGY PREDICTED BY IDOCK:   -0.57 KCAL/MOL
REMARK 927      BINDING AFFINITY PREDICTED BY RF-SCORE:    0.00 PKD
ROOT
HETATM    1  C   UNL     1      -6.157   9.666  68.346  1.00  0.00    -0.043 C  
HETATM    2  N   UNL     1      -6.078  11.124  68.250  1.00  0.00    -0.046 NA 
HETATM    3  C   UNL     1      -6.276  11.543  66.861  1.00  0.00    -0.143 C  
ENDROOT
BRANCH   2   4
HETATM    4  C   UNL     1      -7.055  11.797  69.121  1.00  0.00    -0.071 C  
BRANCH   4   5
HETATM    5  C   UNL     1      -8.489  11.802  68.576  1.00  0.00    -0.125 C  
BRANCH   5   6
HETATM    6  C   UNL     1      -9.111  13.209  68.504  1.00  0.00    -0.053 C  
BRANCH   6   7
HETATM    7  C   UNL     1     -10.655  13.219  68.344  1.00  0.00    -0.252 C  
HETATM    8  O   UNL     1     -11.135  14.427  69.014  1.00  0.00    -0.241 OA 
HETATM    9  N   UNL     1     -13.707   8.855  72.687  1.00  0.00    -0.410 NA 
HETATM   10  C   UNL     1     -12.664  11.813  71.109  1.00  0.00    -0.405 A  
HETATM   11  C   UNL     1     -11.924  14.103  70.176  1.00  0.00    -0.332 C  
HETATM   12  C   UNL     1     -12.029  12.626  70.179  1.00  0.00    -0.375 A  
HETATM   13  C   UNL     1     -13.213   9.557  71.900  1.00  0.00    -0.439 C  
HETATM   14  C   UNL     1     -11.324  12.099  69.104  1.00  0.00    -0.333 A  
HETATM   15  C   UNL     1     -12.594  10.426  70.944  1.00  0.00    -0.478 A  
HETATM   16  C   UNL     1     -11.895   9.886  69.850  1.00  0.00    -0.072 A  
HETATM   17  C   UNL     1     -11.252  10.722  68.928  1.00  0.00    -0.328 A  
BRANCH   7  18
HETATM   18  C   UNL     1     -11.058  13.285  66.860  1.00  0.00    -0.310 A  
HETATM   19  C   UNL     1     -12.396  13.502  66.471  1.00  0.00    -0.382 A  
HETATM   20  F   UNL     1     -12.138  13.474  62.850  1.00  0.00    -0.517 F  
HETATM   21  C   UNL     1     -11.790  13.418  64.142  1.00  0.00    -0.442 A  
HETATM   22  C   UNL     1     -10.462  13.213  64.486  1.00  0.00    -0.425 A  
HETATM   23  C   UNL     1     -10.097  13.152  65.835  1.00  0.00    -0.292 A  
HETATM   24  C   UNL     1     -12.759  13.569  65.122  1.00  0.00    -0.453 A  
ENDBRANCH   7  18
ENDBRANCH   6   7
ENDBRANCH   5   6
ENDBRANCH   4   5
ENDBRANCH   2   4
TORSDOF 5
ENDMDL
MODEL       52
REMARK 921   NORMALIZED FREE ENERGY PREDICTED BY IDOCK:   -4.98 KCAL/MOL
REMARK 922        TOTAL FREE ENERGY PREDICTED BY IDOCK:   -7.52 KCAL/MOL
REMARK 923 INTER-LIGAND FREE ENERGY PREDICTED BY IDOCK:   -6.88 KCAL/MOL
REMARK 924 INTRA-LIGAND FREE ENERGY PREDICTED BY IDOCK:   -0.64 KCAL/MOL
REMARK 927      BINDING AFFINITY PREDICTED BY RF-SCORE:    0.00 PKD
ROOT
HETATM    1  C   UNL     1      -5.880  14.665  70.669  1.00  0.00    -0.167 C  
HETATM    2  N   UNL     1      -6.702  14.950  69.492  1.00  0.00    -0.152 NA 
HETATM    3  C   UNL     1      -6.204  16.150  68.816  1.00  0.00    -0.117 C  
ENDROOT
BRANCH   2   4
HETATM    4  C   UNL     1      -6.741  13.822  68.548  1.00  0.00    -0.094 C  
BRANCH   4   5
HETATM    5  C   UNL     1      -7.977  13.799  67.641  1.00  0.00    -0.179 C  
BRANCH   5   6
HETATM    6  C   UNL     1      -9.123  12.928  68.188  1.00  0.00    -0.207 C  
BRANCH   6   7
HETATM    7  C   UNL     1     -10.507  13.629  68.208  1.00  0.00    -0.249 C  
HETATM    8  O   UNL     1     -11.154  13.310  66.935  1.00  0.00    -0.279 OA 
HETATM    9  N   UNL     1      -9.984  20.365  66.952  1.00  0.00    -0.453 NA 
HETATM   10  C   UNL     1     -10.756  16.956  66.617  1.00  0.00    -0.094 A  
HETATM   11  C   UNL     1     -11.312  14.486  66.118  1.00  0.00    -0.348 C  
HETATM   12  C   UNL     1     -10.837  15.612  66.954  1.00  0.00    -0.282 A  
HETATM   13  C   UNL     1     -10.096  19.239  67.226  1.00  0.00    -0.384 C  
HETATM   14  C   UNL     1     -10.396  15.135  68.183  1.00  0.00    -0.239 A  
HETATM   15  C   UNL     1     -10.221  17.849  67.552  1.00  0.00    -0.366 A  
HETATM   16  C   UNL     1      -9.786  17.376  68.803  1.00  0.00    -0.311 A  
HETATM   17  C   UNL     1      -9.867  16.014  69.121  1.00  0.00    -0.247 A  
BRANCH   7  18
HETATM   18  C   UNL     1     -11.384  13.094  69.354  1.00  0.00    -0.276 A  
HETATM   19  C   UNL     1     -12.042  13.966  70.246  1.00  0.00    -0.423 A  
HETATM   20  F   UNL     1     -13.758  11.641  72.441  1.00  0.00    -0.458 F  
HETATM   21  C   UNL     1     -12.997  12.109  71.444  1.00  0.00    -0.257 A  
HETATM   22  C   UNL     1     -12.374  11.220  70.581  1.00  0.00    -0.477 A  
HETATM   23  C   UNL     1     -11.577  11.708  69.540  1.00  0.00    -0.397 A  
HETATM   24  C   UNL     1     -12.843  13.478  71.282  1.00  0.00    -0.420 A  
ENDBRANCH   7  18
ENDBRANCH   6   7
ENDBRANCH   5   6
ENDBRANCH   4   5
ENDBRANCH   2   4
TORSDOF 5
ENDMDL
MODEL       53
REMARK 921   NORMALIZED FREE ENERGY PREDICTED BY IDOCK:   -4.98 KCAL/MOL
REMARK 922        TOTAL FREE ENERGY PREDICTED BY IDOCK:   -7.52 KCAL/MOL
REMARK 923 INTER-LIGAND FREE ENERGY PREDICTED BY IDOCK:   -6.73 KCAL/MOL
REMARK 924 INTRA-LIGAND FREE ENERGY PREDICTED BY IDOCK:   -0.79 KCAL/MOL
REMARK 927      BINDING AFFINITY PREDICTED BY RF-SCORE:    0.00 PKD
ROOT
HETATM    1  C   UNL     1      -9.460  16.147  66.038  1.00  0.00    -0.339 C  
HETATM    2  N   UNL     1      -9.440  16.890  67.299  1.00  0.00    -0.239 NA 
HETATM    3  C   UNL     1     -10.753  17.487  67.546  1.00  0.00    -0.280 C  
ENDROOT
BRANCH   2   4
HETATM    4  C   UNL     1      -9.049  16.047  68.440  1.00  0.00    -0.192 C  
BRANCH   4   5
HETATM    5  C   UNL     1      -9.300  14.548  68.234  1.00  0.00    -0.203 C  
BRANCH   5   6
HETATM    6  C   UNL     1     -10.467  14.002  69.077  1.00  0.00    -0.169 C  
BRANCH   6   7
HETATM    7  C   UNL     1     -11.105  12.701  68.520  1.00  0.00    -0.266 C  
HETATM    8  O   UNL     1     -12.353  12.500  69.257  1.00  0.00    -0.103 OA 
HETATM    9  N   UNL     1      -8.024   7.077  70.990  1.00  0.00    -0.100 NA 
HETATM   10  C   UNL     1     -10.424   9.555  70.337  1.00  0.00    -0.336 A  
HETATM   11  C   UNL     1     -12.288  11.323  70.086  1.00  0.00    -0.276 C  
HETATM   12  C   UNL     1     -10.980  10.699  69.780  1.00  0.00    -0.340 A  
HETATM   13  C   UNL     1      -8.525   8.012  70.510  1.00  0.00    -0.125 C  
HETATM   14  C   UNL     1     -10.294  11.470  68.850  1.00  0.00    -0.191 A  
HETATM   15  C   UNL     1      -9.140   9.171  69.935  1.00  0.00    -0.188 A  
HETATM   16  C   UNL     1      -8.446   9.938  68.983  1.00  0.00    -0.136 A  
HETATM   17  C   UNL     1      -9.020  11.095  68.440  1.00  0.00    -0.165 A  
BRANCH   7  18
HETATM   18  C   UNL     1     -11.434  12.842  67.023  1.00  0.00    -0.397 A  
HETATM   19  C   UNL     1     -12.244  13.892  66.545  1.00  0.00    -0.482 A  
HETATM   20  F   UNL     1     -12.310  13.222  62.978  1.00  0.00    -0.610 F  
HETATM   21  C   UNL     1     -12.025  13.103  64.280  1.00  0.00    -0.411 A  
HETATM   22  C   UNL     1     -11.216  12.062  64.713  1.00  0.00    -0.373 A  
HETATM   23  C   UNL     1     -10.918  11.934  66.073  1.00  0.00    -0.355 A  
HETATM   24  C   UNL     1     -12.536  14.023  65.183  1.00  0.00    -0.453 A  
ENDBRANCH   7  18
ENDBRANCH   6   7
ENDBRANCH   5   6
ENDBRANCH   4   5
ENDBRANCH   2   4
TORSDOF 5
ENDMDL
MODEL       54
REMARK 921   NORMALIZED FREE ENERGY PREDICTED BY IDOCK:   -4.96 KCAL/MOL
REMARK 922        TOTAL FREE ENERGY PREDICTED BY IDOCK:   -7.49 KCAL/MOL
REMARK 923 INTER-LIGAND FREE ENERGY PREDICTED BY IDOCK:   -6.82 KCAL/MOL
REMARK 924 INTRA-LIGAND FREE ENERGY PREDICTED BY IDOCK:   -0.67 KCAL/MOL
REMARK 927      BINDING AFFINITY PREDICTED BY RF-SCORE:    0.00 PKD
ROOT
HETATM    1  C   UNL     1      -7.130   9.869  68.575  1.00  0.00    -0.071 C  
HETATM    2  N   UNL     1      -6.513  11.150  68.921  1.00  0.00    -0.052 NA 
HETATM    3  C   UNL     1      -5.493  11.495  67.929  1.00  0.00    -0.046 C  
ENDROOT
BRANCH   2   4
HETATM    4  C   UNL     1      -7.499  12.237  69.026  1.00  0.00     0.058 C  
BRANCH   4   5
HETATM    5  C   UNL     1      -8.460  12.336  67.835  1.00  0.00    -0.165 C  
BRANCH   5   6
HETATM    6  C   UNL     1      -8.437  13.712  67.143  1.00  0.00    -0.186 C  
BRANCH   6   7
HETATM    7  C   UNL     1      -9.834  14.368  66.977  1.00  0.00    -0.252 C  
HETATM    8  O   UNL     1      -9.599  15.741  66.528  1.00  0.00    -0.233 OA 
HETATM    9  N   UNL     1     -12.556  16.163  73.026  1.00  0.00    -0.472 NA 
HETATM   10  C   UNL     1     -11.140  16.339  69.818  1.00  0.00    -0.337 A  
HETATM   11  C   UNL     1     -10.005  16.696  67.527  1.00  0.00    -0.264 C  
HETATM   12  C   UNL     1     -10.616  15.893  68.611  1.00  0.00    -0.250 A  
HETATM   13  C   UNL     1     -12.145  15.816  71.993  1.00  0.00    -0.473 C  
HETATM   14  C   UNL     1     -10.554  14.542  68.293  1.00  0.00    -0.241 A  
HETATM   15  C   UNL     1     -11.625  15.393  70.727  1.00  0.00    -0.381 A  
HETATM   16  C   UNL     1     -11.578  14.025  70.406  1.00  0.00    -0.206 A  
HETATM   17  C   UNL     1     -11.036  13.594  69.188  1.00  0.00    -0.275 A  
BRANCH   7  18
HETATM   18  C   UNL     1     -10.667  13.636  65.909  1.00  0.00    -0.281 A  
HETATM   19  C   UNL     1     -12.069  13.778  65.846  1.00  0.00    -0.464 A  
HETATM   20  F   UNL     1     -12.909  11.665  63.017  1.00  0.00    -0.697 F  
HETATM   21  C   UNL     1     -12.187  12.303  63.946  1.00  0.00    -0.515 A  
HETATM   22  C   UNL     1     -10.809  12.147  63.971  1.00  0.00    -0.436 A  
HETATM   23  C   UNL     1     -10.053  12.812  64.942  1.00  0.00    -0.235 A  
HETATM   24  C   UNL     1     -12.823  13.118  64.871  1.00  0.00    -0.349 A  
ENDBRANCH   7  18
ENDBRANCH   6   7
ENDBRANCH   5   6
ENDBRANCH   4   5
ENDBRANCH   2   4
TORSDOF 5
ENDMDL
MODEL       55
REMARK 921   NORMALIZED FREE ENERGY PREDICTED BY IDOCK:   -4.93 KCAL/MOL
REMARK 922        TOTAL FREE ENERGY PREDICTED BY IDOCK:   -7.46 KCAL/MOL
REMARK 923 INTER-LIGAND FREE ENERGY PREDICTED BY IDOCK:   -6.79 KCAL/MOL
REMARK 924 INTRA-LIGAND FREE ENERGY PREDICTED BY IDOCK:   -0.67 KCAL/MOL
REMARK 927      BINDING AFFINITY PREDICTED BY RF-SCORE:    0.00 PKD
ROOT
HETATM    1  C   UNL     1      -9.196  15.628  66.108  1.00  0.00    -0.343 C  
HETATM    2  N   UNL     1      -9.198  16.184  67.462  1.00  0.00    -0.207 NA 
HETATM    3  C   UNL     1     -10.457  16.890  67.708  1.00  0.00    -0.340 C  
ENDROOT
BRANCH   2   4
HETATM    4  C   UNL     1      -8.992  15.153  68.491  1.00  0.00    -0.186 C  
BRANCH   4   5
HETATM    5  C   UNL     1      -9.370  13.734  68.050  1.00  0.00    -0.199 C  
BRANCH   5   6
HETATM    6  C   UNL     1     -10.632  13.192  68.746  1.00  0.00    -0.225 C  
BRANCH   6   7
HETATM    7  C   UNL     1     -10.977  11.720  68.391  1.00  0.00    -0.231 C  
HETATM    8  O   UNL     1     -12.385  11.527  68.739  1.00  0.00    -0.425 OA 
HETATM    9  N   UNL     1      -8.576   7.319  73.090  1.00  0.00    -0.127 NA 
HETATM   10  C   UNL     1     -10.760   9.216  71.100  1.00  0.00    -0.380 A  
HETATM   11  C   UNL     1     -12.532  10.599  69.831  1.00  0.00    -0.173 C  
HETATM   12  C   UNL     1     -11.164  10.109  70.116  1.00  0.00    -0.377 A  
HETATM   13  C   UNL     1      -8.942   8.037  72.249  1.00  0.00    -0.171 C  
HETATM   14  C   UNL     1     -10.253  10.726  69.268  1.00  0.00    -0.217 A  
HETATM   15  C   UNL     1      -9.397   8.931  71.226  1.00  0.00    -0.336 A  
HETATM   16  C   UNL     1      -8.471   9.541  70.361  1.00  0.00    -0.238 A  
HETATM   17  C   UNL     1      -8.896  10.446  69.381  1.00  0.00    -0.138 A  
BRANCH   7  18
HETATM   18  C   UNL     1     -10.801  11.458  66.884  1.00  0.00    -0.335 A  
HETATM   19  C   UNL     1      -9.973  10.420  66.411  1.00  0.00    -0.277 A  
HETATM   20  F   UNL     1     -10.340  10.749  62.815  1.00  0.00    -0.283 F  
HETATM   21  C   UNL     1     -10.492  10.975  64.126  1.00  0.00    -0.366 A  
HETATM   22  C   UNL     1     -11.324  11.998  64.554  1.00  0.00    -0.393 A  
HETATM   23  C   UNL     1     -11.481  12.236  65.923  1.00  0.00    -0.428 A  
HETATM   24  C   UNL     1      -9.820  10.179  65.042  1.00  0.00    -0.392 A  
ENDBRANCH   7  18
ENDBRANCH   6   7
ENDBRANCH   5   6
ENDBRANCH   4   5
ENDBRANCH   2   4
TORSDOF 5
ENDMDL
MODEL       56
REMARK 921   NORMALIZED FREE ENERGY PREDICTED BY IDOCK:   -4.93 KCAL/MOL
REMARK 922        TOTAL FREE ENERGY PREDICTED BY IDOCK:   -7.46 KCAL/MOL
REMARK 923 INTER-LIGAND FREE ENERGY PREDICTED BY IDOCK:   -6.54 KCAL/MOL
REMARK 924 INTRA-LIGAND FREE ENERGY PREDICTED BY IDOCK:   -0.92 KCAL/MOL
REMARK 927      BINDING AFFINITY PREDICTED BY RF-SCORE:    0.00 PKD
ROOT
HETATM    1  C   UNL     1     -11.666  13.208  63.862  1.00  0.00    -0.456 C  
HETATM    2  N   UNL     1     -10.673  13.932  64.658  1.00  0.00    -0.413 NA 
HETATM    3  C   UNL     1     -11.019  15.354  64.711  1.00  0.00    -0.393 C  
ENDROOT
BRANCH   2   4
HETATM    4  C   UNL     1     -10.547  13.395  66.021  1.00  0.00    -0.287 C  
BRANCH   4   5
HETATM    5  C   UNL     1      -9.707  12.115  66.122  1.00  0.00    -0.254 C  
BRANCH   5   6
HETATM    6  C   UNL     1     -10.520  10.883  66.559  1.00  0.00    -0.308 C  
BRANCH   6   7
HETATM    7  C   UNL     1      -9.943  10.142  67.796  1.00  0.00    -0.168 C  
HETATM    8  O   UNL     1      -8.615  10.706  68.037  1.00  0.00    -0.118 OA 
HETATM    9  N   UNL     1      -7.657   3.865  66.186  1.00  0.00    -0.087 NA 
HETATM   10  C   UNL     1      -7.750   7.234  67.171  1.00  0.00    -0.112 A  
HETATM   11  C   UNL     1      -7.581   9.731  67.802  1.00  0.00    -0.090 C  
HETATM   12  C   UNL     1      -8.294   8.469  67.498  1.00  0.00    -0.128 A  
HETATM   13  C   UNL     1      -8.091   4.900  66.498  1.00  0.00    -0.107 C  
HETATM   14  C   UNL     1      -9.666   8.683  67.521  1.00  0.00    -0.212 A  
HETATM   15  C   UNL     1      -8.618   6.180  66.868  1.00  0.00    -0.109 A  
HETATM   16  C   UNL     1     -10.008   6.385  66.904  1.00  0.00    -0.217 A  
HETATM   17  C   UNL     1     -10.538   7.641  67.226  1.00  0.00    -0.388 A  
BRANCH   7  18
HETATM   18  C   UNL     1     -10.814  10.382  69.042  1.00  0.00    -0.273 A  
HETATM   19  C   UNL     1     -11.537  11.581  69.214  1.00  0.00    -0.388 A  
HETATM   20  F   UNL     1     -13.173  11.020  72.405  1.00  0.00    -0.551 F  
HETATM   21  C   UNL     1     -12.417  10.813  71.319  1.00  0.00    -0.399 A  
HETATM   22  C   UNL     1     -11.729   9.616  71.180  1.00  0.00    -0.450 A  
HETATM   23  C   UNL     1     -10.937   9.400  70.048  1.00  0.00    -0.267 A  
HETATM   24  C   UNL     1     -12.333  11.795  70.343  1.00  0.00    -0.362 A  
ENDBRANCH   7  18
ENDBRANCH   6   7
ENDBRANCH   5   6
ENDBRANCH   4   5
ENDBRANCH   2   4
TORSDOF 5
ENDMDL
MODEL       57
REMARK 921   NORMALIZED FREE ENERGY PREDICTED BY IDOCK:   -4.91 KCAL/MOL
REMARK 922        TOTAL FREE ENERGY PREDICTED BY IDOCK:   -7.44 KCAL/MOL
REMARK 923 INTER-LIGAND FREE ENERGY PREDICTED BY IDOCK:   -6.71 KCAL/MOL
REMARK 924 INTRA-LIGAND FREE ENERGY PREDICTED BY IDOCK:   -0.72 KCAL/MOL
REMARK 927      BINDING AFFINITY PREDICTED BY RF-SCORE:    0.00 PKD
ROOT
HETATM    1  C   UNL     1     -12.211  12.954  63.358  1.00  0.00    -0.490 C  
HETATM    2  N   UNL     1     -11.849  13.793  64.501  1.00  0.00    -0.398 NA 
HETATM    3  C   UNL     1     -12.285  15.171  64.266  1.00  0.00    -0.240 C  
ENDROOT
BRANCH   2   4
HETATM    4  C   UNL     1     -12.417  13.296  65.764  1.00  0.00    -0.417 C  
BRANCH   4   5
HETATM    5  C   UNL     1     -11.663  12.108  66.373  1.00  0.00    -0.394 C  
BRANCH   5   6
HETATM    6  C   UNL     1     -10.138  12.316  66.432  1.00  0.00    -0.245 C  
BRANCH   6   7
HETATM    7  C   UNL     1      -9.566  12.446  67.869  1.00  0.00    -0.205 C  
HETATM    8  O   UNL     1      -8.433  11.523  67.951  1.00  0.00    -0.131 OA 
HETATM    9  N   UNL     1     -13.417   9.101  72.473  1.00  0.00    -0.471 NA 
HETATM   10  C   UNL     1     -10.738  10.018  70.398  1.00  0.00    -0.369 A  
HETATM   11  C   UNL     1      -8.701  10.446  68.871  1.00  0.00    -0.157 C  
HETATM   12  C   UNL     1     -10.019  10.760  69.470  1.00  0.00    -0.087 A  
HETATM   13  C   UNL     1     -12.780   9.725  71.724  1.00  0.00    -0.426 C  
HETATM   14  C   UNL     1     -10.520  11.935  68.923  1.00  0.00    -0.164 A  
HETATM   15  C   UNL     1     -11.998  10.480  70.791  1.00  0.00    -0.472 A  
HETATM   16  C   UNL     1     -12.505  11.676  70.252  1.00  0.00    -0.261 A  
HETATM   17  C   UNL     1     -11.769  12.406  69.310  1.00  0.00    -0.386 A  
BRANCH   7  18
HETATM   18  C   UNL     1      -9.057  13.874  68.137  1.00  0.00    -0.193 A  
HETATM   19  C   UNL     1      -9.789  15.005  67.720  1.00  0.00    -0.220 A  
HETATM   20  F   UNL     1      -7.683  17.727  68.871  1.00  0.00    -0.266 F  
HETATM   21  C   UNL     1      -8.128  16.486  68.638  1.00  0.00    -0.233 A  
HETATM   22  C   UNL     1      -7.385  15.398  69.072  1.00  0.00    -0.159 A  
HETATM   23  C   UNL     1      -7.848  14.102  68.828  1.00  0.00    -0.114 A  
HETATM   24  C   UNL     1      -9.329  16.302  67.970  1.00  0.00    -0.214 A  
ENDBRANCH   7  18
ENDBRANCH   6   7
ENDBRANCH   5   6
ENDBRANCH   4   5
ENDBRANCH   2   4
TORSDOF 5
ENDMDL
MODEL       58
REMARK 921   NORMALIZED FREE ENERGY PREDICTED BY IDOCK:   -4.88 KCAL/MOL
REMARK 922        TOTAL FREE ENERGY PREDICTED BY IDOCK:   -7.40 KCAL/MOL
REMARK 923 INTER-LIGAND FREE ENERGY PREDICTED BY IDOCK:   -6.42 KCAL/MOL
REMARK 924 INTRA-LIGAND FREE ENERGY PREDICTED BY IDOCK:   -0.97 KCAL/MOL
REMARK 927      BINDING AFFINITY PREDICTED BY RF-SCORE:    0.00 PKD
ROOT
HETATM    1  C   UNL     1      -6.224  17.153  69.605  1.00  0.00    -0.235 C  
HETATM    2  N   UNL     1      -7.329  16.878  68.686  1.00  0.00    -0.210 NA 
HETATM    3  C   UNL     1      -6.805  16.599  67.347  1.00  0.00    -0.165 C  
ENDROOT
BRANCH   2   4
HETATM    4  C   UNL     1      -8.169  15.758  69.138  1.00  0.00    -0.247 C  
BRANCH   4   5
HETATM    5  C   UNL     1      -8.362  14.650  68.096  1.00  0.00    -0.144 C  
BRANCH   5   6
HETATM    6  C   UNL     1      -8.878  13.329  68.695  1.00  0.00     0.038 C  
BRANCH   6   7
HETATM    7  C   UNL     1     -10.265  12.882  68.158  1.00  0.00    -0.239 C  
HETATM    8  O   UNL     1     -11.139  14.052  68.239  1.00  0.00    -0.239 OA 
HETATM    9  N   UNL     1     -13.743   9.201  72.803  1.00  0.00    -0.355 NA 
HETATM   10  C   UNL     1     -12.781  11.791  70.637  1.00  0.00    -0.193 A  
HETATM   11  C   UNL     1     -12.191  13.855  69.204  1.00  0.00    -0.267 C  
HETATM   12  C   UNL     1     -12.032  12.461  69.679  1.00  0.00    -0.341 A  
HETATM   13  C   UNL     1     -13.152   9.770  71.977  1.00  0.00    -0.452 C  
HETATM   14  C   UNL     1     -10.937  11.872  69.058  1.00  0.00    -0.267 A  
HETATM   15  C   UNL     1     -12.420  10.482  70.972  1.00  0.00    -0.501 A  
HETATM   16  C   UNL     1     -11.322   9.874  70.338  1.00  0.00    -0.376 A  
HETATM   17  C   UNL     1     -10.572  10.570  69.380  1.00  0.00    -0.269 A  
BRANCH   7  18
HETATM   18  C   UNL     1     -10.173  12.435  66.688  1.00  0.00    -0.241 A  
HETATM   19  C   UNL     1     -10.926  13.069  65.679  1.00  0.00    -0.296 A  
HETATM   20  F   UNL     1      -9.911  11.230  62.719  1.00  0.00    -0.297 F  
HETATM   21  C   UNL     1      -9.992  11.622  63.997  1.00  0.00    -0.296 A  
HETATM   22  C   UNL     1      -9.228  10.980  64.960  1.00  0.00    -0.219 A  
HETATM   23  C   UNL     1      -9.313  11.386  66.296  1.00  0.00    -0.228 A  
HETATM   24  C   UNL     1     -10.836  12.666  64.343  1.00  0.00    -0.386 A  
ENDBRANCH   7  18
ENDBRANCH   6   7
ENDBRANCH   5   6
ENDBRANCH   4   5
ENDBRANCH   2   4
TORSDOF 5
ENDMDL
MODEL       59
REMARK 921   NORMALIZED FREE ENERGY PREDICTED BY IDOCK:   -4.87 KCAL/MOL
REMARK 922        TOTAL FREE ENERGY PREDICTED BY IDOCK:   -7.38 KCAL/MOL
REMARK 923 INTER-LIGAND FREE ENERGY PREDICTED BY IDOCK:   -6.72 KCAL/MOL
REMARK 924 INTRA-LIGAND FREE ENERGY PREDICTED BY IDOCK:   -0.67 KCAL/MOL
REMARK 927      BINDING AFFINITY PREDICTED BY RF-SCORE:    0.00 PKD
ROOT
HETATM    1  C   UNL     1     -10.011  10.219  65.091  1.00  0.00    -0.325 C  
HETATM    2  N   UNL     1     -10.074  11.460  64.316  1.00  0.00    -0.273 NA 
HETATM    3  C   UNL     1      -9.671  11.203  62.932  1.00  0.00    -0.320 C  
ENDROOT
BRANCH   2   4
HETATM    4  C   UNL     1     -11.411  12.071  64.344  1.00  0.00    -0.343 C  
BRANCH   4   5
HETATM    5  C   UNL     1     -11.868  12.529  65.735  1.00  0.00    -0.494 C  
BRANCH   5   6
HETATM    6  C   UNL     1     -11.606  14.023  66.004  1.00  0.00    -0.362 C  
BRANCH   6   7
HETATM    7  C   UNL     1     -10.791  14.307  67.294  1.00  0.00    -0.284 C  
HETATM    8  O   UNL     1     -11.766  14.552  68.357  1.00  0.00    -0.308 OA 
HETATM    9  N   UNL     1      -8.219  20.679  67.346  1.00  0.00    -0.298 NA 
HETATM   10  C   UNL     1     -10.126  17.842  68.146  1.00  0.00    -0.362 A  
HETATM   11  C   UNL     1     -11.709  15.916  68.817  1.00  0.00    -0.349 C  
HETATM   12  C   UNL     1     -10.579  16.531  68.082  1.00  0.00    -0.329 A  
HETATM   13  C   UNL     1      -8.592  19.576  67.336  1.00  0.00    -0.304 C  
HETATM   14  C   UNL     1     -10.016  15.601  67.217  1.00  0.00    -0.236 A  
HETATM   15  C   UNL     1      -9.066  18.224  67.318  1.00  0.00    -0.256 A  
HETATM   16  C   UNL     1      -8.481  17.285  66.450  1.00  0.00    -0.304 A  
HETATM   17  C   UNL     1      -8.958  15.969  66.393  1.00  0.00    -0.354 A  
BRANCH   7  18
HETATM   18  C   UNL     1      -9.930  13.093  67.685  1.00  0.00    -0.219 A  
HETATM   19  C   UNL     1     -10.445  12.056  68.490  1.00  0.00    -0.244 A  
HETATM   20  F   UNL     1      -7.603   9.811  68.728  1.00  0.00    -0.072 F  
HETATM   21  C   UNL     1      -8.354  10.866  68.389  1.00  0.00    -0.136 A  
HETATM   22  C   UNL     1      -7.816  11.861  67.586  1.00  0.00    -0.142 A  
HETATM   23  C   UNL     1      -8.599  12.964  67.233  1.00  0.00    -0.205 A  
HETATM   24  C   UNL     1      -9.663  10.950  68.839  1.00  0.00    -0.198 A  
ENDBRANCH   7  18
ENDBRANCH   6   7
ENDBRANCH   5   6
ENDBRANCH   4   5
ENDBRANCH   2   4
TORSDOF 5
ENDMDL
MODEL       60
REMARK 921   NORMALIZED FREE ENERGY PREDICTED BY IDOCK:   -4.86 KCAL/MOL
REMARK 922        TOTAL FREE ENERGY PREDICTED BY IDOCK:   -7.37 KCAL/MOL
REMARK 923 INTER-LIGAND FREE ENERGY PREDICTED BY IDOCK:   -6.71 KCAL/MOL
REMARK 924 INTRA-LIGAND FREE ENERGY PREDICTED BY IDOCK:   -0.66 KCAL/MOL
REMARK 927      BINDING AFFINITY PREDICTED BY RF-SCORE:    0.00 PKD
ROOT
HETATM    1  C   UNL     1      -9.412   6.489  66.812  1.00  0.00    -0.158 C  
HETATM    2  N   UNL     1     -10.305   5.605  67.563  1.00  0.00    -0.206 NA 
HETATM    3  C   UNL     1      -9.518   4.685  68.386  1.00  0.00    -0.145 C  
ENDROOT
BRANCH   2   4
HETATM    4  C   UNL     1     -11.251   6.350  68.408  1.00  0.00    -0.200 C  
BRANCH   4   5
HETATM    5  C   UNL     1     -10.835   6.457  69.880  1.00  0.00    -0.370 C  
BRANCH   5   6
HETATM    6  C   UNL     1     -11.855   7.215  70.751  1.00  0.00    -0.367 C  
BRANCH   6   7
HETATM    7  C   UNL     1     -11.283   8.476  71.453  1.00  0.00    -0.266 C  
HETATM    8  O   UNL     1     -12.299   8.915  72.410  1.00  0.00    -0.367 OA 
HETATM    9  N   UNL     1     -11.747  14.056  67.469  1.00  0.00    -0.365 NA 
HETATM   10  C   UNL     1     -12.250  11.772  70.088  1.00  0.00    -0.342 A  
HETATM   11  C   UNL     1     -12.855  10.191  72.036  1.00  0.00    -0.376 C  
HETATM   12  C   UNL     1     -12.085  10.621  70.847  1.00  0.00    -0.489 A  
HETATM   13  C   UNL     1     -11.601  13.116  68.141  1.00  0.00    -0.339 C  
HETATM   14  C   UNL     1     -11.147   9.651  70.514  1.00  0.00    -0.369 A  
HETATM   15  C   UNL     1     -11.438  11.955  68.964  1.00  0.00    -0.355 A  
HETATM   16  C   UNL     1     -10.477  10.984  68.629  1.00  0.00    -0.214 A  
HETATM   17  C   UNL     1     -10.331   9.825  69.402  1.00  0.00    -0.232 A  
BRANCH   7  18
HETATM   18  C   UNL     1      -9.992   8.146  72.221  1.00  0.00    -0.332 A  
HETATM   19  C   UNL     1     -10.022   7.436  73.440  1.00  0.00    -0.365 A  
HETATM   20  F   UNL     1      -6.498   7.247  74.287  1.00  0.00    -0.076 F  
HETATM   21  C   UNL     1      -7.623   7.533  73.620  1.00  0.00    -0.107 A  
HETATM   22  C   UNL     1      -7.552   8.224  72.419  1.00  0.00    -0.160 A  
HETATM   23  C   UNL     1      -8.727   8.524  71.722  1.00  0.00    -0.266 A  
HETATM   24  C   UNL     1      -8.847   7.130  74.133  1.00  0.00    -0.245 A  
ENDBRANCH   7  18
ENDBRANCH   6   7
ENDBRANCH   5   6
ENDBRANCH   4   5
ENDBRANCH   2   4
TORSDOF 5
ENDMDL
MODEL       61
REMARK 921   NORMALIZED FREE ENERGY PREDICTED BY IDOCK:   -4.83 KCAL/MOL
REMARK 922        TOTAL FREE ENERGY PREDICTED BY IDOCK:   -7.33 KCAL/MOL
REMARK 923 INTER-LIGAND FREE ENERGY PREDICTED BY IDOCK:   -6.77 KCAL/MOL
REMARK 924 INTRA-LIGAND FREE ENERGY PREDICTED BY IDOCK:   -0.56 KCAL/MOL
REMARK 927      BINDING AFFINITY PREDICTED BY RF-SCORE:    0.00 PKD
ROOT
HETATM    1  C   UNL     1     -12.645  12.610  63.213  1.00  0.00    -0.159 C  
HETATM    2  N   UNL     1     -11.896  13.304  64.262  1.00  0.00    -0.396 NA 
HETATM    3  C   UNL     1     -12.245  14.727  64.262  1.00  0.00    -0.379 C  
ENDROOT
BRANCH   2   4
HETATM    4  C   UNL     1     -12.134  12.729  65.595  1.00  0.00    -0.459 C  
BRANCH   4   5
HETATM    5  C   UNL     1     -11.075  11.714  66.043  1.00  0.00    -0.325 C  
BRANCH   5   6
HETATM    6  C   UNL     1     -11.444  10.979  67.345  1.00  0.00    -0.217 C  
BRANCH   6   7
HETATM    7  C   UNL     1     -10.905  11.654  68.635  1.00  0.00    -0.213 C  
HETATM    8  O   UNL     1     -11.801  12.774  68.925  1.00  0.00    -0.305 OA 
HETATM    9  N   UNL     1      -5.411  15.582  67.366  1.00  0.00    -0.341 NA 
HETATM   10  C   UNL     1      -8.658  14.560  68.228  1.00  0.00    -0.171 A  
HETATM   11  C   UNL     1     -11.125  14.038  68.779  1.00  0.00    -0.264 C  
HETATM   12  C   UNL     1      -9.715  13.696  68.482  1.00  0.00    -0.184 A  
HETATM   13  C   UNL     1      -6.303  14.877  67.619  1.00  0.00    -0.123 C  
HETATM   14  C   UNL     1      -9.564  12.316  68.427  1.00  0.00    -0.183 A  
HETATM   15  C   UNL     1      -7.408  14.015  67.916  1.00  0.00    -0.162 A  
HETATM   16  C   UNL     1      -7.244  12.619  67.872  1.00  0.00    -0.116 A  
HETATM   17  C   UNL     1      -8.325  11.763  68.123  1.00  0.00    -0.156 A  
BRANCH   7  18
HETATM   18  C   UNL     1     -10.934  10.678  69.825  1.00  0.00    -0.340 A  
HETATM   19  C   UNL     1     -12.009  10.665  70.739  1.00  0.00    -0.477 A  
HETATM   20  F   UNL     1     -11.012   8.033  73.030  1.00  0.00    -0.401 F  
HETATM   21  C   UNL     1     -10.990   8.882  71.995  1.00  0.00    -0.342 A  
HETATM   22  C   UNL     1      -9.921   8.858  71.111  1.00  0.00    -0.342 A  
HETATM   23  C   UNL     1      -9.895   9.746  70.032  1.00  0.00    -0.295 A  
HETATM   24  C   UNL     1     -12.037   9.773  71.815  1.00  0.00    -0.425 A  
ENDBRANCH   7  18
ENDBRANCH   6   7
ENDBRANCH   5   6
ENDBRANCH   4   5
ENDBRANCH   2   4
TORSDOF 5
ENDMDL
MODEL       62
REMARK 921   NORMALIZED FREE ENERGY PREDICTED BY IDOCK:   -4.82 KCAL/MOL
REMARK 922        TOTAL FREE ENERGY PREDICTED BY IDOCK:   -7.32 KCAL/MOL
REMARK 923 INTER-LIGAND FREE ENERGY PREDICTED BY IDOCK:   -6.69 KCAL/MOL
REMARK 924 INTRA-LIGAND FREE ENERGY PREDICTED BY IDOCK:   -0.63 KCAL/MOL
REMARK 927      BINDING AFFINITY PREDICTED BY RF-SCORE:    0.00 PKD
ROOT
HETATM    1  C   UNL     1      -6.480  14.901  70.428  1.00  0.00    -0.075 C  
HETATM    2  N   UNL     1      -5.536  13.990  69.777  1.00  0.00    -0.097 NA 
HETATM    3  C   UNL     1      -5.616  12.666  70.396  1.00  0.00    -0.167 C  
ENDROOT
BRANCH   2   4
HETATM    4  C   UNL     1      -5.770  13.881  68.329  1.00  0.00    -0.111 C  
BRANCH   4   5
HETATM    5  C   UNL     1      -7.250  13.843  67.928  1.00  0.00    -0.162 C  
BRANCH   5   6
HETATM    6  C   UNL     1      -7.731  15.132  67.237  1.00  0.00    -0.241 C  
BRANCH   6   7
HETATM    7  C   UNL     1      -9.231  15.460  67.466  1.00  0.00    -0.199 C  
HETATM    8  O   UNL     1      -9.611  14.813  68.723  1.00  0.00    -0.208 OA 
HETATM    9  N   UNL     1     -13.326  11.594  63.529  1.00  0.00    -0.284 NA 
HETATM   10  C   UNL     1     -11.713  12.968  66.328  1.00  0.00    -0.440 A  
HETATM   11  C   UNL     1     -10.561  13.753  68.500  1.00  0.00    -0.253 C  
HETATM   12  C   UNL     1     -10.871  13.801  67.053  1.00  0.00    -0.288 A  
HETATM   13  C   UNL     1     -12.655  12.303  64.163  1.00  0.00    -0.394 C  
HETATM   14  C   UNL     1     -10.131  14.807  66.444  1.00  0.00    -0.291 A  
HETATM   15  C   UNL     1     -11.818  13.162  64.946  1.00  0.00    -0.399 A  
HETATM   16  C   UNL     1     -11.083  14.187  64.325  1.00  0.00    -0.146 A  
HETATM   17  C   UNL     1     -10.231  15.011  65.072  1.00  0.00    -0.349 A  
BRANCH   7  18
HETATM   18  C   UNL     1      -9.453  16.976  67.606  1.00  0.00    -0.236 A  
HETATM   19  C   UNL     1     -10.523  17.626  66.956  1.00  0.00    -0.305 A  
HETATM   20  F   UNL     1     -10.051  21.071  67.995  1.00  0.00    -0.399 F  
HETATM   21  C   UNL     1      -9.861  19.751  67.873  1.00  0.00    -0.404 A  
HETATM   22  C   UNL     1      -8.804  19.146  68.536  1.00  0.00    -0.406 A  
HETATM   23  C   UNL     1      -8.603  17.768  68.408  1.00  0.00    -0.292 A  
HETATM   24  C   UNL     1     -10.726  19.003  67.089  1.00  0.00    -0.541 A  
ENDBRANCH   7  18
ENDBRANCH   6   7
ENDBRANCH   5   6
ENDBRANCH   4   5
ENDBRANCH   2   4
TORSDOF 5
ENDMDL
MODEL       63
REMARK 921   NORMALIZED FREE ENERGY PREDICTED BY IDOCK:   -4.81 KCAL/MOL
REMARK 922        TOTAL FREE ENERGY PREDICTED BY IDOCK:   -7.30 KCAL/MOL
REMARK 923 INTER-LIGAND FREE ENERGY PREDICTED BY IDOCK:   -6.98 KCAL/MOL
REMARK 924 INTRA-LIGAND FREE ENERGY PREDICTED BY IDOCK:   -0.32 KCAL/MOL
REMARK 927      BINDING AFFINITY PREDICTED BY RF-SCORE:    0.00 PKD
ROOT
HETATM    1  C   UNL     1     -10.570   5.135  66.387  1.00  0.00    -0.276 C  
HETATM    2  N   UNL     1     -11.024   6.398  66.971  1.00  0.00    -0.394 NA 
HETATM    3  C   UNL     1     -10.954   6.324  68.432  1.00  0.00    -0.325 C  
ENDROOT
BRANCH   2   4
HETATM    4  C   UNL     1     -10.247   7.550  66.489  1.00  0.00    -0.095 C  
BRANCH   4   5
HETATM    5  C   UNL     1      -9.630   8.407  67.602  1.00  0.00    -0.188 C  
BRANCH   5   6
HETATM    6  C   UNL     1      -9.298   9.843  67.156  1.00  0.00    -0.170 C  
BRANCH   6   7
HETATM    7  C   UNL     1     -10.345  10.905  67.586  1.00  0.00    -0.197 C  
HETATM    8  O   UNL     1     -11.418  10.859  66.592  1.00  0.00    -0.233 OA 
HETATM    9  N   UNL     1      -8.325  17.281  66.011  1.00  0.00    -0.532 NA 
HETATM   10  C   UNL     1     -10.108  14.256  66.046  1.00  0.00    -0.333 A  
HETATM   11  C   UNL     1     -11.477  12.079  65.828  1.00  0.00    -0.320 C  
HETATM   12  C   UNL     1     -10.463  12.972  66.436  1.00  0.00    -0.285 A  
HETATM   13  C   UNL     1      -8.665  16.218  66.343  1.00  0.00    -0.319 C  
HETATM   14  C   UNL     1      -9.819  12.316  67.478  1.00  0.00    -0.193 A  
HETATM   15  C   UNL     1      -9.077  14.903  66.736  1.00  0.00    -0.295 A  
HETATM   16  C   UNL     1      -8.431  14.252  67.802  1.00  0.00    -0.177 A  
HETATM   17  C   UNL     1      -8.797  12.951  68.174  1.00  0.00    -0.194 A  
BRANCH   7  18
HETATM   18  C   UNL     1     -10.939  10.570  68.967  1.00  0.00    -0.289 A  
HETATM   19  C   UNL     1     -10.211   9.827  69.919  1.00  0.00    -0.291 A  
HETATM   20  F   UNL     1     -12.543   9.680  72.696  1.00  0.00    -0.335 F  
HETATM   21  C   UNL     1     -12.024   9.970  71.497  1.00  0.00    -0.353 A  
HETATM   22  C   UNL     1     -12.766  10.712  70.590  1.00  0.00    -0.445 A  
HETATM   23  C   UNL     1     -12.226  11.014  69.336  1.00  0.00    -0.329 A  
HETATM   24  C   UNL     1     -10.749   9.530  71.175  1.00  0.00    -0.408 A  
ENDBRANCH   7  18
ENDBRANCH   6   7
ENDBRANCH   5   6
ENDBRANCH   4   5
ENDBRANCH   2   4
TORSDOF 5
ENDMDL
MODEL       64
REMARK 921   NORMALIZED FREE ENERGY PREDICTED BY IDOCK:   -4.80 KCAL/MOL
REMARK 922        TOTAL FREE ENERGY PREDICTED BY IDOCK:   -7.29 KCAL/MOL
REMARK 923 INTER-LIGAND FREE ENERGY PREDICTED BY IDOCK:   -6.45 KCAL/MOL
REMARK 924 INTRA-LIGAND FREE ENERGY PREDICTED BY IDOCK:   -0.84 KCAL/MOL
REMARK 927      BINDING AFFINITY PREDICTED BY RF-SCORE:    0.00 PKD
ROOT
HETATM    1  C   UNL     1     -12.502  10.680  71.070  1.00  0.00    -0.413 C  
HETATM    2  N   UNL     1     -11.815  11.713  70.291  1.00  0.00    -0.345 NA 
HETATM    3  C   UNL     1     -11.969  11.442  68.861  1.00  0.00    -0.304 C  
ENDROOT
BRANCH   2   4
HETATM    4  C   UNL     1     -12.303  13.066  70.601  1.00  0.00    -0.310 C  
BRANCH   4   5
HETATM    5  C   UNL     1     -12.153  14.071  69.452  1.00  0.00    -0.386 C  
BRANCH   5   6
HETATM    6  C   UNL     1     -10.914  14.974  69.588  1.00  0.00    -0.294 C  
BRANCH   6   7
HETATM    7  C   UNL     1     -10.177  15.254  68.250  1.00  0.00    -0.226 C  
HETATM    8  O   UNL     1     -11.190  15.729  67.308  1.00  0.00    -0.263 OA 
HETATM    9  N   UNL     1      -8.820   9.459  64.815  1.00  0.00    -0.201 NA 
HETATM   10  C   UNL     1     -10.181  12.570  65.709  1.00  0.00    -0.289 A  
HETATM   11  C   UNL     1     -11.389  14.790  66.234  1.00  0.00    -0.334 C  
HETATM   12  C   UNL     1     -10.384  13.724  66.454  1.00  0.00    -0.290 A  
HETATM   13  C   UNL     1      -8.984  10.451  65.403  1.00  0.00    -0.183 C  
HETATM   14  C   UNL     1      -9.651  13.994  67.603  1.00  0.00    -0.221 A  
HETATM   15  C   UNL     1      -9.201  11.665  66.131  1.00  0.00    -0.228 A  
HETATM   16  C   UNL     1      -8.445  11.939  67.285  1.00  0.00    -0.172 A  
HETATM   17  C   UNL     1      -8.672  13.105  68.029  1.00  0.00    -0.190 A  
BRANCH   7  18
HETATM   18  C   UNL     1      -9.111  16.351  68.423  1.00  0.00    -0.214 A  
HETATM   19  C   UNL     1      -9.351  17.679  68.016  1.00  0.00    -0.274 A  
HETATM   20  F   UNL     1      -6.232  19.310  68.901  1.00  0.00    -0.234 F  
HETATM   21  C   UNL     1      -7.162  18.358  68.751  1.00  0.00    -0.284 A  
HETATM   22  C   UNL     1      -6.893  17.065  69.173  1.00  0.00    -0.240 A  
HETATM   23  C   UNL     1      -7.861  16.069  69.015  1.00  0.00    -0.222 A  
HETATM   24  C   UNL     1      -8.385  18.676  68.180  1.00  0.00    -0.332 A  
ENDBRANCH   7  18
ENDBRANCH   6   7
ENDBRANCH   5   6
ENDBRANCH   4   5
ENDBRANCH   2   4
TORSDOF 5
ENDMDL
MODEL       65
REMARK 921   NORMALIZED FREE ENERGY PREDICTED BY IDOCK:   -4.80 KCAL/MOL
REMARK 922        TOTAL FREE ENERGY PREDICTED BY IDOCK:   -7.29 KCAL/MOL
REMARK 923 INTER-LIGAND FREE ENERGY PREDICTED BY IDOCK:   -6.35 KCAL/MOL
REMARK 924 INTRA-LIGAND FREE ENERGY PREDICTED BY IDOCK:   -0.94 KCAL/MOL
REMARK 927      BINDING AFFINITY PREDICTED BY RF-SCORE:    0.00 PKD
ROOT
HETATM    1  C   UNL     1      -7.206  13.927  67.684  1.00  0.00    -0.174 C  
HETATM    2  N   UNL     1      -6.133  13.243  68.407  1.00  0.00    -0.078 NA 
HETATM    3  C   UNL     1      -6.351  13.361  69.850  1.00  0.00    -0.060 C  
ENDROOT
BRANCH   2   4
HETATM    4  C   UNL     1      -6.019  11.825  68.032  1.00  0.00    -0.049 C  
BRANCH   4   5
HETATM    5  C   UNL     1      -7.266  11.249  67.349  1.00  0.00    -0.110 C  
BRANCH   5   6
HETATM    6  C   UNL     1      -7.961  10.148  68.171  1.00  0.00    -0.104 C  
BRANCH   6   7
HETATM    7  C   UNL     1      -9.166   9.480  67.456  1.00  0.00    -0.126 C  
HETATM    8  O   UNL     1      -8.612   8.690  66.356  1.00  0.00    -0.110 OA 
HETATM    9  N   UNL     1     -12.514  13.906  63.405  1.00  0.00    -0.791 NA 
HETATM   10  C   UNL     1     -10.561  11.201  64.498  1.00  0.00    -0.397 A  
HETATM   11  C   UNL     1      -9.003   9.226  65.077  1.00  0.00    -0.197 C  
HETATM   12  C   UNL     1      -9.927  10.342  65.386  1.00  0.00    -0.371 A  
HETATM   13  C   UNL     1     -12.003  13.151  64.129  1.00  0.00    -0.436 C  
HETATM   14  C   UNL     1     -10.057  10.482  66.762  1.00  0.00    -0.270 A  
HETATM   15  C   UNL     1     -11.358  12.228  65.015  1.00  0.00    -0.376 A  
HETATM   16  C   UNL     1     -11.505  12.367  66.406  1.00  0.00    -0.427 A  
HETATM   17  C   UNL     1     -10.850  11.496  67.286  1.00  0.00    -0.301 A  
BRANCH   7  18
HETATM   18  C   UNL     1      -9.922   8.536  68.408  1.00  0.00    -0.208 A  
HETATM   19  C   UNL     1     -10.394   7.279  67.976  1.00  0.00    -0.243 A  
HETATM   20  F   UNL     1     -11.953   5.988  70.988  1.00  0.00    -0.310 F  
HETATM   21  C   UNL     1     -11.295   6.806  70.158  1.00  0.00    -0.350 A  
HETATM   22  C   UNL     1     -10.837   8.030  70.622  1.00  0.00    -0.240 A  
HETATM   23  C   UNL     1     -10.151   8.887  69.756  1.00  0.00    -0.205 A  
HETATM   24  C   UNL     1     -11.074   6.420  68.845  1.00  0.00    -0.420 A  
ENDBRANCH   7  18
ENDBRANCH   6   7
ENDBRANCH   5   6
ENDBRANCH   4   5
ENDBRANCH   2   4
TORSDOF 5
ENDMDL
MODEL       66
REMARK 921   NORMALIZED FREE ENERGY PREDICTED BY IDOCK:   -4.77 KCAL/MOL
REMARK 922        TOTAL FREE ENERGY PREDICTED BY IDOCK:   -7.25 KCAL/MOL
REMARK 923 INTER-LIGAND FREE ENERGY PREDICTED BY IDOCK:   -5.98 KCAL/MOL
REMARK 924 INTRA-LIGAND FREE ENERGY PREDICTED BY IDOCK:   -1.27 KCAL/MOL
REMARK 927      BINDING AFFINITY PREDICTED BY RF-SCORE:    0.00 PKD
ROOT
HETATM    1  C   UNL     1      -6.331  12.934  69.261  1.00  0.00    -0.108 C  
HETATM    2  N   UNL     1      -7.224  12.054  68.506  1.00  0.00    -0.096 NA 
HETATM    3  C   UNL     1      -7.840  12.797  67.405  1.00  0.00    -0.172 C  
ENDROOT
BRANCH   2   4
HETATM    4  C   UNL     1      -6.532  10.866  67.984  1.00  0.00    -0.058 C  
BRANCH   4   5
HETATM    5  C   UNL     1      -6.902   9.557  68.692  1.00  0.00    -0.057 C  
BRANCH   5   6
HETATM    6  C   UNL     1      -8.105   9.694  69.644  1.00  0.00    -0.143 C  
BRANCH   6   7
HETATM    7  C   UNL     1      -9.448   9.183  69.055  1.00  0.00    -0.152 C  
HETATM    8  O   UNL     1      -9.110   8.404  67.863  1.00  0.00    -0.133 OA 
HETATM    9  N   UNL     1     -12.786  14.118  65.631  1.00  0.00    -0.509 NA 
HETATM   10  C   UNL     1     -11.001  11.185  66.364  1.00  0.00    -0.248 A  
HETATM   11  C   UNL     1      -9.593   9.042  66.665  1.00  0.00    -0.213 C  
HETATM   12  C   UNL     1     -10.357  10.223  67.131  1.00  0.00    -0.292 A  
HETATM   13  C   UNL     1     -12.271  13.280  66.255  1.00  0.00    -0.377 C  
HETATM   14  C   UNL     1     -10.309  10.302  68.517  1.00  0.00    -0.200 A  
HETATM   15  C   UNL     1     -11.623  12.254  67.016  1.00  0.00    -0.418 A  
HETATM   16  C   UNL     1     -11.591  12.333  68.420  1.00  0.00    -0.377 A  
HETATM   17  C   UNL     1     -10.928  11.357  69.176  1.00  0.00    -0.289 A  
BRANCH   7  18
HETATM   18  C   UNL     1     -10.178   8.267  70.053  1.00  0.00    -0.202 A  
HETATM   19  C   UNL     1     -10.571   6.960  69.698  1.00  0.00    -0.258 A  
HETATM   20  F   UNL     1     -12.139   5.792  72.756  1.00  0.00    -0.291 F  
HETATM   21  C   UNL     1     -11.503   6.587  71.886  1.00  0.00    -0.301 A  
HETATM   22  C   UNL     1     -11.123   7.863  72.275  1.00  0.00    -0.376 A  
HETATM   23  C   UNL     1     -10.461   8.696  71.367  1.00  0.00    -0.327 A  
HETATM   24  C   UNL     1     -11.228   6.126  70.608  1.00  0.00    -0.387 A  
ENDBRANCH   7  18
ENDBRANCH   6   7
ENDBRANCH   5   6
ENDBRANCH   4   5
ENDBRANCH   2   4
TORSDOF 5
ENDMDL
MODEL       67
REMARK 921   NORMALIZED FREE ENERGY PREDICTED BY IDOCK:   -4.76 KCAL/MOL
REMARK 922        TOTAL FREE ENERGY PREDICTED BY IDOCK:   -7.23 KCAL/MOL
REMARK 923 INTER-LIGAND FREE ENERGY PREDICTED BY IDOCK:   -6.01 KCAL/MOL
REMARK 924 INTRA-LIGAND FREE ENERGY PREDICTED BY IDOCK:   -1.23 KCAL/MOL
REMARK 927      BINDING AFFINITY PREDICTED BY RF-SCORE:    0.00 PKD
ROOT
HETATM    1  C   UNL     1      -7.812   8.675  70.606  1.00  0.00    -0.099 C  
HETATM    2  N   UNL     1      -6.918   9.380  69.686  1.00  0.00    -0.055 NA 
HETATM    3  C   UNL     1      -6.883   8.686  68.397  1.00  0.00    -0.065 C  
ENDROOT
BRANCH   2   4
HETATM    4  C   UNL     1      -7.310  10.785  69.489  1.00  0.00    -0.124 C  
BRANCH   4   5
HETATM    5  C   UNL     1      -7.404  11.214  68.019  1.00  0.00    -0.088 C  
BRANCH   5   6
HETATM    6  C   UNL     1      -8.408  12.358  67.779  1.00  0.00    -0.164 C  
BRANCH   6   7
HETATM    7  C   UNL     1      -9.863  11.886  67.517  1.00  0.00    -0.188 C  
HETATM    8  O   UNL     1     -10.545  11.901  68.812  1.00  0.00    -0.216 OA 
HETATM    9  N   UNL     1     -10.244   5.074  66.704  1.00  0.00    -0.242 NA 
HETATM   10  C   UNL     1     -10.614   8.304  68.029  1.00  0.00    -0.188 A  
HETATM   11  C   UNL     1     -10.896  10.569  69.234  1.00  0.00    -0.243 C  
HETATM   12  C   UNL     1     -10.510   9.686  68.110  1.00  0.00    -0.266 A  
HETATM   13  C   UNL     1     -10.200   6.235  66.778  1.00  0.00    -0.202 C  
HETATM   14  C   UNL     1      -9.938  10.439  67.092  1.00  0.00    -0.239 A  
HETATM   15  C   UNL     1     -10.135   7.662  66.882  1.00  0.00    -0.348 A  
HETATM   16  C   UNL     1      -9.568   8.419  65.842  1.00  0.00    -0.119 A  
HETATM   17  C   UNL     1      -9.462   9.813  65.945  1.00  0.00    -0.285 A  
BRANCH   7  18
HETATM   18  C   UNL     1     -10.595  12.849  66.565  1.00  0.00    -0.272 A  
HETATM   19  C   UNL     1      -9.900  13.851  65.857  1.00  0.00    -0.287 A  
HETATM   20  F   UNL     1     -12.575  15.438  63.986  1.00  0.00    -0.453 F  
HETATM   21  C   UNL     1     -11.936  14.602  64.813  1.00  0.00    -0.433 A  
HETATM   22  C   UNL     1     -12.652  13.621  65.484  1.00  0.00    -0.541 A  
HETATM   23  C   UNL     1     -11.986  12.748  66.350  1.00  0.00    -0.443 A  
HETATM   24  C   UNL     1     -10.565  14.721  64.986  1.00  0.00    -0.452 A  
ENDBRANCH   7  18
ENDBRANCH   6   7
ENDBRANCH   5   6
ENDBRANCH   4   5
ENDBRANCH   2   4
TORSDOF 5
ENDMDL
MODEL       68
REMARK 921   NORMALIZED FREE ENERGY PREDICTED BY IDOCK:   -4.73 KCAL/MOL
REMARK 922        TOTAL FREE ENERGY PREDICTED BY IDOCK:   -7.20 KCAL/MOL
REMARK 923 INTER-LIGAND FREE ENERGY PREDICTED BY IDOCK:   -6.32 KCAL/MOL
REMARK 924 INTRA-LIGAND FREE ENERGY PREDICTED BY IDOCK:   -0.88 KCAL/MOL
REMARK 927      BINDING AFFINITY PREDICTED BY RF-SCORE:    0.00 PKD
ROOT
HETATM    1  C   UNL     1      -6.921   9.359  63.985  1.00  0.00    -0.096 C  
HETATM    2  N   UNL     1      -8.129  10.175  64.125  1.00  0.00    -0.157 NA 
HETATM    3  C   UNL     1      -8.786  10.318  62.824  1.00  0.00    -0.207 C  
ENDROOT
BRANCH   2   4
HETATM    4  C   UNL     1      -9.073   9.615  65.104  1.00  0.00    -0.228 C  
BRANCH   4   5
HETATM    5  C   UNL     1     -10.214  10.562  65.497  1.00  0.00    -0.325 C  
BRANCH   5   6
HETATM    6  C   UNL     1     -11.005  10.090  66.730  1.00  0.00    -0.017 C  
BRANCH   6   7
HETATM    7  C   UNL     1     -11.039  11.112  67.898  1.00  0.00    -0.273 C  
HETATM    8  O   UNL     1     -12.115  12.056  67.594  1.00  0.00    -0.547 OA 
HETATM    9  N   UNL     1      -5.995  15.751  67.391  1.00  0.00    -0.297 NA 
HETATM   10  C   UNL     1      -9.180  14.275  67.451  1.00  0.00    -0.200 A  
HETATM   11  C   UNL     1     -11.597  13.375  67.335  1.00  0.00    -0.354 C  
HETATM   12  C   UNL     1     -10.140  13.281  67.587  1.00  0.00    -0.229 A  
HETATM   13  C   UNL     1      -6.822  14.943  67.534  1.00  0.00    -0.161 C  
HETATM   14  C   UNL     1      -9.805  11.981  67.945  1.00  0.00    -0.196 A  
HETATM   15  C   UNL     1      -7.842  13.950  67.693  1.00  0.00    -0.187 A  
HETATM   16  C   UNL     1      -7.497  12.640  68.071  1.00  0.00    -0.120 A  
HETATM   17  C   UNL     1      -8.479  11.648  68.193  1.00  0.00    -0.156 A  
BRANCH   7  18
HETATM   18  C   UNL     1     -11.357  10.417  69.234  1.00  0.00    -0.296 A  
HETATM   19  C   UNL     1     -12.337  10.925  70.112  1.00  0.00    -0.399 A  
HETATM   20  F   UNL     1     -12.217   8.528  72.835  1.00  0.00    -0.446 F  
HETATM   21  C   UNL     1     -11.944   9.134  71.674  1.00  0.00    -0.367 A  
HETATM   22  C   UNL     1     -10.981   8.599  70.831  1.00  0.00    -0.301 A  
HETATM   23  C   UNL     1     -10.692   9.233  69.618  1.00  0.00    -0.244 A  
HETATM   24  C   UNL     1     -12.629  10.288  71.322  1.00  0.00    -0.522 A  
ENDBRANCH   7  18
ENDBRANCH   6   7
ENDBRANCH   5   6
ENDBRANCH   4   5
ENDBRANCH   2   4
TORSDOF 5
ENDMDL
MODEL       69
REMARK 921   NORMALIZED FREE ENERGY PREDICTED BY IDOCK:   -4.72 KCAL/MOL
REMARK 922        TOTAL FREE ENERGY PREDICTED BY IDOCK:   -7.18 KCAL/MOL
REMARK 923 INTER-LIGAND FREE ENERGY PREDICTED BY IDOCK:   -6.19 KCAL/MOL
REMARK 924 INTRA-LIGAND FREE ENERGY PREDICTED BY IDOCK:   -0.99 KCAL/MOL
REMARK 927      BINDING AFFINITY PREDICTED BY RF-SCORE:    0.00 PKD
ROOT
HETATM    1  C   UNL     1     -10.356  17.541  68.768  1.00  0.00    -0.358 C  
HETATM    2  N   UNL     1     -10.460  16.906  67.453  1.00  0.00    -0.317 NA 
HETATM    3  C   UNL     1     -10.287  17.911  66.401  1.00  0.00    -0.365 C  
ENDROOT
BRANCH   2   4
HETATM    4  C   UNL     1      -9.483  15.821  67.275  1.00  0.00    -0.212 C  
BRANCH   4   5
HETATM    5  C   UNL     1     -10.082  14.513  66.743  1.00  0.00    -0.264 C  
BRANCH   5   6
HETATM    6  C   UNL     1     -10.818  13.694  67.820  1.00  0.00    -0.266 C  
BRANCH   6   7
HETATM    7  C   UNL     1     -10.118  12.362  68.201  1.00  0.00    -0.224 C  
HETATM    8  O   UNL     1      -8.789  12.719  68.700  1.00  0.00    -0.083 OA 
HETATM    9  N   UNL     1      -7.812   9.004  62.668  1.00  0.00    -0.122 NA 
HETATM   10  C   UNL     1      -7.909  10.813  65.675  1.00  0.00    -0.076 A  
HETATM   11  C   UNL     1      -7.753  12.240  67.820  1.00  0.00    -0.139 C  
HETATM   12  C   UNL     1      -8.456  11.460  66.775  1.00  0.00    -0.165 A  
HETATM   13  C   UNL     1      -8.244   9.522  63.617  1.00  0.00    -0.165 C  
HETATM   14  C   UNL     1      -9.826  11.495  67.000  1.00  0.00    -0.212 A  
HETATM   15  C   UNL     1      -8.771  10.174  64.778  1.00  0.00    -0.202 A  
HETATM   16  C   UNL     1     -10.159  10.193  65.007  1.00  0.00    -0.305 A  
HETATM   17  C   UNL     1     -10.692  10.859  66.118  1.00  0.00    -0.225 A  
BRANCH   7  18
HETATM   18  C   UNL     1     -10.884  11.633  69.319  1.00  0.00    -0.203 A  
HETATM   19  C   UNL     1     -12.027  12.202  69.918  1.00  0.00    -0.380 A  
HETATM   20  F   UNL     1     -12.955   9.654  72.330  1.00  0.00    -0.453 F  
HETATM   21  C   UNL     1     -12.291  10.290  71.357  1.00  0.00    -0.401 A  
HETATM   22  C   UNL     1     -11.177   9.694  70.785  1.00  0.00    -0.403 A  
HETATM   23  C   UNL     1     -10.481  10.358  69.770  1.00  0.00    -0.284 A  
HETATM   24  C   UNL     1     -12.727  11.535  70.929  1.00  0.00    -0.372 A  
ENDBRANCH   7  18
ENDBRANCH   6   7
ENDBRANCH   5   6
ENDBRANCH   4   5
ENDBRANCH   2   4
TORSDOF 5
ENDMDL
MODEL       70
REMARK 921   NORMALIZED FREE ENERGY PREDICTED BY IDOCK:   -4.65 KCAL/MOL
REMARK 922        TOTAL FREE ENERGY PREDICTED BY IDOCK:   -7.10 KCAL/MOL
REMARK 923 INTER-LIGAND FREE ENERGY PREDICTED BY IDOCK:   -6.39 KCAL/MOL
REMARK 924 INTRA-LIGAND FREE ENERGY PREDICTED BY IDOCK:   -0.71 KCAL/MOL
REMARK 927      BINDING AFFINITY PREDICTED BY RF-SCORE:    0.00 PKD
ROOT
HETATM    1  C   UNL     1      -7.619  17.475  66.294  1.00  0.00    -0.308 C  
HETATM    2  N   UNL     1      -9.048  17.621  66.574  1.00  0.00    -0.274 NA 
HETATM    3  C   UNL     1      -9.492  18.967  66.208  1.00  0.00    -0.314 C  
ENDROOT
BRANCH   2   4
HETATM    4  C   UNL     1      -9.862  16.616  65.871  1.00  0.00    -0.273 C  
BRANCH   4   5
HETATM    5  C   UNL     1     -10.899  15.913  66.755  1.00  0.00    -0.228 C  
BRANCH   5   6
HETATM    6  C   UNL     1     -10.734  14.382  66.792  1.00  0.00    -0.292 C  
BRANCH   6   7
HETATM    7  C   UNL     1     -10.264  13.822  68.162  1.00  0.00    -0.253 C  
HETATM    8  O   UNL     1      -8.870  14.236  68.324  1.00  0.00    -0.172 OA 
HETATM    9  N   UNL     1      -8.873   7.101  67.842  1.00  0.00    -0.125 NA 
HETATM   10  C   UNL     1      -8.496  10.577  68.162  1.00  0.00    -0.123 A  
HETATM   11  C   UNL     1      -7.981  13.102  68.306  1.00  0.00    -0.148 C  
HETATM   12  C   UNL     1      -8.863  11.914  68.232  1.00  0.00    -0.174 A  
HETATM   13  C   UNL     1      -9.159   8.225  67.939  1.00  0.00    -0.133 C  
HETATM   14  C   UNL     1     -10.192  12.314  68.179  1.00  0.00    -0.212 A  
HETATM   15  C   UNL     1      -9.502   9.612  68.044  1.00  0.00    -0.146 A  
HETATM   16  C   UNL     1     -10.851  10.009  68.004  1.00  0.00    -0.311 A  
HETATM   17  C   UNL     1     -11.201  11.364  68.067  1.00  0.00    -0.346 A  
BRANCH   7  18
HETATM   18  C   UNL     1     -11.091  14.415  69.317  1.00  0.00    -0.300 A  
HETATM   19  C   UNL     1     -10.604  15.485  70.096  1.00  0.00    -0.336 A  
HETATM   20  F   UNL     1     -13.335  16.018  72.426  1.00  0.00    -0.503 F  
HETATM   21  C   UNL     1     -12.614  15.505  71.422  1.00  0.00    -0.431 A  
HETATM   22  C   UNL     1     -13.131  14.460  70.671  1.00  0.00    -0.279 A  
HETATM   23  C   UNL     1     -12.377  13.921  69.623  1.00  0.00    -0.301 A  
HETATM   24  C   UNL     1     -11.361  16.027  71.140  1.00  0.00    -0.413 A  
ENDBRANCH   7  18
ENDBRANCH   6   7
ENDBRANCH   5   6
ENDBRANCH   4   5
ENDBRANCH   2   4
TORSDOF 5
ENDMDL
MODEL       71
REMARK 921   NORMALIZED FREE ENERGY PREDICTED BY IDOCK:   -4.64 KCAL/MOL
REMARK 922        TOTAL FREE ENERGY PREDICTED BY IDOCK:   -7.08 KCAL/MOL
REMARK 923 INTER-LIGAND FREE ENERGY PREDICTED BY IDOCK:   -6.62 KCAL/MOL
REMARK 924 INTRA-LIGAND FREE ENERGY PREDICTED BY IDOCK:   -0.46 KCAL/MOL
REMARK 927      BINDING AFFINITY PREDICTED BY RF-SCORE:    0.00 PKD
ROOT
HETATM    1  C   UNL     1     -12.364  12.058  63.501  1.00  0.00    -0.551 C  
HETATM    2  N   UNL     1     -11.607  13.265  63.834  1.00  0.00    -0.409 NA 
HETATM    3  C   UNL     1     -12.518  14.308  64.310  1.00  0.00    -0.272 C  
ENDROOT
BRANCH   2   4
HETATM    4  C   UNL     1     -10.564  13.013  64.840  1.00  0.00    -0.337 C  
BRANCH   4   5
HETATM    5  C   UNL     1     -10.794  11.756  65.689  1.00  0.00    -0.342 C  
BRANCH   5   6
HETATM    6  C   UNL     1     -11.551  12.034  67.001  1.00  0.00    -0.387 C  
BRANCH   6   7
HETATM    7  C   UNL     1     -10.633  12.334  68.217  1.00  0.00    -0.227 C  
HETATM    8  O   UNL     1      -9.827  13.499  67.851  1.00  0.00    -0.221 OA 
HETATM    9  N   UNL     1      -5.318   7.992  68.551  1.00  0.00    -0.031 NA 
HETATM   10  C   UNL     1      -7.219  10.919  68.168  1.00  0.00    -0.083 A  
HETATM   11  C   UNL     1      -8.433  13.155  67.731  1.00  0.00    -0.185 C  
HETATM   12  C   UNL     1      -8.344  11.733  68.137  1.00  0.00    -0.156 A  
HETATM   13  C   UNL     1      -6.240   8.703  68.553  1.00  0.00    -0.053 C  
HETATM   14  C   UNL     1      -9.608  11.251  68.452  1.00  0.00    -0.195 A  
HETATM   15  C   UNL     1      -7.374   9.579  68.538  1.00  0.00    -0.079 A  
HETATM   16  C   UNL     1      -8.648   9.087  68.873  1.00  0.00    -0.131 A  
HETATM   17  C   UNL     1      -9.772   9.922  68.826  1.00  0.00    -0.164 A  
BRANCH   7  18
HETATM   18  C   UNL     1     -11.464  12.682  69.465  1.00  0.00    -0.294 A  
HETATM   19  C   UNL     1     -12.080  11.678  70.241  1.00  0.00    -0.443 A  
HETATM   20  F   UNL     1     -13.696  13.626  72.842  1.00  0.00    -0.585 F  
HETATM   21  C   UNL     1     -12.973  13.321  71.757  1.00  0.00    -0.335 A  
HETATM   22  C   UNL     1     -12.373  14.335  71.025  1.00  0.00    -0.431 A  
HETATM   23  C   UNL     1     -11.620  14.019  69.890  1.00  0.00    -0.320 A  
HETATM   24  C   UNL     1     -12.828  11.995  71.379  1.00  0.00    -0.391 A  
ENDBRANCH   7  18
ENDBRANCH   6   7
ENDBRANCH   5   6
ENDBRANCH   4   5
ENDBRANCH   2   4
TORSDOF 5
ENDMDL
MODEL       72
REMARK 921   NORMALIZED FREE ENERGY PREDICTED BY IDOCK:   -4.62 KCAL/MOL
REMARK 922        TOTAL FREE ENERGY PREDICTED BY IDOCK:   -7.06 KCAL/MOL
REMARK 923 INTER-LIGAND FREE ENERGY PREDICTED BY IDOCK:   -6.03 KCAL/MOL
REMARK 924 INTRA-LIGAND FREE ENERGY PREDICTED BY IDOCK:   -1.03 KCAL/MOL
REMARK 927      BINDING AFFINITY PREDICTED BY RF-SCORE:    0.00 PKD
ROOT
HETATM    1  C   UNL     1     -13.049  10.094  71.091  1.00  0.00    -0.392 C  
HETATM    2  N   UNL     1     -11.938  10.957  70.685  1.00  0.00    -0.347 NA 
HETATM    3  C   UNL     1     -11.393  10.498  69.406  1.00  0.00    -0.269 C  
ENDROOT
BRANCH   2   4
HETATM    4  C   UNL     1     -12.334  12.370  70.583  1.00  0.00    -0.279 C  
BRANCH   4   5
HETATM    5  C   UNL     1     -12.164  12.975  69.184  1.00  0.00    -0.106 C  
BRANCH   5   6
HETATM    6  C   UNL     1     -11.303  14.252  69.170  1.00  0.00    -0.312 C  
BRANCH   6   7
HETATM    7  C   UNL     1     -10.558  14.506  67.831  1.00  0.00    -0.243 C  
HETATM    8  O   UNL     1     -11.542  14.314  66.765  1.00  0.00    -0.356 OA 
HETATM    9  N   UNL     1      -6.647   9.154  66.020  1.00  0.00    -0.068 NA 
HETATM   10  C   UNL     1      -9.199  11.565  66.052  1.00  0.00    -0.229 A  
HETATM   11  C   UNL     1     -11.222  13.165  65.957  1.00  0.00    -0.292 C  
HETATM   12  C   UNL     1      -9.925  12.671  66.474  1.00  0.00    -0.256 A  
HETATM   13  C   UNL     1      -7.254  10.097  66.333  1.00  0.00    -0.108 C  
HETATM   14  C   UNL     1      -9.511  13.457  67.542  1.00  0.00    -0.219 A  
HETATM   15  C   UNL     1      -8.013  11.248  66.722  1.00  0.00    -0.159 A  
HETATM   16  C   UNL     1      -7.580  12.048  67.795  1.00  0.00    -0.130 A  
HETATM   17  C   UNL     1      -8.331  13.154  68.212  1.00  0.00    -0.152 A  
BRANCH   7  18
HETATM   18  C   UNL     1     -10.026  15.948  67.758  1.00  0.00    -0.229 A  
HETATM   19  C   UNL     1     -10.339  16.898  68.752  1.00  0.00    -0.324 A  
HETATM   20  F   UNL     1      -8.577  19.839  67.559  1.00  0.00    -0.322 F  
HETATM   21  C   UNL     1      -9.040  18.584  67.626  1.00  0.00    -0.281 A  
HETATM   22  C   UNL     1      -8.702  17.674  66.635  1.00  0.00    -0.286 A  
HETATM   23  C   UNL     1      -9.187  16.365  66.702  1.00  0.00    -0.279 A  
HETATM   24  C   UNL     1      -9.849  18.206  68.687  1.00  0.00    -0.389 A  
ENDBRANCH   7  18
ENDBRANCH   6   7
ENDBRANCH   5   6
ENDBRANCH   4   5
ENDBRANCH   2   4
TORSDOF 5
ENDMDL
MODEL       73
REMARK 921   NORMALIZED FREE ENERGY PREDICTED BY IDOCK:   -4.62 KCAL/MOL
REMARK 922        TOTAL FREE ENERGY PREDICTED BY IDOCK:   -7.05 KCAL/MOL
REMARK 923 INTER-LIGAND FREE ENERGY PREDICTED BY IDOCK:   -6.07 KCAL/MOL
REMARK 924 INTRA-LIGAND FREE ENERGY PREDICTED BY IDOCK:   -0.99 KCAL/MOL
REMARK 927      BINDING AFFINITY PREDICTED BY RF-SCORE:    0.00 PKD
ROOT
HETATM    1  C   UNL     1     -10.985  11.606  64.049  1.00  0.00    -0.387 C  
HETATM    2  N   UNL     1     -10.064  10.731  64.778  1.00  0.00    -0.308 NA 
HETATM    3  C   UNL     1      -9.232   9.986  63.831  1.00  0.00    -0.272 C  
ENDROOT
BRANCH   2   4
HETATM    4  C   UNL     1      -9.212  11.474  65.719  1.00  0.00    -0.196 C  
BRANCH   4   5
HETATM    5  C   UNL     1      -9.528  11.217  67.197  1.00  0.00    -0.187 C  
BRANCH   5   6
HETATM    6  C   UNL     1     -10.588  10.121  67.414  1.00  0.00    -0.329 C  
BRANCH   6   7
HETATM    7  C   UNL     1     -10.171   9.019  68.425  1.00  0.00    -0.201 C  
HETATM    8  O   UNL     1      -8.780   9.292  68.789  1.00  0.00    -0.129 OA 
HETATM    9  N   UNL     1      -8.820   3.052  65.296  1.00  0.00    -0.127 NA 
HETATM   10  C   UNL     1      -8.428   6.047  67.085  1.00  0.00    -0.104 A  
HETATM   11  C   UNL     1      -7.900   8.256  68.313  1.00  0.00    -0.118 C  
HETATM   12  C   UNL     1      -8.788   7.234  67.711  1.00  0.00    -0.124 A  
HETATM   13  C   UNL     1      -9.100   4.033  65.857  1.00  0.00    -0.143 C  
HETATM   14  C   UNL     1     -10.111   7.647  67.796  1.00  0.00    -0.237 A  
HETATM   15  C   UNL     1      -9.437   5.249  66.536  1.00  0.00    -0.155 A  
HETATM   16  C   UNL     1     -10.780   5.653  66.631  1.00  0.00    -0.339 A  
HETATM   17  C   UNL     1     -11.122   6.859  67.258  1.00  0.00    -0.355 A  
BRANCH   7  18
HETATM   18  C   UNL     1     -11.034   9.078  69.698  1.00  0.00    -0.147 A  
HETATM   19  C   UNL     1     -11.277   7.927  70.476  1.00  0.00    -0.259 A  
HETATM   20  F   UNL     1     -13.358   9.248  73.140  1.00  0.00    -0.336 F  
HETATM   21  C   UNL     1     -12.606   9.194  72.034  1.00  0.00    -0.390 A  
HETATM   22  C   UNL     1     -12.381  10.349  71.300  1.00  0.00    -0.507 A  
HETATM   23  C   UNL     1     -11.597  10.294  70.143  1.00  0.00    -0.376 A  
HETATM   24  C   UNL     1     -12.056   7.985  71.636  1.00  0.00    -0.339 A  
ENDBRANCH   7  18
ENDBRANCH   6   7
ENDBRANCH   5   6
ENDBRANCH   4   5
ENDBRANCH   2   4
TORSDOF 5
ENDMDL
MODEL       74
REMARK 921   NORMALIZED FREE ENERGY PREDICTED BY IDOCK:   -4.60 KCAL/MOL
REMARK 922        TOTAL FREE ENERGY PREDICTED BY IDOCK:   -7.03 KCAL/MOL
REMARK 923 INTER-LIGAND FREE ENERGY PREDICTED BY IDOCK:   -6.19 KCAL/MOL
REMARK 924 INTRA-LIGAND FREE ENERGY PREDICTED BY IDOCK:   -0.84 KCAL/MOL
REMARK 927      BINDING AFFINITY PREDICTED BY RF-SCORE:    0.00 PKD
ROOT
HETATM    1  C   UNL     1      -8.397   6.112  65.003  1.00  0.00    -0.112 C  
HETATM    2  N   UNL     1      -8.925   5.146  65.967  1.00  0.00    -0.135 NA 
HETATM    3  C   UNL     1      -8.122   5.174  67.191  1.00  0.00    -0.104 C  
ENDROOT
BRANCH   2   4
HETATM    4  C   UNL     1     -10.339   5.393  66.290  1.00  0.00    -0.200 C  
BRANCH   4   5
HETATM    5  C   UNL     1     -10.570   6.053  67.655  1.00  0.00    -0.336 C  
BRANCH   5   6
HETATM    6  C   UNL     1     -10.779   7.577  67.570  1.00  0.00    -0.296 C  
BRANCH   6   7
HETATM    7  C   UNL     1     -10.345   8.354  68.842  1.00  0.00    -0.215 C  
HETATM    8  O   UNL     1      -8.882   8.392  68.827  1.00  0.00    -0.139 OA 
HETATM    9  N   UNL     1     -10.795   4.471  74.494  1.00  0.00    -0.295 NA 
HETATM   10  C   UNL     1      -9.494   6.371  71.844  1.00  0.00    -0.157 A  
HETATM   11  C   UNL     1      -8.327   7.626  69.913  1.00  0.00    -0.132 C  
HETATM   12  C   UNL     1      -9.491   7.169  70.707  1.00  0.00    -0.164 A  
HETATM   13  C   UNL     1     -10.766   5.168  73.562  1.00  0.00    -0.286 C  
HETATM   14  C   UNL     1     -10.669   7.609  70.116  1.00  0.00    -0.245 A  
HETATM   15  C   UNL     1     -10.724   6.014  72.407  1.00  0.00    -0.267 A  
HETATM   16  C   UNL     1     -11.920   6.469  71.822  1.00  0.00    -0.394 A  
HETATM   17  C   UNL     1     -11.896   7.265  70.670  1.00  0.00    -0.290 A  
BRANCH   7  18
HETATM   18  C   UNL     1     -10.876   9.798  68.819  1.00  0.00    -0.219 A  
HETATM   19  C   UNL     1     -11.056  10.495  67.606  1.00  0.00    -0.375 A  
HETATM   20  F   UNL     1     -12.321  13.695  68.761  1.00  0.00    -0.379 F  
HETATM   21  C   UNL     1     -11.860  12.438  68.779  1.00  0.00    -0.311 A  
HETATM   22  C   UNL     1     -11.706  11.781  69.991  1.00  0.00    -0.386 A  
HETATM   23  C   UNL     1     -11.222  10.469  70.011  1.00  0.00    -0.386 A  
HETATM   24  C   UNL     1     -11.546  11.805  67.586  1.00  0.00    -0.364 A  
ENDBRANCH   7  18
ENDBRANCH   6   7
ENDBRANCH   5   6
ENDBRANCH   4   5
ENDBRANCH   2   4
TORSDOF 5
ENDMDL
MODEL       75
REMARK 921   NORMALIZED FREE ENERGY PREDICTED BY IDOCK:   -4.58 KCAL/MOL
REMARK 922        TOTAL FREE ENERGY PREDICTED BY IDOCK:   -7.00 KCAL/MOL
REMARK 923 INTER-LIGAND FREE ENERGY PREDICTED BY IDOCK:   -6.12 KCAL/MOL
REMARK 924 INTRA-LIGAND FREE ENERGY PREDICTED BY IDOCK:   -0.88 KCAL/MOL
REMARK 927      BINDING AFFINITY PREDICTED BY RF-SCORE:    0.00 PKD
ROOT
HETATM    1  C   UNL     1     -10.045  16.333  67.687  1.00  0.00    -0.260 C  
HETATM    2  N   UNL     1      -9.846  15.911  69.074  1.00  0.00    -0.220 NA 
HETATM    3  C   UNL     1     -11.124  15.492  69.655  1.00  0.00    -0.279 C  
ENDROOT
BRANCH   2   4
HETATM    4  C   UNL     1      -8.861  14.824  69.194  1.00  0.00    -0.084 C  
BRANCH   4   5
HETATM    5  C   UNL     1      -8.645  14.022  67.905  1.00  0.00    -0.181 C  
BRANCH   5   6
HETATM    6  C   UNL     1      -8.849  12.507  68.085  1.00  0.00    -0.191 C  
BRANCH   6   7
HETATM    7  C   UNL     1     -10.246  11.993  67.644  1.00  0.00    -0.199 C  
HETATM    8  O   UNL     1     -11.087  11.992  68.842  1.00  0.00    -0.223 OA 
HETATM    9  N   UNL     1     -10.328   5.169  66.838  1.00  0.00    -0.240 NA 
HETATM   10  C   UNL     1     -10.955   8.392  68.082  1.00  0.00     0.143 A  
HETATM   11  C   UNL     1     -11.451  10.652  69.226  1.00  0.00    -0.281 C  
HETATM   12  C   UNL     1     -10.900   9.777  68.165  1.00  0.00    -0.264 A  
HETATM   13  C   UNL     1     -10.327   6.331  66.909  1.00  0.00    -0.244 C  
HETATM   14  C   UNL     1     -10.225  10.543  67.223  1.00  0.00    -0.260 A  
HETATM   15  C   UNL     1     -10.316   7.761  67.010  1.00  0.00    -0.405 A  
HETATM   16  C   UNL     1      -9.643   8.530  66.045  1.00  0.00    -0.236 A  
HETATM   17  C   UNL     1      -9.590   9.926  66.151  1.00  0.00    -0.275 A  
BRANCH   7  18
HETATM   18  C   UNL     1     -10.877  12.931  66.599  1.00  0.00    -0.288 A  
HETATM   19  C   UNL     1     -12.182  13.441  66.763  1.00  0.00    -0.367 A  
HETATM   20  F   UNL     1     -12.572  15.471  63.779  1.00  0.00    -0.316 F  
HETATM   21  C   UNL     1     -12.025  14.656  64.690  1.00  0.00    -0.462 A  
HETATM   22  C   UNL     1     -10.735  14.183  64.500  1.00  0.00    -0.323 A  
HETATM   23  C   UNL     1     -10.163  13.330  65.449  1.00  0.00    -0.304 A  
HETATM   24  C   UNL     1     -12.751  14.298  65.816  1.00  0.00    -0.365 A  
ENDBRANCH   7  18
ENDBRANCH   6   7
ENDBRANCH   5   6
ENDBRANCH   4   5
ENDBRANCH   2   4
TORSDOF 5
ENDMDL
MODEL       76
REMARK 921   NORMALIZED FREE ENERGY PREDICTED BY IDOCK:   -4.58 KCAL/MOL
REMARK 922        TOTAL FREE ENERGY PREDICTED BY IDOCK:   -7.00 KCAL/MOL
REMARK 923 INTER-LIGAND FREE ENERGY PREDICTED BY IDOCK:   -6.27 KCAL/MOL
REMARK 924 INTRA-LIGAND FREE ENERGY PREDICTED BY IDOCK:   -0.73 KCAL/MOL
REMARK 927      BINDING AFFINITY PREDICTED BY RF-SCORE:    0.00 PKD
ROOT
HETATM    1  C   UNL     1     -13.451  10.487  71.919  1.00  0.00    -0.256 C  
HETATM    2  N   UNL     1     -13.242   9.130  72.428  1.00  0.00    -0.445 NA 
HETATM    3  C   UNL     1     -14.257   8.230  71.878  1.00  0.00    -0.454 C  
ENDROOT
BRANCH   2   4
HETATM    4  C   UNL     1     -11.898   8.617  72.121  1.00  0.00    -0.377 C  
BRANCH   4   5
HETATM    5  C   UNL     1     -10.945   9.659  71.522  1.00  0.00    -0.266 C  
BRANCH   5   6
HETATM    6  C   UNL     1      -9.671   9.045  70.912  1.00  0.00    -0.329 C  
BRANCH   6   7
HETATM    7  C   UNL     1      -9.473   9.351  69.403  1.00  0.00    -0.173 C  
HETATM    8  O   UNL     1      -8.041   9.583  69.210  1.00  0.00    -0.091 OA 
HETATM    9  N   UNL     1     -11.352  15.769  67.823  1.00  0.00    -0.290 NA 
HETATM   10  C   UNL     1      -9.404  12.902  68.378  1.00  0.00    -0.147 A  
HETATM   11  C   UNL     1      -7.777  10.951  68.841  1.00  0.00    -0.135 C  
HETATM   12  C   UNL     1      -9.110  11.582  68.696  1.00  0.00    -0.124 A  
HETATM   13  C   UNL     1     -11.083  14.659  68.050  1.00  0.00    -0.281 C  
HETATM   14  C   UNL     1     -10.105  10.658  68.987  1.00  0.00    -0.226 A  
HETATM   15  C   UNL     1     -10.744  13.298  68.345  1.00  0.00    -0.273 A  
HETATM   16  C   UNL     1     -11.758  12.365  68.626  1.00  0.00    -0.372 A  
HETATM   17  C   UNL     1     -11.441  11.040  68.953  1.00  0.00    -0.364 A  
BRANCH   7  18
HETATM   18  C   UNL     1      -9.899   8.154  68.533  1.00  0.00    -0.190 A  
HETATM   19  C   UNL     1      -9.740   8.170  67.132  1.00  0.00    -0.259 A  
HETATM   20  F   UNL     1     -11.043   4.915  66.193  1.00  0.00    -0.313 F  
HETATM   21  C   UNL     1     -10.670   5.957  66.947  1.00  0.00    -0.321 A  
HETATM   22  C   UNL     1     -10.833   5.901  68.323  1.00  0.00    -0.325 A  
HETATM   23  C   UNL     1     -10.446   6.989  69.112  1.00  0.00    -0.218 A  
HETATM   24  C   UNL     1     -10.121   7.079  66.345  1.00  0.00    -0.045 A  
ENDBRANCH   7  18
ENDBRANCH   6   7
ENDBRANCH   5   6
ENDBRANCH   4   5
ENDBRANCH   2   4
TORSDOF 5
ENDMDL
MODEL       77
REMARK 921   NORMALIZED FREE ENERGY PREDICTED BY IDOCK:   -4.57 KCAL/MOL
REMARK 922        TOTAL FREE ENERGY PREDICTED BY IDOCK:   -6.99 KCAL/MOL
REMARK 923 INTER-LIGAND FREE ENERGY PREDICTED BY IDOCK:   -6.35 KCAL/MOL
REMARK 924 INTRA-LIGAND FREE ENERGY PREDICTED BY IDOCK:   -0.64 KCAL/MOL
REMARK 927      BINDING AFFINITY PREDICTED BY RF-SCORE:    0.00 PKD
ROOT
HETATM    1  C   UNL     1     -11.961  13.000  63.355  1.00  0.00    -0.520 C  
HETATM    2  N   UNL     1     -11.714  13.894  64.488  1.00  0.00    -0.393 NA 
HETATM    3  C   UNL     1     -12.283  15.215  64.212  1.00  0.00    -0.240 C  
ENDROOT
BRANCH   2   4
HETATM    4  C   UNL     1     -12.259  13.366  65.748  1.00  0.00    -0.458 C  
BRANCH   4   5
HETATM    5  C   UNL     1     -11.550  12.108  66.266  1.00  0.00    -0.424 C  
BRANCH   5   6
HETATM    6  C   UNL     1     -10.079  12.350  66.653  1.00  0.00    -0.234 C  
BRANCH   6   7
HETATM    7  C   UNL     1      -9.799  12.280  68.178  1.00  0.00    -0.212 C  
HETATM    8  O   UNL     1      -8.420  12.729  68.369  1.00  0.00    -0.164 OA 
HETATM    9  N   UNL     1      -8.640   5.840  70.275  1.00  0.00    -0.130 NA 
HETATM   10  C   UNL     1      -8.170   9.225  69.473  1.00  0.00    -0.121 A  
HETATM   11  C   UNL     1      -7.580  11.657  68.839  1.00  0.00    -0.087 C  
HETATM   12  C   UNL     1      -8.491  10.509  69.051  1.00  0.00    -0.159 A  
HETATM   13  C   UNL     1      -8.891   6.932  69.959  1.00  0.00    -0.142 C  
HETATM   14  C   UNL     1      -9.788  10.863  68.702  1.00  0.00    -0.194 A  
HETATM   15  C   UNL     1      -9.191   8.273  69.555  1.00  0.00    -0.158 A  
HETATM   16  C   UNL     1     -10.509   8.629  69.217  1.00  0.00    -0.226 A  
HETATM   17  C   UNL     1     -10.812   9.926  68.783  1.00  0.00    -0.240 A  
BRANCH   7  18
HETATM   18  C   UNL     1     -10.736  13.220  68.958  1.00  0.00    -0.156 A  
HETATM   19  C   UNL     1     -10.679  14.619  68.790  1.00  0.00    -0.252 A  
HETATM   20  F   UNL     1     -13.275  15.752  71.059  1.00  0.00    -0.518 F  
HETATM   21  C   UNL     1     -12.460  14.937  70.379  1.00  0.00    -0.350 A  
HETATM   22  C   UNL     1     -12.553  13.565  70.562  1.00  0.00    -0.311 A  
HETATM   23  C   UNL     1     -11.700  12.712  69.854  1.00  0.00    -0.320 A  
HETATM   24  C   UNL     1     -11.535  15.471  69.494  1.00  0.00    -0.341 A  
ENDBRANCH   7  18
ENDBRANCH   6   7
ENDBRANCH   5   6
ENDBRANCH   4   5
ENDBRANCH   2   4
TORSDOF 5
ENDMDL
MODEL       78
REMARK 921   NORMALIZED FREE ENERGY PREDICTED BY IDOCK:   -4.55 KCAL/MOL
REMARK 922        TOTAL FREE ENERGY PREDICTED BY IDOCK:   -6.97 KCAL/MOL
REMARK 923 INTER-LIGAND FREE ENERGY PREDICTED BY IDOCK:   -6.16 KCAL/MOL
REMARK 924 INTRA-LIGAND FREE ENERGY PREDICTED BY IDOCK:   -0.81 KCAL/MOL
REMARK 927      BINDING AFFINITY PREDICTED BY RF-SCORE:    0.00 PKD
ROOT
HETATM    1  C   UNL     1      -7.356   6.111  72.718  1.00  0.00    -0.089 C  
HETATM    2  N   UNL     1      -6.927   6.265  71.327  1.00  0.00    -0.070 NA 
HETATM    3  C   UNL     1      -7.787   5.469  70.449  1.00  0.00    -0.101 C  
ENDROOT
BRANCH   2   4
HETATM    4  C   UNL     1      -6.929   7.671  70.892  1.00  0.00    -0.053 C  
BRANCH   4   5
HETATM    5  C   UNL     1      -8.168   8.464  71.325  1.00  0.00    -0.161 C  
BRANCH   5   6
HETATM    6  C   UNL     1      -8.686   9.430  70.243  1.00  0.00    -0.261 C  
BRANCH   6   7
HETATM    7  C   UNL     1      -9.973   8.950  69.519  1.00  0.00    -0.191 C  
HETATM    8  O   UNL     1      -9.703   7.591  69.048  1.00  0.00    -0.159 OA 
HETATM    9  N   UNL     1     -10.548  11.674  63.237  1.00  0.00    -0.376 NA 
HETATM   10  C   UNL     1     -10.123   9.368  65.850  1.00  0.00    -0.243 A  
HETATM   11  C   UNL     1      -9.672   7.533  67.609  1.00  0.00    -0.147 C  
HETATM   12  C   UNL     1     -10.038   8.894  67.153  1.00  0.00    -0.316 A  
HETATM   13  C   UNL     1     -10.506  11.246  64.319  1.00  0.00    -0.357 C  
HETATM   14  C   UNL     1     -10.247   9.720  68.250  1.00  0.00    -0.212 A  
HETATM   15  C   UNL     1     -10.438  10.716  65.648  1.00  0.00    -0.235 A  
HETATM   16  C   UNL     1     -10.665  11.555  66.754  1.00  0.00    -0.311 A  
HETATM   17  C   UNL     1     -10.565  11.060  68.061  1.00  0.00    -0.241 A  
BRANCH   7  18
HETATM   18  C   UNL     1     -11.169   8.908  70.487  1.00  0.00    -0.287 A  
HETATM   19  C   UNL     1     -11.717  10.088  71.030  1.00  0.00    -0.479 A  
HETATM   20  F   UNL     1     -14.407   8.786  73.091  1.00  0.00    -0.279 F  
HETATM   21  C   UNL     1     -13.367   8.826  72.249  1.00  0.00    -0.419 A  
HETATM   22  C   UNL     1     -12.862   7.645  71.726  1.00  0.00    -0.357 A  
HETATM   23  C   UNL     1     -11.774   7.685  70.848  1.00  0.00    -0.291 A  
HETATM   24  C   UNL     1     -12.809  10.048  71.904  1.00  0.00    -0.524 A  
ENDBRANCH   7  18
ENDBRANCH   6   7
ENDBRANCH   5   6
ENDBRANCH   4   5
ENDBRANCH   2   4
TORSDOF 5
ENDMDL
MODEL       79
REMARK 921   NORMALIZED FREE ENERGY PREDICTED BY IDOCK:   -4.52 KCAL/MOL
REMARK 922        TOTAL FREE ENERGY PREDICTED BY IDOCK:   -6.93 KCAL/MOL
REMARK 923 INTER-LIGAND FREE ENERGY PREDICTED BY IDOCK:   -6.31 KCAL/MOL
REMARK 924 INTRA-LIGAND FREE ENERGY PREDICTED BY IDOCK:   -0.62 KCAL/MOL
REMARK 927      BINDING AFFINITY PREDICTED BY RF-SCORE:    0.00 PKD
ROOT
HETATM    1  C   UNL     1      -9.051  10.660  62.920  1.00  0.00    -0.286 C  
HETATM    2  N   UNL     1      -9.545  10.443  64.281  1.00  0.00    -0.294 NA 
HETATM    3  C   UNL     1      -8.419  10.206  65.186  1.00  0.00    -0.161 C  
ENDROOT
BRANCH   2   4
HETATM    4  C   UNL     1     -10.354  11.570  64.771  1.00  0.00    -0.289 C  
BRANCH   4   5
HETATM    5  C   UNL     1     -11.160  11.265  66.039  1.00  0.00    -0.181 C  
BRANCH   5   6
HETATM    6  C   UNL     1     -11.457  12.513  66.890  1.00  0.00    -0.416 C  
BRANCH   6   7
HETATM    7  C   UNL     1     -10.747  12.530  68.271  1.00  0.00    -0.228 C  
HETATM    8  O   UNL     1      -9.429  13.127  68.053  1.00  0.00    -0.207 OA 
HETATM    9  N   UNL     1      -8.334   6.329  69.986  1.00  0.00    -0.127 NA 
HETATM   10  C   UNL     1      -8.489   9.713  69.061  1.00  0.00    -0.131 A  
HETATM   11  C   UNL     1      -8.377  12.167  68.268  1.00  0.00    -0.172 C  
HETATM   12  C   UNL     1      -9.057  10.939  68.741  1.00  0.00    -0.174 A  
HETATM   13  C   UNL     1      -8.784   7.376  69.748  1.00  0.00    -0.141 C  
HETATM   14  C   UNL     1     -10.431  11.143  68.778  1.00  0.00    -0.227 A  
HETATM   15  C   UNL     1      -9.333   8.663  69.439  1.00  0.00    -0.150 A  
HETATM   16  C   UNL     1     -10.723   8.867  69.493  1.00  0.00    -0.206 A  
HETATM   17  C   UNL     1     -11.278  10.109  69.157  1.00  0.00    -0.234 A  
BRANCH   7  18
HETATM   18  C   UNL     1     -11.520  13.397  69.281  1.00  0.00    -0.345 A  
HETATM   19  C   UNL     1     -12.267  12.816  70.327  1.00  0.00    -0.351 A  
HETATM   20  F   UNL     1     -13.596  15.743  72.013  1.00  0.00    -0.493 F  
HETATM   21  C   UNL     1     -12.923  14.987  71.136  1.00  0.00    -0.390 A  
HETATM   22  C   UNL     1     -12.190  15.595  70.127  1.00  0.00    -0.387 A  
HETATM   23  C   UNL     1     -11.490  14.806  69.209  1.00  0.00    -0.322 A  
HETATM   24  C   UNL     1     -12.963  13.606  71.248  1.00  0.00    -0.399 A  
ENDBRANCH   7  18
ENDBRANCH   6   7
ENDBRANCH   5   6
ENDBRANCH   4   5
ENDBRANCH   2   4
TORSDOF 5
ENDMDL
MODEL       80
REMARK 921   NORMALIZED FREE ENERGY PREDICTED BY IDOCK:   -4.51 KCAL/MOL
REMARK 922        TOTAL FREE ENERGY PREDICTED BY IDOCK:   -6.91 KCAL/MOL
REMARK 923 INTER-LIGAND FREE ENERGY PREDICTED BY IDOCK:   -5.82 KCAL/MOL
REMARK 924 INTRA-LIGAND FREE ENERGY PREDICTED BY IDOCK:   -1.09 KCAL/MOL
REMARK 927      BINDING AFFINITY PREDICTED BY RF-SCORE:    0.00 PKD
ROOT
HETATM    1  C   UNL     1      -7.918   5.641  72.228  1.00  0.00    -0.107 C  
HETATM    2  N   UNL     1      -9.299   5.882  72.650  1.00  0.00    -0.144 NA 
HETATM    3  C   UNL     1      -9.798   4.730  73.403  1.00  0.00    -0.141 C  
ENDROOT
BRANCH   2   4
HETATM    4  C   UNL     1      -9.434   7.105  73.457  1.00  0.00    -0.209 C  
BRANCH   4   5
HETATM    5  C   UNL     1     -10.528   8.064  72.974  1.00  0.00    -0.341 C  
BRANCH   5   6
HETATM    6  C   UNL     1     -10.086   8.955  71.797  1.00  0.00    -0.407 C  
BRANCH   6   7
HETATM    7  C   UNL     1     -10.768   8.613  70.445  1.00  0.00    -0.224 C  
HETATM    8  O   UNL     1     -12.023   7.934  70.772  1.00  0.00    -0.247 OA 
HETATM    9  N   UNL     1      -7.885   3.155  67.427  1.00  0.00    -0.076 NA 
HETATM   10  C   UNL     1     -10.198   5.238  69.052  1.00  0.00    -0.269 A  
HETATM   11  C   UNL     1     -11.999   6.557  70.347  1.00  0.00    -0.229 C  
HETATM   12  C   UNL     1     -10.713   6.390  69.631  1.00  0.00    -0.339 A  
HETATM   13  C   UNL     1      -8.353   4.117  67.886  1.00  0.00    -0.094 C  
HETATM   14  C   UNL     1     -10.001   7.583  69.652  1.00  0.00    -0.184 A  
HETATM   15  C   UNL     1      -8.928   5.294  68.467  1.00  0.00    -0.118 A  
HETATM   16  C   UNL     1      -8.208   6.501  68.472  1.00  0.00    -0.121 A  
HETATM   17  C   UNL     1      -8.740   7.651  69.070  1.00  0.00    -0.136 A  
BRANCH   7  18
HETATM   18  C   UNL     1     -11.092   9.891  69.650  1.00  0.00    -0.279 A  
HETATM   19  C   UNL     1     -11.584  11.049  70.287  1.00  0.00    -0.414 A  
HETATM   20  F   UNL     1     -11.955  13.340  67.497  1.00  0.00    -0.358 F  
HETATM   21  C   UNL     1     -11.673  12.230  68.191  1.00  0.00    -0.349 A  
HETATM   22  C   UNL     1     -11.182  11.114  67.531  1.00  0.00    -0.369 A  
HETATM   23  C   UNL     1     -10.889   9.954  68.254  1.00  0.00    -0.275 A  
HETATM   24  C   UNL     1     -11.871  12.210  69.564  1.00  0.00    -0.386 A  
ENDBRANCH   7  18
ENDBRANCH   6   7
ENDBRANCH   5   6
ENDBRANCH   4   5
ENDBRANCH   2   4
TORSDOF 5
ENDMDL
MODEL       81
REMARK 921   NORMALIZED FREE ENERGY PREDICTED BY IDOCK:   -4.47 KCAL/MOL
REMARK 922        TOTAL FREE ENERGY PREDICTED BY IDOCK:   -6.86 KCAL/MOL
REMARK 923 INTER-LIGAND FREE ENERGY PREDICTED BY IDOCK:   -6.34 KCAL/MOL
REMARK 924 INTRA-LIGAND FREE ENERGY PREDICTED BY IDOCK:   -0.53 KCAL/MOL
REMARK 927      BINDING AFFINITY PREDICTED BY RF-SCORE:    0.00 PKD
ROOT
HETATM    1  C   UNL     1     -12.641  12.553  64.809  1.00  0.00    -0.413 C  
HETATM    2  N   UNL     1     -11.189  12.608  64.981  1.00  0.00    -0.289 NA 
HETATM    3  C   UNL     1     -10.671  13.866  64.438  1.00  0.00    -0.268 C  
ENDROOT
BRANCH   2   4
HETATM    4  C   UNL     1     -10.785  12.466  66.388  1.00  0.00    -0.247 C  
BRANCH   4   5
HETATM    5  C   UNL     1     -11.904  11.990  67.323  1.00  0.00    -0.257 C  
BRANCH   5   6
HETATM    6  C   UNL     1     -11.636  10.607  67.944  1.00  0.00    -0.132 C  
BRANCH   6   7
HETATM    7  C   UNL     1     -11.238  10.646  69.444  1.00  0.00    -0.270 C  
HETATM    8  O   UNL     1     -12.013   9.597  70.108  1.00  0.00    -0.121 OA 
HETATM    9  N   UNL     1     -14.272  15.841  72.764  1.00  0.00    -0.416 NA 
HETATM   10  C   UNL     1     -13.384  12.607  71.727  1.00  0.00    -0.405 A  
HETATM   11  C   UNL     1     -12.967  10.156  71.032  1.00  0.00    -0.385 C  
HETATM   12  C   UNL     1     -12.712  11.615  71.025  1.00  0.00    -0.395 A  
HETATM   13  C   UNL     1     -13.699  14.990  72.215  1.00  0.00    -0.468 C  
HETATM   14  C   UNL     1     -11.690  11.912  70.132  1.00  0.00    -0.337 A  
HETATM   15  C   UNL     1     -13.007  13.939  71.529  1.00  0.00    -0.436 A  
HETATM   16  C   UNL     1     -11.964  14.246  70.637  1.00  0.00    -0.392 A  
HETATM   17  C   UNL     1     -11.304  13.233  69.931  1.00  0.00    -0.067 A  
BRANCH   7  18
HETATM   18  C   UNL     1      -9.740  10.343  69.629  1.00  0.00    -0.158 A  
HETATM   19  C   UNL     1      -8.755  11.028  68.887  1.00  0.00    -0.122 A  
HETATM   20  F   UNL     1      -5.697   9.528  70.139  1.00  0.00    -0.033 F  
HETATM   21  C   UNL     1      -6.999   9.794  69.977  1.00  0.00    -0.106 A  
HETATM   22  C   UNL     1      -7.938   9.107  70.732  1.00  0.00    -0.192 A  
HETATM   23  C   UNL     1      -9.299   9.382  70.563  1.00  0.00    -0.319 A  
HETATM   24  C   UNL     1      -7.395  10.757  69.061  1.00  0.00    -0.109 A  
ENDBRANCH   7  18
ENDBRANCH   6   7
ENDBRANCH   5   6
ENDBRANCH   4   5
ENDBRANCH   2   4
TORSDOF 5
ENDMDL
MODEL       82
REMARK 921   NORMALIZED FREE ENERGY PREDICTED BY IDOCK:   -4.47 KCAL/MOL
REMARK 922        TOTAL FREE ENERGY PREDICTED BY IDOCK:   -6.86 KCAL/MOL
REMARK 923 INTER-LIGAND FREE ENERGY PREDICTED BY IDOCK:   -5.96 KCAL/MOL
REMARK 924 INTRA-LIGAND FREE ENERGY PREDICTED BY IDOCK:   -0.90 KCAL/MOL
REMARK 927      BINDING AFFINITY PREDICTED BY RF-SCORE:    0.00 PKD
ROOT
HETATM    1  C   UNL     1     -12.301  15.765  71.777  1.00  0.00    -0.454 C  
HETATM    2  N   UNL     1     -12.917  14.457  72.003  1.00  0.00    -0.335 NA 
HETATM    3  C   UNL     1     -14.363  14.544  71.791  1.00  0.00    -0.526 C  
ENDROOT
BRANCH   2   4
HETATM    4  C   UNL     1     -12.346  13.411  71.140  1.00  0.00    -0.259 C  
BRANCH   4   5
HETATM    5  C   UNL     1     -11.668  13.941  69.870  1.00  0.00    -0.358 C  
BRANCH   5   6
HETATM    6  C   UNL     1     -11.307  12.834  68.862  1.00  0.00    -0.344 C  
BRANCH   6   7
HETATM    7  C   UNL     1     -10.102  13.172  67.944  1.00  0.00    -0.232 C  
HETATM    8  O   UNL     1      -8.963  13.423  68.828  1.00  0.00    -0.042 OA 
HETATM    9  N   UNL     1     -10.437  19.601  65.542  1.00  0.00    -0.462 NA 
HETATM   10  C   UNL     1      -9.401  16.743  67.298  1.00  0.00    -0.234 A  
HETATM   11  C   UNL     1      -8.545  14.800  68.766  1.00  0.00    -0.170 C  
HETATM   12  C   UNL     1      -9.392  15.421  67.721  1.00  0.00    -0.195 A  
HETATM   13  C   UNL     1     -10.386  18.490  65.885  1.00  0.00    -0.315 C  
HETATM   14  C   UNL     1     -10.279  14.481  67.212  1.00  0.00    -0.255 A  
HETATM   15  C   UNL     1     -10.329  17.127  66.324  1.00  0.00    -0.315 A  
HETATM   16  C   UNL     1     -11.221  16.178  65.794  1.00  0.00     0.144 A  
HETATM   17  C   UNL     1     -11.202  14.851  66.240  1.00  0.00    -0.331 A  
BRANCH   7  18
HETATM   18  C   UNL     1      -9.758  11.989  67.021  1.00  0.00    -0.204 A  
HETATM   19  C   UNL     1      -8.448  11.791  66.538  1.00  0.00    -0.125 A  
HETATM   20  F   UNL     1      -8.834   8.786  64.539  1.00  0.00    -0.193 F  
HETATM   21  C   UNL     1      -9.130   9.816  65.342  1.00  0.00    -0.204 A  
HETATM   22  C   UNL     1     -10.428   9.972  65.806  1.00  0.00    -0.084 A  
HETATM   23  C   UNL     1     -10.739  11.048  66.643  1.00  0.00    -0.305 A  
HETATM   24  C   UNL     1      -8.136  10.711  65.706  1.00  0.00    -0.158 A  
ENDBRANCH   7  18
ENDBRANCH   6   7
ENDBRANCH   5   6
ENDBRANCH   4   5
ENDBRANCH   2   4
TORSDOF 5
ENDMDL
MODEL       83
REMARK 921   NORMALIZED FREE ENERGY PREDICTED BY IDOCK:   -4.45 KCAL/MOL
REMARK 922        TOTAL FREE ENERGY PREDICTED BY IDOCK:   -6.83 KCAL/MOL
REMARK 923 INTER-LIGAND FREE ENERGY PREDICTED BY IDOCK:   -5.82 KCAL/MOL
REMARK 924 INTRA-LIGAND FREE ENERGY PREDICTED BY IDOCK:   -1.02 KCAL/MOL
REMARK 927      BINDING AFFINITY PREDICTED BY RF-SCORE:    0.00 PKD
ROOT
HETATM    1  C   UNL     1      -5.970  18.674  68.003  1.00  0.00    -0.195 C  
HETATM    2  N   UNL     1      -7.119  18.475  67.118  1.00  0.00    -0.202 NA 
HETATM    3  C   UNL     1      -6.658  18.249  65.747  1.00  0.00    -0.282 C  
ENDROOT
BRANCH   2   4
HETATM    4  C   UNL     1      -7.972  17.357  67.551  1.00  0.00    -0.195 C  
BRANCH   4   5
HETATM    5  C   UNL     1      -7.761  16.058  66.763  1.00  0.00    -0.270 C  
BRANCH   5   6
HETATM    6  C   UNL     1      -9.060  15.264  66.533  1.00  0.00    -0.334 C  
BRANCH   6   7
HETATM    7  C   UNL     1      -9.212  14.010  67.434  1.00  0.00    -0.216 C  
HETATM    8  O   UNL     1      -7.972  13.897  68.203  1.00  0.00    -0.127 OA 
HETATM    9  N   UNL     1      -8.271   8.190  63.905  1.00  0.00    -0.112 NA 
HETATM   10  C   UNL     1      -7.815  10.827  66.177  1.00  0.00    -0.155 A  
HETATM   11  C   UNL     1      -7.229  12.720  67.831  1.00  0.00    -0.120 C  
HETATM   12  C   UNL     1      -8.088  12.007  66.857  1.00  0.00    -0.127 A  
HETATM   13  C   UNL     1      -8.494   9.157  64.514  1.00  0.00    -0.180 C  
HETATM   14  C   UNL     1      -9.256  12.726  66.640  1.00  0.00    -0.212 A  
HETATM   15  C   UNL     1      -8.755  10.354  65.255  1.00  0.00    -0.192 A  
HETATM   16  C   UNL     1      -9.947  11.070  65.041  1.00  0.00    -0.340 A  
HETATM   17  C   UNL     1     -10.200  12.263  65.730  1.00  0.00    -0.281 A  
BRANCH   7  18
HETATM   18  C   UNL     1     -10.387  14.171  68.415  1.00  0.00    -0.249 A  
HETATM   19  C   UNL     1     -10.959  13.058  69.066  1.00  0.00    -0.242 A  
HETATM   20  F   UNL     1     -13.554  14.614  71.071  1.00  0.00    -0.403 F  
HETATM   21  C   UNL     1     -12.531  14.471  70.219  1.00  0.00    -0.348 A  
HETATM   22  C   UNL     1     -11.988  15.591  69.605  1.00  0.00    -0.380 A  
HETATM   23  C   UNL     1     -10.921  15.443  68.714  1.00  0.00    -0.264 A  
HETATM   24  C   UNL     1     -12.022  13.207  69.962  1.00  0.00    -0.391 A  
ENDBRANCH   7  18
ENDBRANCH   6   7
ENDBRANCH   5   6
ENDBRANCH   4   5
ENDBRANCH   2   4
TORSDOF 5
ENDMDL
MODEL       84
REMARK 921   NORMALIZED FREE ENERGY PREDICTED BY IDOCK:   -4.44 KCAL/MOL
REMARK 922        TOTAL FREE ENERGY PREDICTED BY IDOCK:   -6.83 KCAL/MOL
REMARK 923 INTER-LIGAND FREE ENERGY PREDICTED BY IDOCK:   -6.03 KCAL/MOL
REMARK 924 INTRA-LIGAND FREE ENERGY PREDICTED BY IDOCK:   -0.80 KCAL/MOL
REMARK 927      BINDING AFFINITY PREDICTED BY RF-SCORE:    0.00 PKD
ROOT
HETATM    1  C   UNL     1      -6.260  17.905  69.368  1.00  0.00    -0.248 C  
HETATM    2  N   UNL     1      -7.285  17.078  68.728  1.00  0.00    -0.216 NA 
HETATM    3  C   UNL     1      -6.799  16.598  67.433  1.00  0.00    -0.165 C  
ENDROOT
BRANCH   2   4
HETATM    4  C   UNL     1      -7.690  15.939  69.566  1.00  0.00    -0.125 C  
BRANCH   4   5
HETATM    5  C   UNL     1      -9.092  15.398  69.261  1.00  0.00    -0.260 C  
BRANCH   5   6
HETATM    6  C   UNL     1      -9.090  13.941  68.760  1.00  0.00    -0.002 C  
BRANCH   6   7
HETATM    7  C   UNL     1     -10.499  13.371  68.445  1.00  0.00    -0.250 C  
HETATM    8  O   UNL     1     -11.382  13.826  69.520  1.00  0.00    -0.260 OA 
HETATM    9  N   UNL     1     -10.980   6.705  70.039  1.00  0.00    -0.283 NA 
HETATM   10  C   UNL     1     -11.448  10.184  70.058  1.00  0.00    -0.344 A  
HETATM   11  C   UNL     1     -11.843  12.721  70.321  1.00  0.00    -0.212 C  
HETATM   12  C   UNL     1     -11.310  11.507  69.661  1.00  0.00    -0.329 A  
HETATM   13  C   UNL     1     -10.908   7.817  69.705  1.00  0.00    -0.184 C  
HETATM   14  C   UNL     1     -10.553  11.866  68.552  1.00  0.00    -0.245 A  
HETATM   15  C   UNL     1     -10.811   9.190  69.307  1.00  0.00    -0.150 A  
HETATM   16  C   UNL     1     -10.056   9.544  68.175  1.00  0.00    -0.214 A  
HETATM   17  C   UNL     1      -9.920  10.886  67.796  1.00  0.00    -0.198 A  
BRANCH   7  18
HETATM   18  C   UNL     1     -11.031  13.915  67.107  1.00  0.00    -0.298 A  
HETATM   19  C   UNL     1     -12.288  13.522  66.601  1.00  0.00    -0.351 A  
HETATM   20  F   UNL     1     -12.466  15.396  63.498  1.00  0.00    -0.053 F  
HETATM   21  C   UNL     1     -12.006  14.922  64.663  1.00  0.00    -0.401 A  
HETATM   22  C   UNL     1     -10.770  15.340  65.133  1.00  0.00    -0.455 A  
HETATM   23  C   UNL     1     -10.287  14.844  66.348  1.00  0.00    -0.291 A  
HETATM   24  C   UNL     1     -12.772  14.023  65.389  1.00  0.00    -0.499 A  
ENDBRANCH   7  18
ENDBRANCH   6   7
ENDBRANCH   5   6
ENDBRANCH   4   5
ENDBRANCH   2   4
TORSDOF 5
ENDMDL
MODEL       85
REMARK 921   NORMALIZED FREE ENERGY PREDICTED BY IDOCK:   -4.41 KCAL/MOL
REMARK 922        TOTAL FREE ENERGY PREDICTED BY IDOCK:   -6.79 KCAL/MOL
REMARK 923 INTER-LIGAND FREE ENERGY PREDICTED BY IDOCK:   -5.57 KCAL/MOL
REMARK 924 INTRA-LIGAND FREE ENERGY PREDICTED BY IDOCK:   -1.22 KCAL/MOL
REMARK 927      BINDING AFFINITY PREDICTED BY RF-SCORE:    0.00 PKD
ROOT
HETATM    1  C   UNL     1      -6.444   9.842  64.922  1.00  0.00    -0.100 C  
HETATM    2  N   UNL     1      -7.670   9.667  64.140  1.00  0.00    -0.122 NA 
HETATM    3  C   UNL     1      -8.108   8.272  64.208  1.00  0.00    -0.147 C  
ENDROOT
BRANCH   2   4
HETATM    4  C   UNL     1      -8.753  10.556  64.589  1.00  0.00    -0.183 C  
BRANCH   4   5
HETATM    5  C   UNL     1      -8.761  10.829  66.098  1.00  0.00    -0.186 C  
BRANCH   5   6
HETATM    6  C   UNL     1     -10.047  10.353  66.799  1.00  0.00    -0.267 C  
BRANCH   6   7
HETATM    7  C   UNL     1      -9.806   9.382  67.987  1.00  0.00    -0.164 C  
HETATM    8  O   UNL     1      -8.418   9.576  68.408  1.00  0.00    -0.117 OA 
HETATM    9  N   UNL     1      -8.900   2.911  65.862  1.00  0.00    -0.136 NA 
HETATM   10  C   UNL     1      -8.305   6.092  67.222  1.00  0.00    -0.105 A  
HETATM   11  C   UNL     1      -7.624   8.402  68.152  1.00  0.00    -0.098 C  
HETATM   12  C   UNL     1      -8.575   7.388  67.642  1.00  0.00    -0.119 A  
HETATM   13  C   UNL     1      -9.109   3.987  66.253  1.00  0.00    -0.139 C  
HETATM   14  C   UNL     1      -9.852   7.931  67.569  1.00  0.00    -0.221 A  
HETATM   15  C   UNL     1      -9.357   5.318  66.722  1.00  0.00    -0.134 A  
HETATM   16  C   UNL     1     -10.655   5.856  66.660  1.00  0.00    -0.330 A  
HETATM   17  C   UNL     1     -10.906   7.169  67.079  1.00  0.00    -0.382 A  
BRANCH   7  18
HETATM   18  C   UNL     1     -10.731   9.714  69.171  1.00  0.00    -0.237 A  
HETATM   19  C   UNL     1     -11.485  10.905  69.203  1.00  0.00    -0.373 A  
HETATM   20  F   UNL     1     -13.236  10.600  72.367  1.00  0.00    -0.523 F  
HETATM   21  C   UNL     1     -12.433  10.313  71.336  1.00  0.00    -0.424 A  
HETATM   22  C   UNL     1     -11.715   9.126  71.335  1.00  0.00    -0.413 A  
HETATM   23  C   UNL     1     -10.874   8.826  70.259  1.00  0.00    -0.252 A  
HETATM   24  C   UNL     1     -12.331  11.202  70.276  1.00  0.00    -0.397 A  
ENDBRANCH   7  18
ENDBRANCH   6   7
ENDBRANCH   5   6
ENDBRANCH   4   5
ENDBRANCH   2   4
TORSDOF 5
ENDMDL
MODEL       86
REMARK 921   NORMALIZED FREE ENERGY PREDICTED BY IDOCK:   -4.38 KCAL/MOL
REMARK 922        TOTAL FREE ENERGY PREDICTED BY IDOCK:   -6.74 KCAL/MOL
REMARK 923 INTER-LIGAND FREE ENERGY PREDICTED BY IDOCK:   -5.89 KCAL/MOL
REMARK 924 INTRA-LIGAND FREE ENERGY PREDICTED BY IDOCK:   -0.85 KCAL/MOL
REMARK 927      BINDING AFFINITY PREDICTED BY RF-SCORE:    0.00 PKD
ROOT
HETATM    1  C   UNL     1      -9.575  15.091  66.092  1.00  0.00    -0.314 C  
HETATM    2  N   UNL     1      -9.583  15.497  67.499  1.00  0.00    -0.212 NA 
HETATM    3  C   UNL     1     -10.961  15.702  67.949  1.00  0.00    -0.319 C  
ENDROOT
BRANCH   2   4
HETATM    4  C   UNL     1      -8.911  14.519  68.369  1.00  0.00    -0.186 C  
BRANCH   4   5
HETATM    5  C   UNL     1      -8.669  13.153  67.715  1.00  0.00    -0.188 C  
BRANCH   5   6
HETATM    6  C   UNL     1      -9.515  12.022  68.328  1.00  0.00    -0.199 C  
BRANCH   6   7
HETATM    7  C   UNL     1      -9.967  10.939  67.312  1.00  0.00    -0.186 C  
HETATM    8  O   UNL     1     -10.958  10.110  68.000  1.00  0.00    -0.265 OA 
HETATM    9  N   UNL     1      -5.314   5.924  66.673  1.00  0.00    -0.009 NA 
HETATM   10  C   UNL     1      -8.266   7.660  67.444  1.00  0.00    -0.116 A  
HETATM   11  C   UNL     1     -10.471   8.769  68.201  1.00  0.00    -0.191 C  
HETATM   12  C   UNL     1      -9.157   8.723  67.519  1.00  0.00    -0.146 A  
HETATM   13  C   UNL     1      -6.091   6.789  66.717  1.00  0.00    -0.036 C  
HETATM   14  C   UNL     1      -8.864   9.966  66.971  1.00  0.00    -0.144 A  
HETATM   15  C   UNL     1      -7.046   7.855  66.788  1.00  0.00    -0.077 A  
HETATM   16  C   UNL     1      -6.749   9.106  66.218  1.00  0.00    -0.071 A  
HETATM   17  C   UNL     1      -7.657  10.169  66.312  1.00  0.00    -0.111 A  
BRANCH   7  18
HETATM   18  C   UNL     1     -10.631  11.578  66.079  1.00  0.00    -0.310 A  
HETATM   19  C   UNL     1     -11.804  12.352  66.194  1.00  0.00    -0.442 A  
HETATM   20  F   UNL     1     -12.411  13.310  62.746  1.00  0.00    -0.496 F  
HETATM   21  C   UNL     1     -11.835  12.756  63.820  1.00  0.00    -0.499 A  
HETATM   22  C   UNL     1     -10.676  12.010  63.669  1.00  0.00    -0.506 A  
HETATM   23  C   UNL     1     -10.075  11.429  64.790  1.00  0.00    -0.326 A  
HETATM   24  C   UNL     1     -12.402  12.937  65.073  1.00  0.00    -0.541 A  
ENDBRANCH   7  18
ENDBRANCH   6   7
ENDBRANCH   5   6
ENDBRANCH   4   5
ENDBRANCH   2   4
TORSDOF 5
ENDMDL
MODEL       87
REMARK 921   NORMALIZED FREE ENERGY PREDICTED BY IDOCK:   -4.38 KCAL/MOL
REMARK 922        TOTAL FREE ENERGY PREDICTED BY IDOCK:   -6.74 KCAL/MOL
REMARK 923 INTER-LIGAND FREE ENERGY PREDICTED BY IDOCK:   -5.94 KCAL/MOL
REMARK 924 INTRA-LIGAND FREE ENERGY PREDICTED BY IDOCK:   -0.80 KCAL/MOL
REMARK 927      BINDING AFFINITY PREDICTED BY RF-SCORE:    0.00 PKD
ROOT
HETATM    1  C   UNL     1      -8.229   5.346  73.796  1.00  0.00    -0.112 C  
HETATM    2  N   UNL     1      -7.583   5.456  72.487  1.00  0.00    -0.096 NA 
HETATM    3  C   UNL     1      -8.372   4.742  71.481  1.00  0.00    -0.109 C  
ENDROOT
BRANCH   2   4
HETATM    4  C   UNL     1      -7.391   6.855  72.073  1.00  0.00    -0.087 C  
BRANCH   4   5
HETATM    5  C   UNL     1      -8.639   7.735  72.218  1.00  0.00    -0.173 C  
BRANCH   5   6
HETATM    6  C   UNL     1      -8.874   8.666  71.015  1.00  0.00    -0.235 C  
BRANCH   6   7
HETATM    7  C   UNL     1     -10.293   8.562  70.393  1.00  0.00    -0.202 C  
HETATM    8  O   UNL     1     -11.084   7.728  71.299  1.00  0.00    -0.240 OA 
HETATM    9  N   UNL     1     -10.473   4.113  65.159  1.00  0.00    -0.208 NA 
HETATM   10  C   UNL     1     -11.017   5.612  68.287  1.00  0.00    -0.030 A  
HETATM   11  C   UNL     1     -11.445   6.478  70.681  1.00  0.00    -0.374 C  
HETATM   12  C   UNL     1     -10.946   6.571  69.289  1.00  0.00    -0.389 A  
HETATM   13  C   UNL     1     -10.457   4.915  66.002  1.00  0.00    -0.283 C  
HETATM   14  C   UNL     1     -10.302   7.787  69.097  1.00  0.00    -0.219 A  
HETATM   15  C   UNL     1     -10.428   5.893  67.050  1.00  0.00    -0.341 A  
HETATM   16  C   UNL     1      -9.788   7.128  66.843  1.00  0.00    -0.271 A  
HETATM   17  C   UNL     1      -9.718   8.078  67.870  1.00  0.00    -0.189 A  
BRANCH   7  18
HETATM   18  C   UNL     1     -10.957   9.946  70.291  1.00  0.00    -0.366 A  
HETATM   19  C   UNL     1     -10.595  10.862  69.281  1.00  0.00    -0.251 A  
HETATM   20  F   UNL     1     -12.762  13.680  70.014  1.00  0.00    -0.322 F  
HETATM   21  C   UNL     1     -12.183  12.476  70.100  1.00  0.00    -0.234 A  
HETATM   22  C   UNL     1     -12.573  11.598  71.101  1.00  0.00    -0.439 A  
HETATM   23  C   UNL     1     -11.968  10.341  71.193  1.00  0.00    -0.472 A  
HETATM   24  C   UNL     1     -11.205  12.117  69.185  1.00  0.00    -0.303 A  
ENDBRANCH   7  18
ENDBRANCH   6   7
ENDBRANCH   5   6
ENDBRANCH   4   5
ENDBRANCH   2   4
TORSDOF 5
ENDMDL
MODEL       88
REMARK 921   NORMALIZED FREE ENERGY PREDICTED BY IDOCK:   -4.38 KCAL/MOL
REMARK 922        TOTAL FREE ENERGY PREDICTED BY IDOCK:   -6.74 KCAL/MOL
REMARK 923 INTER-LIGAND FREE ENERGY PREDICTED BY IDOCK:   -5.58 KCAL/MOL
REMARK 924 INTRA-LIGAND FREE ENERGY PREDICTED BY IDOCK:   -1.16 KCAL/MOL
REMARK 927      BINDING AFFINITY PREDICTED BY RF-SCORE:    0.00 PKD
ROOT
HETATM    1  C   UNL     1      -8.487   5.364  65.094  1.00  0.00    -0.150 C  
HETATM    2  N   UNL     1      -9.440   4.443  65.714  1.00  0.00    -0.160 NA 
HETATM    3  C   UNL     1      -8.819   3.784  66.865  1.00  0.00    -0.126 C  
ENDROOT
BRANCH   2   4
HETATM    4  C   UNL     1     -10.680   5.116  66.131  1.00  0.00    -0.185 C  
BRANCH   4   5
HETATM    5  C   UNL     1     -10.540   5.974  67.394  1.00  0.00    -0.355 C  
BRANCH   5   6
HETATM    6  C   UNL     1     -10.779   7.475  67.144  1.00  0.00    -0.379 C  
BRANCH   6   7
HETATM    7  C   UNL     1      -9.861   8.415  67.971  1.00  0.00    -0.169 C  
HETATM    8  O   UNL     1      -9.275   7.597  69.033  1.00  0.00    -0.141 OA 
HETATM    9  N   UNL     1     -13.471  12.433  72.219  1.00  0.00    -0.471 NA 
HETATM   10  C   UNL     1     -11.294   9.958  71.009  1.00  0.00    -0.460 A  
HETATM   11  C   UNL     1      -9.745   8.007  70.331  1.00  0.00    -0.178 C  
HETATM   12  C   UNL     1     -10.585   9.202  70.084  1.00  0.00    -0.258 A  
HETATM   13  C   UNL     1     -12.839  11.807  71.467  1.00  0.00    -0.345 C  
HETATM   14  C   UNL     1     -10.637   9.471  68.722  1.00  0.00    -0.240 A  
HETATM   15  C   UNL     1     -12.072  11.024  70.545  1.00  0.00    -0.470 A  
HETATM   16  C   UNL     1     -12.118  11.311  69.169  1.00  0.00    -0.348 A  
HETATM   17  C   UNL     1     -11.403  10.531  68.251  1.00  0.00    -0.332 A  
BRANCH   7  18
HETATM   18  C   UNL     1      -8.724   8.984  67.103  1.00  0.00    -0.123 A  
HETATM   19  C   UNL     1      -7.582   9.573  67.683  1.00  0.00    -0.094 A  
HETATM   20  F   UNL     1      -5.654  10.510  64.753  1.00  0.00    -0.101 F  
HETATM   21  C   UNL     1      -6.641  10.014  65.511  1.00  0.00    -0.100 A  
HETATM   22  C   UNL     1      -7.745   9.433  64.905  1.00  0.00    -0.111 A  
HETATM   23  C   UNL     1      -8.777   8.918  65.694  1.00  0.00    -0.213 A  
HETATM   24  C   UNL     1      -6.547  10.083  66.893  1.00  0.00    -0.071 A  
ENDBRANCH   7  18
ENDBRANCH   6   7
ENDBRANCH   5   6
ENDBRANCH   4   5
ENDBRANCH   2   4
TORSDOF 5
ENDMDL
MODEL       89
REMARK 921   NORMALIZED FREE ENERGY PREDICTED BY IDOCK:   -4.37 KCAL/MOL
REMARK 922        TOTAL FREE ENERGY PREDICTED BY IDOCK:   -6.73 KCAL/MOL
REMARK 923 INTER-LIGAND FREE ENERGY PREDICTED BY IDOCK:   -5.69 KCAL/MOL
REMARK 924 INTRA-LIGAND FREE ENERGY PREDICTED BY IDOCK:   -1.04 KCAL/MOL
REMARK 927      BINDING AFFINITY PREDICTED BY RF-SCORE:    0.00 PKD
ROOT
HETATM    1  C   UNL     1      -5.429   8.326  64.019  1.00  0.00    -0.056 C  
HETATM    2  N   UNL     1      -6.486   7.349  63.749  1.00  0.00    -0.052 NA 
HETATM    3  C   UNL     1      -6.079   6.029  64.234  1.00  0.00    -0.026 C  
ENDROOT
BRANCH   2   4
HETATM    4  C   UNL     1      -7.771   7.732  64.355  1.00  0.00    -0.123 C  
BRANCH   4   5
HETATM    5  C   UNL     1      -8.069   9.236  64.309  1.00  0.00    -0.144 C  
BRANCH   5   6
HETATM    6  C   UNL     1      -9.408   9.615  64.969  1.00  0.00    -0.319 C  
BRANCH   6   7
HETATM    7  C   UNL     1      -9.321  10.816  65.948  1.00  0.00    -0.189 C  
HETATM    8  O   UNL     1      -7.916  11.222  65.985  1.00  0.00    -0.102 OA 
HETATM    9  N   UNL     1      -9.544   8.794  72.511  1.00  0.00    -0.253 NA 
HETATM   10  C   UNL     1      -8.406  10.094  69.455  1.00  0.00    -0.178 A  
HETATM   11  C   UNL     1      -7.334  10.980  67.280  1.00  0.00    -0.106 C  
HETATM   12  C   UNL     1      -8.449  10.495  68.126  1.00  0.00    -0.123 A  
HETATM   13  C   UNL     1      -9.564   9.169  71.409  1.00  0.00    -0.246 C  
HETATM   14  C   UNL     1      -9.616  10.424  67.376  1.00  0.00    -0.178 A  
HETATM   15  C   UNL     1      -9.579   9.617  70.048  1.00  0.00    -0.281 A  
HETATM   16  C   UNL     1     -10.768   9.556  69.299  1.00  0.00    -0.240 A  
HETATM   17  C   UNL     1     -10.789   9.955  67.957  1.00  0.00    -0.294 A  
BRANCH   7  18
HETATM   18  C   UNL     1     -10.164  12.003  65.446  1.00  0.00    -0.295 A  
HETATM   19  C   UNL     1     -11.077  11.857  64.381  1.00  0.00    -0.395 A  
HETATM   20  F   UNL     1     -12.443  15.208  64.103  1.00  0.00    -0.518 F  
HETATM   21  C   UNL     1     -11.712  14.174  64.538  1.00  0.00    -0.413 A  
HETATM   22  C   UNL     1     -10.832  14.353  65.595  1.00  0.00    -0.320 A  
HETATM   23  C   UNL     1     -10.066  13.275  66.049  1.00  0.00    -0.301 A  
HETATM   24  C   UNL     1     -11.847  12.934  63.932  1.00  0.00    -0.541 A  
ENDBRANCH   7  18
ENDBRANCH   6   7
ENDBRANCH   5   6
ENDBRANCH   4   5
ENDBRANCH   2   4
TORSDOF 5
ENDMDL
MODEL       90
REMARK 921   NORMALIZED FREE ENERGY PREDICTED BY IDOCK:   -4.36 KCAL/MOL
REMARK 922        TOTAL FREE ENERGY PREDICTED BY IDOCK:   -6.72 KCAL/MOL
REMARK 923 INTER-LIGAND FREE ENERGY PREDICTED BY IDOCK:   -6.16 KCAL/MOL
REMARK 924 INTRA-LIGAND FREE ENERGY PREDICTED BY IDOCK:   -0.56 KCAL/MOL
REMARK 927      BINDING AFFINITY PREDICTED BY RF-SCORE:    0.00 PKD
ROOT
HETATM    1  C   UNL     1      -7.416  19.747  66.783  1.00  0.00    -0.249 C  
HETATM    2  N   UNL     1      -8.687  19.607  67.497  1.00  0.00    -0.303 NA 
HETATM    3  C   UNL     1      -9.771  19.373  66.542  1.00  0.00    -0.375 C  
ENDROOT
BRANCH   2   4
HETATM    4  C   UNL     1      -8.653  18.524  68.493  1.00  0.00    -0.324 C  
BRANCH   4   5
HETATM    5  C   UNL     1      -8.986  17.137  67.930  1.00  0.00    -0.230 C  
BRANCH   5   6
HETATM    6  C   UNL     1     -10.300  16.552  68.479  1.00  0.00    -0.289 C  
BRANCH   6   7
HETATM    7  C   UNL     1     -10.143  15.180  69.188  1.00  0.00    -0.245 C  
HETATM    8  O   UNL     1      -8.884  15.237  69.931  1.00  0.00    -0.124 OA 
HETATM    9  N   UNL     1      -8.065  10.278  64.844  1.00  0.00    -0.156 NA 
HETATM   10  C   UNL     1      -8.124  12.599  67.477  1.00  0.00    -0.178 A  
HETATM   11  C   UNL     1      -7.914  14.320  69.390  1.00  0.00     0.220 C  
HETATM   12  C   UNL     1      -8.626  13.579  68.323  1.00  0.00    -0.168 A  
HETATM   13  C   UNL     1      -8.474  11.074  65.588  1.00  0.00    -0.099 C  
HETATM   14  C   UNL     1      -9.931  14.045  68.214  1.00  0.00    -0.236 A  
HETATM   15  C   UNL     1      -8.968  12.066  66.497  1.00  0.00    -0.193 A  
HETATM   16  C   UNL     1     -10.294  12.522  66.390  1.00  0.00    -0.261 A  
HETATM   17  C   UNL     1     -10.779  13.518  67.247  1.00  0.00    -0.272 A  
BRANCH   7  18
HETATM   18  C   UNL     1     -11.292  14.935  70.182  1.00  0.00    -0.299 A  
HETATM   19  C   UNL     1     -11.755  15.956  71.037  1.00  0.00    -0.473 A  
HETATM   20  F   UNL     1     -14.402  14.268  72.858  1.00  0.00    -0.304 F  
HETATM   21  C   UNL     1     -13.403  14.484  71.993  1.00  0.00    -0.373 A  
HETATM   22  C   UNL     1     -12.983  13.458  71.161  1.00  0.00    -0.314 A  
HETATM   23  C   UNL     1     -11.938  13.682  70.258  1.00  0.00    -0.397 A  
HETATM   24  C   UNL     1     -12.803  15.733  71.935  1.00  0.00    -0.514 A  
ENDBRANCH   7  18
ENDBRANCH   6   7
ENDBRANCH   5   6
ENDBRANCH   4   5
ENDBRANCH   2   4
TORSDOF 5
ENDMDL
MODEL       91
REMARK 921   NORMALIZED FREE ENERGY PREDICTED BY IDOCK:   -4.36 KCAL/MOL
REMARK 922        TOTAL FREE ENERGY PREDICTED BY IDOCK:   -6.72 KCAL/MOL
REMARK 923 INTER-LIGAND FREE ENERGY PREDICTED BY IDOCK:   -5.70 KCAL/MOL
REMARK 924 INTRA-LIGAND FREE ENERGY PREDICTED BY IDOCK:   -1.02 KCAL/MOL
REMARK 927      BINDING AFFINITY PREDICTED BY RF-SCORE:    0.00 PKD
ROOT
HETATM    1  C   UNL     1     -11.209  11.643  66.965  1.00  0.00    -0.314 C  
HETATM    2  N   UNL     1     -11.090  12.665  68.007  1.00  0.00    -0.237 NA 
HETATM    3  C   UNL     1     -11.938  13.812  67.677  1.00  0.00    -0.356 C  
ENDROOT
BRANCH   2   4
HETATM    4  C   UNL     1     -11.439  12.150  69.340  1.00  0.00    -0.290 C  
BRANCH   4   5
HETATM    5  C   UNL     1     -11.765  10.651  69.373  1.00  0.00    -0.344 C  
BRANCH   5   6
HETATM    6  C   UNL     1     -11.375   9.969  70.698  1.00  0.00    -0.425 C  
BRANCH   6   7
HETATM    7  C   UNL     1     -10.186   8.978  70.581  1.00  0.00    -0.229 C  
HETATM    8  O   UNL     1      -8.997   9.696  71.041  1.00  0.00    -0.197 OA 
HETATM    9  N   UNL     1      -8.030   8.318  64.090  1.00  0.00    -0.145 NA 
HETATM   10  C   UNL     1      -8.141   9.123  67.506  1.00  0.00    -0.104 A  
HETATM   11  C   UNL     1      -8.063   9.906  69.964  1.00  0.00    -0.177 C  
HETATM   12  C   UNL     1      -8.643   9.200  68.798  1.00  0.00    -0.131 A  
HETATM   13  C   UNL     1      -8.413   8.365  65.188  1.00  0.00    -0.160 C  
HETATM   14  C   UNL     1      -9.860   8.629  69.148  1.00  0.00    -0.185 A  
HETATM   15  C   UNL     1      -8.886   8.440  66.539  1.00  0.00    -0.172 A  
HETATM   16  C   UNL     1     -10.112   7.847  66.889  1.00  0.00    -0.362 A  
HETATM   17  C   UNL     1     -10.606   7.944  68.196  1.00  0.00    -0.179 A  
BRANCH   7  18
HETATM   18  C   UNL     1     -10.399   7.749  71.483  1.00  0.00    -0.227 A  
HETATM   19  C   UNL     1      -9.355   7.232  72.279  1.00  0.00    -0.162 A  
HETATM   20  F   UNL     1     -10.982   4.436  73.925  1.00  0.00    -0.277 F  
HETATM   21  C   UNL     1     -10.795   5.506  73.142  1.00  0.00    -0.285 A  
HETATM   22  C   UNL     1     -11.848   5.992  72.381  1.00  0.00    -0.283 A  
HETATM   23  C   UNL     1     -11.653   7.107  71.561  1.00  0.00    -0.310 A  
HETATM   24  C   UNL     1      -9.552   6.120  73.104  1.00  0.00    -0.147 A  
ENDBRANCH   7  18
ENDBRANCH   6   7
ENDBRANCH   5   6
ENDBRANCH   4   5
ENDBRANCH   2   4
TORSDOF 5
ENDMDL
MODEL       92
REMARK 921   NORMALIZED FREE ENERGY PREDICTED BY IDOCK:   -4.35 KCAL/MOL
REMARK 922        TOTAL FREE ENERGY PREDICTED BY IDOCK:   -6.71 KCAL/MOL
REMARK 923 INTER-LIGAND FREE ENERGY PREDICTED BY IDOCK:   -5.96 KCAL/MOL
REMARK 924 INTRA-LIGAND FREE ENERGY PREDICTED BY IDOCK:   -0.75 KCAL/MOL
REMARK 927      BINDING AFFINITY PREDICTED BY RF-SCORE:    0.00 PKD
ROOT
HETATM    1  C   UNL     1      -7.036  11.246  68.100  1.00  0.00    -0.069 C  
HETATM    2  N   UNL     1      -7.104   9.785  68.164  1.00  0.00    -0.077 NA 
HETATM    3  C   UNL     1      -6.174   9.201  67.196  1.00  0.00    -0.058 C  
ENDROOT
BRANCH   2   4
HETATM    4  C   UNL     1      -6.816   9.269  69.512  1.00  0.00    -0.048 C  
BRANCH   4   5
HETATM    5  C   UNL     1      -7.759   8.151  69.975  1.00  0.00    -0.086 C  
BRANCH   5   6
HETATM    6  C   UNL     1      -8.779   8.609  71.034  1.00  0.00    -0.227 C  
BRANCH   6   7
HETATM    7  C   UNL     1     -10.240   8.172  70.745  1.00  0.00    -0.194 C  
HETATM    8  O   UNL     1     -10.535   7.072  71.664  1.00  0.00    -0.201 OA 
HETATM    9  N   UNL     1     -10.696   4.352  65.052  1.00  0.00    -0.184 NA 
HETATM   10  C   UNL     1     -10.747   5.345  68.419  1.00  0.00    -0.071 A  
HETATM   11  C   UNL     1     -10.727   5.834  70.953  1.00  0.00    -0.264 C  
HETATM   12  C   UNL     1     -10.652   6.189  69.518  1.00  0.00    -0.350 A  
HETATM   13  C   UNL     1     -10.657   5.046  65.986  1.00  0.00    -0.232 C  
HETATM   14  C   UNL     1     -10.401   7.549  69.379  1.00  0.00    -0.213 A  
HETATM   15  C   UNL     1     -10.593   5.892  67.141  1.00  0.00    -0.373 A  
HETATM   16  C   UNL     1     -10.354   7.270  66.992  1.00  0.00    -0.376 A  
HETATM   17  C   UNL     1     -10.251   8.103  68.113  1.00  0.00    -0.253 A  
BRANCH   7  18
HETATM   18  C   UNL     1     -11.227   9.321  71.020  1.00  0.00    -0.392 A  
HETATM   19  C   UNL     1     -12.316   9.160  71.901  1.00  0.00    -0.455 A  
HETATM   20  F   UNL     1     -13.881  12.432  71.766  1.00  0.00    -0.294 F  
HETATM   21  C   UNL     1     -13.024  11.431  71.529  1.00  0.00    -0.399 A  
HETATM   22  C   UNL     1     -11.958  11.631  70.665  1.00  0.00    -0.356 A  
HETATM   23  C   UNL     1     -11.063  10.586  70.415  1.00  0.00    -0.321 A  
HETATM   24  C   UNL     1     -13.208  10.207  72.155  1.00  0.00    -0.463 A  
ENDBRANCH   7  18
ENDBRANCH   6   7
ENDBRANCH   5   6
ENDBRANCH   4   5
ENDBRANCH   2   4
TORSDOF 5
ENDMDL
MODEL       93
REMARK 921   NORMALIZED FREE ENERGY PREDICTED BY IDOCK:   -4.33 KCAL/MOL
REMARK 922        TOTAL FREE ENERGY PREDICTED BY IDOCK:   -6.69 KCAL/MOL
REMARK 923 INTER-LIGAND FREE ENERGY PREDICTED BY IDOCK:   -6.02 KCAL/MOL
REMARK 924 INTRA-LIGAND FREE ENERGY PREDICTED BY IDOCK:   -0.66 KCAL/MOL
REMARK 927      BINDING AFFINITY PREDICTED BY RF-SCORE:    0.00 PKD
ROOT
HETATM    1  C   UNL     1      -7.561   9.022  70.943  1.00  0.00    -0.124 C  
HETATM    2  N   UNL     1      -8.056   9.468  69.640  1.00  0.00    -0.113 NA 
HETATM    3  C   UNL     1      -9.431   9.955  69.769  1.00  0.00    -0.226 C  
ENDROOT
BRANCH   2   4
HETATM    4  C   UNL     1      -7.208  10.514  69.046  1.00  0.00    -0.090 C  
BRANCH   4   5
HETATM    5  C   UNL     1      -7.510  10.810  67.572  1.00  0.00    -0.093 C  
BRANCH   5   6
HETATM    6  C   UNL     1      -7.180   9.636  66.631  1.00  0.00    -0.086 C  
BRANCH   6   7
HETATM    7  C   UNL     1      -8.416   9.014  65.928  1.00  0.00    -0.140 C  
HETATM    8  O   UNL     1      -7.949   8.505  64.638  1.00  0.00    -0.127 OA 
HETATM    9  N   UNL     1     -12.524  13.821  63.238  1.00  0.00    -0.762 NA 
HETATM   10  C   UNL     1     -10.275  11.143  63.546  1.00  0.00    -0.446 A  
HETATM   11  C   UNL     1      -8.529   9.242  63.543  1.00  0.00    -0.197 C  
HETATM   12  C   UNL     1      -9.481  10.188  64.168  1.00  0.00    -0.353 A  
HETATM   13  C   UNL     1     -11.878  12.990  63.735  1.00  0.00    -0.502 C  
HETATM   14  C   UNL     1      -9.451  10.047  65.550  1.00  0.00    -0.296 A  
HETATM   15  C   UNL     1     -11.069  11.975  64.342  1.00  0.00    -0.399 A  
HETATM   16  C   UNL     1     -11.055  11.828  65.740  1.00  0.00    -0.351 A  
HETATM   17  C   UNL     1     -10.240  10.865  66.351  1.00  0.00    -0.289 A  
BRANCH   7  18
HETATM   18  C   UNL     1      -8.985   7.839  66.744  1.00  0.00    -0.163 A  
HETATM   19  C   UNL     1     -10.350   7.491  66.678  1.00  0.00    -0.252 A  
HETATM   20  F   UNL     1     -10.513   4.660  68.942  1.00  0.00    -0.178 F  
HETATM   21  C   UNL     1     -10.020   5.681  68.231  1.00  0.00    -0.155 A  
HETATM   22  C   UNL     1      -8.670   5.987  68.313  1.00  0.00    -0.113 A  
HETATM   23  C   UNL     1      -8.154   7.055  67.573  1.00  0.00    -0.113 A  
HETATM   24  C   UNL     1     -10.864   6.420  67.414  1.00  0.00    -0.457 A  
ENDBRANCH   7  18
ENDBRANCH   6   7
ENDBRANCH   5   6
ENDBRANCH   4   5
ENDBRANCH   2   4
TORSDOF 5
ENDMDL
MODEL       94
REMARK 921   NORMALIZED FREE ENERGY PREDICTED BY IDOCK:   -4.31 KCAL/MOL
REMARK 922        TOTAL FREE ENERGY PREDICTED BY IDOCK:   -6.65 KCAL/MOL
REMARK 923 INTER-LIGAND FREE ENERGY PREDICTED BY IDOCK:   -5.87 KCAL/MOL
REMARK 924 INTRA-LIGAND FREE ENERGY PREDICTED BY IDOCK:   -0.78 KCAL/MOL
REMARK 927      BINDING AFFINITY PREDICTED BY RF-SCORE:    0.00 PKD
ROOT
HETATM    1  C   UNL     1      -7.526   7.619  70.587  1.00  0.00    -0.072 C  
HETATM    2  N   UNL     1      -8.591   8.569  70.262  1.00  0.00    -0.131 NA 
HETATM    3  C   UNL     1      -9.460   8.760  71.424  1.00  0.00    -0.259 C  
ENDROOT
BRANCH   2   4
HETATM    4  C   UNL     1      -8.065   9.867  69.811  1.00  0.00    -0.176 C  
BRANCH   4   5
HETATM    5  C   UNL     1      -9.077  10.729  69.047  1.00  0.00    -0.153 C  
BRANCH   5   6
HETATM    6  C   UNL     1      -8.764  10.857  67.545  1.00  0.00    -0.130 C  
BRANCH   6   7
HETATM    7  C   UNL     1      -9.747  10.092  66.619  1.00  0.00    -0.194 C  
HETATM    8  O   UNL     1     -10.722   9.440  67.494  1.00  0.00    -0.280 OA 
HETATM    9  N   UNL     1      -7.024   4.235  64.274  1.00  0.00    -0.045 NA 
HETATM   10  C   UNL     1      -9.066   6.512  65.996  1.00  0.00    -0.111 A  
HETATM   11  C   UNL     1     -10.599   8.006  67.440  1.00  0.00    -0.267 C  
HETATM   12  C   UNL     1      -9.571   7.739  66.408  1.00  0.00    -0.235 A  
HETATM   13  C   UNL     1      -7.487   5.249  64.608  1.00  0.00    -0.069 C  
HETATM   14  C   UNL     1      -9.088   8.939  65.899  1.00  0.00    -0.271 A  
HETATM   15  C   UNL     1      -8.051   6.495  65.035  1.00  0.00    -0.127 A  
HETATM   16  C   UNL     1      -7.568   7.705  64.505  1.00  0.00    -0.112 A  
HETATM   17  C   UNL     1      -8.082   8.933  64.940  1.00  0.00    -0.144 A  
BRANCH   7  18
HETATM   18  C   UNL     1     -10.494  11.059  65.683  1.00  0.00    -0.293 A  
HETATM   19  C   UNL     1     -10.318  11.011  64.285  1.00  0.00    -0.430 A  
HETATM   20  F   UNL     1     -12.522  13.667  63.161  1.00  0.00    -0.556 F  
HETATM   21  C   UNL     1     -11.872  12.824  63.973  1.00  0.00    -0.435 A  
HETATM   22  C   UNL     1     -12.078  12.895  65.343  1.00  0.00    -0.501 A  
HETATM   23  C   UNL     1     -11.398  12.016  66.192  1.00  0.00    -0.407 A  
HETATM   24  C   UNL     1     -11.003  11.886  63.436  1.00  0.00    -0.470 A  
ENDBRANCH   7  18
ENDBRANCH   6   7
ENDBRANCH   5   6
ENDBRANCH   4   5
ENDBRANCH   2   4
TORSDOF 5
ENDMDL
MODEL       95
REMARK 921   NORMALIZED FREE ENERGY PREDICTED BY IDOCK:   -4.30 KCAL/MOL
REMARK 922        TOTAL FREE ENERGY PREDICTED BY IDOCK:   -6.65 KCAL/MOL
REMARK 923 INTER-LIGAND FREE ENERGY PREDICTED BY IDOCK:   -5.78 KCAL/MOL
REMARK 924 INTRA-LIGAND FREE ENERGY PREDICTED BY IDOCK:   -0.87 KCAL/MOL
REMARK 927      BINDING AFFINITY PREDICTED BY RF-SCORE:    0.00 PKD
ROOT
HETATM    1  C   UNL     1     -12.161  15.339  68.263  1.00  0.00     0.016 C  
HETATM    2  N   UNL     1     -12.008  14.959  69.669  1.00  0.00    -0.311 NA 
HETATM    3  C   UNL     1     -11.897  13.503  69.781  1.00  0.00    -0.329 C  
ENDROOT
BRANCH   2   4
HETATM    4  C   UNL     1     -10.844  15.600  70.300  1.00  0.00    -0.350 C  
BRANCH   4   5
HETATM    5  C   UNL     1      -9.893  16.292  69.316  1.00  0.00    -0.252 C  
BRANCH   5   6
HETATM    6  C   UNL     1      -8.514  15.614  69.218  1.00  0.00    -0.265 C  
BRANCH   6   7
HETATM    7  C   UNL     1      -7.979  15.458  67.769  1.00  0.00    -0.146 C  
HETATM    8  O   UNL     1      -6.699  14.756  67.871  1.00  0.00    -0.131 OA 
HETATM    9  N   UNL     1      -5.275  21.312  65.393  1.00  0.00    -0.184 NA 
HETATM   10  C   UNL     1      -5.603  18.011  66.545  1.00  0.00    -0.197 A  
HETATM   11  C   UNL     1      -5.603  15.603  67.475  1.00  0.00    -0.041 C  
HETATM   12  C   UNL     1      -6.230  16.861  67.006  1.00  0.00    -0.226 A  
HETATM   13  C   UNL     1      -5.780  20.324  65.748  1.00  0.00    -0.176 C  
HETATM   14  C   UNL     1      -7.610  16.781  67.141  1.00  0.00    -0.221 A  
HETATM   15  C   UNL     1      -6.395  19.112  66.200  1.00  0.00    -0.210 A  
HETATM   16  C   UNL     1      -7.794  19.033  66.320  1.00  0.00    -0.303 A  
HETATM   17  C   UNL     1      -8.407  17.867  66.797  1.00  0.00    -0.273 A  
BRANCH   7  18
HETATM   18  C   UNL     1      -8.938  14.613  66.912  1.00  0.00    -0.275 A  
HETATM   19  C   UNL     1      -9.585  15.155  65.782  1.00  0.00    -0.344 A  
HETATM   20  F   UNL     1     -11.519  12.321  64.596  1.00  0.00    -0.339 F  
HETATM   21  C   UNL     1     -10.684  13.059  65.339  1.00  0.00    -0.291 A  
HETATM   22  C   UNL     1     -10.058  12.488  66.437  1.00  0.00    -0.255 A  
HETATM   23  C   UNL     1      -9.188  13.257  67.216  1.00  0.00    -0.222 A  
HETATM   24  C   UNL     1     -10.451  14.383  65.000  1.00  0.00    -0.454 A  
ENDBRANCH   7  18
ENDBRANCH   6   7
ENDBRANCH   5   6
ENDBRANCH   4   5
ENDBRANCH   2   4
TORSDOF 5
ENDMDL
MODEL       96
REMARK 921   NORMALIZED FREE ENERGY PREDICTED BY IDOCK:   -4.30 KCAL/MOL
REMARK 922        TOTAL FREE ENERGY PREDICTED BY IDOCK:   -6.64 KCAL/MOL
REMARK 923 INTER-LIGAND FREE ENERGY PREDICTED BY IDOCK:   -5.97 KCAL/MOL
REMARK 924 INTRA-LIGAND FREE ENERGY PREDICTED BY IDOCK:   -0.67 KCAL/MOL
REMARK 927      BINDING AFFINITY PREDICTED BY RF-SCORE:    0.00 PKD
ROOT
HETATM    1  C   UNL     1     -11.318  14.981  71.306  1.00  0.00    -0.267 C  
HETATM    2  N   UNL     1     -12.415  14.029  71.125  1.00  0.00    -0.354 NA 
HETATM    3  C   UNL     1     -13.691  14.746  71.071  1.00  0.00    -0.264 C  
ENDROOT
BRANCH   2   4
HETATM    4  C   UNL     1     -12.250  13.206  69.917  1.00  0.00    -0.225 C  
BRANCH   4   5
HETATM    5  C   UNL     1     -11.174  13.712  68.949  1.00  0.00    -0.309 C  
BRANCH   5   6
HETATM    6  C   UNL     1     -11.072  12.881  67.657  1.00  0.00    -0.297 C  
BRANCH   6   7
HETATM    7  C   UNL     1      -9.629  12.730  67.104  1.00  0.00    -0.219 C  
HETATM    8  O   UNL     1      -8.861  12.028  68.133  1.00  0.00    -0.171 OA 
HETATM    9  N   UNL     1      -6.078  18.593  67.583  1.00  0.00    -0.186 NA 
HETATM   10  C   UNL     1      -7.151  15.289  68.090  1.00  0.00    -0.126 A  
HETATM   11  C   UNL     1      -7.844  12.878  68.698  1.00  0.00    -0.044 C  
HETATM   12  C   UNL     1      -7.907  14.137  67.920  1.00  0.00    -0.157 A  
HETATM   13  C   UNL     1      -6.674  17.604  67.435  1.00  0.00    -0.160 C  
HETATM   14  C   UNL     1      -8.918  14.055  66.970  1.00  0.00    -0.248 A  
HETATM   15  C   UNL     1      -7.416  16.390  67.269  1.00  0.00    -0.202 A  
HETATM   16  C   UNL     1      -8.427  16.310  66.295  1.00  0.00    -0.369 A  
HETATM   17  C   UNL     1      -9.186  15.142  66.146  1.00  0.00    -0.318 A  
BRANCH   7  18
HETATM   18  C   UNL     1      -9.614  11.887  65.817  1.00  0.00    -0.241 A  
HETATM   19  C   UNL     1      -9.112  10.569  65.807  1.00  0.00    -0.204 A  
HETATM   20  F   UNL     1      -9.584   9.612  62.338  1.00  0.00    -0.277 F  
HETATM   21  C   UNL     1      -9.597  10.343  63.460  1.00  0.00    -0.310 A  
HETATM   22  C   UNL     1     -10.109  11.632  63.433  1.00  0.00    -0.468 A  
HETATM   23  C   UNL     1     -10.121  12.397  64.603  1.00  0.00    -0.266 A  
HETATM   24  C   UNL     1      -9.105   9.802  64.638  1.00  0.00    -0.294 A  
ENDBRANCH   7  18
ENDBRANCH   6   7
ENDBRANCH   5   6
ENDBRANCH   4   5
ENDBRANCH   2   4
TORSDOF 5
ENDMDL
MODEL       97
REMARK 921   NORMALIZED FREE ENERGY PREDICTED BY IDOCK:   -4.26 KCAL/MOL
REMARK 922        TOTAL FREE ENERGY PREDICTED BY IDOCK:   -6.60 KCAL/MOL
REMARK 923 INTER-LIGAND FREE ENERGY PREDICTED BY IDOCK:   -6.15 KCAL/MOL
REMARK 924 INTRA-LIGAND FREE ENERGY PREDICTED BY IDOCK:   -0.44 KCAL/MOL
REMARK 927      BINDING AFFINITY PREDICTED BY RF-SCORE:    0.00 PKD
ROOT
HETATM    1  C   UNL     1     -12.371  12.193  63.334  1.00  0.00    -0.538 C  
HETATM    2  N   UNL     1     -11.710  12.998  64.362  1.00  0.00    -0.352 NA 
HETATM    3  C   UNL     1     -12.179  14.383  64.287  1.00  0.00    -0.423 C  
ENDROOT
BRANCH   2   4
HETATM    4  C   UNL     1     -11.928  12.467  65.717  1.00  0.00    -0.420 C  
BRANCH   4   5
HETATM    5  C   UNL     1     -10.778  11.606  66.251  1.00  0.00    -0.317 C  
BRANCH   5   6
HETATM    6  C   UNL     1     -11.196  10.673  67.403  1.00  0.00    -0.280 C  
BRANCH   6   7
HETATM    7  C   UNL     1     -10.841  11.205  68.818  1.00  0.00    -0.213 C  
HETATM    8  O   UNL     1     -12.082  11.188  69.592  1.00  0.00    -0.319 OA 
HETATM    9  N   UNL     1     -10.166  18.043  68.889  1.00  0.00    -0.370 NA 
HETATM   10  C   UNL     1     -11.383  14.802  69.473  1.00  0.00    -0.312 A  
HETATM   11  C   UNL     1     -12.510  12.524  69.924  1.00  0.00     0.084 C  
HETATM   12  C   UNL     1     -11.438  13.415  69.425  1.00  0.00    -0.333 A  
HETATM   13  C   UNL     1     -10.215  16.879  68.893  1.00  0.00    -0.314 C  
HETATM   14  C   UNL     1     -10.446  12.662  68.808  1.00  0.00    -0.167 A  
HETATM   15  C   UNL     1     -10.290  15.449  68.888  1.00  0.00    -0.233 A  
HETATM   16  C   UNL     1      -9.275  14.693  68.274  1.00  0.00    -0.198 A  
HETATM   17  C   UNL     1      -9.352  13.295  68.228  1.00  0.00    -0.205 A  
BRANCH   7  18
HETATM   18  C   UNL     1      -9.815  10.291  69.512  1.00  0.00    -0.244 A  
HETATM   19  C   UNL     1     -10.088   9.695  70.761  1.00  0.00    -0.293 A  
HETATM   20  F   UNL     1      -7.044   7.817  71.377  1.00  0.00    -0.054 F  
HETATM   21  C   UNL     1      -7.938   8.611  70.775  1.00  0.00    -0.118 A  
HETATM   22  C   UNL     1      -7.638   9.171  69.542  1.00  0.00    -0.079 A  
HETATM   23  C   UNL     1      -8.571  10.001  68.912  1.00  0.00    -0.138 A  
HETATM   24  C   UNL     1      -9.157   8.860  71.387  1.00  0.00    -0.318 A  
ENDBRANCH   7  18
ENDBRANCH   6   7
ENDBRANCH   5   6
ENDBRANCH   4   5
ENDBRANCH   2   4
TORSDOF 5
ENDMDL
MODEL       98
REMARK 921   NORMALIZED FREE ENERGY PREDICTED BY IDOCK:   -4.25 KCAL/MOL
REMARK 922        TOTAL FREE ENERGY PREDICTED BY IDOCK:   -6.58 KCAL/MOL
REMARK 923 INTER-LIGAND FREE ENERGY PREDICTED BY IDOCK:   -5.85 KCAL/MOL
REMARK 924 INTRA-LIGAND FREE ENERGY PREDICTED BY IDOCK:   -0.73 KCAL/MOL
REMARK 927      BINDING AFFINITY PREDICTED BY RF-SCORE:    0.00 PKD
ROOT
HETATM    1  C   UNL     1      -9.981   3.638  72.276  1.00  0.00    -0.169 C  
HETATM    2  N   UNL     1      -8.742   4.071  71.628  1.00  0.00    -0.104 NA 
HETATM    3  C   UNL     1      -8.882   3.977  70.173  1.00  0.00    -0.083 C  
ENDROOT
BRANCH   2   4
HETATM    4  C   UNL     1      -8.360   5.440  72.007  1.00  0.00    -0.122 C  
BRANCH   4   5
HETATM    5  C   UNL     1      -9.522   6.441  72.016  1.00  0.00    -0.154 C  
BRANCH   5   6
HETATM    6  C   UNL     1      -9.268   7.681  71.139  1.00  0.00    -0.153 C  
BRANCH   6   7
HETATM    7  C   UNL     1     -10.416   8.008  70.146  1.00  0.00    -0.225 C  
HETATM    8  O   UNL     1     -11.157   6.763  69.943  1.00  0.00    -0.279 OA 
HETATM    9  N   UNL     1      -8.158   8.438  63.670  1.00  0.00    -0.158 NA 
HETATM   10  C   UNL     1      -9.814   7.333  66.562  1.00  0.00    -0.202 A  
HETATM   11  C   UNL     1     -11.019   6.285  68.590  1.00  0.00    -0.346 C  
HETATM   12  C   UNL     1     -10.240   7.328  67.884  1.00  0.00    -0.237 A  
HETATM   13  C   UNL     1      -8.557   8.430  64.764  1.00  0.00    -0.049 C  
HETATM   14  C   UNL     1      -9.909   8.350  68.765  1.00  0.00    -0.180 A  
HETATM   15  C   UNL     1      -9.038   8.407  66.113  1.00  0.00    -0.238 A  
HETATM   16  C   UNL     1      -8.711   9.452  66.996  1.00  0.00    -0.135 A  
HETATM   17  C   UNL     1      -9.142   9.424  68.329  1.00  0.00    -0.128 A  
BRANCH   7  18
HETATM   18  C   UNL     1     -11.373   9.061  70.732  1.00  0.00    -0.329 A  
HETATM   19  C   UNL     1     -11.353  10.400  70.289  1.00  0.00    -0.406 A  
HETATM   20  F   UNL     1     -13.967  11.898  72.313  1.00  0.00    -0.321 F  
HETATM   21  C   UNL     1     -13.135  10.983  71.800  1.00  0.00    -0.449 A  
HETATM   22  C   UNL     1     -13.191   9.674  72.254  1.00  0.00    -0.492 A  
HETATM   23  C   UNL     1     -12.320   8.718  71.721  1.00  0.00    -0.412 A  
HETATM   24  C   UNL     1     -12.228  11.354  70.818  1.00  0.00    -0.475 A  
ENDBRANCH   7  18
ENDBRANCH   6   7
ENDBRANCH   5   6
ENDBRANCH   4   5
ENDBRANCH   2   4
TORSDOF 5
ENDMDL
MODEL       99
REMARK 921   NORMALIZED FREE ENERGY PREDICTED BY IDOCK:   -4.18 KCAL/MOL
REMARK 922        TOTAL FREE ENERGY PREDICTED BY IDOCK:   -6.49 KCAL/MOL
REMARK 923 INTER-LIGAND FREE ENERGY PREDICTED BY IDOCK:   -6.04 KCAL/MOL
REMARK 924 INTRA-LIGAND FREE ENERGY PREDICTED BY IDOCK:   -0.45 KCAL/MOL
REMARK 927      BINDING AFFINITY PREDICTED BY RF-SCORE:    0.00 PKD
ROOT
HETATM    1  C   UNL     1     -10.336  19.406  66.728  1.00  0.00    -0.443 C  
HETATM    2  N   UNL     1      -9.223  18.564  66.285  1.00  0.00    -0.453 NA 
HETATM    3  C   UNL     1      -8.103  19.403  65.855  1.00  0.00    -0.153 C  
ENDROOT
BRANCH   2   4
HETATM    4  C   UNL     1      -8.778  17.629  67.330  1.00  0.00    -0.235 C  
BRANCH   4   5
HETATM    5  C   UNL     1      -8.457  16.218  66.821  1.00  0.00    -0.283 C  
BRANCH   5   6
HETATM    6  C   UNL     1      -9.710  15.393  66.472  1.00  0.00    -0.292 C  
BRANCH   6   7
HETATM    7  C   UNL     1      -9.941  14.162  67.389  1.00  0.00    -0.240 C  
HETATM    8  O   UNL     1     -10.998  13.368  66.761  1.00  0.00    -0.283 OA 
HETATM    9  N   UNL     1     -13.618  15.773  72.966  1.00  0.00    -0.579 NA 
HETATM   10  C   UNL     1     -12.654  14.383  69.890  1.00  0.00    -0.217 A  
HETATM   11  C   UNL     1     -12.193  13.357  67.566  1.00  0.00    -0.185 C  
HETATM   12  C   UNL     1     -11.840  14.091  68.803  1.00  0.00    -0.396 A  
HETATM   13  C   UNL     1     -12.943  15.486  72.062  1.00  0.00    -0.434 C  
HETATM   14  C   UNL     1     -10.526  14.538  68.730  1.00  0.00    -0.246 A  
HETATM   15  C   UNL     1     -12.123  15.141  70.939  1.00  0.00    -0.388 A  
HETATM   16  C   UNL     1     -10.790  15.584  70.878  1.00  0.00    -0.248 A  
HETATM   17  C   UNL     1      -9.987  15.288  69.768  1.00  0.00    -0.210 A  
BRANCH   7  18
HETATM   18  C   UNL     1      -8.671  13.299  67.489  1.00  0.00    -0.202 A  
HETATM   19  C   UNL     1      -7.662  13.582  68.433  1.00  0.00    -0.135 A  
HETATM   20  F   UNL     1      -5.246  10.959  67.760  1.00  0.00    -0.040 F  
HETATM   21  C   UNL     1      -6.351  11.710  67.676  1.00  0.00    -0.072 A  
HETATM   22  C   UNL     1      -7.326  11.394  66.741  1.00  0.00    -0.135 A  
HETATM   23  C   UNL     1      -8.479  12.180  66.650  1.00  0.00    -0.088 A  
HETATM   24  C   UNL     1      -6.512  12.793  68.527  1.00  0.00    -0.082 A  
ENDBRANCH   7  18
ENDBRANCH   6   7
ENDBRANCH   5   6
ENDBRANCH   4   5
ENDBRANCH   2   4
TORSDOF 5
ENDMDL
MODEL      100
REMARK 921   NORMALIZED FREE ENERGY PREDICTED BY IDOCK:   -4.17 KCAL/MOL
REMARK 922        TOTAL FREE ENERGY PREDICTED BY IDOCK:   -6.47 KCAL/MOL
REMARK 923 INTER-LIGAND FREE ENERGY PREDICTED BY IDOCK:   -5.85 KCAL/MOL
REMARK 924 INTRA-LIGAND FREE ENERGY PREDICTED BY IDOCK:   -0.62 KCAL/MOL
REMARK 927      BINDING AFFINITY PREDICTED BY RF-SCORE:    0.00 PKD
ROOT
HETATM    1  C   UNL     1      -7.775   5.754  66.316  1.00  0.00    -0.099 C  
HETATM    2  N   UNL     1      -8.986   5.060  65.875  1.00  0.00    -0.136 NA 
HETATM    3  C   UNL     1      -8.955   3.668  66.327  1.00  0.00    -0.144 C  
ENDROOT
BRANCH   2   4
HETATM    4  C   UNL     1     -10.214   5.716  66.353  1.00  0.00    -0.171 C  
BRANCH   4   5
HETATM    5  C   UNL     1      -9.990   6.731  67.480  1.00  0.00    -0.180 C  
BRANCH   5   6
HETATM    6  C   UNL     1     -10.661   8.093  67.219  1.00  0.00    -0.344 C  
BRANCH   6   7
HETATM    7  C   UNL     1      -9.986   9.288  67.946  1.00  0.00    -0.187 C  
HETATM    8  O   UNL     1      -8.594   9.315  67.497  1.00  0.00    -0.116 OA 
HETATM    9  N   UNL     1      -8.490   7.796  74.484  1.00  0.00    -0.194 NA 
HETATM   10  C   UNL     1      -8.157   8.567  71.076  1.00  0.00    -0.149 A  
HETATM   11  C   UNL     1      -7.689   9.009  68.576  1.00  0.00    -0.097 C  
HETATM   12  C   UNL     1      -8.543   8.883  69.780  1.00  0.00    -0.134 A  
HETATM   13  C   UNL     1      -8.786   8.096  73.399  1.00  0.00    -0.253 C  
HETATM   14  C   UNL     1      -9.876   9.073  69.437  1.00  0.00    -0.183 A  
HETATM   15  C   UNL     1      -9.146   8.449  72.058  1.00  0.00    -0.296 A  
HETATM   16  C   UNL     1     -10.496   8.654  71.721  1.00  0.00    -0.394 A  
HETATM   17  C   UNL     1     -10.866   8.962  70.406  1.00  0.00    -0.269 A  
BRANCH   7  18
HETATM   18  C   UNL     1     -10.655  10.619  67.561  1.00  0.00    -0.297 A  
HETATM   19  C   UNL     1     -10.767  11.023  66.214  1.00  0.00    -0.273 A  
HETATM   20  F   UNL     1     -12.471  14.213  66.527  1.00  0.00    -0.465 F  
HETATM   21  C   UNL     1     -11.890  13.053  66.859  1.00  0.00    -0.380 A  
HETATM   22  C   UNL     1     -11.807  12.685  68.194  1.00  0.00    -0.366 A  
HETATM   23  C   UNL     1     -11.198  11.475  68.543  1.00  0.00    -0.315 A  
HETATM   24  C   UNL     1     -11.381  12.230  65.866  1.00  0.00    -0.406 A  
ENDBRANCH   7  18
ENDBRANCH   6   7
ENDBRANCH   5   6
ENDBRANCH   4   5
ENDBRANCH   2   4
TORSDOF 5
ENDMDL
MODEL      101
REMARK 921   NORMALIZED FREE ENERGY PREDICTED BY IDOCK:   -4.16 KCAL/MOL
REMARK 922        TOTAL FREE ENERGY PREDICTED BY IDOCK:   -6.46 KCAL/MOL
REMARK 923 INTER-LIGAND FREE ENERGY PREDICTED BY IDOCK:   -5.35 KCAL/MOL
REMARK 924 INTRA-LIGAND FREE ENERGY PREDICTED BY IDOCK:   -1.11 KCAL/MOL
REMARK 927      BINDING AFFINITY PREDICTED BY RF-SCORE:    0.00 PKD
ROOT
HETATM    1  C   UNL     1      -7.373  12.957  67.845  1.00  0.00    -0.127 C  
HETATM    2  N   UNL     1      -6.379  12.069  68.450  1.00  0.00    -0.051 NA 
HETATM    3  C   UNL     1      -6.067  12.523  69.806  1.00  0.00    -0.134 C  
ENDROOT
BRANCH   2   4
HETATM    4  C   UNL     1      -6.824  10.667  68.480  1.00  0.00    -0.065 C  
BRANCH   4   5
HETATM    5  C   UNL     1      -7.891  10.365  69.539  1.00  0.00    -0.161 C  
BRANCH   5   6
HETATM    6  C   UNL     1      -9.207   9.827  68.946  1.00  0.00    -0.155 C  
BRANCH   6   7
HETATM    7  C   UNL     1      -9.693   8.493  69.575  1.00  0.00    -0.176 C  
HETATM    8  O   UNL     1      -8.603   8.011  70.424  1.00  0.00    -0.128 OA 
HETATM    9  N   UNL     1      -9.346   3.279  65.113  1.00  0.00    -0.150 NA 
HETATM   10  C   UNL     1      -8.729   5.355  67.877  1.00  0.00    -0.106 A  
HETATM   11  C   UNL     1      -8.037   6.790  69.908  1.00  0.00    -0.126 C  
HETATM   12  C   UNL     1      -8.875   6.434  68.739  1.00  0.00    -0.124 A  
HETATM   13  C   UNL     1      -9.471   4.155  65.870  1.00  0.00    -0.178 C  
HETATM   14  C   UNL     1      -9.860   7.395  68.552  1.00  0.00    -0.164 A  
HETATM   15  C   UNL     1      -9.611   5.239  66.797  1.00  0.00    -0.156 A  
HETATM   16  C   UNL     1     -10.619   6.200  66.609  1.00  0.00    -0.296 A  
HETATM   17  C   UNL     1     -10.744   7.287  67.485  1.00  0.00    -0.326 A  
BRANCH   7  18
HETATM   18  C   UNL     1     -10.938   8.716  70.452  1.00  0.00    -0.256 A  
HETATM   19  C   UNL     1     -11.557   7.648  71.134  1.00  0.00    -0.301 A  
HETATM   20  F   UNL     1     -14.295   9.325  72.827  1.00  0.00    -0.435 F  
HETATM   21  C   UNL     1     -13.211   9.129  72.066  1.00  0.00    -0.441 A  
HETATM   22  C   UNL     1     -12.623  10.206  71.419  1.00  0.00    -0.526 A  
HETATM   23  C   UNL     1     -11.493  10.002  70.621  1.00  0.00    -0.425 A  
HETATM   24  C   UNL     1     -12.685   7.853  71.936  1.00  0.00    -0.341 A  
ENDBRANCH   7  18
ENDBRANCH   6   7
ENDBRANCH   5   6
ENDBRANCH   4   5
ENDBRANCH   2   4
TORSDOF 5
ENDMDL
MODEL      102
REMARK 921   NORMALIZED FREE ENERGY PREDICTED BY IDOCK:   -4.09 KCAL/MOL
REMARK 922        TOTAL FREE ENERGY PREDICTED BY IDOCK:   -6.37 KCAL/MOL
REMARK 923 INTER-LIGAND FREE ENERGY PREDICTED BY IDOCK:   -5.26 KCAL/MOL
REMARK 924 INTRA-LIGAND FREE ENERGY PREDICTED BY IDOCK:   -1.12 KCAL/MOL
REMARK 927      BINDING AFFINITY PREDICTED BY RF-SCORE:    0.00 PKD
ROOT
HETATM    1  C   UNL     1     -12.254  13.112  67.318  1.00  0.00    -0.177 C  
HETATM    2  N   UNL     1     -12.149  13.056  68.778  1.00  0.00    -0.244 NA 
HETATM    3  C   UNL     1     -11.034  12.189  69.164  1.00  0.00    -0.161 C  
ENDROOT
BRANCH   2   4
HETATM    4  C   UNL     1     -11.981  14.388  69.379  1.00  0.00    -0.328 C  
BRANCH   4   5
HETATM    5  C   UNL     1     -11.702  15.507  68.368  1.00  0.00    -0.323 C  
BRANCH   5   6
HETATM    6  C   UNL     1     -10.498  16.389  68.747  1.00  0.00    -0.300 C  
BRANCH   6   7
HETATM    7  C   UNL     1      -9.283  16.259  67.790  1.00  0.00    -0.203 C  
HETATM    8  O   UNL     1      -9.800  15.722  66.531  1.00  0.00    -0.244 OA 
HETATM    9  N   UNL     1      -5.441  10.756  69.267  1.00  0.00    -0.041 NA 
HETATM   10  C   UNL     1      -7.601  12.972  67.609  1.00  0.00    -0.160 A  
HETATM   11  C   UNL     1      -9.295  14.396  66.280  1.00  0.00    -0.232 C  
HETATM   12  C   UNL     1      -8.338  14.126  67.377  1.00  0.00    -0.210 A  
HETATM   13  C   UNL     1      -6.039  11.727  69.032  1.00  0.00    -0.066 C  
HETATM   14  C   UNL     1      -8.296  15.210  68.245  1.00  0.00    -0.149 A  
HETATM   15  C   UNL     1      -6.790  12.913  68.747  1.00  0.00    -0.099 A  
HETATM   16  C   UNL     1      -6.731  14.012  69.622  1.00  0.00    -0.064 A  
HETATM   17  C   UNL     1      -7.489  15.165  69.377  1.00  0.00    -0.204 A  
BRANCH   7  18
HETATM   18  C   UNL     1      -8.644  17.631  67.515  1.00  0.00    -0.222 A  
HETATM   19  C   UNL     1      -8.073  17.939  66.262  1.00  0.00    -0.266 A  
HETATM   20  F   UNL     1      -6.929  21.345  66.775  1.00  0.00    -0.356 F  
HETATM   21  C   UNL     1      -7.485  20.150  67.011  1.00  0.00    -0.280 A  
HETATM   22  C   UNL     1      -8.045  19.888  68.253  1.00  0.00    -0.269 A  
HETATM   23  C   UNL     1      -8.625  18.640  68.502  1.00  0.00    -0.370 A  
HETATM   24  C   UNL     1      -7.499  19.189  66.012  1.00  0.00    -0.287 A  
ENDBRANCH   7  18
ENDBRANCH   6   7
ENDBRANCH   5   6
ENDBRANCH   4   5
ENDBRANCH   2   4
TORSDOF 5
ENDMDL
MODEL      103
REMARK 921   NORMALIZED FREE ENERGY PREDICTED BY IDOCK:   -4.09 KCAL/MOL
REMARK 922        TOTAL FREE ENERGY PREDICTED BY IDOCK:   -6.37 KCAL/MOL
REMARK 923 INTER-LIGAND FREE ENERGY PREDICTED BY IDOCK:   -5.45 KCAL/MOL
REMARK 924 INTRA-LIGAND FREE ENERGY PREDICTED BY IDOCK:   -0.92 KCAL/MOL
REMARK 927      BINDING AFFINITY PREDICTED BY RF-SCORE:    0.00 PKD
ROOT
HETATM    1  C   UNL     1      -6.789   6.083  67.832  1.00  0.00    -0.063 C  
HETATM    2  N   UNL     1      -8.173   6.359  67.440  1.00  0.00    -0.116 NA 
HETATM    3  C   UNL     1      -9.035   6.354  68.623  1.00  0.00    -0.125 C  
ENDROOT
BRANCH   2   4
HETATM    4  C   UNL     1      -8.309   7.637  66.725  1.00  0.00    -0.125 C  
BRANCH   4   5
HETATM    5  C   UNL     1      -9.619   8.383  67.007  1.00  0.00    -0.248 C  
BRANCH   5   6
HETATM    6  C   UNL     1      -9.542   9.891  66.705  1.00  0.00    -0.235 C  
BRANCH   6   7
HETATM    7  C   UNL     1      -9.399  10.789  67.963  1.00  0.00    -0.150 C  
HETATM    8  O   UNL     1      -8.218  10.311  68.683  1.00  0.00    -0.104 OA 
HETATM    9  N   UNL     1     -13.865   9.038  72.883  1.00  0.00    -0.323 NA 
HETATM   10  C   UNL     1     -10.874   9.551  71.118  1.00  0.00    -0.425 A  
HETATM   11  C   UNL     1      -8.578   9.734  69.953  1.00  0.00    -0.218 C  
HETATM   12  C   UNL     1     -10.037   9.949  70.084  1.00  0.00    -0.309 A  
HETATM   13  C   UNL     1     -13.140   9.394  72.045  1.00  0.00    -0.433 C  
HETATM   14  C   UNL     1     -10.524  10.589  68.950  1.00  0.00    -0.226 A  
HETATM   15  C   UNL     1     -12.243   9.816  71.010  1.00  0.00    -0.436 A  
HETATM   16  C   UNL     1     -12.741  10.476  69.872  1.00  0.00    -0.037 A  
HETATM   17  C   UNL     1     -11.882  10.860  68.834  1.00  0.00    -0.340 A  
BRANCH   7  18
HETATM   18  C   UNL     1      -9.175  12.260  67.571  1.00  0.00    -0.181 A  
HETATM   19  C   UNL     1      -8.170  13.039  68.181  1.00  0.00    -0.157 A  
HETATM   20  F   UNL     1      -8.570  16.231  66.501  1.00  0.00    -0.215 F  
HETATM   21  C   UNL     1      -8.761  14.951  66.843  1.00  0.00    -0.248 A  
HETATM   22  C   UNL     1      -9.754  14.214  66.213  1.00  0.00    -0.315 A  
HETATM   23  C   UNL     1      -9.957  12.877  66.571  1.00  0.00    -0.259 A  
HETATM   24  C   UNL     1      -7.963  14.373  67.819  1.00  0.00    -0.166 A  
ENDBRANCH   7  18
ENDBRANCH   6   7
ENDBRANCH   5   6
ENDBRANCH   4   5
ENDBRANCH   2   4
TORSDOF 5
ENDMDL
MODEL      104
REMARK 921   NORMALIZED FREE ENERGY PREDICTED BY IDOCK:   -4.04 KCAL/MOL
REMARK 922        TOTAL FREE ENERGY PREDICTED BY IDOCK:   -6.31 KCAL/MOL
REMARK 923 INTER-LIGAND FREE ENERGY PREDICTED BY IDOCK:   -5.66 KCAL/MOL
REMARK 924 INTRA-LIGAND FREE ENERGY PREDICTED BY IDOCK:   -0.65 KCAL/MOL
REMARK 927      BINDING AFFINITY PREDICTED BY RF-SCORE:    0.00 PKD
ROOT
HETATM    1  C   UNL     1     -12.227  12.090  63.433  1.00  0.00    -0.519 C  
HETATM    2  N   UNL     1     -11.080  11.650  64.230  1.00  0.00    -0.343 NA 
HETATM    3  C   UNL     1     -10.013  11.177  63.347  1.00  0.00    -0.387 C  
ENDROOT
BRANCH   2   4
HETATM    4  C   UNL     1     -10.569  12.711  65.111  1.00  0.00    -0.298 C  
BRANCH   4   5
HETATM    5  C   UNL     1     -10.781  12.447  66.607  1.00  0.00    -0.263 C  
BRANCH   5   6
HETATM    6  C   UNL     1     -11.193  10.997  66.920  1.00  0.00    -0.210 C  
BRANCH   6   7
HETATM    7  C   UNL     1     -10.022  10.081  67.367  1.00  0.00    -0.197 C  
HETATM    8  O   UNL     1      -9.883   9.050  66.338  1.00  0.00    -0.244 OA 
HETATM    9  N   UNL     1     -11.926   5.730  72.334  1.00  0.00    -0.208 NA 
HETATM   10  C   UNL     1     -10.878   7.009  69.237  1.00  0.00    -0.241 A  
HETATM   11  C   UNL     1     -10.221   7.747  66.852  1.00  0.00    -0.303 C  
HETATM   12  C   UNL     1     -10.486   7.951  68.295  1.00  0.00    -0.212 A  
HETATM   13  C   UNL     1     -11.561   6.495  71.536  1.00  0.00    -0.315 C  
HETATM   14  C   UNL     1     -10.344   9.295  68.617  1.00  0.00    -0.229 A  
HETATM   15  C   UNL     1     -11.126   7.435  70.546  1.00  0.00    -0.280 A  
HETATM   16  C   UNL     1     -10.970   8.792  70.882  1.00  0.00    -0.315 A  
HETATM   17  C   UNL     1     -10.583   9.729  69.916  1.00  0.00    -0.301 A  
BRANCH   7  18
HETATM   18  C   UNL     1      -8.704  10.870  67.456  1.00  0.00    -0.130 A  
HETATM   19  C   UNL     1      -8.432  11.729  68.541  1.00  0.00    -0.125 A  
HETATM   20  F   UNL     1      -5.137  12.990  67.692  1.00  0.00    -0.092 F  
HETATM   21  C   UNL     1      -6.284  12.304  67.619  1.00  0.00    -0.120 A  
HETATM   22  C   UNL     1      -6.511  11.461  66.541  1.00  0.00    -0.081 A  
HETATM   23  C   UNL     1      -7.710  10.745  66.462  1.00  0.00    -0.145 A  
HETATM   24  C   UNL     1      -7.231  12.440  68.623  1.00  0.00    -0.104 A  
ENDBRANCH   7  18
ENDBRANCH   6   7
ENDBRANCH   5   6
ENDBRANCH   4   5
ENDBRANCH   2   4
TORSDOF 5
ENDMDL
MODEL      105
REMARK 921   NORMALIZED FREE ENERGY PREDICTED BY IDOCK:   -4.04 KCAL/MOL
REMARK 922        TOTAL FREE ENERGY PREDICTED BY IDOCK:   -6.30 KCAL/MOL
REMARK 923 INTER-LIGAND FREE ENERGY PREDICTED BY IDOCK:   -5.74 KCAL/MOL
REMARK 924 INTRA-LIGAND FREE ENERGY PREDICTED BY IDOCK:   -0.56 KCAL/MOL
REMARK 927      BINDING AFFINITY PREDICTED BY RF-SCORE:    0.00 PKD
ROOT
HETATM    1  C   UNL     1      -9.922   7.225  73.826  1.00  0.00    -0.322 C  
HETATM    2  N   UNL     1     -10.524   7.264  72.492  1.00  0.00    -0.222 NA 
HETATM    3  C   UNL     1     -11.721   8.106  72.511  1.00  0.00    -0.394 C  
ENDROOT
BRANCH   2   4
HETATM    4  C   UNL     1      -9.586   7.748  71.467  1.00  0.00    -0.155 C  
BRANCH   4   5
HETATM    5  C   UNL     1     -10.178   8.789  70.510  1.00  0.00    -0.240 C  
BRANCH   5   6
HETATM    6  C   UNL     1      -9.119   9.714  69.881  1.00  0.00    -0.250 C  
BRANCH   6   7
HETATM    7  C   UNL     1      -8.997   9.592  68.338  1.00  0.00    -0.127 C  
HETATM    8  O   UNL     1      -7.606   9.899  68.005  1.00  0.00    -0.085 OA 
HETATM    9  N   UNL     1     -11.619  15.066  65.118  1.00  0.00    -0.329 NA 
HETATM   10  C   UNL     1      -9.350  12.686  66.348  1.00  0.00    -0.198 A  
HETATM   11  C   UNL     1      -7.506  11.121  67.250  1.00  0.00    -0.118 C  
HETATM   12  C   UNL     1      -8.903  11.549  67.009  1.00  0.00    -0.173 A  
HETATM   13  C   UNL     1     -11.223  14.101  65.634  1.00  0.00    -0.308 C  
HETATM   14  C   UNL     1      -9.782  10.655  67.607  1.00  0.00    -0.186 A  
HETATM   15  C   UNL     1     -10.727  12.923  66.282  1.00  0.00    -0.292 A  
HETATM   16  C   UNL     1     -11.623  12.015  66.873  1.00  0.00    -0.389 A  
HETATM   17  C   UNL     1     -11.153  10.878  67.544  1.00  0.00    -0.375 A  
BRANCH   7  18
HETATM   18  C   UNL     1      -9.312   8.160  67.870  1.00  0.00    -0.145 A  
HETATM   19  C   UNL     1      -8.380   7.113  68.028  1.00  0.00    -0.119 A  
HETATM   20  F   UNL     1     -10.171   4.293  66.611  1.00  0.00    -0.243 F  
HETATM   21  C   UNL     1      -9.896   5.537  67.020  1.00  0.00    -0.158 A  
HETATM   22  C   UNL     1     -10.842   6.538  66.857  1.00  0.00    -0.427 A  
HETATM   23  C   UNL     1     -10.555   7.839  67.283  1.00  0.00    -0.376 A  
HETATM   24  C   UNL     1      -8.670   5.811  67.607  1.00  0.00    -0.107 A  
ENDBRANCH   7  18
ENDBRANCH   6   7
ENDBRANCH   5   6
ENDBRANCH   4   5
ENDBRANCH   2   4
TORSDOF 5
ENDMDL
MODEL      106
REMARK 921   NORMALIZED FREE ENERGY PREDICTED BY IDOCK:   -4.03 KCAL/MOL
REMARK 922        TOTAL FREE ENERGY PREDICTED BY IDOCK:   -6.30 KCAL/MOL
REMARK 923 INTER-LIGAND FREE ENERGY PREDICTED BY IDOCK:   -5.69 KCAL/MOL
REMARK 924 INTRA-LIGAND FREE ENERGY PREDICTED BY IDOCK:   -0.61 KCAL/MOL
REMARK 927      BINDING AFFINITY PREDICTED BY RF-SCORE:    0.00 PKD
ROOT
HETATM    1  C   UNL     1      -8.094   5.760  65.972  1.00  0.00    -0.110 C  
HETATM    2  N   UNL     1      -9.338   5.364  66.634  1.00  0.00    -0.134 NA 
HETATM    3  C   UNL     1      -9.042   4.796  67.950  1.00  0.00    -0.116 C  
ENDROOT
BRANCH   2   4
HETATM    4  C   UNL     1     -10.282   6.485  66.772  1.00  0.00    -0.191 C  
BRANCH   4   5
HETATM    5  C   UNL     1      -9.846   7.557  67.778  1.00  0.00    -0.191 C  
BRANCH   5   6
HETATM    6  C   UNL     1     -11.025   8.224  68.511  1.00  0.00     0.163 C  
BRANCH   6   7
HETATM    7  C   UNL     1     -10.716   8.637  69.976  1.00  0.00    -0.228 C  
HETATM    8  O   UNL     1      -9.274   8.873  70.046  1.00  0.00    -0.159 OA 
HETATM    9  N   UNL     1     -10.656   3.222  74.206  1.00  0.00    -0.193 NA 
HETATM   10  C   UNL     1      -9.617   5.982  72.300  1.00  0.00    -0.162 A  
HETATM   11  C   UNL     1      -8.624   7.899  70.886  1.00  0.00    -0.128 C  
HETATM   12  C   UNL     1      -9.718   7.075  71.450  1.00  0.00    -0.169 A  
HETATM   13  C   UNL     1     -10.719   4.163  73.524  1.00  0.00    -0.227 C  
HETATM   14  C   UNL     1     -10.941   7.511  70.956  1.00  0.00    -0.266 A  
HETATM   15  C   UNL     1     -10.788   5.313  72.671  1.00  0.00    -0.307 A  
HETATM   16  C   UNL     1     -12.032   5.757  72.187  1.00  0.00    -0.095 A  
HETATM   17  C   UNL     1     -12.112   6.856  71.322  1.00  0.00    -0.419 A  
BRANCH   7  18
HETATM   18  C   UNL     1     -11.447   9.938  70.350  1.00  0.00    -0.372 A  
HETATM   19  C   UNL     1     -12.279  10.013  71.487  1.00  0.00    -0.496 A  
HETATM   20  F   UNL     1     -13.411  13.459  71.362  1.00  0.00    -0.400 F  
HETATM   21  C   UNL     1     -12.775  12.326  71.039  1.00  0.00    -0.225 A  
HETATM   22  C   UNL     1     -11.956  12.294  69.920  1.00  0.00    -0.377 A  
HETATM   23  C   UNL     1     -11.294  11.111  69.580  1.00  0.00    -0.359 A  
HETATM   24  C   UNL     1     -12.937  11.198  71.829  1.00  0.00    -0.526 A  
ENDBRANCH   7  18
ENDBRANCH   6   7
ENDBRANCH   5   6
ENDBRANCH   4   5
ENDBRANCH   2   4
TORSDOF 5
ENDMDL
MODEL      107
REMARK 921   NORMALIZED FREE ENERGY PREDICTED BY IDOCK:   -4.01 KCAL/MOL
REMARK 922        TOTAL FREE ENERGY PREDICTED BY IDOCK:   -6.27 KCAL/MOL
REMARK 923 INTER-LIGAND FREE ENERGY PREDICTED BY IDOCK:   -5.79 KCAL/MOL
REMARK 924 INTRA-LIGAND FREE ENERGY PREDICTED BY IDOCK:   -0.48 KCAL/MOL
REMARK 927      BINDING AFFINITY PREDICTED BY RF-SCORE:    0.00 PKD
ROOT
HETATM    1  C   UNL     1      -6.462  15.792  68.243  1.00  0.00    -0.118 C  
HETATM    2  N   UNL     1      -7.768  15.144  68.373  1.00  0.00    -0.114 NA 
HETATM    3  C   UNL     1      -8.448  15.129  67.076  1.00  0.00    -0.229 C  
ENDROOT
BRANCH   2   4
HETATM    4  C   UNL     1      -7.665  13.775  68.901  1.00  0.00    -0.021 C  
BRANCH   4   5
HETATM    5  C   UNL     1      -8.308  12.704  68.011  1.00  0.00    -0.175 C  
BRANCH   5   6
HETATM    6  C   UNL     1      -8.711  11.431  68.779  1.00  0.00    -0.080 C  
BRANCH   6   7
HETATM    7  C   UNL     1     -10.111  10.875  68.404  1.00  0.00    -0.183 C  
HETATM    8  O   UNL     1     -10.835  10.687  69.662  1.00  0.00    -0.246 OA 
HETATM    9  N   UNL     1      -9.875   4.190  66.833  1.00  0.00    -0.207 NA 
HETATM   10  C   UNL     1     -10.567   7.208  68.487  1.00  0.00    -0.219 A  
HETATM   11  C   UNL     1     -11.083   9.292  69.921  1.00  0.00    -0.181 C  
HETATM   12  C   UNL     1     -10.585   8.576  68.723  1.00  0.00    -0.162 A  
HETATM   13  C   UNL     1      -9.934   5.335  67.036  1.00  0.00    -0.189 C  
HETATM   14  C   UNL     1     -10.046   9.484  67.820  1.00  0.00    -0.244 A  
HETATM   15  C   UNL     1      -9.996   6.742  67.299  1.00  0.00    -0.206 A  
HETATM   16  C   UNL     1      -9.461   7.655  66.373  1.00  0.00    -0.224 A  
HETATM   17  C   UNL     1      -9.480   9.032  66.633  1.00  0.00    -0.251 A  
BRANCH   7  18
HETATM   18  C   UNL     1     -10.890  11.876  67.532  1.00  0.00    -0.283 A  
HETATM   19  C   UNL     1     -11.089  11.651  66.154  1.00  0.00    -0.335 A  
HETATM   20  F   UNL     1     -13.004  14.578  65.186  1.00  0.00    -0.413 F  
HETATM   21  C   UNL     1     -12.327  13.705  65.942  1.00  0.00    -0.471 A  
HETATM   22  C   UNL     1     -12.161  13.955  67.296  1.00  0.00    -0.403 A  
HETATM   23  C   UNL     1     -11.452  13.046  68.087  1.00  0.00    -0.356 A  
HETATM   24  C   UNL     1     -11.803  12.558  65.365  1.00  0.00    -0.479 A  
ENDBRANCH   7  18
ENDBRANCH   6   7
ENDBRANCH   5   6
ENDBRANCH   4   5
ENDBRANCH   2   4
TORSDOF 5
ENDMDL
MODEL      108
REMARK 921   NORMALIZED FREE ENERGY PREDICTED BY IDOCK:   -4.01 KCAL/MOL
REMARK 922        TOTAL FREE ENERGY PREDICTED BY IDOCK:   -6.27 KCAL/MOL
REMARK 923 INTER-LIGAND FREE ENERGY PREDICTED BY IDOCK:   -5.36 KCAL/MOL
REMARK 924 INTRA-LIGAND FREE ENERGY PREDICTED BY IDOCK:   -0.91 KCAL/MOL
REMARK 927      BINDING AFFINITY PREDICTED BY RF-SCORE:    0.00 PKD
ROOT
HETATM    1  C   UNL     1      -5.679   6.121  67.145  1.00  0.00    -0.016 C  
HETATM    2  N   UNL     1      -7.114   6.034  66.871  1.00  0.00    -0.068 NA 
HETATM    3  C   UNL     1      -7.864   6.059  68.128  1.00  0.00    -0.106 C  
ENDROOT
BRANCH   2   4
HETATM    4  C   UNL     1      -7.583   7.112  65.986  1.00  0.00    -0.089 C  
BRANCH   4   5
HETATM    5  C   UNL     1      -8.896   7.768  66.429  1.00  0.00    -0.180 C  
BRANCH   5   6
HETATM    6  C   UNL     1      -9.120   9.163  65.817  1.00  0.00    -0.265 C  
BRANCH   6   7
HETATM    7  C   UNL     1      -9.175  10.316  66.855  1.00  0.00    -0.150 C  
HETATM    8  O   UNL     1      -7.869  10.976  66.814  1.00  0.00    -0.135 OA 
HETATM    9  N   UNL     1      -8.487   8.003  73.289  1.00  0.00    -0.202 NA 
HETATM   10  C   UNL     1      -7.859   9.626  70.240  1.00  0.00    -0.193 A  
HETATM   11  C   UNL     1      -7.149  10.790  68.048  1.00  0.00    -0.081 C  
HETATM   12  C   UNL     1      -8.083  10.069  68.943  1.00  0.00    -0.111 A  
HETATM   13  C   UNL     1      -8.665   8.416  72.215  1.00  0.00    -0.209 C  
HETATM   14  C   UNL     1      -9.275   9.813  68.276  1.00  0.00    -0.130 A  
HETATM   15  C   UNL     1      -8.873   8.912  70.887  1.00  0.00    -0.268 A  
HETATM   16  C   UNL     1     -10.088   8.663  70.224  1.00  0.00    -0.206 A  
HETATM   17  C   UNL     1     -10.291   9.109  68.912  1.00  0.00    -0.232 A  
BRANCH   7  18
HETATM   18  C   UNL     1     -10.259  11.344  66.485  1.00  0.00    -0.259 A  
HETATM   19  C   UNL     1     -10.780  12.239  67.442  1.00  0.00    -0.261 A  
HETATM   20  F   UNL     1     -13.178  14.126  65.476  1.00  0.00    -0.555 F  
HETATM   21  C   UNL     1     -12.234  13.233  65.801  1.00  0.00    -0.456 A  
HETATM   22  C   UNL     1     -11.738  12.376  64.830  1.00  0.00    -0.425 A  
HETATM   23  C   UNL     1     -10.755  11.441  65.167  1.00  0.00    -0.332 A  
HETATM   24  C   UNL     1     -11.760  13.178  67.103  1.00  0.00    -0.430 A  
ENDBRANCH   7  18
ENDBRANCH   6   7
ENDBRANCH   5   6
ENDBRANCH   4   5
ENDBRANCH   2   4
TORSDOF 5
ENDMDL
MODEL      109
REMARK 921   NORMALIZED FREE ENERGY PREDICTED BY IDOCK:   -3.95 KCAL/MOL
REMARK 922        TOTAL FREE ENERGY PREDICTED BY IDOCK:   -6.19 KCAL/MOL
REMARK 923 INTER-LIGAND FREE ENERGY PREDICTED BY IDOCK:   -5.83 KCAL/MOL
REMARK 924 INTRA-LIGAND FREE ENERGY PREDICTED BY IDOCK:   -0.36 KCAL/MOL
REMARK 927      BINDING AFFINITY PREDICTED BY RF-SCORE:    0.00 PKD
ROOT
HETATM    1  C   UNL     1      -7.665   8.775  64.157  1.00  0.00    -0.130 C  
HETATM    2  N   UNL     1      -8.618   9.411  65.069  1.00  0.00    -0.161 NA 
HETATM    3  C   UNL     1      -9.629  10.140  64.302  1.00  0.00    -0.290 C  
ENDROOT
BRANCH   2   4
HETATM    4  C   UNL     1      -9.269   8.442  65.964  1.00  0.00    -0.187 C  
BRANCH   4   5
HETATM    5  C   UNL     1      -9.976   9.072  67.170  1.00  0.00    -0.286 C  
BRANCH   5   6
HETATM    6  C   UNL     1     -10.400   8.044  68.236  1.00  0.00    -0.240 C  
BRANCH   6   7
HETATM    7  C   UNL     1     -10.030   8.442  69.691  1.00  0.00    -0.193 C  
HETATM    8  O   UNL     1      -8.675   8.992  69.640  1.00  0.00    -0.132 OA 
HETATM    9  N   UNL     1      -8.330   2.974  73.489  1.00  0.00    -0.073 NA 
HETATM   10  C   UNL     1      -8.132   5.988  71.700  1.00  0.00    -0.118 A  
HETATM   11  C   UNL     1      -7.741   8.148  70.341  1.00  0.00    -0.085 C  
HETATM   12  C   UNL     1      -8.561   7.072  70.945  1.00  0.00    -0.139 A  
HETATM   13  C   UNL     1      -8.671   3.910  72.886  1.00  0.00    -0.098 C  
HETATM   14  C   UNL     1      -9.896   7.246  70.603  1.00  0.00    -0.179 A  
HETATM   15  C   UNL     1      -9.082   5.056  72.130  1.00  0.00    -0.147 A  
HETATM   16  C   UNL     1     -10.437   5.233  71.801  1.00  0.00    -0.278 A  
HETATM   17  C   UNL     1     -10.849   6.328  71.030  1.00  0.00    -0.326 A  
BRANCH   7  18
HETATM   18  C   UNL     1     -10.982   9.526  70.228  1.00  0.00    -0.317 A  
HETATM   19  C   UNL     1     -10.999  10.825  69.681  1.00  0.00    -0.320 A  
HETATM   20  F   UNL     1     -13.562  12.445  71.677  1.00  0.00    -0.407 F  
HETATM   21  C   UNL     1     -12.734  11.503  71.207  1.00  0.00    -0.364 A  
HETATM   22  C   UNL     1     -12.753  10.233  71.763  1.00  0.00    -0.535 A  
HETATM   23  C   UNL     1     -11.887   9.250  71.275  1.00  0.00    -0.415 A  
HETATM   24  C   UNL     1     -11.870  11.807  70.166  1.00  0.00    -0.408 A  
ENDBRANCH   7  18
ENDBRANCH   6   7
ENDBRANCH   5   6
ENDBRANCH   4   5
ENDBRANCH   2   4
TORSDOF 5
ENDMDL
MODEL      110
REMARK 921   NORMALIZED FREE ENERGY PREDICTED BY IDOCK:   -3.94 KCAL/MOL
REMARK 922        TOTAL FREE ENERGY PREDICTED BY IDOCK:   -6.18 KCAL/MOL
REMARK 923 INTER-LIGAND FREE ENERGY PREDICTED BY IDOCK:   -4.92 KCAL/MOL
REMARK 924 INTRA-LIGAND FREE ENERGY PREDICTED BY IDOCK:   -1.26 KCAL/MOL
REMARK 927      BINDING AFFINITY PREDICTED BY RF-SCORE:    0.00 PKD
ROOT
HETATM    1  C   UNL     1      -5.931   3.374  71.511  1.00  0.00    -0.014 C  
HETATM    2  N   UNL     1      -6.674   4.569  71.915  1.00  0.00    -0.029 NA 
HETATM    3  C   UNL     1      -6.531   4.780  73.357  1.00  0.00    -0.059 C  
ENDROOT
BRANCH   2   4
HETATM    4  C   UNL     1      -6.240   5.771  71.187  1.00  0.00    -0.035 C  
BRANCH   4   5
HETATM    5  C   UNL     1      -6.566   7.092  71.896  1.00  0.00    -0.052 C  
BRANCH   5   6
HETATM    6  C   UNL     1      -7.547   7.982  71.111  1.00  0.00    -0.082 C  
BRANCH   6   7
HETATM    7  C   UNL     1      -8.950   8.116  71.761  1.00  0.00    -0.163 C  
HETATM    8  O   UNL     1      -8.736   8.647  73.108  1.00  0.00    -0.371 OA 
HETATM    9  N   UNL     1     -11.382   2.048  73.878  1.00  0.00    -0.183 NA 
HETATM   10  C   UNL     1     -10.120   5.324  73.882  1.00  0.00    -0.232 A  
HETATM   11  C   UNL     1      -9.094   7.681  74.115  1.00  0.00    -0.152 C  
HETATM   12  C   UNL     1      -9.654   6.528  73.372  1.00  0.00    -0.170 A  
HETATM   13  C   UNL     1     -11.021   3.079  73.475  1.00  0.00    -0.225 C  
HETATM   14  C   UNL     1      -9.607   6.778  72.006  1.00  0.00    -0.151 A  
HETATM   15  C   UNL     1     -10.561   4.344  72.986  1.00  0.00    -0.267 A  
HETATM   16  C   UNL     1     -10.530   4.595  71.603  1.00  0.00    -0.123 A  
HETATM   17  C   UNL     1     -10.047   5.813  71.107  1.00  0.00    -0.257 A  
BRANCH   7  18
HETATM   18  C   UNL     1      -9.833   9.103  70.977  1.00  0.00    -0.366 A  
HETATM   19  C   UNL     1      -9.322   9.842  69.890  1.00  0.00    -0.262 A  
HETATM   20  F   UNL     1     -12.225  11.760  68.857  1.00  0.00    -0.359 F  
HETATM   21  C   UNL     1     -11.456  10.901  69.537  1.00  0.00    -0.301 A  
HETATM   22  C   UNL     1     -11.996  10.184  70.594  1.00  0.00    -0.423 A  
HETATM   23  C   UNL     1     -11.193   9.288  71.306  1.00  0.00    -0.425 A  
HETATM   24  C   UNL     1     -10.128  10.733  69.174  1.00  0.00    -0.224 A  
ENDBRANCH   7  18
ENDBRANCH   6   7
ENDBRANCH   5   6
ENDBRANCH   4   5
ENDBRANCH   2   4
TORSDOF 5
ENDMDL
MODEL      111
REMARK 921   NORMALIZED FREE ENERGY PREDICTED BY IDOCK:   -3.94 KCAL/MOL
REMARK 922        TOTAL FREE ENERGY PREDICTED BY IDOCK:   -6.17 KCAL/MOL
REMARK 923 INTER-LIGAND FREE ENERGY PREDICTED BY IDOCK:   -5.26 KCAL/MOL
REMARK 924 INTRA-LIGAND FREE ENERGY PREDICTED BY IDOCK:   -0.92 KCAL/MOL
REMARK 927      BINDING AFFINITY PREDICTED BY RF-SCORE:    0.00 PKD
ROOT
HETATM    1  C   UNL     1     -12.159  11.648  69.644  1.00  0.00    -0.280 C  
HETATM    2  N   UNL     1     -11.781  11.162  68.316  1.00  0.00    -0.515 NA 
HETATM    3  C   UNL     1     -11.671  12.287  67.387  1.00  0.00    -0.335 C  
ENDROOT
BRANCH   2   4
HETATM    4  C   UNL     1     -10.521  10.402  68.336  1.00  0.00    -0.189 C  
BRANCH   4   5
HETATM    5  C   UNL     1     -10.246   9.667  69.653  1.00  0.00    -0.239 C  
BRANCH   5   6
HETATM    6  C   UNL     1     -10.913   8.281  69.731  1.00  0.00    -0.132 C  
BRANCH   6   7
HETATM    7  C   UNL     1      -9.915   7.091  69.756  1.00  0.00    -0.173 C  
HETATM    8  O   UNL     1      -8.583   7.669  69.939  1.00  0.00    -0.136 OA 
HETATM    9  N   UNL     1      -8.667   4.661  63.452  1.00  0.00    -0.130 NA 
HETATM   10  C   UNL     1      -8.248   6.196  66.581  1.00  0.00    -0.110 A  
HETATM   11  C   UNL     1      -7.761   7.470  68.773  1.00  0.00    -0.119 C  
HETATM   12  C   UNL     1      -8.577   6.642  67.855  1.00  0.00    -0.118 A  
HETATM   13  C   UNL     1      -8.906   5.013  64.535  1.00  0.00    -0.099 C  
HETATM   14  C   UNL     1      -9.818   6.387  68.424  1.00  0.00    -0.141 A  
HETATM   15  C   UNL     1      -9.199   5.463  65.863  1.00  0.00    -0.165 A  
HETATM   16  C   UNL     1     -10.453   5.189  66.439  1.00  0.00    -0.356 A  
HETATM   17  C   UNL     1     -10.769   5.655  67.722  1.00  0.00    -0.250 A  
BRANCH   7  18
HETATM   18  C   UNL     1     -10.208   6.147  70.936  1.00  0.00    -0.250 A  
HETATM   19  C   UNL     1      -9.827   4.789  70.902  1.00  0.00    -0.279 A  
HETATM   20  F   UNL     1     -10.994   3.604  74.128  1.00  0.00    -0.255 F  
HETATM   21  C   UNL     1     -10.737   4.423  73.101  1.00  0.00    -0.220 A  
HETATM   22  C   UNL     1     -11.118   5.755  73.175  1.00  0.00    -0.288 A  
HETATM   23  C   UNL     1     -10.852   6.612  72.102  1.00  0.00    -0.259 A  
HETATM   24  C   UNL     1     -10.088   3.934  71.978  1.00  0.00    -0.220 A  
ENDBRANCH   7  18
ENDBRANCH   6   7
ENDBRANCH   5   6
ENDBRANCH   4   5
ENDBRANCH   2   4
TORSDOF 5
ENDMDL
MODEL      112
REMARK 921   NORMALIZED FREE ENERGY PREDICTED BY IDOCK:   -3.91 KCAL/MOL
REMARK 922        TOTAL FREE ENERGY PREDICTED BY IDOCK:   -6.14 KCAL/MOL
REMARK 923 INTER-LIGAND FREE ENERGY PREDICTED BY IDOCK:   -5.35 KCAL/MOL
REMARK 924 INTRA-LIGAND FREE ENERGY PREDICTED BY IDOCK:   -0.79 KCAL/MOL
REMARK 927      BINDING AFFINITY PREDICTED BY RF-SCORE:    0.00 PKD
ROOT
HETATM    1  C   UNL     1      -7.236  13.587  67.576  1.00  0.00    -0.154 C  
HETATM    2  N   UNL     1      -6.105  12.684  67.790  1.00  0.00    -0.111 NA 
HETATM    3  C   UNL     1      -6.071  12.251  69.188  1.00  0.00    -0.083 C  
ENDROOT
BRANCH   2   4
HETATM    4  C   UNL     1      -6.148  11.511  66.903  1.00  0.00    -0.146 C  
BRANCH   4   5
HETATM    5  C   UNL     1      -7.563  11.062  66.516  1.00  0.00    -0.146 C  
BRANCH   5   6
HETATM    6  C   UNL     1      -7.889   9.622  66.954  1.00  0.00    -0.102 C  
BRANCH   6   7
HETATM    7  C   UNL     1      -9.384   9.232  66.804  1.00  0.00    -0.156 C  
HETATM    8  O   UNL     1      -9.921  10.049  65.715  1.00  0.00    -0.258 OA 
HETATM    9  N   UNL     1     -13.282  12.088  71.689  1.00  0.00    -0.360 NA 
HETATM   10  C   UNL     1     -11.877  11.316  68.566  1.00  0.00    -0.355 A  
HETATM   11  C   UNL     1     -10.902  10.986  66.198  1.00  0.00    -0.146 C  
HETATM   12  C   UNL     1     -11.065  10.677  67.638  1.00  0.00    -0.385 A  
HETATM   13  C   UNL     1     -12.638  11.544  70.886  1.00  0.00    -0.341 C  
HETATM   14  C   UNL     1     -10.214   9.640  67.998  1.00  0.00    -0.235 A  
HETATM   15  C   UNL     1     -11.835  10.889  69.897  1.00  0.00    -0.427 A  
HETATM   16  C   UNL     1     -10.987   9.830  70.266  1.00  0.00    -0.352 A  
HETATM   17  C   UNL     1     -10.168   9.204  69.317  1.00  0.00    -0.215 A  
BRANCH   7  18
HETATM   18  C   UNL     1      -9.534   7.747  66.426  1.00  0.00    -0.245 A  
HETATM   19  C   UNL     1     -10.655   6.994  66.833  1.00  0.00    -0.372 A  
HETATM   20  F   UNL     1      -9.936   3.741  65.392  1.00  0.00    -0.174 F  
HETATM   21  C   UNL     1      -9.809   5.033  65.722  1.00  0.00    -0.129 A  
HETATM   22  C   UNL     1      -8.697   5.744  65.294  1.00  0.00    -0.100 A  
HETATM   23  C   UNL     1      -8.562   7.092  65.639  1.00  0.00    -0.121 A  
HETATM   24  C   UNL     1     -10.792   5.647  66.483  1.00  0.00    -0.239 A  
ENDBRANCH   7  18
ENDBRANCH   6   7
ENDBRANCH   5   6
ENDBRANCH   4   5
ENDBRANCH   2   4
TORSDOF 5
ENDMDL
MODEL      113
REMARK 921   NORMALIZED FREE ENERGY PREDICTED BY IDOCK:   -3.90 KCAL/MOL
REMARK 922        TOTAL FREE ENERGY PREDICTED BY IDOCK:   -6.13 KCAL/MOL
REMARK 923 INTER-LIGAND FREE ENERGY PREDICTED BY IDOCK:   -5.40 KCAL/MOL
REMARK 924 INTRA-LIGAND FREE ENERGY PREDICTED BY IDOCK:   -0.73 KCAL/MOL
REMARK 927      BINDING AFFINITY PREDICTED BY RF-SCORE:    0.00 PKD
ROOT
HETATM    1  C   UNL     1      -5.856   7.676  71.003  1.00  0.00    -0.034 C  
HETATM    2  N   UNL     1      -7.075   8.471  70.853  1.00  0.00    -0.056 NA 
HETATM    3  C   UNL     1      -7.927   8.303  72.032  1.00  0.00    -0.134 C  
ENDROOT
BRANCH   2   4
HETATM    4  C   UNL     1      -6.791   9.899  70.640  1.00  0.00    -0.080 C  
BRANCH   4   5
HETATM    5  C   UNL     1      -7.489  10.507  69.417  1.00  0.00    -0.141 C  
BRANCH   5   6
HETATM    6  C   UNL     1      -7.927   9.458  68.378  1.00  0.00    -0.094 C  
BRANCH   6   7
HETATM    7  C   UNL     1      -9.441   9.486  68.039  1.00  0.00    -0.132 C  
HETATM    8  O   UNL     1      -9.618   8.648  66.852  1.00  0.00    -0.163 OA 
HETATM    9  N   UNL     1     -11.259  15.338  64.928  1.00  0.00    -0.418 NA 
HETATM   10  C   UNL     1     -10.579  11.945  65.524  1.00  0.00    -0.313 A  
HETATM   11  C   UNL     1     -10.027   9.431  65.714  1.00  0.00    -0.208 C  
HETATM   12  C   UNL     1     -10.215  10.806  66.230  1.00  0.00    -0.301 A  
HETATM   13  C   UNL     1     -10.991  14.363  65.506  1.00  0.00    -0.329 C  
HETATM   14  C   UNL     1      -9.909  10.849  67.585  1.00  0.00    -0.192 A  
HETATM   15  C   UNL     1     -10.647  13.163  66.209  1.00  0.00    -0.292 A  
HETATM   16  C   UNL     1     -10.353  13.212  67.583  1.00  0.00    -0.223 A  
HETATM   17  C   UNL     1      -9.977  12.053  68.276  1.00  0.00    -0.203 A  
BRANCH   7  18
HETATM   18  C   UNL     1     -10.278   8.897  69.188  1.00  0.00    -0.214 A  
HETATM   19  C   UNL     1     -10.841   9.720  70.185  1.00  0.00    -0.340 A  
HETATM   20  F   UNL     1     -12.545   7.298  72.283  1.00  0.00    -0.282 F  
HETATM   21  C   UNL     1     -11.819   7.814  71.284  1.00  0.00    -0.295 A  
HETATM   22  C   UNL     1     -11.289   6.973  70.316  1.00  0.00    -0.339 A  
HETATM   23  C   UNL     1     -10.528   7.510  69.273  1.00  0.00    -0.216 A  
HETATM   24  C   UNL     1     -11.607   9.183  71.224  1.00  0.00    -0.401 A  
ENDBRANCH   7  18
ENDBRANCH   6   7
ENDBRANCH   5   6
ENDBRANCH   4   5
ENDBRANCH   2   4
TORSDOF 5
ENDMDL
MODEL      114
REMARK 921   NORMALIZED FREE ENERGY PREDICTED BY IDOCK:   -3.89 KCAL/MOL
REMARK 922        TOTAL FREE ENERGY PREDICTED BY IDOCK:   -6.12 KCAL/MOL
REMARK 923 INTER-LIGAND FREE ENERGY PREDICTED BY IDOCK:   -5.67 KCAL/MOL
REMARK 924 INTRA-LIGAND FREE ENERGY PREDICTED BY IDOCK:   -0.45 KCAL/MOL
REMARK 927      BINDING AFFINITY PREDICTED BY RF-SCORE:    0.00 PKD
ROOT
HETATM    1  C   UNL     1      -7.042   5.132  71.933  1.00  0.00    -0.075 C  
HETATM    2  N   UNL     1      -7.182   6.564  72.203  1.00  0.00    -0.085 NA 
HETATM    3  C   UNL     1      -5.937   7.258  71.869  1.00  0.00    -0.037 C  
ENDROOT
BRANCH   2   4
HETATM    4  C   UNL     1      -8.305   7.166  71.467  1.00  0.00    -0.111 C  
BRANCH   4   5
HETATM    5  C   UNL     1      -7.908   7.834  70.144  1.00  0.00    -0.095 C  
BRANCH   5   6
HETATM    6  C   UNL     1      -8.365   9.301  70.039  1.00  0.00    -0.176 C  
BRANCH   6   7
HETATM    7  C   UNL     1      -9.642   9.513  69.182  1.00  0.00    -0.170 C  
HETATM    8  O   UNL     1      -9.324  10.563  68.213  1.00  0.00    -0.147 OA 
HETATM    9  N   UNL     1     -14.388  13.189  72.526  1.00  0.00    -0.527 NA 
HETATM   10  C   UNL     1     -11.946  12.219  70.198  1.00  0.00    -0.377 A  
HETATM   11  C   UNL     1     -10.095  11.754  68.459  1.00  0.00    -0.207 C  
HETATM   12  C   UNL     1     -11.013  11.405  69.568  1.00  0.00    -0.226 A  
HETATM   13  C   UNL     1     -13.626  12.514  71.960  1.00  0.00    -0.291 C  
HETATM   14  C   UNL     1     -10.784  10.098  69.978  1.00  0.00    -0.356 A  
HETATM   15  C   UNL     1     -12.677  11.694  71.268  1.00  0.00    -0.444 A  
HETATM   16  C   UNL     1     -12.461  10.367  71.680  1.00  0.00    -0.471 A  
HETATM   17  C   UNL     1     -11.508   9.564  71.038  1.00  0.00    -0.420 A  
BRANCH   7  18
HETATM   18  C   UNL     1     -10.015   8.232  68.416  1.00  0.00    -0.211 A  
HETATM   19  C   UNL     1      -9.440   7.931  67.163  1.00  0.00    -0.203 A  
HETATM   20  F   UNL     1     -11.019   4.763  66.356  1.00  0.00    -0.291 F  
HETATM   21  C   UNL     1     -10.692   5.878  67.021  1.00  0.00    -0.318 A  
HETATM   22  C   UNL     1     -11.270   6.135  68.256  1.00  0.00    -0.192 A  
HETATM   23  C   UNL     1     -10.931   7.301  68.950  1.00  0.00    -0.055 A  
HETATM   24  C   UNL     1      -9.775   6.762  66.472  1.00  0.00    -0.183 A  
ENDBRANCH   7  18
ENDBRANCH   6   7
ENDBRANCH   5   6
ENDBRANCH   4   5
ENDBRANCH   2   4
TORSDOF 5
ENDMDL
MODEL      115
REMARK 921   NORMALIZED FREE ENERGY PREDICTED BY IDOCK:   -3.86 KCAL/MOL
REMARK 922        TOTAL FREE ENERGY PREDICTED BY IDOCK:   -6.07 KCAL/MOL
REMARK 923 INTER-LIGAND FREE ENERGY PREDICTED BY IDOCK:   -5.51 KCAL/MOL
REMARK 924 INTRA-LIGAND FREE ENERGY PREDICTED BY IDOCK:   -0.56 KCAL/MOL
REMARK 927      BINDING AFFINITY PREDICTED BY RF-SCORE:    0.00 PKD
ROOT
HETATM    1  C   UNL     1     -12.479  13.504  66.213  1.00  0.00    -0.326 C  
HETATM    2  N   UNL     1     -12.640  13.691  64.770  1.00  0.00    -0.644 NA 
HETATM    3  C   UNL     1     -11.955  14.914  64.347  1.00  0.00    -0.394 C  
ENDROOT
BRANCH   2   4
HETATM    4  C   UNL     1     -12.140  12.543  63.998  1.00  0.00    -0.473 C  
BRANCH   4   5
HETATM    5  C   UNL     1     -11.370  11.509  64.828  1.00  0.00    -0.206 C  
BRANCH   5   6
HETATM    6  C   UNL     1      -9.996  11.147  64.234  1.00  0.00    -0.359 C  
BRANCH   6   7
HETATM    7  C   UNL     1      -8.959  10.652  65.277  1.00  0.00    -0.190 C  
HETATM    8  O   UNL     1      -7.722  10.387  64.540  1.00  0.00    -0.135 OA 
HETATM    9  N   UNL     1     -10.032   4.098  67.043  1.00  0.00    -0.152 NA 
HETATM   10  C   UNL     1      -8.579   6.999  65.702  1.00  0.00    -0.121 A  
HETATM   11  C   UNL     1      -7.403   8.982  64.541  1.00  0.00    -0.099 C  
HETATM   12  C   UNL     1      -8.428   8.347  65.400  1.00  0.00    -0.193 A  
HETATM   13  C   UNL     1      -9.864   5.226  66.807  1.00  0.00    -0.176 C  
HETATM   14  C   UNL     1      -9.320   9.307  65.861  1.00  0.00    -0.297 A  
HETATM   15  C   UNL     1      -9.660   6.611  66.500  1.00  0.00    -0.187 A  
HETATM   16  C   UNL     1     -10.559   7.578  66.982  1.00  0.00    -0.409 A  
HETATM   17  C   UNL     1     -10.395   8.932  66.660  1.00  0.00    -0.294 A  
BRANCH   7  18
HETATM   18  C   UNL     1      -8.679  11.732  66.337  1.00  0.00    -0.147 A  
HETATM   19  C   UNL     1      -9.059  13.075  66.136  1.00  0.00     0.077 A  
HETATM   20  F   UNL     1      -7.930  14.641  69.210  1.00  0.00    -0.149 F  
HETATM   21  C   UNL     1      -8.176  13.703  68.286  1.00  0.00    -0.156 A  
HETATM   22  C   UNL     1      -7.796  12.390  68.524  1.00  0.00    -0.112 A  
HETATM   23  C   UNL     1      -8.050  11.410  67.559  1.00  0.00    -0.127 A  
HETATM   24  C   UNL     1      -8.810  14.053  67.104  1.00  0.00    -0.239 A  
ENDBRANCH   7  18
ENDBRANCH   6   7
ENDBRANCH   5   6
ENDBRANCH   4   5
ENDBRANCH   2   4
TORSDOF 5
ENDMDL
MODEL      116
REMARK 921   NORMALIZED FREE ENERGY PREDICTED BY IDOCK:   -3.84 KCAL/MOL
REMARK 922        TOTAL FREE ENERGY PREDICTED BY IDOCK:   -6.05 KCAL/MOL
REMARK 923 INTER-LIGAND FREE ENERGY PREDICTED BY IDOCK:   -5.14 KCAL/MOL
REMARK 924 INTRA-LIGAND FREE ENERGY PREDICTED BY IDOCK:   -0.92 KCAL/MOL
REMARK 927      BINDING AFFINITY PREDICTED BY RF-SCORE:    0.00 PKD
ROOT
HETATM    1  C   UNL     1      -5.159   6.203  63.610  1.00  0.00    -0.017 C  
HETATM    2  N   UNL     1      -6.098   5.511  64.495  1.00  0.00    -0.022 NA 
HETATM    3  C   UNL     1      -5.704   5.710  65.891  1.00  0.00    -0.014 C  
ENDROOT
BRANCH   2   4
HETATM    4  C   UNL     1      -7.486   5.956  64.297  1.00  0.00    -0.074 C  
BRANCH   4   5
HETATM    5  C   UNL     1      -8.059   6.776  65.460  1.00  0.00    -0.128 C  
BRANCH   5   6
HETATM    6  C   UNL     1      -8.476   8.202  65.056  1.00  0.00    -0.117 C  
BRANCH   6   7
HETATM    7  C   UNL     1      -9.009   9.069  66.228  1.00  0.00    -0.162 C  
HETATM    8  O   UNL     1      -7.836   9.641  66.890  1.00  0.00    -0.101 OA 
HETATM    9  N   UNL     1     -10.925   5.226  71.592  1.00  0.00    -0.118 NA 
HETATM   10  C   UNL     1      -9.174   7.501  69.571  1.00  0.00    -0.146 A  
HETATM   11  C   UNL     1      -7.680   9.119  68.224  1.00  0.00    -0.091 C  
HETATM   12  C   UNL     1      -8.865   8.258  68.448  1.00  0.00    -0.137 A  
HETATM   13  C   UNL     1     -10.664   5.897  70.677  1.00  0.00    -0.285 C  
HETATM   14  C   UNL     1      -9.662   8.244  67.311  1.00  0.00    -0.234 A  
HETATM   15  C   UNL     1     -10.330   6.713  69.547  1.00  0.00    -0.232 A  
HETATM   16  C   UNL     1     -11.149   6.704  68.405  1.00  0.00    -0.281 A  
HETATM   17  C   UNL     1     -10.815   7.467  67.278  1.00  0.00    -0.297 A  
BRANCH   7  18
HETATM   18  C   UNL     1      -9.891  10.219  65.710  1.00  0.00    -0.320 A  
HETATM   19  C   UNL     1     -10.617  11.044  66.594  1.00  0.00    -0.315 A  
HETATM   20  F   UNL     1     -12.265  13.329  64.306  1.00  0.00    -0.407 F  
HETATM   21  C   UNL     1     -11.497  12.330  64.759  1.00  0.00    -0.329 A  
HETATM   22  C   UNL     1     -10.789  11.547  63.859  1.00  0.00    -0.469 A  
HETATM   23  C   UNL     1      -9.989  10.502  64.331  1.00  0.00    -0.410 A  
HETATM   24  C   UNL     1     -11.413  12.093  66.123  1.00  0.00    -0.429 A  
ENDBRANCH   7  18
ENDBRANCH   6   7
ENDBRANCH   5   6
ENDBRANCH   4   5
ENDBRANCH   2   4
TORSDOF 5
ENDMDL
MODEL      117
REMARK 921   NORMALIZED FREE ENERGY PREDICTED BY IDOCK:   -3.84 KCAL/MOL
REMARK 922        TOTAL FREE ENERGY PREDICTED BY IDOCK:   -6.05 KCAL/MOL
REMARK 923 INTER-LIGAND FREE ENERGY PREDICTED BY IDOCK:   -5.37 KCAL/MOL
REMARK 924 INTRA-LIGAND FREE ENERGY PREDICTED BY IDOCK:   -0.67 KCAL/MOL
REMARK 927      BINDING AFFINITY PREDICTED BY RF-SCORE:    0.00 PKD
ROOT
HETATM    1  C   UNL     1      -7.924   5.286  66.472  1.00  0.00    -0.104 C  
HETATM    2  N   UNL     1      -9.284   5.692  66.828  1.00  0.00    -0.125 NA 
HETATM    3  C   UNL     1     -10.254   4.812  66.172  1.00  0.00    -0.281 C  
ENDROOT
BRANCH   2   4
HETATM    4  C   UNL     1      -9.508   5.690  68.282  1.00  0.00    -0.114 C  
BRANCH   4   5
HETATM    5  C   UNL     1     -10.256   6.921  68.808  1.00  0.00    -0.179 C  
BRANCH   5   6
HETATM    6  C   UNL     1     -11.625   6.586  69.429  1.00  0.00    -0.249 C  
BRANCH   6   7
HETATM    7  C   UNL     1     -11.751   6.951  70.933  1.00  0.00    -0.361 C  
HETATM    8  O   UNL     1     -13.027   6.398  71.390  1.00  0.00     0.012 OA 
HETATM    9  N   UNL     1     -13.575  13.515  71.832  1.00  0.00    -0.422 NA 
HETATM   10  C   UNL     1     -13.648  10.005  71.793  1.00  0.00    -0.330 A  
HETATM   11  C   UNL     1     -13.954   7.442  71.742  1.00  0.00    -0.351 C  
HETATM   12  C   UNL     1     -13.196   8.706  71.598  1.00  0.00    -0.381 A  
HETATM   13  C   UNL     1     -13.208  12.417  71.710  1.00  0.00    -0.334 C  
HETATM   14  C   UNL     1     -11.906   8.436  71.159  1.00  0.00    -0.314 A  
HETATM   15  C   UNL     1     -12.767  11.063  71.547  1.00  0.00    -0.521 A  
HETATM   16  C   UNL     1     -11.455  10.797  71.117  1.00  0.00     0.192 A  
HETATM   17  C   UNL     1     -11.021   9.481  70.916  1.00  0.00    -0.407 A  
BRANCH   7  18
HETATM   18  C   UNL     1     -10.616   6.316  71.755  1.00  0.00    -0.266 A  
HETATM   19  C   UNL     1      -9.612   7.104  72.355  1.00  0.00    -0.168 A  
HETATM   20  F   UNL     1      -7.558   4.593  73.982  1.00  0.00    -0.080 F  
HETATM   21  C   UNL     1      -8.545   5.149  73.269  1.00  0.00    -0.113 A  
HETATM   22  C   UNL     1      -9.521   4.341  72.702  1.00  0.00    -0.165 A  
HETATM   23  C   UNL     1     -10.551   4.920  71.955  1.00  0.00    -0.186 A  
HETATM   24  C   UNL     1      -8.585   6.525  73.107  1.00  0.00    -0.126 A  
ENDBRANCH   7  18
ENDBRANCH   6   7
ENDBRANCH   5   6
ENDBRANCH   4   5
ENDBRANCH   2   4
TORSDOF 5
ENDMDL
MODEL      118
REMARK 921   NORMALIZED FREE ENERGY PREDICTED BY IDOCK:   -3.83 KCAL/MOL
REMARK 922        TOTAL FREE ENERGY PREDICTED BY IDOCK:   -6.04 KCAL/MOL
REMARK 923 INTER-LIGAND FREE ENERGY PREDICTED BY IDOCK:   -5.39 KCAL/MOL
REMARK 924 INTRA-LIGAND FREE ENERGY PREDICTED BY IDOCK:   -0.65 KCAL/MOL
REMARK 927      BINDING AFFINITY PREDICTED BY RF-SCORE:    0.00 PKD
ROOT
HETATM    1  C   UNL     1     -12.739   9.441  71.495  1.00  0.00    -0.361 C  
HETATM    2  N   UNL     1     -11.623   8.750  70.845  1.00  0.00    -0.282 NA 
HETATM    3  C   UNL     1     -11.868   7.306  70.840  1.00  0.00    -0.316 C  
ENDROOT
BRANCH   2   4
HETATM    4  C   UNL     1     -11.393   9.225  69.472  1.00  0.00     0.103 C  
BRANCH   4   5
HETATM    5  C   UNL     1     -10.338  10.332  69.354  1.00  0.00    -0.256 C  
BRANCH   5   6
HETATM    6  C   UNL     1     -10.942  11.747  69.288  1.00  0.00    -0.231 C  
BRANCH   6   7
HETATM    7  C   UNL     1     -10.612  12.523  67.985  1.00  0.00    -0.223 C  
HETATM    8  O   UNL     1     -11.689  12.226  67.039  1.00  0.00    -0.432 OA 
HETATM    9  N   UNL     1      -5.705   9.408  64.321  1.00  0.00    -0.069 NA 
HETATM   10  C   UNL     1      -8.813  10.697  65.322  1.00  0.00    -0.204 A  
HETATM   11  C   UNL     1     -11.205  11.461  65.918  1.00  0.00    -0.107 C  
HETATM   12  C   UNL     1      -9.741  11.360  66.115  1.00  0.00    -0.248 A  
HETATM   13  C   UNL     1      -6.494   9.987  64.950  1.00  0.00    -0.125 C  
HETATM   14  C   UNL     1      -9.376  11.998  67.293  1.00  0.00    -0.180 A  
HETATM   15  C   UNL     1      -7.474  10.686  65.727  1.00  0.00    -0.114 A  
HETATM   16  C   UNL     1      -7.095  11.343  66.912  1.00  0.00    -0.142 A  
HETATM   17  C   UNL     1      -8.048  11.998  67.703  1.00  0.00    -0.155 A  
BRANCH   7  18
HETATM   18  C   UNL     1     -10.582  14.042  68.236  1.00  0.00    -0.253 A  
HETATM   19  C   UNL     1      -9.583  14.861  67.670  1.00  0.00    -0.200 A  
HETATM   20  F   UNL     1     -10.515  18.143  68.909  1.00  0.00    -0.354 F  
HETATM   21  C   UNL     1     -10.539  16.822  68.688  1.00  0.00    -0.353 A  
HETATM   22  C   UNL     1     -11.543  16.051  69.253  1.00  0.00    -0.331 A  
HETATM   23  C   UNL     1     -11.568  14.671  69.025  1.00  0.00    -0.328 A  
HETATM   24  C   UNL     1      -9.562  16.241  67.894  1.00  0.00    -0.227 A  
ENDBRANCH   7  18
ENDBRANCH   6   7
ENDBRANCH   5   6
ENDBRANCH   4   5
ENDBRANCH   2   4
TORSDOF 5
ENDMDL
MODEL      119
REMARK 921   NORMALIZED FREE ENERGY PREDICTED BY IDOCK:   -3.83 KCAL/MOL
REMARK 922        TOTAL FREE ENERGY PREDICTED BY IDOCK:   -6.03 KCAL/MOL
REMARK 923 INTER-LIGAND FREE ENERGY PREDICTED BY IDOCK:   -5.24 KCAL/MOL
REMARK 924 INTRA-LIGAND FREE ENERGY PREDICTED BY IDOCK:   -0.79 KCAL/MOL
REMARK 927      BINDING AFFINITY PREDICTED BY RF-SCORE:    0.00 PKD
ROOT
HETATM    1  C   UNL     1      -6.412  16.855  68.736  1.00  0.00    -0.178 C  
HETATM    2  N   UNL     1      -7.755  16.286  68.615  1.00  0.00    -0.179 NA 
HETATM    3  C   UNL     1      -8.322  16.622  67.308  1.00  0.00    -0.176 C  
ENDROOT
BRANCH   2   4
HETATM    4  C   UNL     1      -7.765  14.827  68.806  1.00  0.00    -0.136 C  
BRANCH   4   5
HETATM    5  C   UNL     1      -8.777  14.081  67.927  1.00  0.00    -0.184 C  
BRANCH   5   6
HETATM    6  C   UNL     1      -8.496  12.571  67.818  1.00  0.00    -0.171 C  
BRANCH   6   7
HETATM    7  C   UNL     1      -9.767  11.693  67.667  1.00  0.00    -0.180 C  
HETATM    8  O   UNL     1     -10.546  11.876  68.893  1.00  0.00    -0.217 OA 
HETATM    9  N   UNL     1      -8.435   5.044  68.776  1.00  0.00    -0.087 NA 
HETATM   10  C   UNL     1      -9.684   8.304  69.142  1.00  0.00    -0.171 A  
HETATM   11  C   UNL     1     -10.606  10.659  69.662  1.00  0.00    -0.217 C  
HETATM   12  C   UNL     1      -9.920   9.638  68.836  1.00  0.00    -0.186 A  
HETATM   13  C   UNL     1      -8.676   6.155  68.525  1.00  0.00    -0.111 C  
HETATM   14  C   UNL     1      -9.455  10.215  67.661  1.00  0.00    -0.166 A  
HETATM   15  C   UNL     1      -8.964   7.527  68.229  1.00  0.00    -0.130 A  
HETATM   16  C   UNL     1      -8.503   8.100  67.030  1.00  0.00    -0.120 A  
HETATM   17  C   UNL     1      -8.743   9.450  66.744  1.00  0.00    -0.138 A  
BRANCH   7  18
HETATM   18  C   UNL     1     -10.618  12.151  66.469  1.00  0.00    -0.269 A  
HETATM   19  C   UNL     1     -10.210  11.906  65.142  1.00  0.00    -0.314 A  
HETATM   20  F   UNL     1     -12.927  13.380  63.239  1.00  0.00    -0.109 F  
HETATM   21  C   UNL     1     -12.185  12.980  64.279  1.00  0.00    -0.396 A  
HETATM   22  C   UNL     1     -12.624  13.229  65.571  1.00  0.00    -0.505 A  
HETATM   23  C   UNL     1     -11.849  12.814  66.659  1.00  0.00    -0.462 A  
HETATM   24  C   UNL     1     -10.988  12.316  64.055  1.00  0.00    -0.438 A  
ENDBRANCH   7  18
ENDBRANCH   6   7
ENDBRANCH   5   6
ENDBRANCH   4   5
ENDBRANCH   2   4
TORSDOF 5
ENDMDL
MODEL      120
REMARK 921   NORMALIZED FREE ENERGY PREDICTED BY IDOCK:   -3.80 KCAL/MOL
REMARK 922        TOTAL FREE ENERGY PREDICTED BY IDOCK:   -6.00 KCAL/MOL
REMARK 923 INTER-LIGAND FREE ENERGY PREDICTED BY IDOCK:   -5.24 KCAL/MOL
REMARK 924 INTRA-LIGAND FREE ENERGY PREDICTED BY IDOCK:   -0.76 KCAL/MOL
REMARK 927      BINDING AFFINITY PREDICTED BY RF-SCORE:    0.00 PKD
ROOT
HETATM    1  C   UNL     1     -12.126   6.482  71.990  1.00  0.00    -0.312 C  
HETATM    2  N   UNL     1     -11.937   7.904  72.283  1.00  0.00    -0.335 NA 
HETATM    3  C   UNL     1     -10.543   8.155  72.654  1.00  0.00    -0.344 C  
ENDROOT
BRANCH   2   4
HETATM    4  C   UNL     1     -12.319   8.764  71.152  1.00  0.00    -0.219 C  
BRANCH   4   5
HETATM    5  C   UNL     1     -11.516  10.067  71.051  1.00  0.00    -0.463 C  
BRANCH   5   6
HETATM    6  C   UNL     1     -12.023  11.015  69.948  1.00  0.00    -0.427 C  
BRANCH   6   7
HETATM    7  C   UNL     1     -11.068  11.151  68.732  1.00  0.00    -0.236 C  
HETATM    8  O   UNL     1     -11.779  10.597  67.579  1.00  0.00    -0.445 OA 
HETATM    9  N   UNL     1      -6.153   6.349  68.785  1.00  0.00    -0.027 NA 
HETATM   10  C   UNL     1      -8.975   8.229  67.872  1.00  0.00    -0.134 A  
HETATM   11  C   UNL     1     -11.143   9.396  67.099  1.00  0.00     0.288 C  
HETATM   12  C   UNL     1      -9.920   9.244  67.921  1.00  0.00    -0.228 A  
HETATM   13  C   UNL     1      -6.938   7.209  68.783  1.00  0.00    -0.082 C  
HETATM   14  C   UNL     1      -9.845  10.272  68.853  1.00  0.00    -0.200 A  
HETATM   15  C   UNL     1      -7.916   8.256  68.786  1.00  0.00    -0.114 A  
HETATM   16  C   UNL     1      -7.826   9.301  69.722  1.00  0.00    -0.100 A  
HETATM   17  C   UNL     1      -8.795  10.312  69.762  1.00  0.00    -0.070 A  
BRANCH   7  18
HETATM   18  C   UNL     1     -10.742  12.628  68.446  1.00  0.00    -0.260 A  
HETATM   19  C   UNL     1     -11.474  13.672  69.048  1.00  0.00    -0.346 A  
HETATM   20  F   UNL     1      -9.849  16.614  67.678  1.00  0.00    -0.240 F  
HETATM   21  C   UNL     1     -10.134  15.330  67.929  1.00  0.00    -0.233 A  
HETATM   22  C   UNL     1      -9.384  14.330  67.326  1.00  0.00    -0.215 A  
HETATM   23  C   UNL     1      -9.682  12.989  67.586  1.00  0.00    -0.212 A  
HETATM   24  C   UNL     1     -11.172  15.013  68.792  1.00  0.00    -0.288 A  
ENDBRANCH   7  18
ENDBRANCH   6   7
ENDBRANCH   5   6
ENDBRANCH   4   5
ENDBRANCH   2   4
TORSDOF 5
ENDMDL
MODEL      121
REMARK 921   NORMALIZED FREE ENERGY PREDICTED BY IDOCK:   -3.78 KCAL/MOL
REMARK 922        TOTAL FREE ENERGY PREDICTED BY IDOCK:   -5.98 KCAL/MOL
REMARK 923 INTER-LIGAND FREE ENERGY PREDICTED BY IDOCK:   -5.08 KCAL/MOL
REMARK 924 INTRA-LIGAND FREE ENERGY PREDICTED BY IDOCK:   -0.90 KCAL/MOL
REMARK 927      BINDING AFFINITY PREDICTED BY RF-SCORE:    0.00 PKD
ROOT
HETATM    1  C   UNL     1     -12.630  15.936  73.167  1.00  0.00    -0.513 C  
HETATM    2  N   UNL     1     -13.152  14.841  72.347  1.00  0.00    -0.348 NA 
HETATM    3  C   UNL     1     -14.375  15.269  71.666  1.00  0.00    -0.561 C  
ENDROOT
BRANCH   2   4
HETATM    4  C   UNL     1     -12.170  14.362  71.362  1.00  0.00    -0.352 C  
BRANCH   4   5
HETATM    5  C   UNL     1     -11.493  15.474  70.551  1.00  0.00    -0.368 C  
BRANCH   5   6
HETATM    6  C   UNL     1     -10.267  14.991  69.755  1.00  0.00    -0.142 C  
BRANCH   6   7
HETATM    7  C   UNL     1     -10.006  15.777  68.442  1.00  0.00    -0.217 C  
HETATM    8  O   UNL     1     -11.177  16.629  68.228  1.00  0.00    -0.349 OA 
HETATM    9  N   UNL     1     -11.059  11.888  62.876  1.00  0.00     0.054 NA 
HETATM   10  C   UNL     1     -11.407  14.387  65.316  1.00  0.00    -0.346 A  
HETATM   11  C   UNL     1     -11.912  16.225  67.057  1.00  0.00     1.261 C  
HETATM   12  C   UNL     1     -11.115  15.135  66.450  1.00  0.00    -0.312 A  
HETATM   13  C   UNL     1     -10.816  12.551  63.801  1.00  0.00    -0.446 C  
HETATM   14  C   UNL     1      -9.989  14.884  67.224  1.00  0.00    -0.230 A  
HETATM   15  C   UNL     1     -10.531  13.361  64.948  1.00  0.00    -0.404 A  
HETATM   16  C   UNL     1      -9.381  13.111  65.719  1.00  0.00     0.143 A  
HETATM   17  C   UNL     1      -9.109  13.869  66.865  1.00  0.00    -0.257 A  
BRANCH   7  18
HETATM   18  C   UNL     1      -8.761  16.672  68.570  1.00  0.00    -0.242 A  
HETATM   19  C   UNL     1      -7.503  16.137  68.913  1.00  0.00    -0.197 A  
HETATM   20  F   UNL     1      -5.401  19.095  68.903  1.00  0.00    -0.188 F  
HETATM   21  C   UNL     1      -6.482  18.314  68.791  1.00  0.00    -0.225 A  
HETATM   22  C   UNL     1      -7.701  18.876  68.442  1.00  0.00    -0.351 A  
HETATM   23  C   UNL     1      -8.832  18.061  68.327  1.00  0.00    -0.291 A  
HETATM   24  C   UNL     1      -6.371  16.951  69.022  1.00  0.00    -0.194 A  
ENDBRANCH   7  18
ENDBRANCH   6   7
ENDBRANCH   5   6
ENDBRANCH   4   5
ENDBRANCH   2   4
TORSDOF 5
ENDMDL
MODEL      122
REMARK 921   NORMALIZED FREE ENERGY PREDICTED BY IDOCK:   -3.77 KCAL/MOL
REMARK 922        TOTAL FREE ENERGY PREDICTED BY IDOCK:   -5.96 KCAL/MOL
REMARK 923 INTER-LIGAND FREE ENERGY PREDICTED BY IDOCK:   -4.73 KCAL/MOL
REMARK 924 INTRA-LIGAND FREE ENERGY PREDICTED BY IDOCK:   -1.23 KCAL/MOL
REMARK 927      BINDING AFFINITY PREDICTED BY RF-SCORE:    0.00 PKD
ROOT
HETATM    1  C   UNL     1      -6.094   9.432  64.593  1.00  0.00    -0.077 C  
HETATM    2  N   UNL     1      -7.412   9.488  65.227  1.00  0.00    -0.104 NA 
HETATM    3  C   UNL     1      -8.315  10.318  64.427  1.00  0.00    -0.166 C  
ENDROOT
BRANCH   2   4
HETATM    4  C   UNL     1      -7.998   8.153  65.422  1.00  0.00    -0.126 C  
BRANCH   4   5
HETATM    5  C   UNL     1      -9.387   8.160  66.073  1.00  0.00    -0.184 C  
BRANCH   5   6
HETATM    6  C   UNL     1      -9.355   7.875  67.586  1.00  0.00    -0.161 C  
BRANCH   6   7
HETATM    7  C   UNL     1      -9.887   9.038  68.467  1.00  0.00    -0.169 C  
HETATM    8  O   UNL     1     -11.115   9.515  67.829  1.00  0.00    -0.186 OA 
HETATM    9  N   UNL     1      -6.368  14.849  67.439  1.00  0.00    -0.320 NA 
HETATM   10  C   UNL     1      -8.958  12.480  67.491  1.00  0.00    -0.185 A  
HETATM   11  C   UNL     1     -10.957  10.855  67.324  1.00  0.00    -0.294 C  
HETATM   12  C   UNL     1      -9.603  11.278  67.751  1.00  0.00    -0.181 A  
HETATM   13  C   UNL     1      -6.942  13.865  67.676  1.00  0.00    -0.175 C  
HETATM   14  C   UNL     1      -8.981  10.246  68.443  1.00  0.00    -0.132 A  
HETATM   15  C   UNL     1      -7.648  12.649  67.952  1.00  0.00    -0.132 A  
HETATM   16  C   UNL     1      -7.017  11.614  68.665  1.00  0.00    -0.088 A  
HETATM   17  C   UNL     1      -7.681  10.405  68.909  1.00  0.00    -0.111 A  
BRANCH   7  18
HETATM   18  C   UNL     1     -10.227   8.547  69.885  1.00  0.00    -0.204 A  
HETATM   19  C   UNL     1      -9.477   7.530  70.511  1.00  0.00    -0.164 A  
HETATM   20  F   UNL     1     -11.145   7.235  73.721  1.00  0.00    -0.348 F  
HETATM   21  C   UNL     1     -10.846   7.660  72.487  1.00  0.00    -0.314 A  
HETATM   22  C   UNL     1     -11.601   8.670  71.909  1.00  0.00    -0.420 A  
HETATM   23  C   UNL     1     -11.291   9.114  70.619  1.00  0.00    -0.323 A  
HETATM   24  C   UNL     1      -9.783   7.091  71.803  1.00  0.00    -0.165 A  
ENDBRANCH   7  18
ENDBRANCH   6   7
ENDBRANCH   5   6
ENDBRANCH   4   5
ENDBRANCH   2   4
TORSDOF 5
ENDMDL
MODEL      123
REMARK 921   NORMALIZED FREE ENERGY PREDICTED BY IDOCK:   -3.75 KCAL/MOL
REMARK 922        TOTAL FREE ENERGY PREDICTED BY IDOCK:   -5.93 KCAL/MOL
REMARK 923 INTER-LIGAND FREE ENERGY PREDICTED BY IDOCK:   -4.62 KCAL/MOL
REMARK 924 INTRA-LIGAND FREE ENERGY PREDICTED BY IDOCK:   -1.31 KCAL/MOL
REMARK 927      BINDING AFFINITY PREDICTED BY RF-SCORE:    0.00 PKD
ROOT
HETATM    1  C   UNL     1     -10.061  10.426  64.346  1.00  0.00    -0.272 C  
HETATM    2  N   UNL     1      -9.319   9.549  65.254  1.00  0.00    -0.249 NA 
HETATM    3  C   UNL     1      -8.276   8.836  64.514  1.00  0.00    -0.167 C  
ENDROOT
BRANCH   2   4
HETATM    4  C   UNL     1      -8.722  10.284  66.380  1.00  0.00    -0.135 C  
BRANCH   4   5
HETATM    5  C   UNL     1      -9.090   9.731  67.762  1.00  0.00    -0.138 C  
BRANCH   5   6
HETATM    6  C   UNL     1     -10.065   8.540  67.705  1.00  0.00    -0.266 C  
BRANCH   6   7
HETATM    7  C   UNL     1      -9.447   7.186  68.147  1.00  0.00    -0.132 C  
HETATM    8  O   UNL     1      -8.002   7.397  68.233  1.00  0.00    -0.119 OA 
HETATM    9  N   UNL     1      -9.105   2.707  62.947  1.00  0.00    -0.088 NA 
HETATM   10  C   UNL     1      -8.187   4.941  65.496  1.00  0.00    -0.116 A  
HETATM   11  C   UNL     1      -7.301   6.631  67.234  1.00  0.00    -0.090 C  
HETATM   12  C   UNL     1      -8.342   5.825  66.555  1.00  0.00    -0.111 A  
HETATM   13  C   UNL     1      -9.206   3.424  63.859  1.00  0.00    -0.118 C  
HETATM   14  C   UNL     1      -9.589   6.112  67.095  1.00  0.00    -0.139 A  
HETATM   15  C   UNL     1      -9.325   4.320  64.971  1.00  0.00    -0.165 A  
HETATM   16  C   UNL     1     -10.590   4.595  65.522  1.00  0.00    -0.208 A  
HETATM   17  C   UNL     1     -10.727   5.497  66.584  1.00  0.00    -0.332 A  
BRANCH   7  18
HETATM   18  C   UNL     1      -9.967   6.766  69.534  1.00  0.00    -0.172 A  
HETATM   19  C   UNL     1     -11.327   6.900  69.880  1.00  0.00    -0.321 A  
HETATM   20  F   UNL     1     -11.366   5.619  73.276  1.00  0.00    -0.298 F  
HETATM   21  C   UNL     1     -10.916   5.985  72.069  1.00  0.00    -0.263 A  
HETATM   22  C   UNL     1      -9.573   5.827  71.761  1.00  0.00    -0.178 A  
HETATM   23  C   UNL     1      -9.102   6.211  70.501  1.00  0.00    -0.159 A  
HETATM   24  C   UNL     1     -11.799   6.512  71.138  1.00  0.00    -0.383 A  
ENDBRANCH   7  18
ENDBRANCH   6   7
ENDBRANCH   5   6
ENDBRANCH   4   5
ENDBRANCH   2   4
TORSDOF 5
ENDMDL
MODEL      124
REMARK 921   NORMALIZED FREE ENERGY PREDICTED BY IDOCK:   -3.75 KCAL/MOL
REMARK 922        TOTAL FREE ENERGY PREDICTED BY IDOCK:   -5.93 KCAL/MOL
REMARK 923 INTER-LIGAND FREE ENERGY PREDICTED BY IDOCK:   -5.02 KCAL/MOL
REMARK 924 INTRA-LIGAND FREE ENERGY PREDICTED BY IDOCK:   -0.91 KCAL/MOL
REMARK 927      BINDING AFFINITY PREDICTED BY RF-SCORE:    0.00 PKD
ROOT
HETATM    1  C   UNL     1     -13.132   9.997  71.581  1.00  0.00    -0.445 C  
HETATM    2  N   UNL     1     -12.530   8.771  72.108  1.00  0.00    -0.375 NA 
HETATM    3  C   UNL     1     -13.297   7.608  71.659  1.00  0.00    -0.350 C  
ENDROOT
BRANCH   2   4
HETATM    4  C   UNL     1     -11.120   8.625  71.716  1.00  0.00    -0.326 C  
BRANCH   4   5
HETATM    5  C   UNL     1     -10.911   8.036  70.315  1.00  0.00    -0.242 C  
BRANCH   5   6
HETATM    6  C   UNL     1     -10.176   8.989  69.354  1.00  0.00    -0.206 C  
BRANCH   6   7
HETATM    7  C   UNL     1     -10.250   8.574  67.860  1.00  0.00    -0.218 C  
HETATM    8  O   UNL     1     -11.379   7.650  67.741  1.00  0.00     0.294 OA 
HETATM    9  N   UNL     1      -5.468   3.908  66.257  1.00  0.00    -0.013 NA 
HETATM   10  C   UNL     1      -8.569   5.432  66.878  1.00  0.00    -0.109 A  
HETATM   11  C   UNL     1     -10.935   6.322  67.399  1.00  0.00    -0.356 C  
HETATM   12  C   UNL     1      -9.473   6.438  67.195  1.00  0.00    -0.145 A  
HETATM   13  C   UNL     1      -6.248   4.741  66.486  1.00  0.00    -0.032 C  
HETATM   14  C   UNL     1      -9.064   7.745  67.428  1.00  0.00    -0.138 A  
HETATM   15  C   UNL     1      -7.212   5.758  66.783  1.00  0.00    -0.074 A  
HETATM   16  C   UNL     1      -6.793   7.083  67.003  1.00  0.00    -0.068 A  
HETATM   17  C   UNL     1      -7.719   8.081  67.332  1.00  0.00    -0.102 A  
BRANCH   7  18
HETATM   18  C   UNL     1     -10.514   9.793  66.958  1.00  0.00    -0.295 A  
HETATM   19  C   UNL     1     -10.974  11.015  67.491  1.00  0.00    -0.338 A  
HETATM   20  F   UNL     1     -11.215  13.084  64.518  1.00  0.00    -0.308 F  
HETATM   21  C   UNL     1     -10.985  12.025  65.305  1.00  0.00    -0.308 A  
HETATM   22  C   UNL     1     -10.524  10.843  64.746  1.00  0.00    -0.373 A  
HETATM   23  C   UNL     1     -10.286   9.736  65.567  1.00  0.00    -0.114 A  
HETATM   24  C   UNL     1     -11.206  12.124  66.671  1.00  0.00    -0.375 A  
ENDBRANCH   7  18
ENDBRANCH   6   7
ENDBRANCH   5   6
ENDBRANCH   4   5
ENDBRANCH   2   4
TORSDOF 5
ENDMDL
MODEL      125
REMARK 921   NORMALIZED FREE ENERGY PREDICTED BY IDOCK:   -3.74 KCAL/MOL
REMARK 922        TOTAL FREE ENERGY PREDICTED BY IDOCK:   -5.92 KCAL/MOL
REMARK 923 INTER-LIGAND FREE ENERGY PREDICTED BY IDOCK:   -4.68 KCAL/MOL
REMARK 924 INTRA-LIGAND FREE ENERGY PREDICTED BY IDOCK:   -1.24 KCAL/MOL
REMARK 927      BINDING AFFINITY PREDICTED BY RF-SCORE:    0.00 PKD
ROOT
HETATM    1  C   UNL     1      -7.398  19.955  69.399  1.00  0.00    -0.108 C  
HETATM    2  N   UNL     1      -5.964  19.662  69.409  1.00  0.00    -0.254 NA 
HETATM    3  C   UNL     1      -5.202  20.911  69.468  1.00  0.00    -0.371 C  
ENDROOT
BRANCH   2   4
HETATM    4  C   UNL     1      -5.579  18.787  70.527  1.00  0.00    -0.206 C  
BRANCH   4   5
HETATM    5  C   UNL     1      -5.129  17.383  70.104  1.00  0.00    -0.207 C  
BRANCH   5   6
HETATM    6  C   UNL     1      -6.275  16.355  70.078  1.00  0.00    -0.102 C  
BRANCH   6   7
HETATM    7  C   UNL     1      -6.629  15.828  68.661  1.00  0.00    -0.116 C  
HETATM    8  O   UNL     1      -5.492  16.154  67.799  1.00  0.00    -0.118 OA 
HETATM    9  N   UNL     1     -11.056  19.966  65.421  1.00  0.00    -0.216 NA 
HETATM   10  C   UNL     1      -8.133  18.220  66.278  1.00  0.00    -0.254 A  
HETATM   11  C   UNL     1      -5.853  17.128  66.802  1.00  0.00    -0.199 C  
HETATM   12  C   UNL     1      -7.307  17.350  66.978  1.00  0.00    -0.220 A  
HETATM   13  C   UNL     1     -10.353  19.217  65.969  1.00  0.00    -0.463 C  
HETATM   14  C   UNL     1      -7.779  16.579  68.033  1.00  0.00    -0.163 A  
HETATM   15  C   UNL     1      -9.479  18.308  66.649  1.00  0.00    -0.308 A  
HETATM   16  C   UNL     1      -9.967  17.520  67.706  1.00  0.00    -0.312 A  
HETATM   17  C   UNL     1      -9.116  16.655  68.407  1.00  0.00    -0.226 A  
BRANCH   7  18
HETATM   18  C   UNL     1      -6.819  14.300  68.669  1.00  0.00    -0.098 A  
HETATM   19  C   UNL     1      -7.563  13.647  67.665  1.00  0.00    -0.186 A  
HETATM   20  F   UNL     1      -7.320  10.174  68.692  1.00  0.00    -0.074 F  
HETATM   21  C   UNL     1      -7.156  11.503  68.682  1.00  0.00    -0.098 A  
HETATM   22  C   UNL     1      -6.408  12.109  69.681  1.00  0.00    -0.115 A  
HETATM   23  C   UNL     1      -6.237  13.497  69.673  1.00  0.00    -0.121 A  
HETATM   24  C   UNL     1      -7.729  12.259  67.670  1.00  0.00    -0.144 A  
ENDBRANCH   7  18
ENDBRANCH   6   7
ENDBRANCH   5   6
ENDBRANCH   4   5
ENDBRANCH   2   4
TORSDOF 5
ENDMDL
MODEL      126
REMARK 921   NORMALIZED FREE ENERGY PREDICTED BY IDOCK:   -3.70 KCAL/MOL
REMARK 922        TOTAL FREE ENERGY PREDICTED BY IDOCK:   -5.87 KCAL/MOL
REMARK 923 INTER-LIGAND FREE ENERGY PREDICTED BY IDOCK:   -4.78 KCAL/MOL
REMARK 924 INTRA-LIGAND FREE ENERGY PREDICTED BY IDOCK:   -1.10 KCAL/MOL
REMARK 927      BINDING AFFINITY PREDICTED BY RF-SCORE:    0.00 PKD
ROOT
HETATM    1  C   UNL     1      -7.652  12.620  67.647  1.00  0.00    -0.152 C  
HETATM    2  N   UNL     1      -6.439  11.939  68.106  1.00  0.00    -0.050 NA 
HETATM    3  C   UNL     1      -6.155  12.310  69.493  1.00  0.00    -0.118 C  
ENDROOT
BRANCH   2   4
HETATM    4  C   UNL     1      -6.539  10.476  67.988  1.00  0.00    -0.060 C  
BRANCH   4   5
HETATM    5  C   UNL     1      -7.080   9.776  69.241  1.00  0.00    -0.066 C  
BRANCH   5   6
HETATM    6  C   UNL     1      -8.350   8.946  68.978  1.00  0.00    -0.124 C  
BRANCH   6   7
HETATM    7  C   UNL     1      -9.082   8.472  70.262  1.00  0.00    -0.154 C  
HETATM    8  O   UNL     1      -8.113   8.572  71.354  1.00  0.00    -0.116 OA 
HETATM    9  N   UNL     1      -9.602   1.625  70.533  1.00  0.00    -0.093 NA 
HETATM   10  C   UNL     1      -8.671   4.934  71.250  1.00  0.00    -0.142 A  
HETATM   11  C   UNL     1      -7.769   7.271  71.870  1.00  0.00    -0.090 C  
HETATM   12  C   UNL     1      -8.635   6.318  71.140  1.00  0.00    -0.125 A  
HETATM   13  C   UNL     1      -9.581   2.788  70.484  1.00  0.00    -0.088 C  
HETATM   14  C   UNL     1      -9.426   7.002  70.225  1.00  0.00    -0.165 A  
HETATM   15  C   UNL     1      -9.539   4.219  70.418  1.00  0.00    -0.265 A  
HETATM   16  C   UNL     1     -10.353   4.906  69.500  1.00  0.00    -0.154 A  
HETATM   17  C   UNL     1     -10.295   6.302  69.396  1.00  0.00    -0.266 A  
BRANCH   7  18
HETATM   18  C   UNL     1     -10.282   9.380  70.584  1.00  0.00    -0.353 A  
HETATM   19  C   UNL     1     -10.568  10.523  69.809  1.00  0.00    -0.274 A  
HETATM   20  F   UNL     1     -13.532  11.821  71.453  1.00  0.00    -0.344 F  
HETATM   21  C   UNL     1     -12.488  11.033  71.170  1.00  0.00    -0.397 A  
HETATM   22  C   UNL     1     -12.245   9.911  71.949  1.00  0.00    -0.333 A  
HETATM   23  C   UNL     1     -11.153   9.087  71.656  1.00  0.00    -0.433 A  
HETATM   24  C   UNL     1     -11.663  11.342  70.099  1.00  0.00    -0.414 A  
ENDBRANCH   7  18
ENDBRANCH   6   7
ENDBRANCH   5   6
ENDBRANCH   4   5
ENDBRANCH   2   4
TORSDOF 5
ENDMDL
MODEL      127
REMARK 921   NORMALIZED FREE ENERGY PREDICTED BY IDOCK:   -3.69 KCAL/MOL
REMARK 922        TOTAL FREE ENERGY PREDICTED BY IDOCK:   -5.85 KCAL/MOL
REMARK 923 INTER-LIGAND FREE ENERGY PREDICTED BY IDOCK:   -4.93 KCAL/MOL
REMARK 924 INTRA-LIGAND FREE ENERGY PREDICTED BY IDOCK:   -0.92 KCAL/MOL
REMARK 927      BINDING AFFINITY PREDICTED BY RF-SCORE:    0.00 PKD
ROOT
HETATM    1  C   UNL     1      -5.808   4.963  67.602  1.00  0.00    -0.022 C  
HETATM    2  N   UNL     1      -7.248   5.199  67.489  1.00  0.00    -0.070 NA 
HETATM    3  C   UNL     1      -7.828   5.383  68.820  1.00  0.00    -0.087 C  
ENDROOT
BRANCH   2   4
HETATM    4  C   UNL     1      -7.561   6.359  66.640  1.00  0.00    -0.094 C  
BRANCH   4   5
HETATM    5  C   UNL     1      -8.841   7.106  67.038  1.00  0.00    -0.125 C  
BRANCH   5   6
HETATM    6  C   UNL     1      -8.698   8.638  66.980  1.00  0.00    -0.135 C  
BRANCH   6   7
HETATM    7  C   UNL     1      -9.334   9.385  68.183  1.00  0.00    -0.133 C  
HETATM    8  O   UNL     1      -8.226   9.946  68.957  1.00  0.00    -0.108 OA 
HETATM    9  N   UNL     1     -11.385   5.047  73.101  1.00  0.00    -0.332 NA 
HETATM   10  C   UNL     1      -9.622   7.545  71.375  1.00  0.00    -0.168 A  
HETATM   11  C   UNL     1      -8.125   9.323  70.252  1.00  0.00    -0.154 C  
HETATM   12  C   UNL     1      -9.282   8.402  70.337  1.00  0.00    -0.161 A  
HETATM   13  C   UNL     1     -11.102   5.799  72.259  1.00  0.00    -0.276 C  
HETATM   14  C   UNL     1     -10.012   8.450  69.155  1.00  0.00    -0.197 A  
HETATM   15  C   UNL     1     -10.739   6.717  71.220  1.00  0.00    -0.269 A  
HETATM   16  C   UNL     1     -11.491   6.770  70.033  1.00  0.00    -0.390 A  
HETATM   17  C   UNL     1     -11.126   7.635  68.992  1.00  0.00     0.145 A  
BRANCH   7  18
HETATM   18  C   UNL     1     -10.235  10.539  67.705  1.00  0.00    -0.223 A  
HETATM   19  C   UNL     1     -10.898  11.381  68.621  1.00  0.00    -0.249 A  
HETATM   20  F   UNL     1     -12.657  13.657  66.409  1.00  0.00    -0.436 F  
HETATM   21  C   UNL     1     -11.874  12.656  66.827  1.00  0.00    -0.370 A  
HETATM   22  C   UNL     1     -11.230  11.855  65.896  1.00  0.00    -0.373 A  
HETATM   23  C   UNL     1     -10.412  10.806  66.331  1.00  0.00    -0.293 A  
HETATM   24  C   UNL     1     -11.710  12.433  68.186  1.00  0.00    -0.408 A  
ENDBRANCH   7  18
ENDBRANCH   6   7
ENDBRANCH   5   6
ENDBRANCH   4   5
ENDBRANCH   2   4
TORSDOF 5
ENDMDL
MODEL      128
REMARK 921   NORMALIZED FREE ENERGY PREDICTED BY IDOCK:   -3.69 KCAL/MOL
REMARK 922        TOTAL FREE ENERGY PREDICTED BY IDOCK:   -5.85 KCAL/MOL
REMARK 923 INTER-LIGAND FREE ENERGY PREDICTED BY IDOCK:   -5.71 KCAL/MOL
REMARK 924 INTRA-LIGAND FREE ENERGY PREDICTED BY IDOCK:   -0.14 KCAL/MOL
REMARK 927      BINDING AFFINITY PREDICTED BY RF-SCORE:    0.00 PKD
ROOT
HETATM    1  C   UNL     1      -5.658  13.637  71.504  1.00  0.00    -0.189 C  
HETATM    2  N   UNL     1      -5.905  14.101  70.138  1.00  0.00    -0.129 NA 
HETATM    3  C   UNL     1      -7.345  14.236  69.911  1.00  0.00     0.267 C  
ENDROOT
BRANCH   2   4
HETATM    4  C   UNL     1      -5.230  15.377  69.849  1.00  0.00    -0.102 C  
BRANCH   4   5
HETATM    5  C   UNL     1      -5.887  16.201  68.735  1.00  0.00    -0.109 C  
BRANCH   5   6
HETATM    6  C   UNL     1      -6.833  17.297  69.261  1.00  0.00    -0.208 C  
BRANCH   6   7
HETATM    7  C   UNL     1      -7.834  17.838  68.205  1.00  0.00    -0.279 C  
HETATM    8  O   UNL     1      -8.835  18.612  68.940  1.00  0.00    -0.282 OA 
HETATM    9  N   UNL     1     -12.228  12.984  66.118  1.00  0.00    -0.457 NA 
HETATM   10  C   UNL     1     -10.910  15.876  67.610  1.00  0.00    -0.312 A  
HETATM   11  C   UNL     1     -10.132  17.987  68.875  1.00  0.00    -0.344 C  
HETATM   12  C   UNL     1      -9.962  16.822  67.977  1.00  0.00    -0.272 A  
HETATM   13  C   UNL     1     -11.459  13.809  66.409  1.00  0.00    -0.336 C  
HETATM   14  C   UNL     1      -8.641  16.739  67.554  1.00  0.00    -0.203 A  
HETATM   15  C   UNL     1     -10.515  14.819  66.783  1.00  0.00    -0.282 A  
HETATM   16  C   UNL     1      -9.183  14.737  66.340  1.00  0.00    -0.301 A  
HETATM   17  C   UNL     1      -8.238  15.696  66.728  1.00  0.00    -0.300 A  
BRANCH   7  18
HETATM   18  C   UNL     1      -7.132  18.768  67.200  1.00  0.00    -0.212 A  
HETATM   19  C   UNL     1      -6.791  20.094  67.540  1.00  0.00    -0.281 A  
HETATM   20  F   UNL     1      -5.225  21.272  64.485  1.00  0.00    -0.235 F  
HETATM   21  C   UNL     1      -5.835  20.464  65.361  1.00  0.00    -0.200 A  
HETATM   22  C   UNL     1      -6.145  19.163  64.994  1.00  0.00    -0.316 A  
HETATM   23  C   UNL     1      -6.785  18.319  65.908  1.00  0.00    -0.315 A  
HETATM   24  C   UNL     1      -6.147  20.935  66.628  1.00  0.00    -0.312 A  
ENDBRANCH   7  18
ENDBRANCH   6   7
ENDBRANCH   5   6
ENDBRANCH   4   5
ENDBRANCH   2   4
TORSDOF 5
ENDMDL
MODEL      129
REMARK 921   NORMALIZED FREE ENERGY PREDICTED BY IDOCK:   -3.66 KCAL/MOL
REMARK 922        TOTAL FREE ENERGY PREDICTED BY IDOCK:   -5.81 KCAL/MOL
REMARK 923 INTER-LIGAND FREE ENERGY PREDICTED BY IDOCK:   -5.50 KCAL/MOL
REMARK 924 INTRA-LIGAND FREE ENERGY PREDICTED BY IDOCK:   -0.31 KCAL/MOL
REMARK 927      BINDING AFFINITY PREDICTED BY RF-SCORE:    0.00 PKD
ROOT
HETATM    1  C   UNL     1     -13.136  10.486  71.849  1.00  0.00    -0.462 C  
HETATM    2  N   UNL     1     -11.838  10.663  71.196  1.00  0.00    -0.300 NA 
HETATM    3  C   UNL     1     -11.130   9.383  71.140  1.00  0.00    -0.362 C  
ENDROOT
BRANCH   2   4
HETATM    4  C   UNL     1     -11.964  11.226  69.842  1.00  0.00    -0.365 C  
BRANCH   4   5
HETATM    5  C   UNL     1     -10.632  11.632  69.199  1.00  0.00    -0.147 C  
BRANCH   5   6
HETATM    6  C   UNL     1     -10.693  12.986  68.468  1.00  0.00    -0.275 C  
BRANCH   6   7
HETATM    7  C   UNL     1      -9.842  13.051  67.172  1.00  0.00    -0.230 C  
HETATM    8  O   UNL     1     -10.786  13.127  66.057  1.00  0.00    -0.271 OA 
HETATM    9  N   UNL     1      -7.342   6.891  65.435  1.00  0.00    -0.076 NA 
HETATM   10  C   UNL     1      -9.191   9.875  65.397  1.00  0.00    -0.264 A  
HETATM   11  C   UNL     1     -10.730  11.941  65.241  1.00  0.00    -0.283 C  
HETATM   12  C   UNL     1      -9.631  11.127  65.807  1.00  0.00    -0.255 A  
HETATM   13  C   UNL     1      -7.702   7.956  65.738  1.00  0.00    -0.090 C  
HETATM   14  C   UNL     1      -9.084  11.772  66.910  1.00  0.00    -0.192 A  
HETATM   15  C   UNL     1      -8.161   9.259  66.116  1.00  0.00    -0.110 A  
HETATM   16  C   UNL     1      -7.592   9.912  67.224  1.00  0.00    -0.088 A  
HETATM   17  C   UNL     1      -8.056  11.171  67.628  1.00  0.00    -0.117 A  
BRANCH   7  18
HETATM   18  C   UNL     1      -8.955  14.310  67.153  1.00  0.00    -0.237 A  
HETATM   19  C   UNL     1      -7.651  14.298  67.690  1.00  0.00    -0.191 A  
HETATM   20  F   UNL     1      -6.564  17.709  67.091  1.00  0.00    -0.156 F  
HETATM   21  C   UNL     1      -7.332  16.612  67.108  1.00  0.00    -0.185 A  
HETATM   22  C   UNL     1      -8.606  16.659  66.561  1.00  0.00    -0.320 A  
HETATM   23  C   UNL     1      -9.411  15.516  66.579  1.00  0.00    -0.311 A  
HETATM   24  C   UNL     1      -6.845  15.440  67.666  1.00  0.00    -0.208 A  
ENDBRANCH   7  18
ENDBRANCH   6   7
ENDBRANCH   5   6
ENDBRANCH   4   5
ENDBRANCH   2   4
TORSDOF 5
ENDMDL
MODEL      130
REMARK 921   NORMALIZED FREE ENERGY PREDICTED BY IDOCK:   -3.65 KCAL/MOL
REMARK 922        TOTAL FREE ENERGY PREDICTED BY IDOCK:   -5.80 KCAL/MOL
REMARK 923 INTER-LIGAND FREE ENERGY PREDICTED BY IDOCK:   -5.35 KCAL/MOL
REMARK 924 INTRA-LIGAND FREE ENERGY PREDICTED BY IDOCK:   -0.45 KCAL/MOL
REMARK 927      BINDING AFFINITY PREDICTED BY RF-SCORE:    0.00 PKD
ROOT
HETATM    1  C   UNL     1     -10.686  16.840  67.188  1.00  0.00    -0.189 C  
HETATM    2  N   UNL     1     -10.165  16.757  65.822  1.00  0.00    -0.530 NA 
HETATM    3  C   UNL     1      -8.702  16.715  65.848  1.00  0.00    -0.066 C  
ENDROOT
BRANCH   2   4
HETATM    4  C   UNL     1     -10.687  15.589  65.094  1.00  0.00    -0.440 C  
BRANCH   4   5
HETATM    5  C   UNL     1     -11.123  14.426  65.993  1.00  0.00    -0.324 C  
BRANCH   5   6
HETATM    6  C   UNL     1     -10.122  13.256  66.010  1.00  0.00    -0.301 C  
BRANCH   6   7
HETATM    7  C   UNL     1     -10.039  12.504  67.365  1.00  0.00    -0.210 C  
HETATM    8  O   UNL     1     -11.177  11.584  67.402  1.00  0.00    -0.271 OA 
HETATM    9  N   UNL     1     -12.231  16.393  72.590  1.00  0.00    -0.470 NA 
HETATM   10  C   UNL     1     -12.020  13.845  70.183  1.00  0.00    -0.402 A  
HETATM   11  C   UNL     1     -12.120  11.958  68.425  1.00  0.00    -0.020 C  
HETATM   12  C   UNL     1     -11.500  13.102  69.131  1.00  0.00    -0.358 A  
HETATM   13  C   UNL     1     -11.799  15.734  71.733  1.00  0.00    -0.467 C  
HETATM   14  C   UNL     1     -10.277  13.412  68.548  1.00  0.00    -0.224 A  
HETATM   15  C   UNL     1     -11.279  14.928  70.668  1.00  0.00    -0.229 A  
HETATM   16  C   UNL     1     -10.034  15.238  70.093  1.00  0.00    -0.051 A  
HETATM   17  C   UNL     1      -9.531  14.483  69.025  1.00  0.00    -0.087 A  
BRANCH   7  18
HETATM   18  C   UNL     1      -8.740  11.685  67.466  1.00  0.00    -0.156 A  
HETATM   19  C   UNL     1      -8.254  10.939  66.373  1.00  0.00    -0.163 A  
HETATM   20  F   UNL     1      -5.225   9.484  67.743  1.00  0.00    -0.036 F  
HETATM   21  C   UNL     1      -6.355  10.197  67.652  1.00  0.00    -0.058 A  
HETATM   22  C   UNL     1      -6.795  10.927  68.746  1.00  0.00    -0.070 A  
HETATM   23  C   UNL     1      -7.976  11.669  68.653  1.00  0.00    -0.127 A  
HETATM   24  C   UNL     1      -7.070  10.201  66.464  1.00  0.00    -0.103 A  
ENDBRANCH   7  18
ENDBRANCH   6   7
ENDBRANCH   5   6
ENDBRANCH   4   5
ENDBRANCH   2   4
TORSDOF 5
ENDMDL
MODEL      131
REMARK 921   NORMALIZED FREE ENERGY PREDICTED BY IDOCK:   -3.64 KCAL/MOL
REMARK 922        TOTAL FREE ENERGY PREDICTED BY IDOCK:   -5.79 KCAL/MOL
REMARK 923 INTER-LIGAND FREE ENERGY PREDICTED BY IDOCK:   -5.17 KCAL/MOL
REMARK 924 INTRA-LIGAND FREE ENERGY PREDICTED BY IDOCK:   -0.62 KCAL/MOL
REMARK 927      BINDING AFFINITY PREDICTED BY RF-SCORE:    0.00 PKD
ROOT
HETATM    1  C   UNL     1     -12.169  13.386  65.903  1.00  0.00    -0.450 C  
HETATM    2  N   UNL     1     -11.999  12.256  64.988  1.00  0.00    -0.378 NA 
HETATM    3  C   UNL     1     -12.038  12.728  63.603  1.00  0.00    -0.543 C  
ENDROOT
BRANCH   2   4
HETATM    4  C   UNL     1     -10.748  11.521  65.232  1.00  0.00    -0.279 C  
BRANCH   4   5
HETATM    5  C   UNL     1     -10.627  10.931  66.642  1.00  0.00    -0.305 C  
BRANCH   5   6
HETATM    6  C   UNL     1     -10.736   9.395  66.675  1.00  0.00    -0.076 C  
BRANCH   6   7
HETATM    7  C   UNL     1      -9.758   8.705  67.664  1.00  0.00    -0.159 C  
HETATM    8  O   UNL     1      -8.797   9.727  68.081  1.00  0.00    -0.119 OA 
HETATM    9  N   UNL     1      -5.132   4.813  64.399  1.00  0.00    -0.009 NA 
HETATM   10  C   UNL     1      -6.591   7.385  66.290  1.00  0.00    -0.049 A  
HETATM   11  C   UNL     1      -7.472   9.427  67.601  1.00  0.00    -0.087 C  
HETATM   12  C   UNL     1      -7.584   8.106  66.940  1.00  0.00    -0.095 A  
HETATM   13  C   UNL     1      -5.939   5.416  64.981  1.00  0.00    -0.022 C  
HETATM   14  C   UNL     1      -8.898   7.659  66.996  1.00  0.00    -0.135 A  
HETATM   15  C   UNL     1      -6.932   6.172  65.685  1.00  0.00    -0.057 A  
HETATM   16  C   UNL     1      -8.257   5.705  65.750  1.00  0.00    -0.122 A  
HETATM   17  C   UNL     1      -9.248   6.451  66.402  1.00  0.00    -0.176 A  
BRANCH   7  18
HETATM   18  C   UNL     1     -10.501   8.190  68.910  1.00  0.00    -0.202 A  
HETATM   19  C   UNL     1     -10.951   9.073  69.914  1.00  0.00    -0.204 A  
HETATM   20  F   UNL     1     -12.517   6.795  72.266  1.00  0.00    -0.307 F  
HETATM   21  C   UNL     1     -11.872   7.246  71.183  1.00  0.00    -0.312 A  
HETATM   22  C   UNL     1     -11.454   6.348  70.211  1.00  0.00    -0.468 A  
HETATM   23  C   UNL     1     -10.778   6.817  69.080  1.00  0.00    -0.287 A  
HETATM   24  C   UNL     1     -11.632   8.604  71.042  1.00  0.00    -0.325 A  
ENDBRANCH   7  18
ENDBRANCH   6   7
ENDBRANCH   5   6
ENDBRANCH   4   5
ENDBRANCH   2   4
TORSDOF 5
ENDMDL
MODEL      132
REMARK 921   NORMALIZED FREE ENERGY PREDICTED BY IDOCK:   -3.63 KCAL/MOL
REMARK 922        TOTAL FREE ENERGY PREDICTED BY IDOCK:   -5.78 KCAL/MOL
REMARK 923 INTER-LIGAND FREE ENERGY PREDICTED BY IDOCK:   -5.00 KCAL/MOL
REMARK 924 INTRA-LIGAND FREE ENERGY PREDICTED BY IDOCK:   -0.78 KCAL/MOL
REMARK 927      BINDING AFFINITY PREDICTED BY RF-SCORE:    0.00 PKD
ROOT
HETATM    1  C   UNL     1      -7.625   7.130  65.222  1.00  0.00    -0.103 C  
HETATM    2  N   UNL     1      -6.374   7.790  65.600  1.00  0.00    -0.042 NA 
HETATM    3  C   UNL     1      -5.788   8.452  64.433  1.00  0.00    -0.064 C  
ENDROOT
BRANCH   2   4
HETATM    4  C   UNL     1      -6.560   8.762  66.688  1.00  0.00    -0.064 C  
BRANCH   4   5
HETATM    5  C   UNL     1      -6.826  10.197  66.216  1.00  0.00    -0.104 C  
BRANCH   5   6
HETATM    6  C   UNL     1      -8.294  10.451  65.827  1.00  0.00    -0.158 C  
BRANCH   6   7
HETATM    7  C   UNL     1      -9.215  10.826  67.019  1.00  0.00    -0.152 C  
HETATM    8  O   UNL     1      -8.377  11.536  67.986  1.00  0.00    -0.132 OA 
HETATM    9  N   UNL     1     -10.432   5.440  71.109  1.00  0.00    -0.233 NA 
HETATM   10  C   UNL     1      -9.273   8.532  69.917  1.00  0.00    -0.154 A  
HETATM   11  C   UNL     1      -8.226  10.781  69.203  1.00  0.00    -0.120 C  
HETATM   12  C   UNL     1      -9.089   9.589  69.035  1.00  0.00    -0.144 A  
HETATM   13  C   UNL     1     -10.292   6.354  70.401  1.00  0.00    -0.205 C  
HETATM   14  C   UNL     1      -9.695   9.616  67.785  1.00  0.00    -0.173 A  
HETATM   15  C   UNL     1     -10.102   7.474  69.529  1.00  0.00    -0.189 A  
HETATM   16  C   UNL     1     -10.730   7.502  68.271  1.00  0.00    -0.128 A  
HETATM   17  C   UNL     1     -10.524   8.572  67.391  1.00  0.00    -0.351 A  
BRANCH   7  18
HETATM   18  C   UNL     1     -10.351  11.763  66.569  1.00  0.00    -0.258 A  
HETATM   19  C   UNL     1     -11.240  12.339  67.499  1.00  0.00    -0.354 A  
HETATM   20  F   UNL     1     -13.408  14.300  65.347  1.00  0.00    -0.478 F  
HETATM   21  C   UNL     1     -12.421  13.486  65.742  1.00  0.00    -0.462 A  
HETATM   22  C   UNL     1     -11.559  12.946  64.799  1.00  0.00    -0.373 A  
HETATM   23  C   UNL     1     -10.528  12.094  65.209  1.00  0.00    -0.311 A  
HETATM   24  C   UNL     1     -12.267  13.195  67.089  1.00  0.00    -0.250 A  
ENDBRANCH   7  18
ENDBRANCH   6   7
ENDBRANCH   5   6
ENDBRANCH   4   5
ENDBRANCH   2   4
TORSDOF 5
ENDMDL
MODEL      133
REMARK 921   NORMALIZED FREE ENERGY PREDICTED BY IDOCK:   -3.61 KCAL/MOL
REMARK 922        TOTAL FREE ENERGY PREDICTED BY IDOCK:   -5.75 KCAL/MOL
REMARK 923 INTER-LIGAND FREE ENERGY PREDICTED BY IDOCK:   -4.98 KCAL/MOL
REMARK 924 INTRA-LIGAND FREE ENERGY PREDICTED BY IDOCK:   -0.77 KCAL/MOL
REMARK 927      BINDING AFFINITY PREDICTED BY RF-SCORE:    0.00 PKD
ROOT
HETATM    1  C   UNL     1      -8.539   9.180  62.989  1.00  0.00    -0.193 C  
HETATM    2  N   UNL     1      -8.602  10.543  63.521  1.00  0.00    -0.176 NA 
HETATM    3  C   UNL     1      -9.866  11.171  63.132  1.00  0.00    -0.372 C  
ENDROOT
BRANCH   2   4
HETATM    4  C   UNL     1      -8.451  10.582  64.984  1.00  0.00    -0.163 C  
BRANCH   4   5
HETATM    5  C   UNL     1      -9.710  10.174  65.759  1.00  0.00    -0.307 C  
BRANCH   5   6
HETATM    6  C   UNL     1      -9.405   9.487  67.103  1.00  0.00    -0.174 C  
BRANCH   6   7
HETATM    7  C   UNL     1      -9.884  10.278  68.350  1.00  0.00    -0.156 C  
HETATM    8  O   UNL     1     -11.325  10.047  68.461  1.00  0.00    -0.176 OA 
HETATM    9  N   UNL     1     -10.443  17.003  67.056  1.00  0.00    -0.306 NA 
HETATM   10  C   UNL     1     -11.250  13.668  67.797  1.00  0.00    -0.310 A  
HETATM   11  C   UNL     1     -12.069  11.258  68.230  1.00  0.00     0.012 C  
HETATM   12  C   UNL     1     -11.050  12.320  68.067  1.00  0.00    -0.285 A  
HETATM   13  C   UNL     1     -10.300  15.878  67.320  1.00  0.00    -0.293 C  
HETATM   14  C   UNL     1      -9.776  11.773  68.165  1.00  0.00    -0.192 A  
HETATM   15  C   UNL     1     -10.131  14.490  67.629  1.00  0.00    -0.228 A  
HETATM   16  C   UNL     1      -8.839  13.945  67.741  1.00  0.00    -0.189 A  
HETATM   17  C   UNL     1      -8.657  12.582  68.005  1.00  0.00    -0.185 A  
BRANCH   7  18
HETATM   18  C   UNL     1      -9.202   9.762  69.630  1.00  0.00    -0.239 A  
HETATM   19  C   UNL     1      -9.950   9.211  70.690  1.00  0.00    -0.307 A  
HETATM   20  F   UNL     1      -7.353   8.362  73.079  1.00  0.00    -0.139 F  
HETATM   21  C   UNL     1      -7.948   8.809  71.966  1.00  0.00     0.014 A  
HETATM   22  C   UNL     1      -7.178   9.336  70.940  1.00  0.00    -0.113 A  
HETATM   23  C   UNL     1      -7.799   9.805  69.778  1.00  0.00    -0.159 A  
HETATM   24  C   UNL     1      -9.328   8.737  71.849  1.00  0.00    -0.343 A  
ENDBRANCH   7  18
ENDBRANCH   6   7
ENDBRANCH   5   6
ENDBRANCH   4   5
ENDBRANCH   2   4
TORSDOF 5
ENDMDL
MODEL      134
REMARK 921   NORMALIZED FREE ENERGY PREDICTED BY IDOCK:   -3.60 KCAL/MOL
REMARK 922        TOTAL FREE ENERGY PREDICTED BY IDOCK:   -5.73 KCAL/MOL
REMARK 923 INTER-LIGAND FREE ENERGY PREDICTED BY IDOCK:   -5.06 KCAL/MOL
REMARK 924 INTRA-LIGAND FREE ENERGY PREDICTED BY IDOCK:   -0.67 KCAL/MOL
REMARK 927      BINDING AFFINITY PREDICTED BY RF-SCORE:    0.00 PKD
ROOT
HETATM    1  C   UNL     1      -7.280   5.269  65.423  1.00  0.00    -0.068 C  
HETATM    2  N   UNL     1      -8.384   4.615  66.127  1.00  0.00    -0.110 NA 
HETATM    3  C   UNL     1      -7.950   4.209  67.465  1.00  0.00    -0.091 C  
ENDROOT
BRANCH   2   4
HETATM    4  C   UNL     1      -9.574   5.475  66.225  1.00  0.00    -0.156 C  
BRANCH   4   5
HETATM    5  C   UNL     1      -9.356   6.768  67.020  1.00  0.00    -0.165 C  
BRANCH   5   6
HETATM    6  C   UNL     1     -10.438   7.021  68.086  1.00  0.00    -0.242 C  
BRANCH   6   7
HETATM    7  C   UNL     1      -9.886   7.471  69.465  1.00  0.00    -0.169 C  
HETATM    8  O   UNL     1      -8.579   8.078  69.212  1.00  0.00    -0.134 OA 
HETATM    9  N   UNL     1      -7.410   2.179  73.083  1.00  0.00    -0.035 NA 
HETATM   10  C   UNL     1      -7.609   5.153  71.228  1.00  0.00    -0.095 A  
HETATM   11  C   UNL     1      -7.516   7.293  69.787  1.00  0.00    -0.093 C  
HETATM   12  C   UNL     1      -8.190   6.198  70.522  1.00  0.00    -0.114 A  
HETATM   13  C   UNL     1      -7.876   3.084  72.517  1.00  0.00    -0.058 C  
HETATM   14  C   UNL     1      -9.567   6.305  70.371  1.00  0.00    -0.183 A  
HETATM   15  C   UNL     1      -8.443   4.191  71.807  1.00  0.00    -0.111 A  
HETATM   16  C   UNL     1      -9.838   4.301  71.671  1.00  0.00    -0.257 A  
HETATM   17  C   UNL     1     -10.406   5.357  70.947  1.00  0.00    -0.312 A  
BRANCH   7  18
HETATM   18  C   UNL     1     -10.801   8.525  70.113  1.00  0.00    -0.238 A  
HETATM   19  C   UNL     1     -10.829   9.857  69.652  1.00  0.00    -0.281 A  
HETATM   20  F   UNL     1     -13.285  11.364  71.859  1.00  0.00    -0.535 F  
HETATM   21  C   UNL     1     -12.488  10.449  71.293  1.00  0.00    -0.415 A  
HETATM   22  C   UNL     1     -12.496   9.145  71.767  1.00  0.00    -0.447 A  
HETATM   23  C   UNL     1     -11.663   8.189  71.179  1.00  0.00    -0.309 A  
HETATM   24  C   UNL     1     -11.666  10.812  70.236  1.00  0.00    -0.442 A  
ENDBRANCH   7  18
ENDBRANCH   6   7
ENDBRANCH   5   6
ENDBRANCH   4   5
ENDBRANCH   2   4
TORSDOF 5
ENDMDL
MODEL      135
REMARK 921   NORMALIZED FREE ENERGY PREDICTED BY IDOCK:   -3.57 KCAL/MOL
REMARK 922        TOTAL FREE ENERGY PREDICTED BY IDOCK:   -5.69 KCAL/MOL
REMARK 923 INTER-LIGAND FREE ENERGY PREDICTED BY IDOCK:   -4.62 KCAL/MOL
REMARK 924 INTRA-LIGAND FREE ENERGY PREDICTED BY IDOCK:   -1.08 KCAL/MOL
REMARK 927      BINDING AFFINITY PREDICTED BY RF-SCORE:    0.00 PKD
ROOT
HETATM    1  C   UNL     1      -9.414   5.324  70.703  1.00  0.00    -0.168 C  
HETATM    2  N   UNL     1     -10.711   5.630  71.309  1.00  0.00    -0.255 NA 
HETATM    3  C   UNL     1     -10.689   5.286  72.732  1.00  0.00    -0.243 C  
ENDROOT
BRANCH   2   4
HETATM    4  C   UNL     1     -11.089   7.042  71.140  1.00  0.00    -0.258 C  
BRANCH   4   5
HETATM    5  C   UNL     1     -10.078   7.877  70.346  1.00  0.00    -0.194 C  
BRANCH   5   6
HETATM    6  C   UNL     1     -10.627   8.385  68.999  1.00  0.00    -0.172 C  
BRANCH   6   7
HETATM    7  C   UNL     1      -9.549   8.975  68.051  1.00  0.00    -0.148 C  
HETATM    8  O   UNL     1      -8.389   9.291  68.885  1.00  0.00    -0.116 OA 
HETATM    9  N   UNL     1     -10.900  15.504  66.387  1.00  0.00    -0.302 NA 
HETATM   10  C   UNL     1      -9.370  12.655  67.754  1.00  0.00    -0.198 A  
HETATM   11  C   UNL     1      -8.159  10.712  68.947  1.00  0.00    -0.139 C  
HETATM   12  C   UNL     1      -9.156  11.311  68.030  1.00  0.00    -0.156 A  
HETATM   13  C   UNL     1     -10.679  14.382  66.604  1.00  0.00    -0.292 C  
HETATM   14  C   UNL     1      -9.950  10.313  67.477  1.00  0.00    -0.226 A  
HETATM   15  C   UNL     1     -10.411  13.003  66.888  1.00  0.00    -0.258 A  
HETATM   16  C   UNL     1     -11.210  11.998  66.313  1.00  0.00    -0.394 A  
HETATM   17  C   UNL     1     -10.985  10.647  66.611  1.00  0.00    -0.144 A  
BRANCH   7  18
HETATM   18  C   UNL     1      -9.125   7.948  66.986  1.00  0.00    -0.162 A  
HETATM   19  C   UNL     1      -8.190   8.274  65.982  1.00  0.00    -0.119 A  
HETATM   20  F   UNL     1      -7.978   5.167  64.118  1.00  0.00    -0.084 F  
HETATM   21  C   UNL     1      -8.344   6.061  65.044  1.00  0.00    -0.121 A  
HETATM   22  C   UNL     1      -9.258   5.701  66.023  1.00  0.00    -0.164 A  
HETATM   23  C   UNL     1      -9.643   6.635  66.989  1.00  0.00    -0.183 A  
HETATM   24  C   UNL     1      -7.801   7.337  65.019  1.00  0.00    -0.125 A  
ENDBRANCH   7  18
ENDBRANCH   6   7
ENDBRANCH   5   6
ENDBRANCH   4   5
ENDBRANCH   2   4
TORSDOF 5
ENDMDL
MODEL      136
REMARK 921   NORMALIZED FREE ENERGY PREDICTED BY IDOCK:   -3.56 KCAL/MOL
REMARK 922        TOTAL FREE ENERGY PREDICTED BY IDOCK:   -5.69 KCAL/MOL
REMARK 923 INTER-LIGAND FREE ENERGY PREDICTED BY IDOCK:   -4.85 KCAL/MOL
REMARK 924 INTRA-LIGAND FREE ENERGY PREDICTED BY IDOCK:   -0.84 KCAL/MOL
REMARK 927      BINDING AFFINITY PREDICTED BY RF-SCORE:    0.00 PKD
ROOT
HETATM    1  C   UNL     1      -6.033   8.182  63.763  1.00  0.00    -0.066 C  
HETATM    2  N   UNL     1      -6.936   8.576  62.680  1.00  0.00    -0.091 NA 
HETATM    3  C   UNL     1      -7.997   7.578  62.529  1.00  0.00    -0.133 C  
ENDROOT
BRANCH   2   4
HETATM    4  C   UNL     1      -7.526   9.906  62.899  1.00  0.00    -0.131 C  
BRANCH   4   5
HETATM    5  C   UNL     1      -8.687   9.926  63.901  1.00  0.00    -0.230 C  
BRANCH   5   6
HETATM    6  C   UNL     1      -8.266  10.360  65.317  1.00  0.00    -0.162 C  
BRANCH   6   7
HETATM    7  C   UNL     1      -9.430  10.891  66.196  1.00  0.00    -0.200 C  
HETATM    8  O   UNL     1     -10.563  11.113  65.297  1.00  0.00    -0.273 OA 
HETATM    9  N   UNL     1      -8.613  17.522  67.800  1.00  0.00    -0.226 NA 
HETATM   10  C   UNL     1      -9.872  14.554  66.411  1.00  0.00    -0.306 A  
HETATM   11  C   UNL     1     -10.884  12.514  65.195  1.00  0.00    -0.288 C  
HETATM   12  C   UNL     1      -9.980  13.194  66.151  1.00  0.00    -0.291 A  
HETATM   13  C   UNL     1      -8.746  16.384  67.594  1.00  0.00    -0.182 C  
HETATM   14  C   UNL     1      -9.151  12.262  66.763  1.00  0.00    -0.211 A  
HETATM   15  C   UNL     1      -8.905  14.986  67.323  1.00  0.00    -0.216 A  
HETATM   16  C   UNL     1      -8.072  14.047  67.958  1.00  0.00    -0.152 A  
HETATM   17  C   UNL     1      -8.189  12.680  67.676  1.00  0.00    -0.174 A  
BRANCH   7  18
HETATM   18  C   UNL     1      -9.840   9.854  67.258  1.00  0.00    -0.228 A  
HETATM   19  C   UNL     1      -9.632   8.474  67.056  1.00  0.00    -0.246 A  
HETATM   20  F   UNL     1     -10.940   7.062  70.134  1.00  0.00    -0.247 F  
HETATM   21  C   UNL     1     -10.581   7.961  69.209  1.00  0.00    -0.188 A  
HETATM   22  C   UNL     1     -10.792   9.312  69.447  1.00  0.00    -0.184 A  
HETATM   23  C   UNL     1     -10.420  10.252  68.481  1.00  0.00    -0.217 A  
HETATM   24  C   UNL     1      -9.999   7.535  68.025  1.00  0.00    -0.204 A  
ENDBRANCH   7  18
ENDBRANCH   6   7
ENDBRANCH   5   6
ENDBRANCH   4   5
ENDBRANCH   2   4
TORSDOF 5
ENDMDL
MODEL      137
REMARK 921   NORMALIZED FREE ENERGY PREDICTED BY IDOCK:   -3.50 KCAL/MOL
REMARK 922        TOTAL FREE ENERGY PREDICTED BY IDOCK:   -5.61 KCAL/MOL
REMARK 923 INTER-LIGAND FREE ENERGY PREDICTED BY IDOCK:   -4.39 KCAL/MOL
REMARK 924 INTRA-LIGAND FREE ENERGY PREDICTED BY IDOCK:   -1.22 KCAL/MOL
REMARK 927      BINDING AFFINITY PREDICTED BY RF-SCORE:    0.00 PKD
ROOT
HETATM    1  C   UNL     1      -6.324   5.710  70.448  1.00  0.00    -0.031 C  
HETATM    2  N   UNL     1      -7.397   6.686  70.648  1.00  0.00    -0.074 NA 
HETATM    3  C   UNL     1      -8.111   6.393  71.892  1.00  0.00    -0.109 C  
ENDROOT
BRANCH   2   4
HETATM    4  C   UNL     1      -6.898   8.070  70.671  1.00  0.00    -0.037 C  
BRANCH   4   5
HETATM    5  C   UNL     1      -7.973   9.126  70.956  1.00  0.00    -0.166 C  
BRANCH   5   6
HETATM    6  C   UNL     1      -8.244  10.061  69.764  1.00  0.00    -0.191 C  
BRANCH   6   7
HETATM    7  C   UNL     1      -9.579   9.782  69.022  1.00  0.00    -0.177 C  
HETATM    8  O   UNL     1     -10.585   9.532  70.055  1.00  0.00    -0.211 OA 
HETATM    9  N   UNL     1      -9.781   3.425  66.420  1.00  0.00    -0.045 NA 
HETATM   10  C   UNL     1     -10.469   6.251  68.386  1.00  0.00    -0.273 A  
HETATM   11  C   UNL     1     -11.048   8.168  70.016  1.00  0.00    -0.146 C  
HETATM   12  C   UNL     1     -10.379   7.560  68.842  1.00  0.00    -0.220 A  
HETATM   13  C   UNL     1      -9.750   4.526  66.798  1.00  0.00    -0.206 C  
HETATM   14  C   UNL     1      -9.547   8.493  68.236  1.00  0.00    -0.156 A  
HETATM   15  C   UNL     1      -9.703   5.875  67.278  1.00  0.00    -0.137 A  
HETATM   16  C   UNL     1      -8.870   6.818  66.650  1.00  0.00    -0.142 A  
HETATM   17  C   UNL     1      -8.785   8.131  67.131  1.00  0.00    -0.130 A  
BRANCH   7  18
HETATM   18  C   UNL     1     -10.018  11.002  68.192  1.00  0.00    -0.190 A  
HETATM   19  C   UNL     1      -9.256  12.188  68.170  1.00  0.00    -0.197 A  
HETATM   20  F   UNL     1     -11.204  14.288  65.940  1.00  0.00    -0.302 F  
HETATM   21  C   UNL     1     -10.819  13.228  66.662  1.00  0.00    -0.281 A  
HETATM   22  C   UNL     1     -11.590  12.074  66.651  1.00  0.00    -0.389 A  
HETATM   23  C   UNL     1     -11.190  10.967  67.406  1.00  0.00    -0.355 A  
HETATM   24  C   UNL     1      -9.653  13.293  67.410  1.00  0.00    -0.223 A  
ENDBRANCH   7  18
ENDBRANCH   6   7
ENDBRANCH   5   6
ENDBRANCH   4   5
ENDBRANCH   2   4
TORSDOF 5
ENDMDL
MODEL      138
REMARK 921   NORMALIZED FREE ENERGY PREDICTED BY IDOCK:   -3.48 KCAL/MOL
REMARK 922        TOTAL FREE ENERGY PREDICTED BY IDOCK:   -5.59 KCAL/MOL
REMARK 923 INTER-LIGAND FREE ENERGY PREDICTED BY IDOCK:   -4.77 KCAL/MOL
REMARK 924 INTRA-LIGAND FREE ENERGY PREDICTED BY IDOCK:   -0.82 KCAL/MOL
REMARK 927      BINDING AFFINITY PREDICTED BY RF-SCORE:    0.00 PKD
ROOT
HETATM    1  C   UNL     1      -6.822   2.623  71.377  1.00  0.00    -0.031 C  
HETATM    2  N   UNL     1      -6.862   4.035  71.762  1.00  0.00    -0.029 NA 
HETATM    3  C   UNL     1      -5.725   4.744  71.174  1.00  0.00    -0.016 C  
ENDROOT
BRANCH   2   4
HETATM    4  C   UNL     1      -8.120   4.689  71.367  1.00  0.00    -0.101 C  
BRANCH   4   5
HETATM    5  C   UNL     1      -8.041   5.465  70.047  1.00  0.00    -0.085 C  
BRANCH   5   6
HETATM    6  C   UNL     1      -8.554   6.913  70.157  1.00  0.00    -0.141 C  
BRANCH   6   7
HETATM    7  C   UNL     1      -9.857   7.193  69.360  1.00  0.00    -0.161 C  
HETATM    8  O   UNL     1     -10.266   5.917  68.771  1.00  0.00    -0.157 OA 
HETATM    9  N   UNL     1      -8.572  10.258  63.346  1.00  0.00    -0.181 NA 
HETATM   10  C   UNL     1      -9.528   7.877  65.743  1.00  0.00     0.113 A  
HETATM   11  C   UNL     1     -10.169   5.948  67.334  1.00  0.00    -0.194 C  
HETATM   12  C   UNL     1      -9.779   7.337  66.997  1.00  0.00    -0.235 A  
HETATM   13  C   UNL     1      -8.823   9.794  64.384  1.00  0.00    -0.227 C  
HETATM   14  C   UNL     1      -9.624   8.080  68.161  1.00  0.00    -0.165 A  
HETATM   15  C   UNL     1      -9.118   9.212  65.659  1.00  0.00    -0.273 A  
HETATM   16  C   UNL     1      -8.973   9.975  66.832  1.00  0.00    -0.150 A  
HETATM   17  C   UNL     1      -9.221   9.409  68.089  1.00  0.00    -0.135 A  
BRANCH   7  18
HETATM   18  C   UNL     1     -10.979   7.689  70.289  1.00  0.00    -0.261 A  
HETATM   19  C   UNL     1     -12.150   6.932  70.496  1.00  0.00    -0.315 A  
HETATM   20  F   UNL     1     -14.002   9.032  72.806  1.00  0.00    -0.473 F  
HETATM   21  C   UNL     1     -13.027   8.597  71.998  1.00  0.00    -0.378 A  
HETATM   22  C   UNL     1     -11.884   9.365  71.827  1.00  0.00    -0.452 A  
HETATM   23  C   UNL     1     -10.866   8.913  70.982  1.00  0.00    -0.326 A  
HETATM   24  C   UNL     1     -13.166   7.381  71.346  1.00  0.00    -0.395 A  
ENDBRANCH   7  18
ENDBRANCH   6   7
ENDBRANCH   5   6
ENDBRANCH   4   5
ENDBRANCH   2   4
TORSDOF 5
ENDMDL
MODEL      139
REMARK 921   NORMALIZED FREE ENERGY PREDICTED BY IDOCK:   -3.48 KCAL/MOL
REMARK 922        TOTAL FREE ENERGY PREDICTED BY IDOCK:   -5.58 KCAL/MOL
REMARK 923 INTER-LIGAND FREE ENERGY PREDICTED BY IDOCK:   -5.61 KCAL/MOL
REMARK 924 INTRA-LIGAND FREE ENERGY PREDICTED BY IDOCK:    0.03 KCAL/MOL
REMARK 927      BINDING AFFINITY PREDICTED BY RF-SCORE:    0.00 PKD
ROOT
HETATM    1  C   UNL     1      -8.952   5.865  65.851  1.00  0.00    -0.140 C  
HETATM    2  N   UNL     1     -10.194   5.529  66.548  1.00  0.00    -0.214 NA 
HETATM    3  C   UNL     1      -9.891   4.806  67.785  1.00  0.00    -0.141 C  
ENDROOT
BRANCH   2   4
HETATM    4  C   UNL     1     -11.008   6.718  66.849  1.00  0.00    -0.300 C  
BRANCH   4   5
HETATM    5  C   UNL     1     -10.361   7.692  67.841  1.00  0.00    -0.270 C  
BRANCH   5   6
HETATM    6  C   UNL     1     -10.252   9.131  67.302  1.00  0.00    -0.319 C  
BRANCH   6   7
HETATM    7  C   UNL     1     -10.496  10.233  68.368  1.00  0.00    -0.200 C  
HETATM    8  O   UNL     1     -11.607  11.049  67.876  1.00  0.00    -0.483 OA 
HETATM    9  N   UNL     1      -5.827  15.259  67.974  1.00  0.00    -0.132 NA 
HETATM   10  C   UNL     1      -8.867  13.508  67.838  1.00  0.00    -0.190 A  
HETATM   11  C   UNL     1     -11.174  12.385  67.557  1.00  0.00    -0.294 C  
HETATM   12  C   UNL     1      -9.751  12.444  67.962  1.00  0.00    -0.210 A  
HETATM   13  C   UNL     1      -6.595  14.393  68.102  1.00  0.00    -0.130 C  
HETATM   14  C   UNL     1      -9.351  11.212  68.464  1.00  0.00    -0.190 A  
HETATM   15  C   UNL     1      -7.541  13.326  68.242  1.00  0.00    -0.139 A  
HETATM   16  C   UNL     1      -7.132  12.086  68.765  1.00  0.00    -0.111 A  
HETATM   17  C   UNL     1      -8.036  11.022  68.873  1.00  0.00    -0.138 A  
BRANCH   7  18
HETATM   18  C   UNL     1     -10.898   9.617  69.720  1.00  0.00    -0.274 A  
HETATM   19  C   UNL     1     -12.050  10.049  70.411  1.00  0.00    -0.284 A  
HETATM   20  F   UNL     1     -11.984   7.943  73.366  1.00  0.00    -0.138 F  
HETATM   21  C   UNL     1     -11.637   8.480  72.190  1.00  0.00    -0.377 A  
HETATM   22  C   UNL     1     -10.503   8.022  71.535  1.00  0.00    -0.265 A  
HETATM   23  C   UNL     1     -10.138   8.583  70.307  1.00  0.00    -0.199 A  
HETATM   24  C   UNL     1     -12.417   9.484  71.636  1.00  0.00    -0.476 A  
ENDBRANCH   7  18
ENDBRANCH   6   7
ENDBRANCH   5   6
ENDBRANCH   4   5
ENDBRANCH   2   4
TORSDOF 5
ENDMDL
MODEL      140
REMARK 921   NORMALIZED FREE ENERGY PREDICTED BY IDOCK:   -3.39 KCAL/MOL
REMARK 922        TOTAL FREE ENERGY PREDICTED BY IDOCK:   -5.46 KCAL/MOL
REMARK 923 INTER-LIGAND FREE ENERGY PREDICTED BY IDOCK:   -4.90 KCAL/MOL
REMARK 924 INTRA-LIGAND FREE ENERGY PREDICTED BY IDOCK:   -0.56 KCAL/MOL
REMARK 927      BINDING AFFINITY PREDICTED BY RF-SCORE:    0.00 PKD
ROOT
HETATM    1  C   UNL     1     -12.044  14.869  64.570  1.00  0.00    -0.407 C  
HETATM    2  N   UNL     1     -12.759  13.920  65.426  1.00  0.00    -0.662 NA 
HETATM    3  C   UNL     1     -12.805  12.606  64.783  1.00  0.00    -0.265 C  
ENDROOT
BRANCH   2   4
HETATM    4  C   UNL     1     -12.153  13.805  66.762  1.00  0.00    -0.418 C  
BRANCH   4   5
HETATM    5  C   UNL     1     -11.540  12.431  67.061  1.00  0.00    -0.434 C  
BRANCH   5   6
HETATM    6  C   UNL     1     -10.439  12.474  68.138  1.00  0.00    -0.238 C  
BRANCH   6   7
HETATM    7  C   UNL     1      -9.003  12.252  67.593  1.00  0.00    -0.181 C  
HETATM    8  O   UNL     1      -8.284  11.488  68.613  1.00  0.00    -0.149 OA 
HETATM    9  N   UNL     1      -5.129  17.893  68.218  1.00  0.00    -0.152 NA 
HETATM   10  C   UNL     1      -6.391  14.646  68.648  1.00  0.00    -0.082 A  
HETATM   11  C   UNL     1      -7.225  12.266  69.202  1.00  0.00     0.041 C  
HETATM   12  C   UNL     1      -7.210  13.542  68.450  1.00  0.00    -0.109 A  
HETATM   13  C   UNL     1      -5.779  16.943  68.045  1.00  0.00    -0.120 C  
HETATM   14  C   UNL     1      -8.216  13.538  67.491  1.00  0.00    -0.186 A  
HETATM   15  C   UNL     1      -6.587  15.776  67.848  1.00  0.00    -0.165 A  
HETATM   16  C   UNL     1      -7.593  15.774  66.866  1.00  0.00    -0.235 A  
HETATM   17  C   UNL     1      -8.416  14.654  66.687  1.00  0.00    -0.052 A  
BRANCH   7  18
HETATM   18  C   UNL     1      -9.024  11.436  66.288  1.00  0.00    -0.205 A  
HETATM   19  C   UNL     1      -9.325  12.038  65.049  1.00  0.00     0.135 A  
HETATM   20  F   UNL     1      -9.070   9.226  62.768  1.00  0.00    -0.249 F  
HETATM   21  C   UNL     1      -9.051   9.939  63.901  1.00  0.00    -0.259 A  
HETATM   22  C   UNL     1      -8.740   9.314  65.100  1.00  0.00    -0.216 A  
HETATM   23  C   UNL     1      -8.722  10.057  66.284  1.00  0.00    -0.148 A  
HETATM   24  C   UNL     1      -9.337  11.296  63.864  1.00  0.00    -0.145 A  
ENDBRANCH   7  18
ENDBRANCH   6   7
ENDBRANCH   5   6
ENDBRANCH   4   5
ENDBRANCH   2   4
TORSDOF 5
ENDMDL
MODEL      141
REMARK 921   NORMALIZED FREE ENERGY PREDICTED BY IDOCK:   -3.38 KCAL/MOL
REMARK 922        TOTAL FREE ENERGY PREDICTED BY IDOCK:   -5.46 KCAL/MOL
REMARK 923 INTER-LIGAND FREE ENERGY PREDICTED BY IDOCK:   -4.73 KCAL/MOL
REMARK 924 INTRA-LIGAND FREE ENERGY PREDICTED BY IDOCK:   -0.73 KCAL/MOL
REMARK 927      BINDING AFFINITY PREDICTED BY RF-SCORE:    0.00 PKD
ROOT
HETATM    1  C   UNL     1      -5.751  17.875  69.027  1.00  0.00    -0.200 C  
HETATM    2  N   UNL     1      -6.172  16.899  68.021  1.00  0.00    -0.133 NA 
HETATM    3  C   UNL     1      -5.284  15.735  68.054  1.00  0.00    -0.122 C  
ENDROOT
BRANCH   2   4
HETATM    4  C   UNL     1      -7.567  16.470  68.205  1.00  0.00    -0.170 C  
BRANCH   4   5
HETATM    5  C   UNL     1      -8.202  15.831  66.963  1.00  0.00    -0.262 C  
BRANCH   5   6
HETATM    6  C   UNL     1      -8.191  14.292  66.994  1.00  0.00    -0.116 C  
BRANCH   6   7
HETATM    7  C   UNL     1      -9.584  13.638  66.791  1.00  0.00    -0.275 C  
HETATM    8  O   UNL     1     -10.224  14.355  65.687  1.00  0.00    -0.314 OA 
HETATM    9  N   UNL     1     -14.097  15.691  71.549  1.00  0.00    -0.512 NA 
HETATM   10  C   UNL     1     -12.471  15.218  68.473  1.00  0.00     0.397 A  
HETATM   11  C   UNL     1     -11.374  15.095  66.140  1.00  0.00    -0.220 C  
HETATM   12  C   UNL     1     -11.527  14.747  67.571  1.00  0.00    -0.369 A  
HETATM   13  C   UNL     1     -13.338  15.281  70.767  1.00  0.00    -0.353 C  
HETATM   14  C   UNL     1     -10.514  13.877  67.957  1.00  0.00    -0.243 A  
HETATM   15  C   UNL     1     -12.397  14.792  69.803  1.00  0.00    -0.291 A  
HETATM   16  C   UNL     1     -11.384  13.900  70.198  1.00  0.00    -0.063 A  
HETATM   17  C   UNL     1     -10.434  13.443  69.275  1.00  0.00     0.130 A  
BRANCH   7  18
HETATM   18  C   UNL     1      -9.450  12.155  66.402  1.00  0.00    -0.238 A  
HETATM   19  C   UNL     1     -10.118  11.626  65.278  1.00  0.00    -0.305 A  
HETATM   20  F   UNL     1      -9.073   8.151  65.351  1.00  0.00    -0.176 F  
HETATM   21  C   UNL     1      -9.191   9.442  65.686  1.00  0.00    -0.226 A  
HETATM   22  C   UNL     1      -8.510   9.928  66.793  1.00  0.00    -0.125 A  
HETATM   23  C   UNL     1      -8.634  11.275  67.146  1.00  0.00    -0.147 A  
HETATM   24  C   UNL     1      -9.989  10.280  64.922  1.00  0.00    -0.393 A  
ENDBRANCH   7  18
ENDBRANCH   6   7
ENDBRANCH   5   6
ENDBRANCH   4   5
ENDBRANCH   2   4
TORSDOF 5
ENDMDL
MODEL      142
REMARK 921   NORMALIZED FREE ENERGY PREDICTED BY IDOCK:   -3.37 KCAL/MOL
REMARK 922        TOTAL FREE ENERGY PREDICTED BY IDOCK:   -5.43 KCAL/MOL
REMARK 923 INTER-LIGAND FREE ENERGY PREDICTED BY IDOCK:   -4.64 KCAL/MOL
REMARK 924 INTRA-LIGAND FREE ENERGY PREDICTED BY IDOCK:   -0.80 KCAL/MOL
REMARK 927      BINDING AFFINITY PREDICTED BY RF-SCORE:    0.00 PKD
ROOT
HETATM    1  C   UNL     1      -5.643   2.833  71.553  1.00  0.00    -0.008 C  
HETATM    2  N   UNL     1      -6.496   3.112  70.396  1.00  0.00    -0.031 NA 
HETATM    3  C   UNL     1      -5.980   2.412  69.218  1.00  0.00    -0.024 C  
ENDROOT
BRANCH   2   4
HETATM    4  C   UNL     1      -7.898   2.734  70.630  1.00  0.00    -0.042 C  
BRANCH   4   5
HETATM    5  C   UNL     1      -8.875   3.916  70.662  1.00  0.00    -0.135 C  
BRANCH   5   6
HETATM    6  C   UNL     1      -8.185   5.284  70.505  1.00  0.00    -0.108 C  
BRANCH   6   7
HETATM    7  C   UNL     1      -8.924   6.269  69.560  1.00  0.00    -0.134 C  
HETATM    8  O   UNL     1      -8.081   7.460  69.457  1.00  0.00    -0.124 OA 
HETATM    9  N   UNL     1     -14.109   9.466  72.739  1.00  0.00    -0.361 NA 
HETATM   10  C   UNL     1     -11.055   8.855  71.120  1.00  0.00    -0.354 A  
HETATM   11  C   UNL     1      -8.715   8.605  70.059  1.00  0.00    -0.141 C  
HETATM   12  C   UNL     1     -10.060   8.138  70.468  1.00  0.00    -0.201 A  
HETATM   13  C   UNL     1     -13.276   8.896  72.160  1.00  0.00    -0.429 C  
HETATM   14  C   UNL     1     -10.209   6.792  70.157  1.00  0.00    -0.215 A  
HETATM   15  C   UNL     1     -12.240   8.195  71.461  1.00  0.00    -0.332 A  
HETATM   16  C   UNL     1     -12.404   6.837  71.136  1.00  0.00    -0.386 A  
HETATM   17  C   UNL     1     -11.385   6.128  70.486  1.00  0.00    -0.381 A  
BRANCH   7  18
HETATM   18  C   UNL     1      -9.097   5.664  68.155  1.00  0.00    -0.111 A  
HETATM   19  C   UNL     1     -10.337   5.705  67.485  1.00  0.00    -0.277 A  
HETATM   20  F   UNL     1      -9.553   4.040  64.356  1.00  0.00    -0.139 F  
HETATM   21  C   UNL     1      -9.405   4.567  65.578  1.00  0.00    -0.162 A  
HETATM   22  C   UNL     1      -8.167   4.518  66.202  1.00  0.00    -0.106 A  
HETATM   23  C   UNL     1      -8.012   5.066  67.479  1.00  0.00    -0.095 A  
HETATM   24  C   UNL     1     -10.490   5.161  66.205  1.00  0.00    -0.341 A  
ENDBRANCH   7  18
ENDBRANCH   6   7
ENDBRANCH   5   6
ENDBRANCH   4   5
ENDBRANCH   2   4
TORSDOF 5
ENDMDL
MODEL      143
REMARK 921   NORMALIZED FREE ENERGY PREDICTED BY IDOCK:   -3.37 KCAL/MOL
REMARK 922        TOTAL FREE ENERGY PREDICTED BY IDOCK:   -5.43 KCAL/MOL
REMARK 923 INTER-LIGAND FREE ENERGY PREDICTED BY IDOCK:   -4.65 KCAL/MOL
REMARK 924 INTRA-LIGAND FREE ENERGY PREDICTED BY IDOCK:   -0.78 KCAL/MOL
REMARK 927      BINDING AFFINITY PREDICTED BY RF-SCORE:    0.00 PKD
ROOT
HETATM    1  C   UNL     1     -12.553  14.372  65.126  1.00  0.00    -0.315 C  
HETATM    2  N   UNL     1     -11.754  13.426  65.907  1.00  0.00    -0.340 NA 
HETATM    3  C   UNL     1     -12.235  13.392  67.290  1.00  0.00    -0.233 C  
ENDROOT
BRANCH   2   4
HETATM    4  C   UNL     1     -11.774  12.070  65.336  1.00  0.00    -0.255 C  
BRANCH   4   5
HETATM    5  C   UNL     1     -10.603  11.182  65.775  1.00  0.00    -0.289 C  
BRANCH   5   6
HETATM    6  C   UNL     1      -9.246  11.910  65.767  1.00  0.00    -0.110 C  
BRANCH   6   7
HETATM    7  C   UNL     1      -8.451  11.796  67.095  1.00  0.00    -0.170 C  
HETATM    8  O   UNL     1      -7.199  11.110  66.773  1.00  0.00    -0.131 OA 
HETATM    9  N   UNL     1     -10.880   6.776  71.110  1.00  0.00    -0.232 NA 
HETATM   10  C   UNL     1      -8.781   8.654  69.014  1.00  0.00    -0.134 A  
HETATM   11  C   UNL     1      -7.136   9.813  67.397  1.00  0.00    -0.085 C  
HETATM   12  C   UNL     1      -8.356   9.720  68.232  1.00  0.00    -0.106 A  
HETATM   13  C   UNL     1     -10.487   7.671  70.477  1.00  0.00    -0.220 C  
HETATM   14  C   UNL     1      -9.115  10.875  68.092  1.00  0.00    -0.155 A  
HETATM   15  C   UNL     1     -10.004   8.762  69.684  1.00  0.00    -0.191 A  
HETATM   16  C   UNL     1     -10.770   9.935  69.559  1.00  0.00    -0.265 A  
HETATM   17  C   UNL     1     -10.329  10.995  68.757  1.00  0.00    -0.217 A  
BRANCH   7  18
HETATM   18  C   UNL     1      -8.118  13.187  67.665  1.00  0.00    -0.176 A  
HETATM   19  C   UNL     1      -8.725  14.353  67.155  1.00  0.00    -0.243 A  
HETATM   20  F   UNL     1      -7.223  16.938  69.213  1.00  0.00    -0.228 F  
HETATM   21  C   UNL     1      -7.515  15.730  68.717  1.00  0.00    -0.158 A  
HETATM   22  C   UNL     1      -6.906  14.604  69.251  1.00  0.00    -0.143 A  
HETATM   23  C   UNL     1      -7.208  13.341  68.732  1.00  0.00    -0.088 A  
HETATM   24  C   UNL     1      -8.427  15.615  67.678  1.00  0.00    -0.169 A  
ENDBRANCH   7  18
ENDBRANCH   6   7
ENDBRANCH   5   6
ENDBRANCH   4   5
ENDBRANCH   2   4
TORSDOF 5
ENDMDL
MODEL      144
REMARK 921   NORMALIZED FREE ENERGY PREDICTED BY IDOCK:   -3.34 KCAL/MOL
REMARK 922        TOTAL FREE ENERGY PREDICTED BY IDOCK:   -5.40 KCAL/MOL
REMARK 923 INTER-LIGAND FREE ENERGY PREDICTED BY IDOCK:   -4.39 KCAL/MOL
REMARK 924 INTRA-LIGAND FREE ENERGY PREDICTED BY IDOCK:   -1.02 KCAL/MOL
REMARK 927      BINDING AFFINITY PREDICTED BY RF-SCORE:    0.00 PKD
ROOT
HETATM    1  C   UNL     1      -5.649   2.987  69.076  1.00  0.00    -0.021 C  
HETATM    2  N   UNL     1      -6.427   3.512  67.952  1.00  0.00    -0.037 NA 
HETATM    3  C   UNL     1      -6.765   2.426  67.031  1.00  0.00    -0.040 C  
ENDROOT
BRANCH   2   4
HETATM    4  C   UNL     1      -7.652   4.198  68.390  1.00  0.00    -0.066 C  
BRANCH   4   5
HETATM    5  C   UNL     1      -7.925   5.525  67.671  1.00  0.00    -0.101 C  
BRANCH   5   6
HETATM    6  C   UNL     1      -7.914   6.744  68.612  1.00  0.00    -0.119 C  
BRANCH   6   7
HETATM    7  C   UNL     1      -9.316   7.352  68.887  1.00  0.00    -0.145 C  
HETATM    8  O   UNL     1     -10.277   6.537  68.143  1.00  0.00    -0.145 OA 
HETATM    9  N   UNL     1     -10.395  13.066  65.226  1.00  0.00    -0.300 NA 
HETATM   10  C   UNL     1     -10.636   9.777  66.429  1.00  0.00    -0.117 A  
HETATM   11  C   UNL     1     -10.892   7.292  67.081  1.00  0.00    -0.308 C  
HETATM   12  C   UNL     1     -10.371   8.671  67.227  1.00  0.00    -0.366 A  
HETATM   13  C   UNL     1     -10.216  12.135  65.902  1.00  0.00    -0.244 C  
HETATM   14  C   UNL     1      -9.479   8.730  68.290  1.00  0.00    -0.150 A  
HETATM   15  C   UNL     1      -9.988  10.982  66.721  1.00  0.00    -0.240 A  
HETATM   16  C   UNL     1      -9.095  11.053  67.805  1.00  0.00    -0.147 A  
HETATM   17  C   UNL     1      -8.833   9.923  68.591  1.00  0.00    -0.128 A  
BRANCH   7  18
HETATM   18  C   UNL     1      -9.666   7.282  70.385  1.00  0.00    -0.172 A  
HETATM   19  C   UNL     1     -10.773   7.978  70.914  1.00  0.00    -0.240 A  
HETATM   20  F   UNL     1     -10.611   7.081  74.427  1.00  0.00    -0.355 F  
HETATM   21  C   UNL     1     -10.310   7.142  73.124  1.00  0.00    -0.295 A  
HETATM   22  C   UNL     1      -9.219   6.436  72.638  1.00  0.00    -0.138 A  
HETATM   23  C   UNL     1      -8.902   6.501  71.278  1.00  0.00    -0.137 A  
HETATM   24  C   UNL     1     -11.093   7.907  72.273  1.00  0.00    -0.376 A  
ENDBRANCH   7  18
ENDBRANCH   6   7
ENDBRANCH   5   6
ENDBRANCH   4   5
ENDBRANCH   2   4
TORSDOF 5
ENDMDL
MODEL      145
REMARK 921   NORMALIZED FREE ENERGY PREDICTED BY IDOCK:   -3.34 KCAL/MOL
REMARK 922        TOTAL FREE ENERGY PREDICTED BY IDOCK:   -5.40 KCAL/MOL
REMARK 923 INTER-LIGAND FREE ENERGY PREDICTED BY IDOCK:   -4.70 KCAL/MOL
REMARK 924 INTRA-LIGAND FREE ENERGY PREDICTED BY IDOCK:   -0.70 KCAL/MOL
REMARK 927      BINDING AFFINITY PREDICTED BY RF-SCORE:    0.00 PKD
ROOT
HETATM    1  C   UNL     1     -11.975  10.365  70.556  1.00  0.00    -0.334 C  
HETATM    2  N   UNL     1     -11.367   9.462  71.535  1.00  0.00    -0.379 NA 
HETATM    3  C   UNL     1     -12.163   8.238  71.644  1.00  0.00    -0.313 C  
ENDROOT
BRANCH   2   4
HETATM    4  C   UNL     1      -9.975   9.127  71.199  1.00  0.00    -0.307 C  
BRANCH   4   5
HETATM    5  C   UNL     1      -9.548   9.539  69.784  1.00  0.00    -0.235 C  
BRANCH   5   6
HETATM    6  C   UNL     1      -8.199  10.280  69.743  1.00  0.00    -0.111 C  
BRANCH   6   7
HETATM    7  C   UNL     1      -7.938  11.061  68.427  1.00  0.00    -0.131 C  
HETATM    8  O   UNL     1      -6.561  11.552  68.501  1.00  0.00    -0.057 OA 
HETATM    9  N   UNL     1     -10.818  17.299  68.532  1.00  0.00    -0.296 NA 
HETATM   10  C   UNL     1      -8.433  14.723  68.489  1.00  0.00    -0.159 A  
HETATM   11  C   UNL     1      -6.522  12.990  68.580  1.00  0.00    -0.087 C  
HETATM   12  C   UNL     1      -7.930  13.429  68.448  1.00  0.00    -0.139 A  
HETATM   13  C   UNL     1     -10.371  16.226  68.464  1.00  0.00    -0.261 C  
HETATM   14  C   UNL     1      -8.762  12.323  68.327  1.00  0.00    -0.178 A  
HETATM   15  C   UNL     1      -9.816  14.907  68.396  1.00  0.00    -0.216 A  
HETATM   16  C   UNL     1     -10.663  13.792  68.258  1.00  0.00    -0.264 A  
HETATM   17  C   UNL     1     -10.138  12.494  68.228  1.00  0.00    -0.228 A  
BRANCH   7  18
HETATM   18  C   UNL     1      -8.067  10.139  67.201  1.00  0.00    -0.120 A  
HETATM   19  C   UNL     1      -9.033  10.377  66.201  1.00  0.00    -0.175 A  
HETATM   20  F   UNL     1      -8.404   7.652  63.888  1.00  0.00    -0.117 F  
HETATM   21  C   UNL     1      -8.293   8.456  64.953  1.00  0.00    -0.149 A  
HETATM   22  C   UNL     1      -7.324   8.196  65.910  1.00  0.00    -0.076 A  
HETATM   23  C   UNL     1      -7.208   9.033  67.024  1.00  0.00    -0.086 A  
HETATM   24  C   UNL     1      -9.144   9.543  65.085  1.00  0.00    -0.281 A  
ENDBRANCH   7  18
ENDBRANCH   6   7
ENDBRANCH   5   6
ENDBRANCH   4   5
ENDBRANCH   2   4
TORSDOF 5
ENDMDL
MODEL      146
REMARK 921   NORMALIZED FREE ENERGY PREDICTED BY IDOCK:   -3.30 KCAL/MOL
REMARK 922        TOTAL FREE ENERGY PREDICTED BY IDOCK:   -5.35 KCAL/MOL
REMARK 923 INTER-LIGAND FREE ENERGY PREDICTED BY IDOCK:   -4.34 KCAL/MOL
REMARK 924 INTRA-LIGAND FREE ENERGY PREDICTED BY IDOCK:   -1.01 KCAL/MOL
REMARK 927      BINDING AFFINITY PREDICTED BY RF-SCORE:    0.00 PKD
ROOT
HETATM    1  C   UNL     1      -9.938   7.228  73.689  1.00  0.00    -0.330 C  
HETATM    2  N   UNL     1     -10.645   7.202  72.408  1.00  0.00    -0.216 NA 
HETATM    3  C   UNL     1     -11.992   7.754  72.571  1.00  0.00    -0.253 C  
ENDROOT
BRANCH   2   4
HETATM    4  C   UNL     1      -9.926   7.937  71.356  1.00  0.00    -0.172 C  
BRANCH   4   5
HETATM    5  C   UNL     1     -10.828   8.772  70.438  1.00  0.00    -0.256 C  
BRANCH   5   6
HETATM    6  C   UNL     1     -10.129  10.017  69.861  1.00  0.00    -0.289 C  
BRANCH   6   7
HETATM    7  C   UNL     1     -10.015  10.027  68.313  1.00  0.00    -0.153 C  
HETATM    8  O   UNL     1     -11.141   9.240  67.808  1.00  0.00    -0.110 OA 
HETATM    9  N   UNL     1      -5.180   5.689  66.072  1.00  0.00    -0.009 NA 
HETATM   10  C   UNL     1      -8.297   7.173  66.711  1.00  0.00    -0.116 A  
HETATM   11  C   UNL     1     -10.689   8.030  67.169  1.00  0.00    -0.215 C  
HETATM   12  C   UNL     1      -9.210   8.108  67.183  1.00  0.00    -0.175 A  
HETATM   13  C   UNL     1      -5.963   6.475  66.426  1.00  0.00    -0.025 C  
HETATM   14  C   UNL     1      -8.803   9.276  67.815  1.00  0.00    -0.121 A  
HETATM   15  C   UNL     1      -6.932   7.430  66.874  1.00  0.00    -0.082 A  
HETATM   16  C   UNL     1      -6.513   8.618  67.500  1.00  0.00    -0.058 A  
HETATM   17  C   UNL     1      -7.449   9.544  67.978  1.00  0.00    -0.083 A  
BRANCH   7  18
HETATM   18  C   UNL     1     -10.127  11.458  67.758  1.00  0.00    -0.198 A  
HETATM   19  C   UNL     1     -10.078  12.582  68.608  1.00  0.00    -0.139 A  
HETATM   20  F   UNL     1     -10.419  15.321  66.250  1.00  0.00    -0.272 F  
HETATM   21  C   UNL     1     -10.320  14.077  66.736  1.00  0.00    -0.271 A  
HETATM   22  C   UNL     1     -10.362  12.996  65.867  1.00  0.00    -0.296 A  
HETATM   23  C   UNL     1     -10.261  11.697  66.373  1.00  0.00    -0.256 A  
HETATM   24  C   UNL     1     -10.173  13.882  68.101  1.00  0.00    -0.249 A  
ENDBRANCH   7  18
ENDBRANCH   6   7
ENDBRANCH   5   6
ENDBRANCH   4   5
ENDBRANCH   2   4
TORSDOF 5
ENDMDL
MODEL      147
REMARK 921   NORMALIZED FREE ENERGY PREDICTED BY IDOCK:   -3.16 KCAL/MOL
REMARK 922        TOTAL FREE ENERGY PREDICTED BY IDOCK:   -5.16 KCAL/MOL
REMARK 923 INTER-LIGAND FREE ENERGY PREDICTED BY IDOCK:   -4.68 KCAL/MOL
REMARK 924 INTRA-LIGAND FREE ENERGY PREDICTED BY IDOCK:   -0.48 KCAL/MOL
REMARK 927      BINDING AFFINITY PREDICTED BY RF-SCORE:    0.00 PKD
ROOT
HETATM    1  C   UNL     1     -12.234  13.635  66.061  1.00  0.00    -0.449 C  
HETATM    2  N   UNL     1     -11.961  12.444  65.256  1.00  0.00    -0.416 NA 
HETATM    3  C   UNL     1     -11.981  12.790  63.833  1.00  0.00    -0.480 C  
ENDROOT
BRANCH   2   4
HETATM    4  C   UNL     1     -10.677  11.815  65.601  1.00  0.00    -0.280 C  
BRANCH   4   5
HETATM    5  C   UNL     1     -10.703  10.992  66.895  1.00  0.00    -0.325 C  
BRANCH   5   6
HETATM    6  C   UNL     1     -11.007   9.500  66.664  1.00  0.00     0.192 C  
BRANCH   6   7
HETATM    7  C   UNL     1     -10.109   8.531  67.480  1.00  0.00    -0.221 C  
HETATM    8  O   UNL     1     -10.893   8.117  68.644  1.00  0.00    -0.078 OA 
HETATM    9  N   UNL     1      -5.349  11.898  71.116  1.00  0.00    -0.298 NA 
HETATM   10  C   UNL     1      -8.153   9.961  70.271  1.00  0.00    -0.115 A  
HETATM   11  C   UNL     1     -10.320   8.618  69.867  1.00  0.00    -0.209 C  
HETATM   12  C   UNL     1      -9.063   9.290  69.464  1.00  0.00    -0.163 A  
HETATM   13  C   UNL     1      -6.106  11.299  70.465  1.00  0.00    -0.070 C  
HETATM   14  C   UNL     1      -8.910   9.221  68.085  1.00  0.00    -0.129 A  
HETATM   15  C   UNL     1      -7.049  10.574  69.667  1.00  0.00    -0.141 A  
HETATM   16  C   UNL     1      -6.880  10.496  68.273  1.00  0.00    -0.068 A  
HETATM   17  C   UNL     1      -7.815   9.822  67.476  1.00  0.00    -0.095 A  
BRANCH   7  18
HETATM   18  C   UNL     1      -9.752   7.280  66.657  1.00  0.00    -0.249 A  
HETATM   19  C   UNL     1      -8.640   7.265  65.789  1.00  0.00    -0.143 A  
HETATM   20  F   UNL     1      -8.787   3.896  64.444  1.00  0.00    -0.111 F  
HETATM   21  C   UNL     1      -9.095   4.985  65.160  1.00  0.00    -0.123 A  
HETATM   22  C   UNL     1     -10.190   4.960  66.011  1.00  0.00    -0.287 A  
HETATM   23  C   UNL     1     -10.514   6.097  66.758  1.00  0.00    -0.316 A  
HETATM   24  C   UNL     1      -8.313   6.125  65.047  1.00  0.00    -0.112 A  
ENDBRANCH   7  18
ENDBRANCH   6   7
ENDBRANCH   5   6
ENDBRANCH   4   5
ENDBRANCH   2   4
TORSDOF 5
ENDMDL
MODEL      148
REMARK 921   NORMALIZED FREE ENERGY PREDICTED BY IDOCK:   -3.11 KCAL/MOL
REMARK 922        TOTAL FREE ENERGY PREDICTED BY IDOCK:   -5.10 KCAL/MOL
REMARK 923 INTER-LIGAND FREE ENERGY PREDICTED BY IDOCK:   -4.34 KCAL/MOL
REMARK 924 INTRA-LIGAND FREE ENERGY PREDICTED BY IDOCK:   -0.76 KCAL/MOL
REMARK 927      BINDING AFFINITY PREDICTED BY RF-SCORE:    0.00 PKD
ROOT
HETATM    1  C   UNL     1      -7.834   8.931  70.550  1.00  0.00    -0.112 C  
HETATM    2  N   UNL     1      -8.154   9.230  69.153  1.00  0.00    -0.103 NA 
HETATM    3  C   UNL     1      -9.481   9.843  69.067  1.00  0.00    -0.183 C  
ENDROOT
BRANCH   2   4
HETATM    4  C   UNL     1      -7.154  10.108  68.525  1.00  0.00    -0.074 C  
BRANCH   4   5
HETATM    5  C   UNL     1      -7.449  10.456  67.061  1.00  0.00    -0.097 C  
BRANCH   5   6
HETATM    6  C   UNL     1      -6.614   9.638  66.058  1.00  0.00    -0.079 C  
BRANCH   6   7
HETATM    7  C   UNL     1      -7.424   9.079  64.857  1.00  0.00    -0.105 C  
HETATM    8  O   UNL     1      -6.626   9.341  63.659  1.00  0.00    -0.090 OA 
HETATM    9  N   UNL     1     -12.586  13.252  63.081  1.00  0.00    -0.625 NA 
HETATM   10  C   UNL     1      -9.579  11.442  63.004  1.00  0.00    -0.397 A  
HETATM   11  C   UNL     1      -7.276  10.294  62.796  1.00  0.00    -0.141 C  
HETATM   12  C   UNL     1      -8.586  10.568  63.429  1.00  0.00    -0.172 A  
HETATM   13  C   UNL     1     -11.757  12.498  63.398  1.00  0.00    -0.488 C  
HETATM   14  C   UNL     1      -8.701   9.846  64.610  1.00  0.00    -0.215 A  
HETATM   15  C   UNL     1     -10.726  11.584  63.791  1.00  0.00    -0.474 A  
HETATM   16  C   UNL     1     -10.856  10.846  64.981  1.00  0.00    -0.142 A  
HETATM   17  C   UNL     1      -9.839   9.976  65.398  1.00  0.00    -0.384 A  
BRANCH   7  18
HETATM   18  C   UNL     1      -7.631   7.559  64.989  1.00  0.00    -0.098 A  
HETATM   19  C   UNL     1      -8.271   6.814  63.977  1.00  0.00     0.066 A  
HETATM   20  F   UNL     1      -8.178   3.454  65.346  1.00  0.00    -0.093 F  
HETATM   21  C   UNL     1      -7.998   4.776  65.229  1.00  0.00    -0.096 A  
HETATM   22  C   UNL     1      -7.355   5.473  66.241  1.00  0.00    -0.078 A  
HETATM   23  C   UNL     1      -7.168   6.854  66.120  1.00  0.00    -0.074 A  
HETATM   24  C   UNL     1      -8.453   5.433  64.095  1.00  0.00    -0.085 A  
ENDBRANCH   7  18
ENDBRANCH   6   7
ENDBRANCH   5   6
ENDBRANCH   4   5
ENDBRANCH   2   4
TORSDOF 5
ENDMDL
MODEL      149
REMARK 921   NORMALIZED FREE ENERGY PREDICTED BY IDOCK:   -3.11 KCAL/MOL
REMARK 922        TOTAL FREE ENERGY PREDICTED BY IDOCK:   -5.10 KCAL/MOL
REMARK 923 INTER-LIGAND FREE ENERGY PREDICTED BY IDOCK:   -5.39 KCAL/MOL
REMARK 924 INTRA-LIGAND FREE ENERGY PREDICTED BY IDOCK:    0.30 KCAL/MOL
REMARK 927      BINDING AFFINITY PREDICTED BY RF-SCORE:    0.00 PKD
ROOT
HETATM    1  C   UNL     1     -11.247  12.016  65.668  1.00  0.00    -0.327 C  
HETATM    2  N   UNL     1     -11.215  13.340  65.044  1.00  0.00    -0.298 NA 
HETATM    3  C   UNL     1     -12.223  13.415  63.984  1.00  0.00    -0.405 C  
ENDROOT
BRANCH   2   4
HETATM    4  C   UNL     1     -11.428  14.423  66.016  1.00  0.00    -0.349 C  
BRANCH   4   5
HETATM    5  C   UNL     1     -10.257  15.406  66.134  1.00  0.00    -0.324 C  
BRANCH   5   6
HETATM    6  C   UNL     1      -8.920  14.726  66.481  1.00  0.00    -0.267 C  
BRANCH   6   7
HETATM    7  C   UNL     1      -8.734  14.414  67.990  1.00  0.00    -0.170 C  
HETATM    8  O   UNL     1      -7.656  15.282  68.465  1.00  0.00    -0.112 OA 
HETATM    9  N   UNL     1      -5.282   8.557  68.987  1.00  0.00    -0.031 NA 
HETATM   10  C   UNL     1      -6.125  11.964  68.915  1.00  0.00    -0.062 A  
HETATM   11  C   UNL     1      -6.496  14.518  68.845  1.00  0.00    -0.092 C  
HETATM   12  C   UNL     1      -6.895  13.099  68.699  1.00  0.00    -0.099 A  
HETATM   13  C   UNL     1      -5.920   9.520  68.847  1.00  0.00    -0.042 C  
HETATM   14  C   UNL     1      -8.202  13.021  68.233  1.00  0.00    -0.150 A  
HETATM   15  C   UNL     1      -6.695  10.711  68.663  1.00  0.00    -0.057 A  
HETATM   16  C   UNL     1      -8.021  10.624  68.206  1.00  0.00    -0.116 A  
HETATM   17  C   UNL     1      -8.780  11.781  67.984  1.00  0.00    -0.167 A  
BRANCH   7  18
HETATM   18  C   UNL     1     -10.012  14.735  68.784  1.00  0.00    -0.234 A  
HETATM   19  C   UNL     1     -10.242  16.020  69.318  1.00  0.00    -0.249 A  
HETATM   20  F   UNL     1     -13.472  15.599  70.920  1.00  0.00    -0.531 F  
HETATM   21  C   UNL     1     -12.359  15.323  70.228  1.00  0.00    -0.366 A  
HETATM   22  C   UNL     1     -12.173  14.050  69.709  1.00  0.00    -0.396 A  
HETATM   23  C   UNL     1     -11.010  13.759  68.989  1.00  0.00    -0.277 A  
HETATM   24  C   UNL     1     -11.408  16.312  70.034  1.00  0.00    -0.276 A  
ENDBRANCH   7  18
ENDBRANCH   6   7
ENDBRANCH   5   6
ENDBRANCH   4   5
ENDBRANCH   2   4
TORSDOF 5
ENDMDL
MODEL      150
REMARK 921   NORMALIZED FREE ENERGY PREDICTED BY IDOCK:   -3.05 KCAL/MOL
REMARK 922        TOTAL FREE ENERGY PREDICTED BY IDOCK:   -5.03 KCAL/MOL
REMARK 923 INTER-LIGAND FREE ENERGY PREDICTED BY IDOCK:   -3.98 KCAL/MOL
REMARK 924 INTRA-LIGAND FREE ENERGY PREDICTED BY IDOCK:   -1.05 KCAL/MOL
REMARK 927      BINDING AFFINITY PREDICTED BY RF-SCORE:    0.00 PKD
ROOT
HETATM    1  C   UNL     1      -8.311   2.714  70.661  1.00  0.00    -0.049 C  
HETATM    2  N   UNL     1      -9.622   3.202  71.093  1.00  0.00    -0.156 NA 
HETATM    3  C   UNL     1     -10.023   2.526  72.328  1.00  0.00    -0.160 C  
ENDROOT
BRANCH   2   4
HETATM    4  C   UNL     1      -9.641   4.660  71.290  1.00  0.00    -0.172 C  
BRANCH   4   5
HETATM    5  C   UNL     1      -8.844   5.449  70.244  1.00  0.00    -0.143 C  
BRANCH   5   6
HETATM    6  C   UNL     1      -9.721   6.364  69.369  1.00  0.00    -0.160 C  
BRANCH   6   7
HETATM    7  C   UNL     1      -8.990   6.964  68.137  1.00  0.00    -0.123 C  
HETATM    8  O   UNL     1      -7.570   7.025  68.485  1.00  0.00    -0.108 OA 
HETATM    9  N   UNL     1      -9.813  13.774  67.735  1.00  0.00    -0.228 NA 
HETATM   10  C   UNL     1      -8.356  10.605  68.137  1.00  0.00    -0.121 A  
HETATM   11  C   UNL     1      -7.113   8.387  68.585  1.00  0.00    -0.072 C  
HETATM   12  C   UNL     1      -8.270   9.220  68.183  1.00  0.00    -0.119 A  
HETATM   13  C   UNL     1      -9.707  12.615  67.745  1.00  0.00    -0.206 C  
HETATM   14  C   UNL     1      -9.358   8.407  67.889  1.00  0.00    -0.147 A  
HETATM   15  C   UNL     1      -9.574  11.188  67.775  1.00  0.00    -0.180 A  
HETATM   16  C   UNL     1     -10.676  10.372  67.462  1.00  0.00    -0.339 A  
HETATM   17  C   UNL     1     -10.573   8.976  67.524  1.00  0.00    -0.306 A  
BRANCH   7  18
HETATM   18  C   UNL     1      -9.156   6.062  66.901  1.00  0.00    -0.126 A  
HETATM   19  C   UNL     1     -10.355   5.361  66.659  1.00  0.00    -0.325 A  
HETATM   20  F   UNL     1      -9.602   3.638  63.554  1.00  0.00    -0.112 F  
HETATM   21  C   UNL     1      -9.460   4.422  64.630  1.00  0.00    -0.141 A  
HETATM   22  C   UNL     1      -8.269   5.105  64.829  1.00  0.00    -0.130 A  
HETATM   23  C   UNL     1      -8.119   5.923  65.953  1.00  0.00    -0.118 A  
HETATM   24  C   UNL     1     -10.507   4.548  65.531  1.00  0.00    -0.241 A  
ENDBRANCH   7  18
ENDBRANCH   6   7
ENDBRANCH   5   6
ENDBRANCH   4   5
ENDBRANCH   2   4
TORSDOF 5
ENDMDL
MODEL      151
REMARK 921   NORMALIZED FREE ENERGY PREDICTED BY IDOCK:   -3.02 KCAL/MOL
REMARK 922        TOTAL FREE ENERGY PREDICTED BY IDOCK:   -4.99 KCAL/MOL
REMARK 923 INTER-LIGAND FREE ENERGY PREDICTED BY IDOCK:   -4.64 KCAL/MOL
REMARK 924 INTRA-LIGAND FREE ENERGY PREDICTED BY IDOCK:   -0.36 KCAL/MOL
REMARK 927      BINDING AFFINITY PREDICTED BY RF-SCORE:    0.00 PKD
ROOT
HETATM    1  C   UNL     1     -11.854  14.837  64.864  1.00  0.00    -0.377 C  
HETATM    2  N   UNL     1     -12.371  14.011  65.957  1.00  0.00    -0.469 NA 
HETATM    3  C   UNL     1     -11.939  12.623  65.779  1.00  0.00    -0.446 C  
ENDROOT
BRANCH   2   4
HETATM    4  C   UNL     1     -11.951  14.502  67.278  1.00  0.00    -0.344 C  
BRANCH   4   5
HETATM    5  C   UNL     1     -10.836  13.678  67.934  1.00  0.00    -0.264 C  
BRANCH   5   6
HETATM    6  C   UNL     1      -9.984  14.485  68.931  1.00  0.00    -0.206 C  
BRANCH   6   7
HETATM    7  C   UNL     1      -8.467  14.513  68.601  1.00  0.00    -0.161 C  
HETATM    8  O   UNL     1      -7.776  14.851  69.846  1.00  0.00    -0.098 OA 
HETATM    9  N   UNL     1      -6.666  20.277  65.322  1.00  0.00    -0.301 NA 
HETATM   10  C   UNL     1      -6.961  17.788  67.780  1.00  0.00    -0.191 A  
HETATM   11  C   UNL     1      -7.141  16.141  69.760  1.00  0.00     0.048 C  
HETATM   12  C   UNL     1      -7.355  16.591  68.365  1.00  0.00    -0.179 A  
HETATM   13  C   UNL     1      -6.953  19.266  65.822  1.00  0.00    -0.280 C  
HETATM   14  C   UNL     1      -8.096  15.644  67.670  1.00  0.00    -0.166 A  
HETATM   15  C   UNL     1      -7.318  18.030  66.449  1.00  0.00    -0.292 A  
HETATM   16  C   UNL     1      -8.056  17.069  65.735  1.00  0.00     0.275 A  
HETATM   17  C   UNL     1      -8.452  15.873  66.346  1.00  0.00    -0.348 A  
BRANCH   7  18
HETATM   18  C   UNL     1      -7.978  13.134  68.124  1.00  0.00    -0.154 A  
HETATM   19  C   UNL     1      -6.790  12.994  67.377  1.00  0.00    -0.126 A  
HETATM   20  F   UNL     1      -6.658   9.405  66.848  1.00  0.00    -0.064 F  
HETATM   21  C   UNL     1      -7.080  10.606  67.263  1.00  0.00    -0.089 A  
HETATM   22  C   UNL     1      -8.248  10.704  68.004  1.00  0.00    -0.113 A  
HETATM   23  C   UNL     1      -8.692  11.958  68.436  1.00  0.00    -0.157 A  
HETATM   24  C   UNL     1      -6.344  11.739  66.951  1.00  0.00    -0.131 A  
ENDBRANCH   7  18
ENDBRANCH   6   7
ENDBRANCH   5   6
ENDBRANCH   4   5
ENDBRANCH   2   4
TORSDOF 5
ENDMDL
MODEL      152
REMARK 921   NORMALIZED FREE ENERGY PREDICTED BY IDOCK:   -2.87 KCAL/MOL
REMARK 922        TOTAL FREE ENERGY PREDICTED BY IDOCK:   -4.79 KCAL/MOL
REMARK 923 INTER-LIGAND FREE ENERGY PREDICTED BY IDOCK:   -4.17 KCAL/MOL
REMARK 924 INTRA-LIGAND FREE ENERGY PREDICTED BY IDOCK:   -0.63 KCAL/MOL
REMARK 927      BINDING AFFINITY PREDICTED BY RF-SCORE:    0.00 PKD
ROOT
HETATM    1  C   UNL     1      -7.818  20.459  69.294  1.00  0.00     0.662 C  
HETATM    2  N   UNL     1      -6.518  19.883  68.945  1.00  0.00    -0.298 NA 
HETATM    3  C   UNL     1      -5.549  20.954  68.703  1.00  0.00    -0.354 C  
ENDROOT
BRANCH   2   4
HETATM    4  C   UNL     1      -6.011  18.972  69.983  1.00  0.00    -0.228 C  
BRANCH   4   5
HETATM    5  C   UNL     1      -6.266  17.487  69.700  1.00  0.00    -0.227 C  
BRANCH   5   6
HETATM    6  C   UNL     1      -7.689  17.197  69.188  1.00  0.00    -0.094 C  
BRANCH   6   7
HETATM    7  C   UNL     1      -7.747  16.656  67.734  1.00  0.00    -0.163 C  
HETATM    8  O   UNL     1      -6.574  15.799  67.562  1.00  0.00    -0.157 OA 
HETATM    9  N   UNL     1      -5.735  21.373  63.161  1.00  0.00    -0.254 NA 
HETATM   10  C   UNL     1      -5.833  18.485  65.155  1.00  0.00    -0.263 A  
HETATM   11  C   UNL     1      -5.650  16.360  66.608  1.00  0.00     0.380 C  
HETATM   12  C   UNL     1      -6.319  17.572  66.082  1.00  0.00    -0.255 A  
HETATM   13  C   UNL     1      -6.137  20.575  63.907  1.00  0.00    -0.267 C  
HETATM   14  C   UNL     1      -7.551  17.741  66.702  1.00  0.00    -0.271 A  
HETATM   15  C   UNL     1      -6.619  19.598  64.837  1.00  0.00    -0.201 A  
HETATM   16  C   UNL     1      -7.873  19.767  65.450  1.00  0.00     0.223 A  
HETATM   17  C   UNL     1      -8.342  18.840  66.390  1.00  0.00    -0.294 A  
BRANCH   7  18
HETATM   18  C   UNL     1      -9.013  15.809  67.508  1.00  0.00    -0.201 A  
HETATM   19  C   UNL     1      -9.063  14.815  66.509  1.00  0.00    -0.291 A  
HETATM   20  F   UNL     1     -12.430  13.521  66.909  1.00  0.00    -0.393 F  
HETATM   21  C   UNL     1     -11.328  14.255  67.105  1.00  0.00    -0.337 A  
HETATM   22  C   UNL     1     -11.312  15.216  68.104  1.00  0.00    -0.345 A  
HETATM   23  C   UNL     1     -10.162  15.985  68.308  1.00  0.00    -0.237 A  
HETATM   24  C   UNL     1     -10.212  14.043  66.309  1.00  0.00    -0.300 A  
ENDBRANCH   7  18
ENDBRANCH   6   7
ENDBRANCH   5   6
ENDBRANCH   4   5
ENDBRANCH   2   4
TORSDOF 5
ENDMDL
MODEL      153
REMARK 921   NORMALIZED FREE ENERGY PREDICTED BY IDOCK:   -2.71 KCAL/MOL
REMARK 922        TOTAL FREE ENERGY PREDICTED BY IDOCK:   -4.59 KCAL/MOL
REMARK 923 INTER-LIGAND FREE ENERGY PREDICTED BY IDOCK:   -3.80 KCAL/MOL
REMARK 924 INTRA-LIGAND FREE ENERGY PREDICTED BY IDOCK:   -0.79 KCAL/MOL
REMARK 927      BINDING AFFINITY PREDICTED BY RF-SCORE:    0.00 PKD
ROOT
HETATM    1  C   UNL     1     -10.516  11.342  66.869  1.00  0.00    -0.240 C  
HETATM    2  N   UNL     1     -10.145  11.901  68.170  1.00  0.00    -0.192 NA 
HETATM    3  C   UNL     1     -10.788  13.203  68.355  1.00  0.00    -0.262 C  
ENDROOT
BRANCH   2   4
HETATM    4  C   UNL     1     -10.493  11.006  69.285  1.00  0.00    -0.180 C  
BRANCH   4   5
HETATM    5  C   UNL     1     -10.931   9.600  68.854  1.00  0.00    -0.153 C  
BRANCH   5   6
HETATM    6  C   UNL     1     -10.580   8.508  69.881  1.00  0.00    -0.228 C  
BRANCH   6   7
HETATM    7  C   UNL     1      -9.213   7.815  69.637  1.00  0.00    -0.153 C  
HETATM    8  O   UNL     1      -8.398   8.760  68.873  1.00  0.00    -0.123 OA 
HETATM    9  N   UNL     1      -9.574   3.129  64.625  1.00  0.00    -0.155 NA 
HETATM   10  C   UNL     1      -8.757   6.022  66.437  1.00  0.00    -0.133 A  
HETATM   11  C   UNL     1      -8.132   8.269  67.545  1.00  0.00    -0.122 C  
HETATM   12  C   UNL     1      -8.720   6.910  67.505  1.00  0.00    -0.120 A  
HETATM   13  C   UNL     1      -9.499   3.873  65.517  1.00  0.00    -0.171 C  
HETATM   14  C   UNL     1      -9.323   6.619  68.722  1.00  0.00    -0.131 A  
HETATM   15  C   UNL     1      -9.416   4.800  66.606  1.00  0.00    -0.161 A  
HETATM   16  C   UNL     1     -10.016   4.493  67.840  1.00  0.00    -0.116 A  
HETATM   17  C   UNL     1      -9.976   5.405  68.902  1.00  0.00    -0.247 A  
BRANCH   7  18
HETATM   18  C   UNL     1      -8.499   7.513  70.967  1.00  0.00    -0.117 A  
HETATM   19  C   UNL     1      -8.866   8.164  72.162  1.00  0.00    -0.238 A  
HETATM   20  F   UNL     1      -6.575   6.683  74.556  1.00  0.00    -0.081 F  
HETATM   21  C   UNL     1      -7.198   6.947  73.401  1.00  0.00    -0.074 A  
HETATM   22  C   UNL     1      -6.816   6.278  72.247  1.00  0.00    -0.073 A  
HETATM   23  C   UNL     1      -7.465   6.555  71.040  1.00  0.00    -0.085 A  
HETATM   24  C   UNL     1      -8.221   7.883  73.371  1.00  0.00    -0.246 A  
ENDBRANCH   7  18
ENDBRANCH   6   7
ENDBRANCH   5   6
ENDBRANCH   4   5
ENDBRANCH   2   4
TORSDOF 5
ENDMDL
MODEL      154
REMARK 921   NORMALIZED FREE ENERGY PREDICTED BY IDOCK:   -2.69 KCAL/MOL
REMARK 922        TOTAL FREE ENERGY PREDICTED BY IDOCK:   -4.56 KCAL/MOL
REMARK 923 INTER-LIGAND FREE ENERGY PREDICTED BY IDOCK:   -4.79 KCAL/MOL
REMARK 924 INTRA-LIGAND FREE ENERGY PREDICTED BY IDOCK:    0.23 KCAL/MOL
REMARK 927      BINDING AFFINITY PREDICTED BY RF-SCORE:    0.00 PKD
ROOT
HETATM    1  C   UNL     1     -10.483  19.745  65.873  1.00  0.00    -0.486 C  
HETATM    2  N   UNL     1     -10.620  18.653  66.838  1.00  0.00    -0.403 NA 
HETATM    3  C   UNL     1     -10.422  17.367  66.166  1.00  0.00    -0.284 C  
ENDROOT
BRANCH   2   4
HETATM    4  C   UNL     1      -9.682  18.780  67.965  1.00  0.00    -0.325 C  
BRANCH   4   5
HETATM    5  C   UNL     1      -8.342  19.431  67.601  1.00  0.00    -0.334 C  
BRANCH   5   6
HETATM    6  C   UNL     1      -7.354  18.462  66.925  1.00  0.00    -0.227 C  
BRANCH   6   7
HETATM    7  C   UNL     1      -6.502  17.623  67.916  1.00  0.00    -0.179 C  
HETATM    8  O   UNL     1      -5.271  17.268  67.209  1.00  0.00    -0.118 OA 
HETATM    9  N   UNL     1      -8.795  11.166  68.431  1.00  0.00    -0.152 NA 
HETATM   10  C   UNL     1      -6.774  13.943  67.703  1.00  0.00    -0.189 A  
HETATM   11  C   UNL     1      -5.192  15.848  66.975  1.00  0.00     0.380 C  
HETATM   12  C   UNL     1      -6.376  15.272  67.655  1.00  0.00    -0.171 A  
HETATM   13  C   UNL     1      -8.423  12.269  68.408  1.00  0.00    -0.138 C  
HETATM   14  C   UNL     1      -7.130  16.286  68.232  1.00  0.00    -0.138 A  
HETATM   15  C   UNL     1      -7.966  13.626  68.364  1.00  0.00    -0.147 A  
HETATM   16  C   UNL     1      -8.727  14.645  68.963  1.00  0.00    -0.097 A  
HETATM   17  C   UNL     1      -8.313  15.982  68.895  1.00  0.00    -0.231 A  
BRANCH   7  18
HETATM   18  C   UNL     1      -6.134  18.444  69.164  1.00  0.00    -0.241 A  
HETATM   19  C   UNL     1      -6.154  19.854  69.149  1.00  0.00    -0.330 A  
HETATM   20  F   UNL     1      -5.148  20.656  72.542  1.00  0.00    -0.175 F  
HETATM   21  C   UNL     1      -5.470  19.944  71.455  1.00  0.00    -0.384 A  
HETATM   22  C   UNL     1      -5.449  18.558  71.512  1.00  0.00    -0.056 A  
HETATM   23  C   UNL     1      -5.782  17.813  70.377  1.00  0.00    -0.149 A  
HETATM   24  C   UNL     1      -5.826  20.599  70.286  1.00  0.00    -0.216 A  
ENDBRANCH   7  18
ENDBRANCH   6   7
ENDBRANCH   5   6
ENDBRANCH   4   5
ENDBRANCH   2   4
TORSDOF 5
ENDMDL
MODEL      155
REMARK 921   NORMALIZED FREE ENERGY PREDICTED BY IDOCK:   -2.62 KCAL/MOL
REMARK 922        TOTAL FREE ENERGY PREDICTED BY IDOCK:   -4.47 KCAL/MOL
REMARK 923 INTER-LIGAND FREE ENERGY PREDICTED BY IDOCK:   -3.49 KCAL/MOL
REMARK 924 INTRA-LIGAND FREE ENERGY PREDICTED BY IDOCK:   -0.98 KCAL/MOL
REMARK 927      BINDING AFFINITY PREDICTED BY RF-SCORE:    0.00 PKD
ROOT
HETATM    1  C   UNL     1      -8.732   2.927  72.799  1.00  0.00    -0.082 C  
HETATM    2  N   UNL     1     -10.101   3.240  72.385  1.00  0.00    -0.161 NA 
HETATM    3  C   UNL     1     -11.052   2.673  73.344  1.00  0.00    -0.183 C  
ENDROOT
BRANCH   2   4
HETATM    4  C   UNL     1     -10.329   4.687  72.249  1.00  0.00    -0.185 C  
BRANCH   4   5
HETATM    5  C   UNL     1      -9.300   5.409  71.370  1.00  0.00    -0.179 C  
BRANCH   5   6
HETATM    6  C   UNL     1      -9.893   5.957  70.059  1.00  0.00    -0.225 C  
BRANCH   6   7
HETATM    7  C   UNL     1      -8.860   6.655  69.133  1.00  0.00    -0.129 C  
HETATM    8  O   UNL     1      -7.888   7.307  70.011  1.00  0.00    -0.107 OA 
HETATM    9  N   UNL     1     -11.324  12.505  66.501  1.00  0.00    -0.314 NA 
HETATM   10  C   UNL     1      -9.405  10.228  68.361  1.00  0.00    -0.143 A  
HETATM   11  C   UNL     1      -7.961   8.741  69.900  1.00  0.00    -0.106 C  
HETATM   12  C   UNL     1      -8.953   9.002  68.831  1.00  0.00    -0.140 A  
HETATM   13  C   UNL     1     -10.904  11.489  66.884  1.00  0.00    -0.284 C  
HETATM   14  C   UNL     1      -9.461   7.801  68.354  1.00  0.00    -0.148 A  
HETATM   15  C   UNL     1     -10.393  10.242  67.372  1.00  0.00    -0.282 A  
HETATM   16  C   UNL     1     -10.902   9.029  66.873  1.00  0.00    -0.002 A  
HETATM   17  C   UNL     1     -10.440   7.802  67.367  1.00  0.00    -0.362 A  
BRANCH   7  18
HETATM   18  C   UNL     1      -8.122   5.630  68.254  1.00  0.00    -0.103 A  
HETATM   19  C   UNL     1      -6.713   5.600  68.185  1.00  0.00    -0.054 A  
HETATM   20  F   UNL     1      -6.133   2.852  65.887  1.00  0.00    -0.021 F  
HETATM   21  C   UNL     1      -6.773   3.744  66.653  1.00  0.00    -0.046 A  
HETATM   22  C   UNL     1      -8.159   3.735  66.703  1.00  0.00    -0.096 A  
HETATM   23  C   UNL     1      -8.829   4.668  67.501  1.00  0.00    -0.112 A  
HETATM   24  C   UNL     1      -6.044   4.664  67.392  1.00  0.00    -0.027 A  
ENDBRANCH   7  18
ENDBRANCH   6   7
ENDBRANCH   5   6
ENDBRANCH   4   5
ENDBRANCH   2   4
TORSDOF 5
ENDMDL
MODEL      156
REMARK 921   NORMALIZED FREE ENERGY PREDICTED BY IDOCK:   -2.59 KCAL/MOL
REMARK 922        TOTAL FREE ENERGY PREDICTED BY IDOCK:   -4.44 KCAL/MOL
REMARK 923 INTER-LIGAND FREE ENERGY PREDICTED BY IDOCK:   -3.54 KCAL/MOL
REMARK 924 INTRA-LIGAND FREE ENERGY PREDICTED BY IDOCK:   -0.90 KCAL/MOL
REMARK 927      BINDING AFFINITY PREDICTED BY RF-SCORE:    0.00 PKD
ROOT
HETATM    1  C   UNL     1     -12.522  15.874  72.981  1.00  0.00    -0.491 C  
HETATM    2  N   UNL     1     -13.161  14.740  72.312  1.00  0.00    -0.344 NA 
HETATM    3  C   UNL     1     -14.377  15.186  71.629  1.00  0.00    -0.585 C  
ENDROOT
BRANCH   2   4
HETATM    4  C   UNL     1     -12.263  14.075  71.355  1.00  0.00    -0.264 C  
BRANCH   4   5
HETATM    5  C   UNL     1     -11.724  14.993  70.251  1.00  0.00    -0.338 C  
BRANCH   5   6
HETATM    6  C   UNL     1     -10.192  15.149  70.277  1.00  0.00    -0.027 C  
BRANCH   6   7
HETATM    7  C   UNL     1      -9.554  15.433  68.891  1.00  0.00    -0.220 C  
HETATM    8  O   UNL     1     -10.591  15.166  67.893  1.00  0.00    -0.249 OA 
HETATM    9  N   UNL     1      -5.431  10.320  66.872  1.00  0.00    -0.041 NA 
HETATM   10  C   UNL     1      -8.126  12.563  67.051  1.00  0.00    -0.105 A  
HETATM   11  C   UNL     1     -10.250  14.030  67.075  1.00  0.00    -0.261 C  
HETATM   12  C   UNL     1      -8.893  13.626  67.510  1.00  0.00    -0.205 A  
HETATM   13  C   UNL     1      -6.076  11.227  67.216  1.00  0.00    -0.076 C  
HETATM   14  C   UNL     1      -8.462  14.450  68.542  1.00  0.00    -0.170 A  
HETATM   15  C   UNL     1      -6.881  12.331  67.645  1.00  0.00    -0.124 A  
HETATM   16  C   UNL     1      -6.432  13.170  68.680  1.00  0.00    -0.087 A  
HETATM   17  C   UNL     1      -7.225  14.231  69.137  1.00  0.00    -0.104 A  
BRANCH   7  18
HETATM   18  C   UNL     1      -9.122  16.906  68.771  1.00  0.00    -0.254 A  
HETATM   19  C   UNL     1      -8.178  17.469  69.655  1.00  0.00     0.931 A  
HETATM   20  F   UNL     1      -7.952  20.880  68.435  1.00  0.00     0.126 F  
HETATM   21  C   UNL     1      -8.325  19.598  68.541  1.00  0.00    -0.294 A  
HETATM   22  C   UNL     1      -9.249  19.077  67.647  1.00  0.00    -0.333 A  
HETATM   23  C   UNL     1      -9.642  17.739  67.758  1.00  0.00    -0.272 A  
HETATM   24  C   UNL     1      -7.781  18.805  69.540  1.00  0.00     0.245 A  
ENDBRANCH   7  18
ENDBRANCH   6   7
ENDBRANCH   5   6
ENDBRANCH   4   5
ENDBRANCH   2   4
TORSDOF 5
ENDMDL
MODEL      157
REMARK 921   NORMALIZED FREE ENERGY PREDICTED BY IDOCK:   -2.53 KCAL/MOL
REMARK 922        TOTAL FREE ENERGY PREDICTED BY IDOCK:   -4.36 KCAL/MOL
REMARK 923 INTER-LIGAND FREE ENERGY PREDICTED BY IDOCK:   -3.04 KCAL/MOL
REMARK 924 INTRA-LIGAND FREE ENERGY PREDICTED BY IDOCK:   -1.32 KCAL/MOL
REMARK 927      BINDING AFFINITY PREDICTED BY RF-SCORE:    0.00 PKD
ROOT
HETATM    1  C   UNL     1     -11.035  16.779  68.848  1.00  0.00    -0.259 C  
HETATM    2  N   UNL     1     -11.404  15.955  70.000  1.00  0.00    -0.331 NA 
HETATM    3  C   UNL     1     -12.435  14.991  69.612  1.00  0.00    -0.133 C  
ENDROOT
BRANCH   2   4
HETATM    4  C   UNL     1     -10.249  15.250  70.577  1.00  0.00     0.142 C  
BRANCH   4   5
HETATM    5  C   UNL     1      -8.906  15.592  69.921  1.00  0.00     0.198 C  
BRANCH   5   6
HETATM    6  C   UNL     1      -7.952  14.388  69.814  1.00  0.00     0.437 C  
BRANCH   6   7
HETATM    7  C   UNL     1      -7.539  14.026  68.362  1.00  0.00    -0.129 C  
HETATM    8  O   UNL     1      -6.539  15.013  67.956  1.00  0.00    -0.116 OA 
HETATM    9  N   UNL     1     -12.259  16.019  63.783  1.00  0.00    -0.676 NA 
HETATM   10  C   UNL     1      -9.270  15.782  65.609  1.00  0.00    -0.123 A  
HETATM   11  C   UNL     1      -7.034  15.855  66.897  1.00  0.00    -0.042 C  
HETATM   12  C   UNL     1      -8.366  15.309  66.552  1.00  0.00    -0.124 A  
HETATM   13  C   UNL     1     -11.472  15.617  64.541  1.00  0.00    -0.300 C  
HETATM   14  C   UNL     1      -8.662  14.227  67.372  1.00  0.00    -0.217 A  
HETATM   15  C   UNL     1     -10.505  15.138  65.484  1.00  0.00    -0.400 A  
HETATM   16  C   UNL     1     -10.805  14.033  66.300  1.00  0.00    -0.291 A  
HETATM   17  C   UNL     1      -9.884  13.577  67.253  1.00  0.00    -0.237 A  
BRANCH   7  18
HETATM   18  C   UNL     1      -6.904  12.626  68.300  1.00  0.00    -0.084 A  
HETATM   19  C   UNL     1      -6.951  11.747  69.402  1.00  0.00    -0.026 A  
HETATM   20  F   UNL     1      -5.194   8.841  68.121  1.00  0.00    -0.032 F  
HETATM   21  C   UNL     1      -5.748  10.058  68.177  1.00  0.00    -0.038 A  
HETATM   22  C   UNL     1      -5.691  10.891  67.069  1.00  0.00    -0.059 A  
HETATM   23  C   UNL     1      -6.268  12.163  67.128  1.00  0.00    -0.143 A  
HETATM   24  C   UNL     1      -6.379  10.473  69.341  1.00  0.00    -0.056 A  
ENDBRANCH   7  18
ENDBRANCH   6   7
ENDBRANCH   5   6
ENDBRANCH   4   5
ENDBRANCH   2   4
TORSDOF 5
ENDMDL
MODEL      158
REMARK 921   NORMALIZED FREE ENERGY PREDICTED BY IDOCK:   -2.53 KCAL/MOL
REMARK 922        TOTAL FREE ENERGY PREDICTED BY IDOCK:   -4.35 KCAL/MOL
REMARK 923 INTER-LIGAND FREE ENERGY PREDICTED BY IDOCK:   -3.74 KCAL/MOL
REMARK 924 INTRA-LIGAND FREE ENERGY PREDICTED BY IDOCK:   -0.61 KCAL/MOL
REMARK 927      BINDING AFFINITY PREDICTED BY RF-SCORE:    0.00 PKD
ROOT
HETATM    1  C   UNL     1      -7.229   8.469  72.874  1.00  0.00    -0.005 C  
HETATM    2  N   UNL     1      -6.952   8.104  71.483  1.00  0.00    -0.056 NA 
HETATM    3  C   UNL     1      -8.174   7.614  70.844  1.00  0.00    -0.108 C  
ENDROOT
BRANCH   2   4
HETATM    4  C   UNL     1      -6.396   9.226  70.710  1.00  0.00    -0.074 C  
BRANCH   4   5
HETATM    5  C   UNL     1      -7.436  10.015  69.905  1.00  0.00    -0.171 C  
BRANCH   5   6
HETATM    6  C   UNL     1      -6.812  10.979  68.879  1.00  0.00    -0.079 C  
BRANCH   6   7
HETATM    7  C   UNL     1      -7.812  11.526  67.825  1.00  0.00    -0.126 C  
HETATM    8  O   UNL     1      -7.244  12.777  67.322  1.00  0.00    -0.145 OA 
HETATM    9  N   UNL     1     -13.277  14.475  70.767  1.00  0.00    -0.328 NA 
HETATM   10  C   UNL     1     -10.301  14.010  68.964  1.00  0.00    -0.136 A  
HETATM   11  C   UNL     1      -8.052  13.909  67.700  1.00  0.00    -0.177 C  
HETATM   12  C   UNL     1      -9.234  13.336  68.384  1.00  0.00    -0.145 A  
HETATM   13  C   UNL     1     -12.392  13.929  70.243  1.00  0.00    -0.345 C  
HETATM   14  C   UNL     1      -9.126  11.951  68.437  1.00  0.00    -0.167 A  
HETATM   15  C   UNL     1     -11.293  13.264  69.608  1.00  0.00    -0.191 A  
HETATM   16  C   UNL     1     -11.197  11.862  69.653  1.00  0.00    -0.184 A  
HETATM   17  C   UNL     1     -10.108  11.200  69.071  1.00  0.00    -0.173 A  
BRANCH   7  18
HETATM   18  C   UNL     1      -7.967  10.547  66.647  1.00  0.00    -0.125 A  
HETATM   19  C   UNL     1      -7.021   9.529  66.408  1.00  0.00    -0.088 A  
HETATM   20  F   UNL     1      -8.398   7.901  63.471  1.00  0.00    -0.140 F  
HETATM   21  C   UNL     1      -8.261   8.750  64.497  1.00  0.00    -0.167 A  
HETATM   22  C   UNL     1      -9.218   9.732  64.706  1.00  0.00    -0.319 A  
HETATM   23  C   UNL     1      -9.075  10.622  65.776  1.00  0.00    -0.208 A  
HETATM   24  C   UNL     1      -7.167   8.636  65.342  1.00  0.00    -0.083 A  
ENDBRANCH   7  18
ENDBRANCH   6   7
ENDBRANCH   5   6
ENDBRANCH   4   5
ENDBRANCH   2   4
TORSDOF 5
ENDMDL
MODEL      159
REMARK 921   NORMALIZED FREE ENERGY PREDICTED BY IDOCK:   -2.45 KCAL/MOL
REMARK 922        TOTAL FREE ENERGY PREDICTED BY IDOCK:   -4.26 KCAL/MOL
REMARK 923 INTER-LIGAND FREE ENERGY PREDICTED BY IDOCK:   -3.60 KCAL/MOL
REMARK 924 INTRA-LIGAND FREE ENERGY PREDICTED BY IDOCK:   -0.66 KCAL/MOL
REMARK 927      BINDING AFFINITY PREDICTED BY RF-SCORE:    0.00 PKD
ROOT
HETATM    1  C   UNL     1      -5.835   2.381  68.647  1.00  0.00    -0.023 C  
HETATM    2  N   UNL     1      -6.459   3.228  67.629  1.00  0.00    -0.036 NA 
HETATM    3  C   UNL     1      -7.137   2.394  66.635  1.00  0.00    -0.052 C  
ENDROOT
BRANCH   2   4
HETATM    4  C   UNL     1      -7.410   4.192  68.206  1.00  0.00    -0.060 C  
BRANCH   4   5
HETATM    5  C   UNL     1      -7.181   5.644  67.770  1.00  0.00    -0.072 C  
BRANCH   5   6
HETATM    6  C   UNL     1      -7.024   6.620  68.951  1.00  0.00    -0.079 C  
BRANCH   6   7
HETATM    7  C   UNL     1      -7.942   7.870  68.874  1.00  0.00    -0.123 C  
HETATM    8  O   UNL     1      -7.435   8.820  69.865  1.00  0.00    -0.050 OA 
HETATM    9  N   UNL     1     -13.950   6.833  72.045  1.00  0.00    -0.088 NA 
HETATM   10  C   UNL     1     -10.757   8.066  71.261  1.00  0.00    -0.265 A  
HETATM   11  C   UNL     1      -8.379   9.015  70.935  1.00  0.00    -0.197 C  
HETATM   12  C   UNL     1      -9.575   8.231  70.551  1.00  0.00    -0.180 A  
HETATM   13  C   UNL     1     -12.965   7.015  71.450  1.00  0.00    -0.340 C  
HETATM   14  C   UNL     1      -9.350   7.585  69.342  1.00  0.00    -0.152 A  
HETATM   15  C   UNL     1     -11.746   7.231  70.730  1.00  0.00    -0.333 A  
HETATM   16  C   UNL     1     -11.530   6.586  69.499  1.00  0.00    -0.384 A  
HETATM   17  C   UNL     1     -10.327   6.757  68.802  1.00  0.00    -0.211 A  
BRANCH   7  18
HETATM   18  C   UNL     1      -7.873   8.524  67.483  1.00  0.00    -0.099 A  
HETATM   19  C   UNL     1      -6.701   9.162  67.028  1.00  0.00    -0.072 A  
HETATM   20  F   UNL     1      -7.690  10.280  63.720  1.00  0.00    -0.144 F  
HETATM   21  C   UNL     1      -7.747   9.710  64.930  1.00  0.00    -0.120 A  
HETATM   22  C   UNL     1      -8.915   9.083  65.339  1.00  0.00    -0.249 A  
HETATM   23  C   UNL     1      -8.977   8.490  66.604  1.00  0.00    -0.178 A  
HETATM   24  C   UNL     1      -6.637   9.750  65.761  1.00  0.00    -0.088 A  
ENDBRANCH   7  18
ENDBRANCH   6   7
ENDBRANCH   5   6
ENDBRANCH   4   5
ENDBRANCH   2   4
TORSDOF 5
ENDMDL
MODEL      160
REMARK 921   NORMALIZED FREE ENERGY PREDICTED BY IDOCK:   -2.28 KCAL/MOL
REMARK 922        TOTAL FREE ENERGY PREDICTED BY IDOCK:   -4.03 KCAL/MOL
REMARK 923 INTER-LIGAND FREE ENERGY PREDICTED BY IDOCK:   -3.43 KCAL/MOL
REMARK 924 INTRA-LIGAND FREE ENERGY PREDICTED BY IDOCK:   -0.61 KCAL/MOL
REMARK 927      BINDING AFFINITY PREDICTED BY RF-SCORE:    0.00 PKD
ROOT
HETATM    1  C   UNL     1      -6.633   5.163  66.162  1.00  0.00    -0.052 C  
HETATM    2  N   UNL     1      -7.589   4.223  66.748  1.00  0.00    -0.084 NA 
HETATM    3  C   UNL     1      -7.320   4.066  68.179  1.00  0.00    -0.059 C  
ENDROOT
BRANCH   2   4
HETATM    4  C   UNL     1      -8.985   4.642  66.544  1.00  0.00    -0.113 C  
BRANCH   4   5
HETATM    5  C   UNL     1      -9.383   5.910  67.309  1.00  0.00    -0.113 C  
BRANCH   5   6
HETATM    6  C   UNL     1     -10.402   5.652  68.434  1.00  0.00    -0.258 C  
BRANCH   6   7
HETATM    7  C   UNL     1     -10.058   6.343  69.780  1.00  0.00    -0.176 C  
HETATM    8  O   UNL     1     -11.268   7.045  70.210  1.00  0.00    -0.275 OA 
HETATM    9  N   UNL     1      -6.343  12.049  68.852  1.00  0.00    -0.074 NA 
HETATM   10  C   UNL     1      -8.982   9.877  69.655  1.00  0.00    -0.232 A  
HETATM   11  C   UNL     1     -11.080   8.473  70.191  1.00  0.00    -0.188 C  
HETATM   12  C   UNL     1      -9.658   8.677  69.832  1.00  0.00    -0.174 A  
HETATM   13  C   UNL     1      -6.920  11.056  69.042  1.00  0.00    -0.097 C  
HETATM   14  C   UNL     1      -9.042   7.450  69.621  1.00  0.00    -0.140 A  
HETATM   15  C   UNL     1      -7.640   9.837  69.262  1.00  0.00    -0.097 A  
HETATM   16  C   UNL     1      -7.006   8.598  69.061  1.00  0.00    -0.064 A  
HETATM   17  C   UNL     1      -7.708   7.398  69.235  1.00  0.00    -0.107 A  
BRANCH   7  18
HETATM   18  C   UNL     1      -9.681   5.308  70.855  1.00  0.00    -0.244 A  
HETATM   19  C   UNL     1      -9.683   3.926  70.577  1.00  0.00    -0.247 A  
HETATM   20  F   UNL     1      -8.652   2.519  73.760  1.00  0.00    -0.067 F  
HETATM   21  C   UNL     1      -8.979   3.417  72.823  1.00  0.00    -0.088 A  
HETATM   22  C   UNL     1      -8.956   4.769  73.131  1.00  0.00    -0.115 A  
HETATM   23  C   UNL     1      -9.299   5.709  72.154  1.00  0.00    -0.160 A  
HETATM   24  C   UNL     1      -9.333   2.987  71.553  1.00  0.00    -0.203 A  
ENDBRANCH   7  18
ENDBRANCH   6   7
ENDBRANCH   5   6
ENDBRANCH   4   5
ENDBRANCH   2   4
TORSDOF 5
ENDMDL
MODEL      161
REMARK 921   NORMALIZED FREE ENERGY PREDICTED BY IDOCK:   -2.23 KCAL/MOL
REMARK 922        TOTAL FREE ENERGY PREDICTED BY IDOCK:   -3.97 KCAL/MOL
REMARK 923 INTER-LIGAND FREE ENERGY PREDICTED BY IDOCK:   -3.26 KCAL/MOL
REMARK 924 INTRA-LIGAND FREE ENERGY PREDICTED BY IDOCK:   -0.71 KCAL/MOL
REMARK 927      BINDING AFFINITY PREDICTED BY RF-SCORE:    0.00 PKD
ROOT
HETATM    1  C   UNL     1     -12.091   8.389  72.288  1.00  0.00    -0.392 C  
HETATM    2  N   UNL     1     -11.135   7.656  71.455  1.00  0.00    -0.234 NA 
HETATM    3  C   UNL     1     -11.169   6.233  71.795  1.00  0.00    -0.284 C  
ENDROOT
BRANCH   2   4
HETATM    4  C   UNL     1     -11.391   7.836  70.018  1.00  0.00    -0.048 C  
BRANCH   4   5
HETATM    5  C   UNL     1     -10.264   8.547  69.259  1.00  0.00    -0.211 C  
BRANCH   5   6
HETATM    6  C   UNL     1     -10.469   8.564  67.733  1.00  0.00    -0.287 C  
BRANCH   6   7
HETATM    7  C   UNL     1      -9.658   7.484  66.967  1.00  0.00    -0.170 C  
HETATM    8  O   UNL     1     -10.624   6.719  66.178  1.00  0.00     0.265 OA 
HETATM    9  N   UNL     1      -7.900   2.233  71.035  1.00  0.00    -0.046 NA 
HETATM   10  C   UNL     1      -9.414   4.129  68.497  1.00  0.00    -0.216 A  
HETATM   11  C   UNL     1     -10.724   5.360  66.645  1.00  0.00    -0.236 C  
HETATM   12  C   UNL     1      -9.702   5.236  67.710  1.00  0.00    -0.170 A  
HETATM   13  C   UNL     1      -8.132   3.136  70.339  1.00  0.00    -0.045 C  
HETATM   14  C   UNL     1      -9.052   6.451  67.887  1.00  0.00    -0.112 A  
HETATM   15  C   UNL     1      -8.434   4.249  69.488  1.00  0.00    -0.094 A  
HETATM   16  C   UNL     1      -7.762   5.472  69.664  1.00  0.00    -0.078 A  
HETATM   17  C   UNL     1      -8.073   6.581  68.866  1.00  0.00    -0.115 A  
BRANCH   7  18
HETATM   18  C   UNL     1      -8.641   8.130  66.009  1.00  0.00    -0.165 A  
HETATM   19  C   UNL     1      -8.224   9.468  66.172  1.00  0.00    -0.115 A  
HETATM   20  F   UNL     1      -5.887   9.866  63.424  1.00  0.00    -0.090 F  
HETATM   21  C   UNL     1      -6.771   9.306  64.259  1.00  0.00    -0.087 A  
HETATM   22  C   UNL     1      -7.149   7.985  64.073  1.00  0.00    -0.083 A  
HETATM   23  C   UNL     1      -8.073   7.399  64.943  1.00  0.00    -0.114 A  
HETATM   24  C   UNL     1      -7.295  10.051  65.305  1.00  0.00    -0.137 A  
ENDBRANCH   7  18
ENDBRANCH   6   7
ENDBRANCH   5   6
ENDBRANCH   4   5
ENDBRANCH   2   4
TORSDOF 5
ENDMDL
MODEL      162
REMARK 921   NORMALIZED FREE ENERGY PREDICTED BY IDOCK:   -2.22 KCAL/MOL
REMARK 922        TOTAL FREE ENERGY PREDICTED BY IDOCK:   -3.96 KCAL/MOL
REMARK 923 INTER-LIGAND FREE ENERGY PREDICTED BY IDOCK:   -3.93 KCAL/MOL
REMARK 924 INTRA-LIGAND FREE ENERGY PREDICTED BY IDOCK:   -0.03 KCAL/MOL
REMARK 927      BINDING AFFINITY PREDICTED BY RF-SCORE:    0.00 PKD
ROOT
HETATM    1  C   UNL     1     -10.621  19.288  65.476  1.00  0.00    -0.113 C  
HETATM    2  N   UNL     1     -10.049  18.790  66.729  1.00  0.00    -0.344 NA 
HETATM    3  C   UNL     1     -11.070  18.794  67.778  1.00  0.00     0.045 C  
ENDROOT
BRANCH   2   4
HETATM    4  C   UNL     1      -9.480  17.440  66.588  1.00  0.00    -0.274 C  
BRANCH   4   5
HETATM    5  C   UNL     1      -8.489  17.054  67.692  1.00  0.00    -0.210 C  
BRANCH   5   6
HETATM    6  C   UNL     1      -7.727  15.748  67.401  1.00  0.00    -0.211 C  
BRANCH   6   7
HETATM    7  C   UNL     1      -8.180  14.537  68.260  1.00  0.00    -0.149 C  
HETATM    8  O   UNL     1      -7.228  14.431  69.366  1.00  0.00    -0.134 OA 
HETATM    9  N   UNL     1      -6.436   8.550  65.374  1.00  0.00    -0.055 NA 
HETATM   10  C   UNL     1      -6.583  11.273  67.585  1.00  0.00    -0.072 A  
HETATM   11  C   UNL     1      -6.448  13.222  69.271  1.00  0.00    -0.107 C  
HETATM   12  C   UNL     1      -7.004  12.486  68.113  1.00  0.00    -0.089 A  
HETATM   13  C   UNL     1      -6.796   9.547  65.855  1.00  0.00    -0.087 C  
HETATM   14  C   UNL     1      -8.032  13.221  67.534  1.00  0.00    -0.186 A  
HETATM   15  C   UNL     1      -7.224  10.781  66.443  1.00  0.00    -0.138 A  
HETATM   16  C   UNL     1      -8.274  11.513  65.860  1.00  0.00     0.169 A  
HETATM   17  C   UNL     1      -8.679  12.740  66.402  1.00  0.00     0.111 A  
BRANCH   7  18
HETATM   18  C   UNL     1      -9.587  14.766  68.842  1.00  0.00    -0.210 A  
HETATM   19  C   UNL     1      -9.815  15.715  69.860  1.00  0.00    -0.199 A  
HETATM   20  F   UNL     1     -13.389  15.387  70.401  1.00  0.00    -0.365 F  
HETATM   21  C   UNL     1     -12.165  15.190  69.896  1.00  0.00    -0.314 A  
HETATM   22  C   UNL     1     -11.981  14.256  68.888  1.00  0.00    -0.356 A  
HETATM   23  C   UNL     1     -10.703  14.048  68.361  1.00  0.00    -0.261 A  
HETATM   24  C   UNL     1     -11.095  15.926  70.382  1.00  0.00    -0.382 A  
ENDBRANCH   7  18
ENDBRANCH   6   7
ENDBRANCH   5   6
ENDBRANCH   4   5
ENDBRANCH   2   4
TORSDOF 5
ENDMDL
MODEL      163
REMARK 921   NORMALIZED FREE ENERGY PREDICTED BY IDOCK:   -1.95 KCAL/MOL
REMARK 922        TOTAL FREE ENERGY PREDICTED BY IDOCK:   -3.60 KCAL/MOL
REMARK 923 INTER-LIGAND FREE ENERGY PREDICTED BY IDOCK:   -5.29 KCAL/MOL
REMARK 924 INTRA-LIGAND FREE ENERGY PREDICTED BY IDOCK:    1.68 KCAL/MOL
REMARK 927      BINDING AFFINITY PREDICTED BY RF-SCORE:    0.00 PKD
ROOT
HETATM    1  C   UNL     1     -10.686  19.696  65.600  1.00  0.00    -0.329 C  
HETATM    2  N   UNL     1     -10.797  18.381  66.233  1.00  0.00    -0.124 NA 
HETATM    3  C   UNL     1     -10.821  17.336  65.208  1.00  0.00     0.004 C  
ENDROOT
BRANCH   2   4
HETATM    4  C   UNL     1      -9.706  18.124  67.186  1.00  0.00    -0.301 C  
BRANCH   4   5
HETATM    5  C   UNL     1      -8.300  18.249  66.587  1.00  0.00    -0.281 C  
BRANCH   5   6
HETATM    6  C   UNL     1      -7.615  16.891  66.342  1.00  0.00    -0.339 C  
BRANCH   6   7
HETATM    7  C   UNL     1      -7.310  16.087  67.635  1.00  0.00    -0.151 C  
HETATM    8  O   UNL     1      -6.305  15.086  67.275  1.00  0.00    -0.312 OA 
HETATM    9  N   UNL     1     -12.247  11.519  69.038  1.00  0.00    -0.387 NA 
HETATM   10  C   UNL     1      -9.155  12.927  68.154  1.00  0.00    -0.207 A  
HETATM   11  C   UNL     1      -6.839  13.751  67.366  1.00  0.00    -0.018 C  
HETATM   12  C   UNL     1      -8.209  13.913  67.905  1.00  0.00    -0.164 A  
HETATM   13  C   UNL     1     -11.426  12.325  68.857  1.00  0.00    -0.304 C  
HETATM   14  C   UNL     1      -8.486  15.261  68.096  1.00  0.00    -0.151 A  
HETATM   15  C   UNL     1     -10.417  13.313  68.618  1.00  0.00    -0.242 A  
HETATM   16  C   UNL     1     -10.700  14.674  68.828  1.00  0.00    -0.252 A  
HETATM   17  C   UNL     1      -9.735  15.655  68.562  1.00  0.00    -0.202 A  
BRANCH   7  18
HETATM   18  C   UNL     1      -6.727  16.999  68.730  1.00  0.00    -0.193 A  
HETATM   19  C   UNL     1      -5.889  16.488  69.742  1.00  0.00    -0.196 A  
HETATM   20  F   UNL     1      -5.148  19.468  71.678  1.00  0.00    -0.257 F  
HETATM   21  C   UNL     1      -5.653  18.673  70.726  1.00  0.00    -0.152 A  
HETATM   22  C   UNL     1      -6.465  19.214  69.740  1.00  0.00    -0.235 A  
HETATM   23  C   UNL     1      -6.995  18.384  68.746  1.00  0.00    -0.291 A  
HETATM   24  C   UNL     1      -5.355  17.318  70.732  1.00  0.00    -0.203 A  
ENDBRANCH   7  18
ENDBRANCH   6   7
ENDBRANCH   5   6
ENDBRANCH   4   5
ENDBRANCH   2   4
TORSDOF 5
ENDMDL
MODEL      164
REMARK 921   NORMALIZED FREE ENERGY PREDICTED BY IDOCK:   -1.81 KCAL/MOL
REMARK 922        TOTAL FREE ENERGY PREDICTED BY IDOCK:   -3.43 KCAL/MOL
REMARK 923 INTER-LIGAND FREE ENERGY PREDICTED BY IDOCK:   -3.33 KCAL/MOL
REMARK 924 INTRA-LIGAND FREE ENERGY PREDICTED BY IDOCK:   -0.10 KCAL/MOL
REMARK 927      BINDING AFFINITY PREDICTED BY RF-SCORE:    0.00 PKD
ROOT
HETATM    1  C   UNL     1     -11.470  10.953  67.569  1.00  0.00    -0.152 C  
HETATM    2  N   UNL     1     -12.212  11.484  68.713  1.00  0.00    -0.443 NA 
HETATM    3  C   UNL     1     -11.692  10.907  69.955  1.00  0.00    -0.339 C  
ENDROOT
BRANCH   2   4
HETATM    4  C   UNL     1     -12.160  12.953  68.782  1.00  0.00    -0.139 C  
BRANCH   4   5
HETATM    5  C   UNL     1     -10.744  13.531  68.890  1.00  0.00    -0.228 C  
BRANCH   5   6
HETATM    6  C   UNL     1      -9.859  13.215  67.670  1.00  0.00    -0.219 C  
BRANCH   6   7
HETATM    7  C   UNL     1      -8.349  13.507  67.882  1.00  0.00    -0.175 C  
HETATM    8  O   UNL     1      -8.104  13.408  69.321  1.00  0.00     0.312 OA 
HETATM    9  N   UNL     1      -6.958  20.224  67.485  1.00  0.00    -0.267 NA 
HETATM   10  C   UNL     1      -7.385  16.971  68.735  1.00  0.00    -0.236 A  
HETATM   11  C   UNL     1      -7.749  14.687  69.881  1.00  0.00     0.248 C  
HETATM   12  C   UNL     1      -7.668  15.612  68.727  1.00  0.00    -0.165 A  
HETATM   13  C   UNL     1      -7.155  19.077  67.497  1.00  0.00    -0.209 C  
HETATM   14  C   UNL     1      -7.982  14.935  67.555  1.00  0.00    -0.198 A  
HETATM   15  C   UNL     1      -7.413  17.667  67.522  1.00  0.00    -0.206 A  
HETATM   16  C   UNL     1      -7.716  16.986  66.330  1.00  0.00    -0.350 A  
HETATM   17  C   UNL     1      -8.008  15.616  66.343  1.00  0.00     0.057 A  
BRANCH   7  18
HETATM   18  C   UNL     1      -7.477  12.464  67.161  1.00  0.00    -0.095 A  
HETATM   19  C   UNL     1      -6.070  12.569  67.141  1.00  0.00    -0.036 A  
HETATM   20  F   UNL     1      -5.126   9.638  65.221  1.00  0.00    -0.036 F  
HETATM   21  C   UNL     1      -5.882  10.546  65.849  1.00  0.00    -0.120 A  
HETATM   22  C   UNL     1      -7.262  10.403  65.856  1.00  0.00    -0.135 A  
HETATM   23  C   UNL     1      -8.054  11.352  66.511  1.00  0.00    -0.141 A  
HETATM   24  C   UNL     1      -5.279  11.617  66.491  1.00  0.00    -0.059 A  
ENDBRANCH   7  18
ENDBRANCH   6   7
ENDBRANCH   5   6
ENDBRANCH   4   5
ENDBRANCH   2   4
TORSDOF 5
ENDMDL
MODEL      165
REMARK 921   NORMALIZED FREE ENERGY PREDICTED BY IDOCK:   -1.61 KCAL/MOL
REMARK 922        TOTAL FREE ENERGY PREDICTED BY IDOCK:   -3.16 KCAL/MOL
REMARK 923 INTER-LIGAND FREE ENERGY PREDICTED BY IDOCK:   -2.68 KCAL/MOL
REMARK 924 INTRA-LIGAND FREE ENERGY PREDICTED BY IDOCK:   -0.48 KCAL/MOL
REMARK 927      BINDING AFFINITY PREDICTED BY RF-SCORE:    0.00 PKD
ROOT
HETATM    1  C   UNL     1      -5.253  16.919  69.392  1.00  0.00    -0.136 C  
HETATM    2  N   UNL     1      -5.986  17.494  68.263  1.00  0.00    -0.160 NA 
HETATM    3  C   UNL     1      -6.066  16.519  67.173  1.00  0.00    -0.161 C  
ENDROOT
BRANCH   2   4
HETATM    4  C   UNL     1      -7.338  17.937  68.639  1.00  0.00    -0.271 C  
BRANCH   4   5
HETATM    5  C   UNL     1      -7.981  17.119  69.765  1.00  0.00     1.043 C  
BRANCH   5   6
HETATM    6  C   UNL     1      -8.604  15.796  69.281  1.00  0.00    -0.259 C  
BRANCH   6   7
HETATM    7  C   UNL     1     -10.138  15.857  69.053  1.00  0.00    -0.228 C  
HETATM    8  O   UNL     1     -10.638  16.959  69.877  1.00  0.00    -0.220 OA 
HETATM    9  N   UNL     1     -13.444  10.942  72.536  1.00  0.00     0.208 NA 
HETATM   10  C   UNL     1     -12.294  14.086  71.477  1.00  0.00    -0.371 A  
HETATM   11  C   UNL     1     -11.485  16.477  70.939  1.00  0.00    -0.021 C  
HETATM   12  C   UNL     1     -11.606  15.018  70.712  1.00  0.00    -0.364 A  
HETATM   13  C   UNL     1     -12.905  11.746  71.889  1.00  0.00    -0.232 C  
HETATM   14  C   UNL     1     -10.856  14.647  69.603  1.00  0.00    -0.211 A  
HETATM   15  C   UNL     1     -12.231  12.738  71.106  1.00  0.00    -0.097 A  
HETATM   16  C   UNL     1     -11.486  12.358  69.976  1.00  0.00    -0.110 A  
HETATM   17  C   UNL     1     -10.790  13.312  69.222  1.00  0.00    -0.071 A  
BRANCH   7  18
HETATM   18  C   UNL     1     -10.468  16.155  67.580  1.00  0.00    -0.302 A  
HETATM   19  C   UNL     1     -10.422  17.468  67.067  1.00  0.00    -0.293 A  
HETATM   20  F   UNL     1     -11.351  16.951  63.597  1.00  0.00     0.452 F  
HETATM   21  C   UNL     1     -11.062  16.695  64.879  1.00  0.00    -0.129 A  
HETATM   22  C   UNL     1     -11.109  15.389  65.344  1.00  0.00    -0.331 A  
HETATM   23  C   UNL     1     -10.810  15.120  66.684  1.00  0.00    -0.318 A  
HETATM   24  C   UNL     1     -10.715  17.736  65.726  1.00  0.00    -0.098 A  
ENDBRANCH   7  18
ENDBRANCH   6   7
ENDBRANCH   5   6
ENDBRANCH   4   5
ENDBRANCH   2   4
TORSDOF 5
ENDMDL
MODEL      166
REMARK 921   NORMALIZED FREE ENERGY PREDICTED BY IDOCK:   -1.56 KCAL/MOL
REMARK 922        TOTAL FREE ENERGY PREDICTED BY IDOCK:   -3.09 KCAL/MOL
REMARK 923 INTER-LIGAND FREE ENERGY PREDICTED BY IDOCK:   -3.19 KCAL/MOL
REMARK 924 INTRA-LIGAND FREE ENERGY PREDICTED BY IDOCK:    0.10 KCAL/MOL
REMARK 927      BINDING AFFINITY PREDICTED BY RF-SCORE:    0.00 PKD
ROOT
HETATM    1  C   UNL     1     -12.501  15.824  67.476  1.00  0.00     1.574 C  
HETATM    2  N   UNL     1     -11.090  16.204  67.389  1.00  0.00    -0.204 NA 
HETATM    3  C   UNL     1     -10.527  16.338  68.734  1.00  0.00    -0.282 C  
ENDROOT
BRANCH   2   4
HETATM    4  C   UNL     1     -10.298  15.242  66.607  1.00  0.00    -0.280 C  
BRANCH   4   5
HETATM    5  C   UNL     1     -11.058  13.969  66.213  1.00  0.00    -0.307 C  
BRANCH   5   6
HETATM    6  C   UNL     1     -11.008  12.869  67.289  1.00  0.00    -0.289 C  
BRANCH   6   7
HETATM    7  C   UNL     1      -9.736  11.981  67.238  1.00  0.00    -0.185 C  
HETATM    8  O   UNL     1      -9.551  11.598  65.837  1.00  0.00    -0.220 OA 
HETATM    9  N   UNL     1     -10.976   5.596  69.455  1.00  0.00    -0.294 NA 
HETATM   10  C   UNL     1     -10.207   8.317  67.374  1.00  0.00    -0.326 A  
HETATM   11  C   UNL     1      -9.739  10.182  65.652  1.00  0.00    -0.259 C  
HETATM   12  C   UNL     1      -9.951   9.633  67.011  1.00  0.00    -0.263 A  
HETATM   13  C   UNL     1     -10.724   6.686  69.132  1.00  0.00    -0.264 C  
HETATM   14  C   UNL     1      -9.921  10.660  67.946  1.00  0.00    -0.189 A  
HETATM   15  C   UNL     1     -10.429   8.027  68.725  1.00  0.00    -0.196 A  
HETATM   16  C   UNL     1     -10.385   9.059  69.679  1.00  0.00    -0.217 A  
HETATM   17  C   UNL     1     -10.136  10.382  69.291  1.00  0.00    -0.248 A  
BRANCH   7  18
HETATM   18  C   UNL     1      -8.495  12.763  67.703  1.00  0.00    -0.178 A  
HETATM   19  C   UNL     1      -7.216  12.496  67.171  1.00  0.00    -0.061 A  
HETATM   20  F   UNL     1      -5.149  14.887  68.955  1.00  0.00    -0.089 F  
HETATM   21  C   UNL     1      -6.227  14.206  68.548  1.00  0.00    -0.093 A  
HETATM   22  C   UNL     1      -7.470  14.504  69.086  1.00  0.00    -0.118 A  
HETATM   23  C   UNL     1      -8.597  13.791  68.664  1.00  0.00    -0.057 A  
HETATM   24  C   UNL     1      -6.090  13.213  67.589  1.00  0.00    -0.149 A  
ENDBRANCH   7  18
ENDBRANCH   6   7
ENDBRANCH   5   6
ENDBRANCH   4   5
ENDBRANCH   2   4
TORSDOF 5
ENDMDL
MODEL      167
REMARK 921   NORMALIZED FREE ENERGY PREDICTED BY IDOCK:   -0.48 KCAL/MOL
REMARK 922        TOTAL FREE ENERGY PREDICTED BY IDOCK:   -1.70 KCAL/MOL
REMARK 923 INTER-LIGAND FREE ENERGY PREDICTED BY IDOCK:   -1.62 KCAL/MOL
REMARK 924 INTRA-LIGAND FREE ENERGY PREDICTED BY IDOCK:   -0.08 KCAL/MOL
REMARK 927      BINDING AFFINITY PREDICTED BY RF-SCORE:    0.00 PKD
ROOT
HETATM    1  C   UNL     1     -10.888   9.272  66.063  1.00  0.00     1.055 C  
HETATM    2  N   UNL     1     -10.051   9.876  67.102  1.00  0.00    -0.203 NA 
HETATM    3  C   UNL     1     -10.416  11.282  67.279  1.00  0.00    -0.214 C  
ENDROOT
BRANCH   2   4
HETATM    4  C   UNL     1     -10.152   9.165  68.386  1.00  0.00    -0.196 C  
BRANCH   4   5
HETATM    5  C   UNL     1     -10.786   7.771  68.289  1.00  0.00    -0.093 C  
BRANCH   5   6
HETATM    6  C   UNL     1     -10.125   6.733  69.214  1.00  0.00    -0.179 C  
BRANCH   6   7
HETATM    7  C   UNL     1      -8.720   6.264  68.749  1.00  0.00    -0.121 C  
HETATM    8  O   UNL     1      -8.186   7.329  67.900  1.00  0.00    -0.118 OA 
HETATM    9  N   UNL     1      -9.112   1.607  63.712  1.00  0.00    -0.091 NA 
HETATM   10  C   UNL     1      -8.484   4.583  65.466  1.00  0.00    -0.121 A  
HETATM   11  C   UNL     1      -8.052   6.893  66.533  1.00  0.00    -0.111 C  
HETATM   12  C   UNL     1      -8.423   5.459  66.542  1.00  0.00    -0.113 A  
HETATM   13  C   UNL     1      -9.017   2.349  64.604  1.00  0.00    -0.120 C  
HETATM   14  C   UNL     1      -8.782   5.070  67.826  1.00  0.00    -0.103 A  
HETATM   15  C   UNL     1      -8.914   3.271  65.695  1.00  0.00    -0.144 A  
HETATM   16  C   UNL     1      -9.266   2.867  66.995  1.00  0.00    -0.176 A  
HETATM   17  C   UNL     1      -9.206   3.768  68.066  1.00  0.00    -0.216 A  
BRANCH   7  18
HETATM   18  C   UNL     1      -7.775   6.069  69.948  1.00  0.00    -0.092 A  
HETATM   19  C   UNL     1      -7.041   4.878  70.120  1.00  0.00    -0.050 A  
HETATM   20  F   UNL     1      -5.217   5.555  73.184  1.00  0.00    -0.015 F  
HETATM   21  C   UNL     1      -6.038   5.722  72.139  1.00  0.00    -0.040 A  
HETATM   22  C   UNL     1      -6.735   6.912  71.999  1.00  0.00    -0.058 A  
HETATM   23  C   UNL     1      -7.594   7.087  70.909  1.00  0.00    -0.086 A  
HETATM   24  C   UNL     1      -6.178   4.705  71.206  1.00  0.00    -0.018 A  
ENDBRANCH   7  18
ENDBRANCH   6   7
ENDBRANCH   5   6
ENDBRANCH   4   5
ENDBRANCH   2   4
TORSDOF 5
ENDMDL
MODEL      168
REMARK 921   NORMALIZED FREE ENERGY PREDICTED BY IDOCK:    0.15 KCAL/MOL
REMARK 922        TOTAL FREE ENERGY PREDICTED BY IDOCK:   -0.89 KCAL/MOL
REMARK 923 INTER-LIGAND FREE ENERGY PREDICTED BY IDOCK:   -0.43 KCAL/MOL
REMARK 924 INTRA-LIGAND FREE ENERGY PREDICTED BY IDOCK:   -0.46 KCAL/MOL
REMARK 927      BINDING AFFINITY PREDICTED BY RF-SCORE:    0.00 PKD
ROOT
HETATM    1  C   UNL     1      -5.893  14.647  70.914  1.00  0.00    -0.138 C  
HETATM    2  N   UNL     1      -6.555  15.592  70.014  1.00  0.00    -0.112 NA 
HETATM    3  C   UNL     1      -5.556  16.433  69.351  1.00  0.00    -0.139 C  
ENDROOT
BRANCH   2   4
HETATM    4  C   UNL     1      -7.390  14.918  69.008  1.00  0.00    -0.143 C  
BRANCH   4   5
HETATM    5  C   UNL     1      -7.346  15.560  67.616  1.00  0.00    -0.197 C  
BRANCH   5   6
HETATM    6  C   UNL     1      -8.246  14.852  66.586  1.00  0.00     0.037 C  
BRANCH   6   7
HETATM    7  C   UNL     1      -9.516  15.652  66.191  1.00  0.00    -0.341 C  
HETATM    8  O   UNL     1      -9.155  16.458  65.025  1.00  0.00     0.638 OA 
HETATM    9  N   UNL     1     -10.561  21.022  70.348  1.00  0.00     1.662 NA 
HETATM   10  C   UNL     1      -9.845  19.090  67.505  1.00  0.00    -0.386 A  
HETATM   11  C   UNL     1      -9.175  17.865  65.334  1.00  0.00     1.363 C  
HETATM   12  C   UNL     1      -9.670  17.953  66.728  1.00  0.00    -0.314 A  
HETATM   13  C   UNL     1     -10.442  20.086  69.666  1.00  0.00     0.400 C  
HETATM   14  C   UNL     1      -9.903  16.678  67.228  1.00  0.00    -0.255 A  
HETATM   15  C   UNL     1     -10.278  18.937  68.826  1.00  0.00    -0.325 A  
HETATM   16  C   UNL     1     -10.530  17.650  69.336  1.00  0.00     0.078 A  
HETATM   17  C   UNL     1     -10.338  16.514  68.539  1.00  0.00    -0.289 A  
BRANCH   7  18
HETATM   18  C   UNL     1     -10.666  14.707  65.798  1.00  0.00    -0.321 A  
HETATM   19  C   UNL     1     -11.357  13.948  66.766  1.00  0.00    -0.347 A  
HETATM   20  F   UNL     1     -13.777  12.164  64.733  1.00  0.00     0.169 F  
HETATM   21  C   UNL     1     -12.778  12.986  65.077  1.00  0.00    -0.410 A  
HETATM   22  C   UNL     1     -12.129  13.724  64.098  1.00  0.00    -0.478 A  
HETATM   23  C   UNL     1     -11.084  14.582  64.456  1.00  0.00    -0.280 A  
HETATM   24  C   UNL     1     -12.406  13.095  66.408  1.00  0.00    -0.300 A  
ENDBRANCH   7  18
ENDBRANCH   6   7
ENDBRANCH   5   6
ENDBRANCH   4   5
ENDBRANCH   2   4
TORSDOF 5
ENDMDL
MODEL      169
REMARK 921   NORMALIZED FREE ENERGY PREDICTED BY IDOCK:    1.07 KCAL/MOL
REMARK 922        TOTAL FREE ENERGY PREDICTED BY IDOCK:    0.29 KCAL/MOL
REMARK 923 INTER-LIGAND FREE ENERGY PREDICTED BY IDOCK:   -0.10 KCAL/MOL
REMARK 924 INTRA-LIGAND FREE ENERGY PREDICTED BY IDOCK:    0.39 KCAL/MOL
REMARK 927      BINDING AFFINITY PREDICTED BY RF-SCORE:    0.00 PKD
ROOT
HETATM    1  C   UNL     1     -11.870  16.916  66.388  1.00  0.00     2.130 C  
HETATM    2  N   UNL     1     -11.510  17.444  65.071  1.00  0.00     0.019 NA 
HETATM    3  C   UNL     1     -10.362  18.345  65.193  1.00  0.00     1.093 C  
ENDROOT
BRANCH   2   4
HETATM    4  C   UNL     1     -11.211  16.379  64.102  1.00  0.00     0.394 C  
BRANCH   4   5
HETATM    5  C   UNL     1     -10.964  15.002  64.732  1.00  0.00    -0.389 C  
BRANCH   5   6
HETATM    6  C   UNL     1      -9.558  14.852  65.343  1.00  0.00    -0.085 C  
BRANCH   6   7
HETATM    7  C   UNL     1      -9.525  14.082  66.690  1.00  0.00    -0.287 C  
HETATM    8  O   UNL     1     -10.735  14.467  67.419  1.00  0.00    -0.274 OA 
HETATM    9  N   UNL     1      -5.174  16.945  71.171  1.00  0.00    -0.226 NA 
HETATM   10  C   UNL     1      -8.125  15.840  69.625  1.00  0.00    -0.022 A  
HETATM   11  C   UNL     1     -10.414  15.220  68.605  1.00  0.00    -0.235 C  
HETATM   12  C   UNL     1      -8.935  15.223  68.680  1.00  0.00    -0.193 A  
HETATM   13  C   UNL     1      -5.872  16.406  70.412  1.00  0.00    -0.049 C  
HETATM   14  C   UNL     1      -8.404  14.539  67.593  1.00  0.00    -0.188 A  
HETATM   15  C   UNL     1      -6.737  15.756  69.473  1.00  0.00    -0.187 A  
HETATM   16  C   UNL     1      -6.193  15.054  68.383  1.00  0.00    -0.106 A  
HETATM   17  C   UNL     1      -7.026  14.446  67.435  1.00  0.00    -0.091 A  
BRANCH   7  18
HETATM   18  C   UNL     1      -9.552  12.560  66.460  1.00  0.00    -0.242 A  
HETATM   19  C   UNL     1      -8.390  11.774  66.605  1.00  0.00    -0.136 A  
HETATM   20  F   UNL     1      -9.634   8.450  65.847  1.00  0.00    -0.273 F  
HETATM   21  C   UNL     1      -9.608   9.773  66.049  1.00  0.00    -0.235 A  
HETATM   22  C   UNL     1     -10.773  10.511  65.907  1.00  0.00    -0.061 A  
HETATM   23  C   UNL     1     -10.748  11.894  66.115  1.00  0.00    -0.318 A  
HETATM   24  C   UNL     1      -8.418  10.391  66.402  1.00  0.00    -0.138 A  
ENDBRANCH   7  18
ENDBRANCH   6   7
ENDBRANCH   5   6
ENDBRANCH   4   5
ENDBRANCH   2   4
TORSDOF 5
ENDMDL
MODEL      170
REMARK 921   NORMALIZED FREE ENERGY PREDICTED BY IDOCK:    6.08 KCAL/MOL
REMARK 922        TOTAL FREE ENERGY PREDICTED BY IDOCK:    6.78 KCAL/MOL
REMARK 923 INTER-LIGAND FREE ENERGY PREDICTED BY IDOCK:    4.94 KCAL/MOL
REMARK 924 INTRA-LIGAND FREE ENERGY PREDICTED BY IDOCK:    1.83 KCAL/MOL
REMARK 927      BINDING AFFINITY PREDICTED BY RF-SCORE:    0.00 PKD
ROOT
HETATM    1  C   UNL     1      -7.037  15.826  71.457  1.00  0.00     3.446 C  
HETATM    2  N   UNL     1      -7.211  16.292  70.080  1.00  0.00     0.586 NA 
HETATM    3  C   UNL     1      -8.552  16.855  69.912  1.00  0.00     1.387 C  
ENDROOT
BRANCH   2   4
HETATM    4  C   UNL     1      -6.197  17.284  69.692  1.00  0.00    -0.232 C  
BRANCH   4   5
HETATM    5  C   UNL     1      -6.616  18.195  68.532  1.00  0.00    -0.218 C  
BRANCH   5   6
HETATM    6  C   UNL     1      -8.129  18.167  68.246  1.00  0.00    -0.306 C  
BRANCH   6   7
HETATM    7  C   UNL     1      -8.498  17.763  66.794  1.00  0.00    -0.248 C  
HETATM    8  O   UNL     1      -9.908  18.112  66.611  1.00  0.00    -0.316 OA 
HETATM    9  N   UNL     1      -9.464  10.986  66.188  1.00  0.00    -0.196 NA 
HETATM   10  C   UNL     1     -10.051  14.446  66.290  1.00  0.00    -0.308 A  
HETATM   11  C   UNL     1     -10.721  16.935  66.438  1.00  0.00    -0.085 C  
HETATM   12  C   UNL     1      -9.768  15.801  66.409  1.00  0.00    -0.305 A  
HETATM   13  C   UNL     1      -9.248  12.129  66.249  1.00  0.00    -0.183 C  
HETATM   14  C   UNL     1      -8.471  16.268  66.583  1.00  0.00    -0.306 A  
HETATM   15  C   UNL     1      -8.990  13.535  66.339  1.00  0.00     0.011 A  
HETATM   16  C   UNL     1      -7.674  14.001  66.500  1.00  0.00     1.236 A  
HETATM   17  C   UNL     1      -7.410  15.371  66.628  1.00  0.00     0.450 A  
BRANCH   7  18
HETATM   18  C   UNL     1      -7.659  18.547  65.769  1.00  0.00    -0.074 A  
HETATM   19  C   UNL     1      -6.502  17.990  65.186  1.00  0.00     0.238 A  
HETATM   20  F   UNL     1      -5.404  20.667  62.996  1.00  0.00    -0.187 F  
HETATM   21  C   UNL     1      -6.133  19.982  63.886  1.00  0.00    -0.178 A  
HETATM   22  C   UNL     1      -7.271  20.559  64.430  1.00  0.00     0.523 A  
HETATM   23  C   UNL     1      -8.031  19.846  65.361  1.00  0.00     0.276 A  
HETATM   24  C   UNL     1      -5.745  18.702  64.251  1.00  0.00    -0.068 A  
ENDBRANCH   7  18
ENDBRANCH   6   7
ENDBRANCH   5   6
ENDBRANCH   4   5
ENDBRANCH   2   4
TORSDOF 5
ENDMDL
MODEL      171
REMARK 921   NORMALIZED FREE ENERGY PREDICTED BY IDOCK:    7.33 KCAL/MOL
REMARK 922        TOTAL FREE ENERGY PREDICTED BY IDOCK:    8.38 KCAL/MOL
REMARK 923 INTER-LIGAND FREE ENERGY PREDICTED BY IDOCK:    6.45 KCAL/MOL
REMARK 924 INTRA-LIGAND FREE ENERGY PREDICTED BY IDOCK:    1.93 KCAL/MOL
REMARK 927      BINDING AFFINITY PREDICTED BY RF-SCORE:    0.00 PKD
ROOT
HETATM    1  C   UNL     1     -11.443   8.860  65.633  1.00  0.00     5.856 C  
HETATM    2  N   UNL     1     -10.947   9.373  66.911  1.00  0.00     0.025 NA 
HETATM    3  C   UNL     1     -11.465  10.723  67.140  1.00  0.00     0.131 C  
ENDROOT
BRANCH   2   4
HETATM    4  C   UNL     1     -11.303   8.501  68.042  1.00  0.00     0.943 C  
BRANCH   4   5
HETATM    5  C   UNL     1     -11.902   7.149  67.633  1.00  0.00     1.741 C  
BRANCH   5   6
HETATM    6  C   UNL     1     -10.882   5.995  67.658  1.00  0.00    -0.386 C  
BRANCH   6   7
HETATM    7  C   UNL     1      -9.399   6.453  67.705  1.00  0.00    -0.117 C  
HETATM    8  O   UNL     1      -9.241   7.459  66.654  1.00  0.00    -0.145 OA 
HETATM    9  N   UNL     1      -5.206   1.858  64.786  1.00  0.00    -0.004 NA 
HETATM   10  C   UNL     1      -7.029   4.794  65.404  1.00  0.00    -0.062 A  
HETATM   11  C   UNL     1      -8.370   6.991  65.606  1.00  0.00    -0.136 C  
HETATM   12  C   UNL     1      -7.878   5.672  66.067  1.00  0.00    -0.100 A  
HETATM   13  C   UNL     1      -5.886   2.625  65.339  1.00  0.00    -0.018 C  
HETATM   14  C   UNL     1      -8.441   5.359  67.298  1.00  0.00    -0.106 A  
HETATM   15  C   UNL     1      -6.734   3.567  66.007  1.00  0.00    -0.041 A  
HETATM   16  C   UNL     1      -7.289   3.250  67.259  1.00  0.00    -0.059 A  
HETATM   17  C   UNL     1      -8.150   4.145  67.908  1.00  0.00    -0.090 A  
BRANCH   7  18
HETATM   18  C   UNL     1      -9.061   7.099  69.060  1.00  0.00    -0.132 A  
HETATM   19  C   UNL     1      -9.591   6.596  70.266  1.00  0.00    -0.169 A  
HETATM   20  F   UNL     1      -8.134   8.842  72.718  1.00  0.00    -0.169 F  
HETATM   21  C   UNL     1      -8.429   8.277  71.540  1.00  0.00    -0.140 A  
HETATM   22  C   UNL     1      -7.881   8.794  70.376  1.00  0.00    -0.098 A  
HETATM   23  C   UNL     1      -8.190   8.207  69.145  1.00  0.00    -0.123 A  
HETATM   24  C   UNL     1      -9.276   7.180  71.498  1.00  0.00    -0.148 A  
ENDBRANCH   7  18
ENDBRANCH   6   7
ENDBRANCH   5   6
ENDBRANCH   4   5
ENDBRANCH   2   4
TORSDOF 5
ENDMDL
MODEL      172
REMARK 921   NORMALIZED FREE ENERGY PREDICTED BY IDOCK:    8.96 KCAL/MOL
REMARK 922        TOTAL FREE ENERGY PREDICTED BY IDOCK:   10.50 KCAL/MOL
REMARK 923 INTER-LIGAND FREE ENERGY PREDICTED BY IDOCK:   10.74 KCAL/MOL
REMARK 924 INTRA-LIGAND FREE ENERGY PREDICTED BY IDOCK:   -0.25 KCAL/MOL
REMARK 927      BINDING AFFINITY PREDICTED BY RF-SCORE:    0.00 PKD
ROOT
HETATM    1  C   UNL     1     -11.520   9.502  73.991  1.00  0.00    10.350 C  
HETATM    2  N   UNL     1     -10.600   8.480  73.488  1.00  0.00     1.138 NA 
HETATM    3  C   UNL     1     -10.799   7.227  74.218  1.00  0.00     1.455 C  
ENDROOT
BRANCH   2   4
HETATM    4  C   UNL     1     -10.755   8.249  72.043  1.00  0.00    -0.297 C  
BRANCH   4   5
HETATM    5  C   UNL     1      -9.748   9.007  71.169  1.00  0.00    -0.369 C  
BRANCH   5   6
HETATM    6  C   UNL     1     -10.335   9.475  69.824  1.00  0.00    -0.251 C  
BRANCH   6   7
HETATM    7  C   UNL     1      -9.835   8.671  68.594  1.00  0.00    -0.169 C  
HETATM    8  O   UNL     1     -11.023   8.327  67.811  1.00  0.00    -0.057 OA 
HETATM    9  N   UNL     1      -8.285   2.180  70.234  1.00  0.00    -0.041 NA 
HETATM   10  C   UNL     1      -9.874   4.983  68.838  1.00  0.00    -0.245 A  
HETATM   11  C   UNL     1     -11.256   6.905  67.810  1.00  0.00    -0.044 C  
HETATM   12  C   UNL     1     -10.108   6.318  68.539  1.00  0.00    -0.182 A  
HETATM   13  C   UNL     1      -8.483   3.289  69.941  1.00  0.00    -0.053 C  
HETATM   14  C   UNL     1      -9.258   7.328  68.974  1.00  0.00    -0.139 A  
HETATM   15  C   UNL     1      -8.741   4.654  69.590  1.00  0.00    -0.111 A  
HETATM   16  C   UNL     1      -7.868   5.669  70.020  1.00  0.00    -0.090 A  
HETATM   17  C   UNL     1      -8.127   7.012  69.718  1.00  0.00    -0.126 A  
BRANCH   7  18
HETATM   18  C   UNL     1      -8.898   9.521  67.719  1.00  0.00    -0.119 A  
HETATM   19  C   UNL     1      -9.389  10.277  66.635  1.00  0.00    -0.192 A  
HETATM   20  F   UNL     1      -6.361  11.825  65.366  1.00  0.00     0.660 F  
HETATM   21  C   UNL     1      -7.179  11.087  66.126  1.00  0.00    -0.054 A  
HETATM   22  C   UNL     1      -6.661  10.365  67.191  1.00  0.00    -0.073 A  
HETATM   23  C   UNL     1      -7.513   9.591  67.985  1.00  0.00    -0.083 A  
HETATM   24  C   UNL     1      -8.537  11.055  65.845  1.00  0.00    -0.165 A  
ENDBRANCH   7  18
ENDBRANCH   6   7
ENDBRANCH   5   6
ENDBRANCH   4   5
ENDBRANCH   2   4
TORSDOF 5
ENDMDL
MODEL      173
REMARK 921   NORMALIZED FREE ENERGY PREDICTED BY IDOCK:    9.17 KCAL/MOL
REMARK 922        TOTAL FREE ENERGY PREDICTED BY IDOCK:   10.76 KCAL/MOL
REMARK 923 INTER-LIGAND FREE ENERGY PREDICTED BY IDOCK:   10.85 KCAL/MOL
REMARK 924 INTRA-LIGAND FREE ENERGY PREDICTED BY IDOCK:   -0.09 KCAL/MOL
REMARK 927      BINDING AFFINITY PREDICTED BY RF-SCORE:    0.00 PKD
ROOT
HETATM    1  C   UNL     1      -7.513  13.461  72.599  1.00  0.00     8.760 C  
HETATM    2  N   UNL     1      -7.202  13.414  71.169  1.00  0.00     2.573 NA 
HETATM    3  C   UNL     1      -7.863  14.522  70.478  1.00  0.00     1.480 C  
ENDROOT
BRANCH   2   4
HETATM    4  C   UNL     1      -5.754  13.453  70.909  1.00  0.00    -0.180 C  
BRANCH   4   5
HETATM    5  C   UNL     1      -5.128  12.085  70.609  1.00  0.00    -0.119 C  
BRANCH   5   6
HETATM    6  C   UNL     1      -6.166  10.958  70.455  1.00  0.00    -0.072 C  
BRANCH   6   7
HETATM    7  C   UNL     1      -6.719  10.789  69.015  1.00  0.00    -0.070 C  
HETATM    8  O   UNL     1      -5.866  11.599  68.144  1.00  0.00    -0.046 OA 
HETATM    9  N   UNL     1     -12.381  14.545  67.988  1.00  0.00    -0.076 NA 
HETATM   10  C   UNL     1      -9.086  13.348  67.787  1.00  0.00    -0.202 A  
HETATM   11  C   UNL     1      -6.594  12.707  67.581  1.00  0.00    -0.143 C  
HETATM   12  C   UNL     1      -7.993  12.529  68.035  1.00  0.00    -0.153 A  
HETATM   13  C   UNL     1     -11.459  13.853  68.152  1.00  0.00    -0.312 C  
HETATM   14  C   UNL     1      -8.088  11.403  68.843  1.00  0.00    -0.067 A  
HETATM   15  C   UNL     1     -10.316  13.015  68.364  1.00  0.00    -0.257 A  
HETATM   16  C   UNL     1     -10.424  11.868  69.170  1.00  0.00    -0.035 A  
HETATM   17  C   UNL     1      -9.307  11.059  69.417  1.00  0.00     0.160 A  
BRANCH   7  18
HETATM   18  C   UNL     1      -6.637   9.322  68.557  1.00  0.00    -0.054 A  
HETATM   19  C   UNL     1      -7.001   8.263  69.416  1.00  0.00    -0.050 A  
HETATM   20  F   UNL     1      -6.424   5.362  67.313  1.00  0.00    -0.043 F  
HETATM   21  C   UNL     1      -6.497   6.637  67.713  1.00  0.00    -0.053 A  
HETATM   22  C   UNL     1      -6.141   7.652  66.837  1.00  0.00    -0.048 A  
HETATM   23  C   UNL     1      -6.214   8.985  67.254  1.00  0.00    -0.059 A  
HETATM   24  C   UNL     1      -6.932   6.931  68.996  1.00  0.00    -0.082 A  
ENDBRANCH   7  18
ENDBRANCH   6   7
ENDBRANCH   5   6
ENDBRANCH   4   5
ENDBRANCH   2   4
TORSDOF 5
ENDMDL
MODEL      174
REMARK 921   NORMALIZED FREE ENERGY PREDICTED BY IDOCK:    9.32 KCAL/MOL
REMARK 922        TOTAL FREE ENERGY PREDICTED BY IDOCK:   10.96 KCAL/MOL
REMARK 923 INTER-LIGAND FREE ENERGY PREDICTED BY IDOCK:   10.19 KCAL/MOL
REMARK 924 INTRA-LIGAND FREE ENERGY PREDICTED BY IDOCK:    0.77 KCAL/MOL
REMARK 927      BINDING AFFINITY PREDICTED BY RF-SCORE:    0.00 PKD
ROOT
HETATM    1  C   UNL     1     -12.581  20.506  66.454  1.00  0.00     5.533 C  
HETATM    2  N   UNL     1     -12.269  19.102  66.726  1.00  0.00     3.051 NA 
HETATM    3  C   UNL     1     -11.423  18.564  65.658  1.00  0.00     1.830 C  
ENDROOT
BRANCH   2   4
HETATM    4  C   UNL     1     -11.611  18.915  68.028  1.00  0.00     1.539 C  
BRANCH   4   5
HETATM    5  C   UNL     1     -10.141  18.488  67.939  1.00  0.00    -0.398 C  
BRANCH   5   6
HETATM    6  C   UNL     1      -9.954  17.018  67.522  1.00  0.00    -0.274 C  
BRANCH   6   7
HETATM    7  C   UNL     1      -8.496  16.639  67.145  1.00  0.00    -0.189 C  
HETATM    8  O   UNL     1      -8.564  15.958  65.852  1.00  0.00    -0.237 OA 
HETATM    9  N   UNL     1      -6.298  11.135  70.621  1.00  0.00    -0.312 NA 
HETATM   10  C   UNL     1      -7.340  13.237  68.010  1.00  0.00    -0.127 A  
HETATM   11  C   UNL     1      -8.188  14.572  65.970  1.00  0.00     1.602 C  
HETATM   12  C   UNL     1      -7.767  14.398  67.379  1.00  0.00    -0.207 A  
HETATM   13  C   UNL     1      -6.623  12.104  70.064  1.00  0.00     0.165 C  
HETATM   14  C   UNL     1      -7.910  15.597  68.067  1.00  0.00    -0.135 A  
HETATM   15  C   UNL     1      -7.039  13.289  69.375  1.00  0.00     0.152 A  
HETATM   16  C   UNL     1      -7.168  14.502  70.074  1.00  0.00     0.124 A  
HETATM   17  C   UNL     1      -7.610  15.661  69.423  1.00  0.00    -0.221 A  
BRANCH   7  18
HETATM   18  C   UNL     1      -7.619  17.895  66.995  1.00  0.00    -0.224 A  
HETATM   19  C   UNL     1      -7.517  18.848  68.030  1.00  0.00    -0.277 A  
HETATM   20  F   UNL     1      -5.240  21.279  66.587  1.00  0.00    -0.202 F  
HETATM   21  C   UNL     1      -6.003  20.187  66.721  1.00  0.00    -0.174 A  
HETATM   22  C   UNL     1      -6.070  19.266  65.685  1.00  0.00    -0.233 A  
HETATM   23  C   UNL     1      -6.868  18.126  65.823  1.00  0.00    -0.305 A  
HETATM   24  C   UNL     1      -6.714  19.985  67.894  1.00  0.00    -0.295 A  
ENDBRANCH   7  18
ENDBRANCH   6   7
ENDBRANCH   5   6
ENDBRANCH   4   5
ENDBRANCH   2   4
TORSDOF 5
ENDMDL
MODEL      175
REMARK 921   NORMALIZED FREE ENERGY PREDICTED BY IDOCK:   10.53 KCAL/MOL
REMARK 922        TOTAL FREE ENERGY PREDICTED BY IDOCK:   12.52 KCAL/MOL
REMARK 923 INTER-LIGAND FREE ENERGY PREDICTED BY IDOCK:    9.99 KCAL/MOL
REMARK 924 INTRA-LIGAND FREE ENERGY PREDICTED BY IDOCK:    2.54 KCAL/MOL
REMARK 927      BINDING AFFINITY PREDICTED BY RF-SCORE:    0.00 PKD
ROOT
HETATM    1  C   UNL     1     -12.973  15.093  67.420  1.00  0.00     2.526 C  
HETATM    2  N   UNL     1     -11.649  15.431  66.895  1.00  0.00    -0.081 NA 
HETATM    3  C   UNL     1     -10.701  15.588  67.999  1.00  0.00    -0.283 C  
ENDROOT
BRANCH   2   4
HETATM    4  C   UNL     1     -11.150  14.425  65.944  1.00  0.00    -0.319 C  
BRANCH   4   5
HETATM    5  C   UNL     1     -12.000  13.151  65.867  1.00  0.00    -0.479 C  
BRANCH   5   6
HETATM    6  C   UNL     1     -12.076  12.384  67.200  1.00  0.00    -0.072 C  
BRANCH   6   7
HETATM    7  C   UNL     1     -10.778  11.619  67.573  1.00  0.00    -0.215 C  
HETATM    8  O   UNL     1     -10.751  10.415  66.742  1.00  0.00    -0.231 OA 
HETATM    9  N   UNL     1     -11.417   8.239  73.522  1.00  0.00     0.659 NA 
HETATM   10  C   UNL     1     -11.047   8.935  70.100  1.00  0.00    -0.217 A  
HETATM   11  C   UNL     1     -10.891   9.224  67.540  1.00  0.00    -0.112 C  
HETATM   12  C   UNL     1     -10.904   9.692  68.945  1.00  0.00    -0.201 A  
HETATM   13  C   UNL     1     -11.261   8.849  72.543  1.00  0.00     0.096 C  
HETATM   14  C   UNL     1     -10.808  11.078  68.983  1.00  0.00    -0.274 A  
HETATM   15  C   UNL     1     -11.085   9.596  71.333  1.00  0.00    -0.397 A  
HETATM   16  C   UNL     1     -10.974  10.997  71.380  1.00  0.00     2.462 A  
HETATM   17  C   UNL     1     -10.839  11.745  70.202  1.00  0.00     0.727 A  
BRANCH   7  18
HETATM   18  C   UNL     1      -9.529  12.462  67.261  1.00  0.00    -0.191 A  
HETATM   19  C   UNL     1      -8.977  13.341  68.216  1.00  0.00    -0.176 A  
HETATM   20  F   UNL     1      -6.148  14.727  66.414  1.00  0.00     1.641 F  
HETATM   21  C   UNL     1      -7.234  13.994  66.689  1.00  0.00     1.617 A  
HETATM   22  C   UNL     1      -7.742  13.132  65.727  1.00  0.00     3.464 A  
HETATM   23  C   UNL     1      -8.878  12.368  66.012  1.00  0.00     0.201 A  
HETATM   24  C   UNL     1      -7.838  14.100  67.933  1.00  0.00    -0.157 A  
ENDBRANCH   7  18
ENDBRANCH   6   7
ENDBRANCH   5   6
ENDBRANCH   4   5
ENDBRANCH   2   4
TORSDOF 5
ENDMDL
MODEL      176
REMARK 921   NORMALIZED FREE ENERGY PREDICTED BY IDOCK:   12.45 KCAL/MOL
REMARK 922        TOTAL FREE ENERGY PREDICTED BY IDOCK:   15.00 KCAL/MOL
REMARK 923 INTER-LIGAND FREE ENERGY PREDICTED BY IDOCK:   -1.30 KCAL/MOL
REMARK 924 INTRA-LIGAND FREE ENERGY PREDICTED BY IDOCK:   16.30 KCAL/MOL
REMARK 927      BINDING AFFINITY PREDICTED BY RF-SCORE:    0.00 PKD
ROOT
HETATM    1  C   UNL     1     -10.756  18.354  66.751  1.00  0.00    -0.237 C  
HETATM    2  N   UNL     1     -11.065  17.269  67.684  1.00  0.00    -0.127 NA 
HETATM    3  C   UNL     1     -10.194  16.122  67.420  1.00  0.00    -0.272 C  
ENDROOT
BRANCH   2   4
HETATM    4  C   UNL     1     -10.937  17.684  69.089  1.00  0.00     0.559 C  
BRANCH   4   5
HETATM    5  C   UNL     1     -10.341  16.615  70.013  1.00  0.00     0.100 C  
BRANCH   5   6
HETATM    6  C   UNL     1     -10.036  15.287  69.295  1.00  0.00    -0.251 C  
BRANCH   6   7
HETATM    7  C   UNL     1      -8.741  15.305  68.438  1.00  0.00    -0.170 C  
HETATM    8  O   UNL     1      -9.151  15.630  67.071  1.00  0.00    -0.200 OA 
HETATM    9  N   UNL     1      -6.574   8.961  66.934  1.00  0.00    -0.061 NA 
HETATM   10  C   UNL     1      -7.857  12.213  66.617  1.00  0.00     0.088 A  
HETATM   11  C   UNL     1      -8.930  14.520  66.180  1.00  0.00     0.070 C  
HETATM   12  C   UNL     1      -8.258  13.486  67.001  1.00  0.00    -0.050 A  
HETATM   13  C   UNL     1      -6.884  10.044  67.224  1.00  0.00    -0.082 C  
HETATM   14  C   UNL     1      -8.113  13.938  68.306  1.00  0.00    -0.150 A  
HETATM   15  C   UNL     1      -7.283  11.374  67.578  1.00  0.00    -0.107 A  
HETATM   16  C   UNL     1      -7.119  11.831  68.898  1.00  0.00    -0.114 A  
HETATM   17  C   UNL     1      -7.539  13.115  69.268  1.00  0.00     0.367 A  
BRANCH   7  18
HETATM   18  C   UNL     1      -7.766  16.389  68.931  1.00  0.00    -0.230 A  
HETATM   19  C   UNL     1      -6.396  16.113  69.125  1.00  0.00    -0.159 A  
HETATM   20  F   UNL     1      -5.136  19.324  70.253  1.00  0.00    -0.180 F  
HETATM   21  C   UNL     1      -5.982  18.380  69.823  1.00  0.00    -0.239 A  
HETATM   22  C   UNL     1      -7.320  18.692  69.634  1.00  0.00     0.246 A  
HETATM   23  C   UNL     1      -8.205  17.706  69.187  1.00  0.00     0.081 A  
HETATM   24  C   UNL     1      -5.511  17.101  69.566  1.00  0.00    -0.182 A  
ENDBRANCH   7  18
ENDBRANCH   6   7
ENDBRANCH   5   6
ENDBRANCH   4   5
ENDBRANCH   2   4
TORSDOF 5
ENDMDL
MODEL      177
REMARK 921   NORMALIZED FREE ENERGY PREDICTED BY IDOCK:   12.93 KCAL/MOL
REMARK 922        TOTAL FREE ENERGY PREDICTED BY IDOCK:   15.62 KCAL/MOL
REMARK 923 INTER-LIGAND FREE ENERGY PREDICTED BY IDOCK:   13.89 KCAL/MOL
REMARK 924 INTRA-LIGAND FREE ENERGY PREDICTED BY IDOCK:    1.73 KCAL/MOL
REMARK 927      BINDING AFFINITY PREDICTED BY RF-SCORE:    0.00 PKD
ROOT
HETATM    1  C   UNL     1     -11.103  12.981  69.681  1.00  0.00     0.091 C  
HETATM    2  N   UNL     1     -10.142  13.896  70.299  1.00  0.00     1.566 NA 
HETATM    3  C   UNL     1      -9.137  13.133  71.042  1.00  0.00    10.136 C  
ENDROOT
BRANCH   2   4
HETATM    4  C   UNL     1      -9.483  14.767  69.314  1.00  0.00    -0.055 C  
BRANCH   4   5
HETATM    5  C   UNL     1      -8.835  14.020  68.143  1.00  0.00    -0.182 C  
BRANCH   5   6
HETATM    6  C   UNL     1      -8.208  14.955  67.091  1.00  0.00    -0.244 C  
BRANCH   6   7
HETATM    7  C   UNL     1      -9.222  15.896  66.388  1.00  0.00    -0.309 C  
HETATM    8  O   UNL     1      -8.459  16.675  65.411  1.00  0.00     0.091 OA 
HETATM    9  N   UNL     1     -10.866  21.288  70.317  1.00  0.00     2.037 NA 
HETATM   10  C   UNL     1      -9.562  19.331  67.710  1.00  0.00    -0.395 A  
HETATM   11  C   UNL     1      -8.424  18.071  65.767  1.00  0.00     0.345 C  
HETATM   12  C   UNL     1      -9.288  18.193  66.964  1.00  0.00    -0.270 A  
HETATM   13  C   UNL     1     -10.652  20.355  69.655  1.00  0.00     0.675 C  
HETATM   14  C   UNL     1      -9.784  16.945  67.318  1.00  0.00    -0.251 A  
HETATM   15  C   UNL     1     -10.371  19.207  68.845  1.00  0.00    -0.149 A  
HETATM   16  C   UNL     1     -10.889  17.949  69.202  1.00  0.00     0.558 A  
HETATM   17  C   UNL     1     -10.593  16.811  68.441  1.00  0.00    -0.354 A  
BRANCH   7  18
HETATM   18  C   UNL     1     -10.301  15.091  65.641  1.00  0.00    -0.374 A  
HETATM   19  C   UNL     1     -10.266  14.939  64.240  1.00  0.00     1.169 A  
HETATM   20  F   UNL     1     -13.211  12.905  63.633  1.00  0.00    -0.026 F  
HETATM   21  C   UNL     1     -12.271  13.606  64.280  1.00  0.00    -0.396 A  
HETATM   22  C   UNL     1     -12.332  13.724  65.661  1.00  0.00    -0.517 A  
HETATM   23  C   UNL     1     -11.353  14.457  66.337  1.00  0.00    -0.351 A  
HETATM   24  C   UNL     1     -11.243  14.201  63.564  1.00  0.00     1.097 A  
ENDBRANCH   7  18
ENDBRANCH   6   7
ENDBRANCH   5   6
ENDBRANCH   4   5
ENDBRANCH   2   4
TORSDOF 5
ENDMDL
MODEL      178
REMARK 921   NORMALIZED FREE ENERGY PREDICTED BY IDOCK:   18.13 KCAL/MOL
REMARK 922        TOTAL FREE ENERGY PREDICTED BY IDOCK:   22.35 KCAL/MOL
REMARK 923 INTER-LIGAND FREE ENERGY PREDICTED BY IDOCK:   -3.71 KCAL/MOL
REMARK 924 INTRA-LIGAND FREE ENERGY PREDICTED BY IDOCK:   26.06 KCAL/MOL
REMARK 927      BINDING AFFINITY PREDICTED BY RF-SCORE:    0.00 PKD
ROOT
HETATM    1  C   UNL     1     -10.601  17.820  66.587  1.00  0.00    -0.223 C  
HETATM    2  N   UNL     1     -10.953  16.752  67.524  1.00  0.00    -0.205 NA 
HETATM    3  C   UNL     1     -10.223  15.530  67.183  1.00  0.00    -0.260 C  
ENDROOT
BRANCH   2   4
HETATM    4  C   UNL     1     -10.686  17.122  68.922  1.00  0.00    -0.257 C  
BRANCH   4   5
HETATM    5  C   UNL     1     -10.184  15.968  69.797  1.00  0.00    -0.240 C  
BRANCH   5   6
HETATM    6  C   UNL     1     -10.365  14.583  69.148  1.00  0.00    -0.197 C  
BRANCH   6   7
HETATM    7  C   UNL     1      -9.648  14.420  67.780  1.00  0.00    -0.216 C  
HETATM    8  O   UNL     1     -10.622  14.791  66.753  1.00  0.00    -0.291 OA 
HETATM    9  N   UNL     1      -9.233   7.830  65.878  1.00  0.00    -0.083 NA 
HETATM   10  C   UNL     1     -10.118  11.226  65.980  1.00  0.00    -0.283 A  
HETATM   11  C   UNL     1     -10.989  13.656  65.945  1.00  0.00    -0.282 C  
HETATM   12  C   UNL     1     -10.133  12.544  66.418  1.00  0.00    -0.255 A  
HETATM   13  C   UNL     1      -9.236   8.948  66.203  1.00  0.00    -0.217 C  
HETATM   14  C   UNL     1      -9.326  12.979  67.462  1.00  0.00    -0.200 A  
HETATM   15  C   UNL     1      -9.257  10.322  66.610  1.00  0.00    -0.179 A  
HETATM   16  C   UNL     1      -8.427  10.758  67.658  1.00  0.00    -0.119 A  
HETATM   17  C   UNL     1      -8.463  12.090  68.092  1.00  0.00    -0.171 A  
BRANCH   7  18
HETATM   18  C   UNL     1      -8.436  15.362  67.673  1.00  0.00    -0.173 A  
HETATM   19  C   UNL     1      -7.930  16.039  68.802  1.00  0.00    -0.196 A  
HETATM   20  F   UNL     1      -5.156  17.898  67.379  1.00  0.00    -0.123 F  
HETATM   21  C   UNL     1      -6.210  17.078  67.475  1.00  0.00    -0.147 A  
HETATM   22  C   UNL     1      -6.673  16.421  66.345  1.00  0.00     0.350 A  
HETATM   23  C   UNL     1      -7.775  15.566  66.443  1.00  0.00     0.441 A  
HETATM   24  C   UNL     1      -6.824  16.890  68.704  1.00  0.00    -0.183 A  
ENDBRANCH   7  18
ENDBRANCH   6   7
ENDBRANCH   5   6
ENDBRANCH   4   5
ENDBRANCH   2   4
TORSDOF 5
ENDMDL
MODEL      179
REMARK 921   NORMALIZED FREE ENERGY PREDICTED BY IDOCK:   23.98 KCAL/MOL
REMARK 922        TOTAL FREE ENERGY PREDICTED BY IDOCK:   29.90 KCAL/MOL
REMARK 923 INTER-LIGAND FREE ENERGY PREDICTED BY IDOCK:   25.76 KCAL/MOL
REMARK 924 INTRA-LIGAND FREE ENERGY PREDICTED BY IDOCK:    4.14 KCAL/MOL
REMARK 927      BINDING AFFINITY PREDICTED BY RF-SCORE:    0.00 PKD
ROOT
HETATM    1  C   UNL     1      -8.216  13.673  72.831  1.00  0.00    11.846 C  
HETATM    2  N   UNL     1      -7.874  13.411  71.432  1.00  0.00     6.130 NA 
HETATM    3  C   UNL     1      -8.558  14.371  70.564  1.00  0.00     2.406 C  
ENDROOT
BRANCH   2   4
HETATM    4  C   UNL     1      -6.423  13.463  71.191  1.00  0.00     1.147 C  
BRANCH   4   5
HETATM    5  C   UNL     1      -5.801  12.120  70.788  1.00  0.00     0.011 C  
BRANCH   5   6
HETATM    6  C   UNL     1      -6.844  11.048  70.422  1.00  0.00     0.380 C  
BRANCH   6   7
HETATM    7  C   UNL     1      -7.777  11.439  69.244  1.00  0.00     0.061 C  
HETATM    8  O   UNL     1      -9.017  11.933  69.842  1.00  0.00     1.759 OA 
HETATM    9  N   UNL     1     -10.658   5.927  66.322  1.00  0.00    -0.080 NA 
HETATM   10  C   UNL     1     -10.231   8.921  68.106  1.00  0.00    -0.245 A  
HETATM   11  C   UNL     1     -10.123  11.055  69.554  1.00  0.00     0.056 C  
HETATM   12  C   UNL     1      -9.576  10.017  68.650  1.00  0.00    -0.158 A  
HETATM   13  C   UNL     1     -10.138   6.873  66.759  1.00  0.00    -0.194 C  
HETATM   14  C   UNL     1      -8.222  10.243  68.435  1.00  0.00    -0.114 A  
HETATM   15  C   UNL     1      -9.500   8.030  67.312  1.00  0.00    -0.196 A  
HETATM   16  C   UNL     1      -8.133   8.261  67.079  1.00  0.00    -0.104 A  
HETATM   17  C   UNL     1      -7.487   9.368  67.645  1.00  0.00    -0.087 A  
BRANCH   7  18
HETATM   18  C   UNL     1      -7.157  12.563  68.396  1.00  0.00    -0.107 A  
HETATM   19  C   UNL     1      -5.805  12.522  67.996  1.00  0.00    -0.082 A  
HETATM   20  F   UNL     1      -5.492  15.599  66.095  1.00  0.00     1.488 F  
HETATM   21  C   UNL     1      -6.029  14.619  66.833  1.00  0.00     1.577 A  
HETATM   22  C   UNL     1      -7.365  14.689  67.198  1.00  0.00     0.018 A  
HETATM   23  C   UNL     1      -7.927  13.667  67.970  1.00  0.00    -0.154 A  
HETATM   24  C   UNL     1      -5.245  13.541  67.219  1.00  0.00     0.406 A  
ENDBRANCH   7  18
ENDBRANCH   6   7
ENDBRANCH   5   6
ENDBRANCH   4   5
ENDBRANCH   2   4
TORSDOF 5
ENDMDL
MODEL      180
REMARK 921   NORMALIZED FREE ENERGY PREDICTED BY IDOCK:   25.56 KCAL/MOL
REMARK 922        TOTAL FREE ENERGY PREDICTED BY IDOCK:   31.95 KCAL/MOL
REMARK 923 INTER-LIGAND FREE ENERGY PREDICTED BY IDOCK:   23.49 KCAL/MOL
REMARK 924 INTRA-LIGAND FREE ENERGY PREDICTED BY IDOCK:    8.46 KCAL/MOL
REMARK 927      BINDING AFFINITY PREDICTED BY RF-SCORE:    0.00 PKD
ROOT
HETATM    1  C   UNL     1     -11.593  17.568  64.302  1.00  0.00     3.140 C  
HETATM    2  N   UNL     1     -10.966  16.937  65.464  1.00  0.00    -0.206 NA 
HETATM    3  C   UNL     1     -11.928  16.060  66.134  1.00  0.00     1.257 C  
ENDROOT
BRANCH   2   4
HETATM    4  C   UNL     1      -9.759  16.175  65.105  1.00  0.00     0.505 C  
BRANCH   4   5
HETATM    5  C   UNL     1      -8.691  16.129  66.205  1.00  0.00    -0.373 C  
BRANCH   5   6
HETATM    6  C   UNL     1      -8.628  14.778  66.941  1.00  0.00    -0.254 C  
BRANCH   6   7
HETATM    7  C   UNL     1      -9.971  14.000  66.966  1.00  0.00    -0.257 C  
HETATM    8  O   UNL     1     -11.035  15.005  66.932  1.00  0.00    -0.314 OA 
HETATM    9  N   UNL     1     -11.490  11.714  73.266  1.00  0.00     9.858 NA 
HETATM   10  C   UNL     1     -11.595  13.508  70.250  1.00  0.00    -0.138 A  
HETATM   11  C   UNL     1     -11.783  15.017  68.163  1.00  0.00    -0.312 C  
HETATM   12  C   UNL     1     -11.233  13.901  68.968  1.00  0.00    -0.312 A  
HETATM   13  C   UNL     1     -11.228  12.037  72.178  1.00  0.00     6.792 C  
HETATM   14  C   UNL     1     -10.201  13.281  68.274  1.00  0.00    -0.250 A  
HETATM   15  C   UNL     1     -10.901  12.450  70.846  1.00  0.00     3.483 A  
HETATM   16  C   UNL     1      -9.865  11.808  70.144  1.00  0.00     2.516 A  
HETATM   17  C   UNL     1      -9.508  12.226  68.855  1.00  0.00     0.199 A  
BRANCH   7  18
HETATM   18  C   UNL     1     -10.111  13.094  65.730  1.00  0.00    -0.290 A  
HETATM   19  C   UNL     1     -10.762  13.540  64.561  1.00  0.00    -0.431 A  
HETATM   20  F   UNL     1     -10.474  10.645  62.391  1.00  0.00     0.038 F  
HETATM   21  C   UNL     1     -10.353  11.435  63.465  1.00  0.00    -0.423 A  
HETATM   22  C   UNL     1      -9.697  10.965  64.592  1.00  0.00    -0.333 A  
HETATM   23  C   UNL     1      -9.572  11.789  65.715  1.00  0.00    -0.253 A  
HETATM   24  C   UNL     1     -10.882  12.717  63.437  1.00  0.00    -0.154 A  
ENDBRANCH   7  18
ENDBRANCH   6   7
ENDBRANCH   5   6
ENDBRANCH   4   5
ENDBRANCH   2   4
TORSDOF 5
ENDMDL
MODEL      181
REMARK 921   NORMALIZED FREE ENERGY PREDICTED BY IDOCK:   41.02 KCAL/MOL
REMARK 922        TOTAL FREE ENERGY PREDICTED BY IDOCK:   51.92 KCAL/MOL
REMARK 923 INTER-LIGAND FREE ENERGY PREDICTED BY IDOCK:   28.74 KCAL/MOL
REMARK 924 INTRA-LIGAND FREE ENERGY PREDICTED BY IDOCK:   23.18 KCAL/MOL
REMARK 927      BINDING AFFINITY PREDICTED BY RF-SCORE:    0.00 PKD
ROOT
HETATM    1  C   UNL     1     -12.425  17.103  67.476  1.00  0.00     3.552 C  
HETATM    2  N   UNL     1     -12.434  17.622  66.107  1.00  0.00     5.504 NA 
HETATM    3  C   UNL     1     -11.487  18.731  65.989  1.00  0.00     1.537 C  
ENDROOT
BRANCH   2   4
HETATM    4  C   UNL     1     -12.119  16.584  65.112  1.00  0.00     1.737 C  
BRANCH   4   5
HETATM    5  C   UNL     1     -11.571  15.282  65.709  1.00  0.00    -0.015 C  
BRANCH   5   6
HETATM    6  C   UNL     1     -10.558  15.509  66.847  1.00  0.00    -0.307 C  
BRANCH   6   7
HETATM    7  C   UNL     1     -11.203  15.778  68.233  1.00  0.00    -0.356 C  
HETATM    8  O   UNL     1     -12.378  16.616  67.990  1.00  0.00     1.026 OA 
HETATM    9  N   UNL     1      -7.764  20.559  71.773  1.00  0.00     1.012 NA 
HETATM   10  C   UNL     1     -10.281  18.912  69.963  1.00  0.00     0.978 A  
HETATM   11  C   UNL     1     -12.209  17.931  68.554  1.00  0.00     4.231 C  
HETATM   12  C   UNL     1     -10.914  17.887  69.272  1.00  0.00     0.913 A  
HETATM   13  C   UNL     1      -8.330  19.705  71.221  1.00  0.00     3.060 C  
HETATM   14  C   UNL     1     -10.332  16.634  69.122  1.00  0.00    -0.326 A  
HETATM   15  C   UNL     1      -9.026  18.662  70.527  1.00  0.00     3.243 A  
HETATM   16  C   UNL     1      -8.437  17.392  70.391  1.00  0.00     3.661 A  
HETATM   17  C   UNL     1      -9.087  16.373  69.682  1.00  0.00     0.288 A  
BRANCH   7  18
HETATM   18  C   UNL     1     -11.662  14.466  68.895  1.00  0.00    -0.357 A  
HETATM   19  C   UNL     1     -12.111  13.373  68.126  1.00  0.00    -0.267 A  
HETATM   20  F   UNL     1     -12.890  10.924  70.690  1.00  0.00    -0.377 F  
HETATM   21  C   UNL     1     -12.490  12.063  70.111  1.00  0.00    -0.048 A  
HETATM   22  C   UNL     1     -12.045  13.114  70.900  1.00  0.00    -0.209 A  
HETATM   23  C   UNL     1     -11.629  14.305  70.297  1.00  0.00    -0.289 A  
HETATM   24  C   UNL     1     -12.521  12.180  68.730  1.00  0.00     0.548 A  
ENDBRANCH   7  18
ENDBRANCH   6   7
ENDBRANCH   5   6
ENDBRANCH   4   5
ENDBRANCH   2   4
TORSDOF 5
ENDMDL
MODEL      182
REMARK 921   NORMALIZED FREE ENERGY PREDICTED BY IDOCK:   58.60 KCAL/MOL
REMARK 922        TOTAL FREE ENERGY PREDICTED BY IDOCK:   74.64 KCAL/MOL
REMARK 923 INTER-LIGAND FREE ENERGY PREDICTED BY IDOCK:   62.39 KCAL/MOL
REMARK 924 INTRA-LIGAND FREE ENERGY PREDICTED BY IDOCK:   12.24 KCAL/MOL
REMARK 927      BINDING AFFINITY PREDICTED BY RF-SCORE:    0.00 PKD
ROOT
HETATM    1  C   UNL     1     -11.684   9.610  65.012  1.00  0.00     6.835 C  
HETATM    2  N   UNL     1     -12.246  10.115  66.266  1.00  0.00     4.115 NA 
HETATM    3  C   UNL     1     -12.875  11.417  66.040  1.00  0.00     4.710 C  
ENDROOT
BRANCH   2   4
HETATM    4  C   UNL     1     -13.218   9.184  66.860  1.00  0.00    18.002 C  
BRANCH   4   5
HETATM    5  C   UNL     1     -13.416   7.886  66.068  1.00  0.00    20.117 C  
BRANCH   5   6
HETATM    6  C   UNL     1     -12.238   6.903  66.199  1.00  0.00     6.216 C  
BRANCH   6   7
HETATM    7  C   UNL     1     -10.933   7.538  66.750  1.00  0.00     0.248 C  
HETATM    8  O   UNL     1     -10.848   8.880  66.173  1.00  0.00     0.479 OA 
HETATM    9  N   UNL     1      -5.357   5.135  63.533  1.00  0.00    -0.013 NA 
HETATM   10  C   UNL     1      -7.897   7.282  64.658  1.00  0.00    -0.123 A  
HETATM   11  C   UNL     1      -9.732   8.991  65.268  1.00  0.00     0.205 C  
HETATM   12  C   UNL     1      -9.024   7.694  65.357  1.00  0.00     0.118 A  
HETATM   13  C   UNL     1      -6.279   5.514  64.135  1.00  0.00    -0.022 C  
HETATM   14  C   UNL     1      -9.691   6.850  66.237  1.00  0.00    -0.049 A  
HETATM   15  C   UNL     1      -7.422   5.982  64.861  1.00  0.00    -0.082 A  
HETATM   16  C   UNL     1      -8.083   5.127  65.761  1.00  0.00    -0.110 A  
HETATM   17  C   UNL     1      -9.225   5.558  66.450  1.00  0.00    -0.155 A  
BRANCH   7  18
HETATM   18  C   UNL     1     -10.982   7.664  68.284  1.00  0.00     0.082 A  
HETATM   19  C   UNL     1     -12.203   7.616  68.987  1.00  0.00     2.460 A  
HETATM   20  F   UNL     1     -11.104   7.992  72.425  1.00  0.00    -0.298 F  
HETATM   21  C   UNL     1     -11.065   7.882  71.092  1.00  0.00    -0.255 A  
HETATM   22  C   UNL     1      -9.843   7.923  70.436  1.00  0.00    -0.183 A  
HETATM   23  C   UNL     1      -9.801   7.810  69.043  1.00  0.00    -0.169 A  
HETATM   24  C   UNL     1     -12.245   7.723  70.380  1.00  0.00     0.266 A  
ENDBRANCH   7  18
ENDBRANCH   6   7
ENDBRANCH   5   6
ENDBRANCH   4   5
ENDBRANCH   2   4
TORSDOF 5
ENDMDL
