MODEL        1
REMARK 921   NORMALIZED FREE ENERGY PREDICTED BY IDOCK:   -7.35 KCAL/MOL
REMARK 922        TOTAL FREE ENERGY PREDICTED BY IDOCK:  -12.58 KCAL/MOL
REMARK 923 INTER-LIGAND FREE ENERGY PREDICTED BY IDOCK:  -11.64 KCAL/MOL
REMARK 924 INTRA-LIGAND FREE ENERGY PREDICTED BY IDOCK:   -0.93 KCAL/MOL
REMARK 927      BINDING AFFINITY PREDICTED BY RF-SCORE:    0.00 PKD
ROOT
HETATM    1  C   UNL     1      -8.082  19.693  66.488  1.00  0.00    -0.320 C  
HETATM    2  N   UNL     1      -8.876  19.040  67.598  1.00  0.00    -0.286 N  
HETATM    3  C   UNL     1      -8.304  19.419  68.953  1.00  0.00    -0.300 C  
HETATM    4  C   UNL     1     -10.328  19.542  67.534  1.00  0.00    -0.444 C  
ENDROOT
BRANCH   2   5
HETATM    5  C   UNL     1      -8.814  17.507  67.381  1.00  0.00    -0.229 C  
BRANCH   5   6
HETATM    6  C   UNL     1     -10.112  16.880  66.905  1.00  0.00    -0.289 C  
BRANCH   6   7
HETATM    7  O   UNL     1     -10.152  16.898  65.492  1.00  0.00    -0.575 OA 
BRANCH   7   8
HETATM    8  P   UNL     1     -11.239  15.681  64.917  1.00  0.00    -0.208 P  
HETATM    9  O   UNL     1     -10.061  14.715  64.862  1.00  0.00    -0.367 OA 
HETATM   10  O   UNL     1     -11.537  16.584  63.714  1.00  0.00    -1.109 OA 
BRANCH   8  11
HETATM   11  O   UNL     1     -12.326  14.463  64.342  1.00  0.00    -0.571 OA 
BRANCH  11  12
HETATM   12  P   UNL     1     -11.761  12.906  64.839  1.00  0.00    -0.400 P  
HETATM   13  O   UNL     1     -13.329  12.410  64.939  1.00  0.00    -0.623 OA 
HETATM   14  O   UNL     1     -11.398  12.611  63.368  1.00  0.00    -0.482 OA 
BRANCH  12  15
HETATM   15  O   UNL     1     -11.197  11.348  65.336  1.00  0.00    -0.197 OA 
BRANCH  15  16
HETATM   16  C   UNL     1     -10.574  11.298  66.635  1.00  0.00    -0.262 C  
BRANCH  16  17
HETATM   17  C   UNL     1     -11.544  11.544  67.781  1.00  0.00    -0.267 C  
HETATM   18  O   UNL     1     -11.644  10.373  68.595  1.00  0.00    -0.220 OA 
HETATM   19  C   UNL     1     -12.114  10.801  69.875  1.00  0.00    -0.337 C  
HETATM   20  H   UNL     1     -11.519  14.638  68.817  1.00  0.00     0.000 HD 
HETATM   21  C   UNL     1     -11.629  12.253  70.070  1.00  0.00    -0.157 C  
HETATM   22  H   UNL     1     -12.358  14.021  70.687  1.00  0.00     0.000 HD 
HETATM   23  C   UNL     1     -11.157  12.697  68.688  1.00  0.00    -0.266 C  
HETATM   24  O   UNL     1     -12.656  13.126  70.566  1.00  0.00    -0.258 OA 
HETATM   25  O   UNL     1     -11.760  13.915  68.249  1.00  0.00    -0.320 OA 
BRANCH  19  26
HETATM   26  N   UNL     1     -11.685   9.864  70.916  1.00  0.00    -0.334 N  
HETATM   27  C   UNL     1     -10.380   9.437  71.002  1.00  0.00    -0.312 C  
HETATM   28  C   UNL     1     -10.017   8.508  71.879  1.00  0.00    -0.365 C  
HETATM   29  C   UNL     1     -11.094   7.971  72.729  1.00  0.00    -0.381 C  
HETATM   30  N   UNL     1     -12.328   8.367  72.659  1.00  0.00    -0.563 N  
HETATM   31  N   UNL     1     -10.804   6.991  73.638  1.00  0.00    -0.542 NA 
HETATM   32  H   UNL     1     -13.030   7.969  73.282  1.00  0.00     0.000 HD 
HETATM   33  C   UNL     1     -12.683   9.329  71.739  1.00  0.00    -0.381 C  
HETATM   34  H1  UNL     1     -11.549   6.619  74.226  1.00  0.00     0.000 HD 
HETATM   35  H2  UNL     1      -9.851   6.635  73.727  1.00  0.00     0.000 HD 
HETATM   36  O   UNL     1     -13.852   9.710  71.638  1.00  0.00    -0.280 OA 
ENDBRANCH  19  26
ENDBRANCH  16  17
ENDBRANCH  15  16
ENDBRANCH  12  15
ENDBRANCH  11  12
ENDBRANCH   8  11
ENDBRANCH   7   8
ENDBRANCH   6   7
ENDBRANCH   5   6
ENDBRANCH   2   5
TORSDOF 10
ENDMDL
MODEL        2
REMARK 921   NORMALIZED FREE ENERGY PREDICTED BY IDOCK:   -7.30 KCAL/MOL
REMARK 922        TOTAL FREE ENERGY PREDICTED BY IDOCK:  -12.49 KCAL/MOL
REMARK 923 INTER-LIGAND FREE ENERGY PREDICTED BY IDOCK:  -11.36 KCAL/MOL
REMARK 924 INTRA-LIGAND FREE ENERGY PREDICTED BY IDOCK:   -1.14 KCAL/MOL
REMARK 927      BINDING AFFINITY PREDICTED BY RF-SCORE:    0.00 PKD
ROOT
HETATM    1  C   UNL     1     -12.165  14.202  70.807  1.00  0.00    -0.365 C  
HETATM    2  N   UNL     1     -13.159  14.374  71.936  1.00  0.00    -0.335 N  
HETATM    3  C   UNL     1     -12.478  14.973  73.155  1.00  0.00    -0.435 C  
HETATM    4  C   UNL     1     -14.266  15.340  71.482  1.00  0.00    -0.526 C  
ENDROOT
BRANCH   2   5
HETATM    5  C   UNL     1     -13.747  12.978  72.261  1.00  0.00    -0.512 C  
BRANCH   5   6
HETATM    6  C   UNL     1     -12.993  11.812  71.648  1.00  0.00    -0.362 C  
BRANCH   6   7
HETATM    7  O   UNL     1     -13.595  10.598  72.054  1.00  0.00    -0.292 OA 
BRANCH   7   8
HETATM    8  P   UNL     1     -12.497   9.284  71.805  1.00  0.00    -0.405 P  
HETATM    9  O   UNL     1     -11.792  10.128  70.750  1.00  0.00    -0.297 OA 
HETATM   10  O   UNL     1     -13.700   8.420  71.407  1.00  0.00    -0.313 OA 
BRANCH   8  11
HETATM   11  O   UNL     1     -11.400   7.969  71.556  1.00  0.00    -0.248 OA 
BRANCH  11  12
HETATM   12  P   UNL     1     -10.594   8.171  70.040  1.00  0.00    -0.226 P  
HETATM   13  O   UNL     1      -9.206   7.639  70.748  1.00  0.00    -0.156 OA 
HETATM   14  O   UNL     1     -11.259   6.864  69.557  1.00  0.00    -0.247 OA 
BRANCH  12  15
HETATM   15  O   UNL     1      -9.787   8.372  68.522  1.00  0.00    -0.164 OA 
BRANCH  15  16
HETATM   16  C   UNL     1      -9.800   9.708  67.984  1.00  0.00    -0.150 C  
BRANCH  16  17
HETATM   17  C   UNL     1     -10.161   9.763  66.508  1.00  0.00    -0.239 C  
HETATM   18  O   UNL     1     -10.896  10.957  66.229  1.00  0.00    -0.219 OA 
HETATM   19  C   UNL     1     -10.753  11.212  64.831  1.00  0.00    -0.248 C  
HETATM   20  H   UNL     1      -7.904   8.379  64.601  1.00  0.00     0.000 HD 
HETATM   21  C   UNL     1      -9.395  10.616  64.402  1.00  0.00    -0.251 C  
HETATM   22  H   UNL     1      -8.640   9.484  62.923  1.00  0.00     0.000 HD 
HETATM   23  C   UNL     1      -8.967   9.735  65.573  1.00  0.00    -0.176 C  
HETATM   24  O   UNL     1      -9.476   9.851  63.188  1.00  0.00    -0.271 OA 
HETATM   25  O   UNL     1      -8.652   8.397  65.187  1.00  0.00    -0.175 OA 
BRANCH  19  26
HETATM   26  N   UNL     1     -10.913  12.641  64.553  1.00  0.00    -0.313 N  
HETATM   27  C   UNL     1     -10.087  13.579  65.127  1.00  0.00    -0.256 C  
HETATM   28  C   UNL     1     -10.299  14.879  64.957  1.00  0.00    -0.401 C  
HETATM   29  C   UNL     1     -11.469  15.236  64.133  1.00  0.00    -0.004 C  
HETATM   30  N   UNL     1     -12.254  14.361  63.585  1.00  0.00    -1.068 N  
HETATM   31  N   UNL     1     -11.770  16.556  63.935  1.00  0.00    -1.484 NA 
HETATM   32  H   UNL     1     -13.041  14.666  63.014  1.00  0.00     0.000 HD 
HETATM   33  C   UNL     1     -12.017  13.017  63.778  1.00  0.00    -0.518 C  
HETATM   34  H1  UNL     1     -12.578  16.803  63.366  1.00  0.00     0.000 HD 
HETATM   35  H2  UNL     1     -11.191  17.285  64.353  1.00  0.00     0.000 HD 
HETATM   36  O   UNL     1     -12.758  12.165  63.284  1.00  0.00    -0.698 OA 
ENDBRANCH  19  26
ENDBRANCH  16  17
ENDBRANCH  15  16
ENDBRANCH  12  15
ENDBRANCH  11  12
ENDBRANCH   8  11
ENDBRANCH   7   8
ENDBRANCH   6   7
ENDBRANCH   5   6
ENDBRANCH   2   5
TORSDOF 10
ENDMDL
MODEL        3
REMARK 921   NORMALIZED FREE ENERGY PREDICTED BY IDOCK:   -7.24 KCAL/MOL
REMARK 922        TOTAL FREE ENERGY PREDICTED BY IDOCK:  -12.41 KCAL/MOL
REMARK 923 INTER-LIGAND FREE ENERGY PREDICTED BY IDOCK:  -10.89 KCAL/MOL
REMARK 924 INTRA-LIGAND FREE ENERGY PREDICTED BY IDOCK:   -1.51 KCAL/MOL
REMARK 927      BINDING AFFINITY PREDICTED BY RF-SCORE:    0.00 PKD
ROOT
HETATM    1  C   UNL     1      -7.977  19.633  67.414  1.00  0.00    -0.278 C  
HETATM    2  N   UNL     1      -9.361  19.020  67.386  1.00  0.00    -0.300 N  
HETATM    3  C   UNL     1     -10.082  19.279  68.698  1.00  0.00    -0.419 C  
HETATM    4  C   UNL     1     -10.173  19.676  66.256  1.00  0.00    -0.498 C  
ENDROOT
BRANCH   2   5
HETATM    5  C   UNL     1      -9.197  17.501  67.134  1.00  0.00    -0.243 C  
BRANCH   5   6
HETATM    6  C   UNL     1     -10.411  16.822  66.525  1.00  0.00    -0.301 C  
BRANCH   6   7
HETATM    7  O   UNL     1     -10.092  16.371  65.223  1.00  0.00    -0.545 OA 
BRANCH   7   8
HETATM    8  P   UNL     1     -11.255  15.199  64.705  1.00  0.00    -0.203 P  
HETATM    9  O   UNL     1     -11.989  16.316  63.972  1.00  0.00    -0.955 OA 
HETATM   10  O   UNL     1     -11.566  14.927  66.181  1.00  0.00    -0.324 OA 
BRANCH   8  11
HETATM   11  O   UNL     1     -12.418  14.028  64.185  1.00  0.00    -0.665 OA 
BRANCH  11  12
HETATM   12  P   UNL     1     -11.724  12.447  64.281  1.00  0.00    -0.438 P  
HETATM   13  O   UNL     1     -12.879  11.917  63.232  1.00  0.00    -0.702 OA 
HETATM   14  O   UNL     1     -10.597  12.926  63.342  1.00  0.00    -0.202 OA 
BRANCH  12  15
HETATM   15  O   UNL     1     -11.032  10.864  64.376  1.00  0.00    -0.231 OA 
BRANCH  15  16
HETATM   16  C   UNL     1     -10.447  10.518  65.647  1.00  0.00    -0.143 C  
BRANCH  16  17
HETATM   17  C   UNL     1     -10.696  11.555  66.731  1.00  0.00    -0.270 C  
HETATM   18  O   UNL     1     -11.670  11.069  67.658  1.00  0.00    -0.576 OA 
HETATM   19  C   UNL     1     -11.483  11.799  68.871  1.00  0.00    -0.297 C  
HETATM   20  H   UNL     1      -8.036  13.305  67.442  1.00  0.00     0.000 HD 
HETATM   21  C   UNL     1      -9.994  12.202  68.931  1.00  0.00     0.043 C  
HETATM   22  H   UNL     1      -8.881  13.824  69.339  1.00  0.00     0.000 HD 
HETATM   23  C   UNL     1      -9.461  11.936  67.525  1.00  0.00    -0.176 C  
HETATM   24  O   UNL     1      -9.798  13.576  69.302  1.00  0.00     0.225 OA 
HETATM   25  O   UNL     1      -8.809  13.066  66.945  1.00  0.00    -0.214 OA 
BRANCH  19  26
HETATM   26  N   UNL     1     -11.955  11.017  70.017  1.00  0.00    -0.320 N  
HETATM   27  C   UNL     1     -11.774   9.655  70.077  1.00  0.00    -0.023 C  
HETATM   28  C   UNL     1     -12.295   8.935  71.064  1.00  0.00    -0.214 C  
HETATM   29  C   UNL     1     -13.075   9.685  72.064  1.00  0.00    -0.445 C  
HETATM   30  N   UNL     1     -13.251  10.970  72.020  1.00  0.00    -0.553 N  
HETATM   31  N   UNL     1     -13.666   9.009  73.096  1.00  0.00    -1.092 NA 
HETATM   32  H   UNL     1     -13.790  11.439  72.747  1.00  0.00     0.000 HD 
HETATM   33  C   UNL     1     -12.705  11.697  70.984  1.00  0.00    -0.298 C  
HETATM   34  H1  UNL     1     -14.206   9.528  73.788  1.00  0.00     0.000 HD 
HETATM   35  H2  UNL     1     -13.568   7.996  73.172  1.00  0.00     0.000 HD 
HETATM   36  O   UNL     1     -12.873  12.916  70.907  1.00  0.00    -0.236 OA 
ENDBRANCH  19  26
ENDBRANCH  16  17
ENDBRANCH  15  16
ENDBRANCH  12  15
ENDBRANCH  11  12
ENDBRANCH   8  11
ENDBRANCH   7   8
ENDBRANCH   6   7
ENDBRANCH   5   6
ENDBRANCH   2   5
TORSDOF 10
ENDMDL
MODEL        4
REMARK 921   NORMALIZED FREE ENERGY PREDICTED BY IDOCK:   -7.09 KCAL/MOL
REMARK 922        TOTAL FREE ENERGY PREDICTED BY IDOCK:  -12.17 KCAL/MOL
REMARK 923 INTER-LIGAND FREE ENERGY PREDICTED BY IDOCK:  -10.73 KCAL/MOL
REMARK 924 INTRA-LIGAND FREE ENERGY PREDICTED BY IDOCK:   -1.44 KCAL/MOL
REMARK 927      BINDING AFFINITY PREDICTED BY RF-SCORE:    0.00 PKD
ROOT
HETATM    1  C   UNL     1     -14.355  15.531  71.918  1.00  0.00    -0.472 C  
HETATM    2  N   UNL     1     -13.082  14.920  72.465  1.00  0.00    -0.357 N  
HETATM    3  C   UNL     1     -11.908  15.240  71.555  1.00  0.00    -0.380 C  
HETATM    4  C   UNL     1     -12.795  15.526  73.849  1.00  0.00    -0.489 C  
ENDROOT
BRANCH   2   5
HETATM    5  C   UNL     1     -13.302  13.391  72.569  1.00  0.00    -0.484 C  
BRANCH   5   6
HETATM    6  C   UNL     1     -13.115  12.631  71.268  1.00  0.00    -0.145 C  
BRANCH   6   7
HETATM    7  O   UNL     1     -13.036  11.246  71.541  1.00  0.00    -0.428 OA 
BRANCH   7   8
HETATM    8  P   UNL     1     -11.961  10.485  70.419  1.00  0.00    -0.365 P  
HETATM    9  O   UNL     1     -11.175   9.941  71.606  1.00  0.00    -0.257 OA 
HETATM   10  O   UNL     1     -11.633  11.876  69.864  1.00  0.00    -0.296 OA 
BRANCH   8  11
HETATM   11  O   UNL     1     -10.887   9.723  69.296  1.00  0.00    -0.219 OA 
BRANCH  11  12
HETATM   12  P   UNL     1     -10.772  10.687  67.865  1.00  0.00    -0.291 P  
HETATM   13  O   UNL     1      -9.174  10.915  68.190  1.00  0.00    -0.148 OA 
HETATM   14  O   UNL     1     -10.774   9.385  67.035  1.00  0.00    -0.229 OA 
BRANCH  12  15
HETATM   15  O   UNL     1     -10.656  11.651  66.433  1.00  0.00    -0.239 OA 
BRANCH  15  16
HETATM   16  C   UNL     1     -11.909  12.122  65.899  1.00  0.00    -0.272 C  
BRANCH  16  17
HETATM   17  C   UNL     1     -11.980  13.636  65.767  1.00  0.00    -0.395 C  
HETATM   18  O   UNL     1     -11.233  14.252  66.819  1.00  0.00    -0.313 OA 
HETATM   19  C   UNL     1     -10.901  15.568  66.372  1.00  0.00    -0.277 C  
HETATM   20  H   UNL     1     -12.155  14.630  62.665  1.00  0.00     0.000 HD 
HETATM   21  C   UNL     1     -10.815  15.512  64.832  1.00  0.00    -0.427 C  
HETATM   22  H   UNL     1     -11.448  16.565  63.242  1.00  0.00     0.000 HD 
HETATM   23  C   UNL     1     -11.444  14.173  64.453  1.00  0.00    -0.332 C  
HETATM   24  O   UNL     1     -11.500  16.600  64.191  1.00  0.00    -1.131 OA 
HETATM   25  O   UNL     1     -12.490  14.293  63.488  1.00  0.00    -0.798 OA 
BRANCH  19  26
HETATM   26  N   UNL     1      -9.687  16.044  67.039  1.00  0.00    -0.226 N  
HETATM   27  C   UNL     1      -8.551  15.270  67.095  1.00  0.00    -0.211 C  
HETATM   28  C   UNL     1      -7.488  15.659  67.790  1.00  0.00    -0.163 C  
HETATM   29  C   UNL     1      -7.615  16.949  68.491  1.00  0.00    -0.221 C  
HETATM   30  N   UNL     1      -8.680  17.689  68.444  1.00  0.00    -0.279 N  
HETATM   31  N   UNL     1      -6.572  17.404  69.251  1.00  0.00    -0.246 NA 
HETATM   32  H   UNL     1      -8.708  18.579  68.939  1.00  0.00     0.000 HD 
HETATM   33  C   UNL     1      -9.773  17.264  67.720  1.00  0.00    -0.270 C  
HETATM   34  H1  UNL     1      -6.660  18.296  69.736  1.00  0.00     0.000 HD 
HETATM   35  H2  UNL     1      -5.715  16.856  69.331  1.00  0.00     0.000 HD 
HETATM   36  O   UNL     1     -10.805  17.938  67.674  1.00  0.00    -0.375 OA 
ENDBRANCH  19  26
ENDBRANCH  16  17
ENDBRANCH  15  16
ENDBRANCH  12  15
ENDBRANCH  11  12
ENDBRANCH   8  11
ENDBRANCH   7   8
ENDBRANCH   6   7
ENDBRANCH   5   6
ENDBRANCH   2   5
TORSDOF 10
ENDMDL
MODEL        5
REMARK 921   NORMALIZED FREE ENERGY PREDICTED BY IDOCK:   -7.08 KCAL/MOL
REMARK 922        TOTAL FREE ENERGY PREDICTED BY IDOCK:  -12.15 KCAL/MOL
REMARK 923 INTER-LIGAND FREE ENERGY PREDICTED BY IDOCK:  -10.90 KCAL/MOL
REMARK 924 INTRA-LIGAND FREE ENERGY PREDICTED BY IDOCK:   -1.25 KCAL/MOL
REMARK 927      BINDING AFFINITY PREDICTED BY RF-SCORE:    0.00 PKD
ROOT
HETATM    1  C   UNL     1     -13.324  12.980  72.181  1.00  0.00    -0.524 C  
HETATM    2  N   UNL     1     -13.100  14.475  72.094  1.00  0.00    -0.333 N  
HETATM    3  C   UNL     1     -14.370  15.176  71.645  1.00  0.00    -0.585 C  
HETATM    4  C   UNL     1     -12.729  15.004  73.490  1.00  0.00    -0.536 C  
ENDROOT
BRANCH   2   5
HETATM    5  C   UNL     1     -11.947  14.719  71.090  1.00  0.00    -0.335 C  
BRANCH   5   6
HETATM    6  C   UNL     1     -12.335  14.576  69.629  1.00  0.00    -0.241 C  
BRANCH   6   7
HETATM    7  O   UNL     1     -11.231  14.081  68.897  1.00  0.00    -0.247 OA 
BRANCH   7   8
HETATM    8  P   UNL     1     -11.182  14.819  67.333  1.00  0.00    -0.353 P  
HETATM    9  O   UNL     1      -9.800  14.210  67.135  1.00  0.00    -0.243 OA 
HETATM   10  O   UNL     1     -11.320  16.180  68.025  1.00  0.00    -0.326 OA 
BRANCH   8  11
HETATM   11  O   UNL     1     -11.134  15.558  65.769  1.00  0.00    -0.304 OA 
BRANCH  11  12
HETATM   12  P   UNL     1     -11.888  14.513  64.616  1.00  0.00    -0.415 P  
HETATM   13  O   UNL     1     -13.008  14.120  65.758  1.00  0.00    -0.492 OA 
HETATM   14  O   UNL     1     -12.502  15.760  63.944  1.00  0.00    -0.744 OA 
BRANCH  12  15
HETATM   15  O   UNL     1     -12.644  13.467  63.463  1.00  0.00    -0.733 OA 
BRANCH  15  16
HETATM   16  C   UNL     1     -12.305  12.071  63.575  1.00  0.00    -0.551 C  
BRANCH  16  17
HETATM   17  C   UNL     1     -10.957  11.827  64.237  1.00  0.00    -0.359 C  
HETATM   18  O   UNL     1     -11.148  11.285  65.546  1.00  0.00    -0.191 OA 
HETATM   19  C   UNL     1      -9.937  10.612  65.894  1.00  0.00    -0.255 C  
HETATM   20  H   UNL     1      -8.632  10.993  62.106  1.00  0.00     0.000 HD 
HETATM   21  C   UNL     1      -9.292  10.135  64.575  1.00  0.00    -0.289 C  
HETATM   22  H   UNL     1      -7.488  10.122  63.691  1.00  0.00     0.000 HD 
HETATM   23  C   UNL     1     -10.052  10.875  63.477  1.00  0.00    -0.347 C  
HETATM   24  O   UNL     1      -7.885  10.416  64.503  1.00  0.00    -0.141 OA 
HETATM   25  O   UNL     1      -9.199  11.588  62.582  1.00  0.00    -0.340 OA 
BRANCH  19  26
HETATM   26  N   UNL     1     -10.202   9.551  66.868  1.00  0.00    -0.242 N  
HETATM   27  C   UNL     1     -10.199   8.225  66.502  1.00  0.00    -0.193 C  
HETATM   28  C   UNL     1     -10.542   7.273  67.362  1.00  0.00    -0.370 C  
HETATM   29  C   UNL     1     -10.931   7.733  68.708  1.00  0.00     0.144 C  
HETATM   30  N   UNL     1     -10.936   8.980  69.066  1.00  0.00    -0.431 N  
HETATM   31  N   UNL     1     -11.325   6.814  69.641  1.00  0.00    -0.522 NA 
HETATM   32  H   UNL     1     -11.202   9.240  70.015  1.00  0.00     0.000 HD 
HETATM   33  C   UNL     1     -10.579   9.952  68.156  1.00  0.00    -0.227 C  
HETATM   34  H1  UNL     1     -11.594   7.131  70.572  1.00  0.00     0.000 HD 
HETATM   35  H2  UNL     1     -11.350   5.820  69.408  1.00  0.00     0.000 HD 
HETATM   36  O   UNL     1     -10.593  11.146  68.464  1.00  0.00    -0.173 OA 
ENDBRANCH  19  26
ENDBRANCH  16  17
ENDBRANCH  15  16
ENDBRANCH  12  15
ENDBRANCH  11  12
ENDBRANCH   8  11
ENDBRANCH   7   8
ENDBRANCH   6   7
ENDBRANCH   5   6
ENDBRANCH   2   5
TORSDOF 10
ENDMDL
MODEL        6
REMARK 921   NORMALIZED FREE ENERGY PREDICTED BY IDOCK:   -7.07 KCAL/MOL
REMARK 922        TOTAL FREE ENERGY PREDICTED BY IDOCK:  -12.14 KCAL/MOL
REMARK 923 INTER-LIGAND FREE ENERGY PREDICTED BY IDOCK:  -10.76 KCAL/MOL
REMARK 924 INTRA-LIGAND FREE ENERGY PREDICTED BY IDOCK:   -1.38 KCAL/MOL
REMARK 927      BINDING AFFINITY PREDICTED BY RF-SCORE:    0.00 PKD
ROOT
HETATM    1  C   UNL     1      -7.921   8.478  68.948  1.00  0.00    -0.118 C  
HETATM    2  N   UNL     1      -8.852   8.207  67.786  1.00  0.00    -0.130 N  
HETATM    3  C   UNL     1      -8.581   6.833  67.198  1.00  0.00    -0.120 C  
HETATM    4  C   UNL     1     -10.303   8.233  68.295  1.00  0.00    -0.198 C  
ENDROOT
BRANCH   2   5
HETATM    5  C   UNL     1      -8.621   9.316  66.730  1.00  0.00    -0.127 C  
BRANCH   5   6
HETATM    6  C   UNL     1      -9.749   9.487  65.729  1.00  0.00    -0.287 C  
BRANCH   6   7
HETATM    7  O   UNL     1      -9.244  10.082  64.549  1.00  0.00    -0.223 OA 
BRANCH   7   8
HETATM    8  P   UNL     1     -10.335  11.304  63.992  1.00  0.00    -0.425 P  
HETATM    9  O   UNL     1      -9.544  11.357  62.691  1.00  0.00    -0.320 OA 
HETATM   10  O   UNL     1      -9.898  12.167  65.182  1.00  0.00    -0.247 OA 
BRANCH   8  11
HETATM   11  O   UNL     1     -11.426  12.526  63.435  1.00  0.00    -0.472 OA 
BRANCH  11  12
HETATM   12  P   UNL     1     -11.908  13.518  64.767  1.00  0.00    -0.430 P  
HETATM   13  O   UNL     1     -12.438  14.645  63.688  1.00  0.00    -0.754 OA 
HETATM   14  O   UNL     1     -13.140  12.607  64.950  1.00  0.00    -0.850 OA 
BRANCH  12  15
HETATM   15  O   UNL     1     -12.390  14.512  66.099  1.00  0.00    -0.338 OA 
BRANCH  15  16
HETATM   16  C   UNL     1     -11.332  14.910  66.992  1.00  0.00    -0.342 C  
BRANCH  16  17
HETATM   17  C   UNL     1     -11.807  15.179  68.411  1.00  0.00    -0.267 C  
HETATM   18  O   UNL     1     -12.516  14.043  68.913  1.00  0.00    -0.197 OA 
HETATM   19  C   UNL     1     -12.474  14.128  70.338  1.00  0.00    -0.357 C  
HETATM   20  H   UNL     1      -9.764  17.092  70.088  1.00  0.00     0.000 HD 
HETATM   21  C   UNL     1     -11.179  14.882  70.707  1.00  0.00    -0.176 C  
HETATM   22  H   UNL     1     -10.588  16.367  71.925  1.00  0.00     0.000 HD 
HETATM   23  C   UNL     1     -10.693  15.490  69.393  1.00  0.00    -0.251 C  
HETATM   24  O   UNL     1     -11.385  15.902  71.698  1.00  0.00    -0.369 OA 
HETATM   25  O   UNL     1     -10.461  16.897  69.473  1.00  0.00    -0.303 OA 
BRANCH  19  26
HETATM   26  N   UNL     1     -12.601  12.796  70.933  1.00  0.00    -0.311 N  
HETATM   27  C   UNL     1     -11.972  11.703  70.384  1.00  0.00    -0.358 C  
HETATM   28  C   UNL     1     -12.173  10.481  70.863  1.00  0.00    -0.490 C  
HETATM   29  C   UNL     1     -13.109  10.381  71.996  1.00  0.00    -0.416 C  
HETATM   30  N   UNL     1     -13.707  11.404  72.525  1.00  0.00    -0.203 N  
HETATM   31  N   UNL     1     -13.390   9.151  72.527  1.00  0.00    -0.555 NA 
HETATM   32  H   UNL     1     -14.336  11.277  73.317  1.00  0.00     0.000 HD 
HETATM   33  C   UNL     1     -13.487  12.663  72.009  1.00  0.00    -0.418 C  
HETATM   34  H1  UNL     1     -14.038   9.082  73.311  1.00  0.00     0.000 HD 
HETATM   35  H2  UNL     1     -12.955   8.312  72.142  1.00  0.00     0.000 HD 
HETATM   36  O   UNL     1     -14.057  13.650  72.480  1.00  0.00    -0.712 OA 
ENDBRANCH  19  26
ENDBRANCH  16  17
ENDBRANCH  15  16
ENDBRANCH  12  15
ENDBRANCH  11  12
ENDBRANCH   8  11
ENDBRANCH   7   8
ENDBRANCH   6   7
ENDBRANCH   5   6
ENDBRANCH   2   5
TORSDOF 10
ENDMDL
MODEL        7
REMARK 921   NORMALIZED FREE ENERGY PREDICTED BY IDOCK:   -7.03 KCAL/MOL
REMARK 922        TOTAL FREE ENERGY PREDICTED BY IDOCK:  -12.07 KCAL/MOL
REMARK 923 INTER-LIGAND FREE ENERGY PREDICTED BY IDOCK:  -10.40 KCAL/MOL
REMARK 924 INTRA-LIGAND FREE ENERGY PREDICTED BY IDOCK:   -1.67 KCAL/MOL
REMARK 927      BINDING AFFINITY PREDICTED BY RF-SCORE:    0.00 PKD
ROOT
HETATM    1  C   UNL     1      -8.266  20.487  67.401  1.00  0.00    -0.286 C  
HETATM    2  N   UNL     1      -8.932  19.138  67.572  1.00  0.00    -0.292 N  
HETATM    3  C   UNL     1      -7.916  18.096  68.007  1.00  0.00    -0.264 C  
HETATM    4  C   UNL     1     -10.003  19.249  68.670  1.00  0.00    -0.431 C  
ENDROOT
BRANCH   2   5
HETATM    5  C   UNL     1      -9.573  18.755  66.215  1.00  0.00    -0.297 C  
BRANCH   5   6
HETATM    6  C   UNL     1     -10.501  17.555  66.266  1.00  0.00    -0.283 C  
BRANCH   6   7
HETATM    7  O   UNL     1      -9.927  16.487  65.539  1.00  0.00    -0.541 OA 
BRANCH   7   8
HETATM    8  P   UNL     1     -11.174  15.462  64.915  1.00  0.00    -0.277 P  
HETATM    9  O   UNL     1     -10.087  14.537  64.380  1.00  0.00    -0.067 OA 
HETATM   10  O   UNL     1     -11.652  16.644  64.064  1.00  0.00    -1.197 OA 
BRANCH   8  11
HETATM   11  O   UNL     1     -12.421  14.437  64.292  1.00  0.00    -0.659 OA 
BRANCH  11  12
HETATM   12  P   UNL     1     -11.791  12.844  64.054  1.00  0.00    -0.519 P  
HETATM   13  O   UNL     1     -12.521  12.386  65.458  1.00  0.00    -0.643 OA 
HETATM   14  O   UNL     1     -12.893  12.608  62.999  1.00  0.00    -0.467 OA 
BRANCH  12  15
HETATM   15  O   UNL     1     -11.162  11.249  63.818  1.00  0.00    -0.359 OA 
BRANCH  15  16
HETATM   16  C   UNL     1      -9.741  11.108  64.008  1.00  0.00    -0.283 C  
BRANCH  16  17
HETATM   17  C   UNL     1      -9.345  10.865  65.456  1.00  0.00    -0.206 C  
HETATM   18  O   UNL     1      -9.326  12.103  66.172  1.00  0.00    -0.231 OA 
HETATM   19  C   UNL     1      -9.470  11.781  67.556  1.00  0.00    -0.174 C  
HETATM   20  H   UNL     1     -10.377   7.983  66.584  1.00  0.00     0.000 HD 
HETATM   21  C   UNL     1     -10.272  10.465  67.631  1.00  0.00    -0.201 C  
HETATM   22  H   UNL     1     -10.199   8.702  68.592  1.00  0.00     0.000 HD 
HETATM   23  C   UNL     1     -10.267   9.921  66.205  1.00  0.00    -0.207 C  
HETATM   24  O   UNL     1      -9.705   9.512  68.545  1.00  0.00    -0.147 OA 
HETATM   25  O   UNL     1      -9.800   8.575  66.116  1.00  0.00    -0.244 OA 
BRANCH  19  26
HETATM   26  N   UNL     1     -10.062  12.906  68.284  1.00  0.00    -0.239 N  
HETATM   27  C   UNL     1     -11.359  12.860  68.740  1.00  0.00    -0.290 C  
HETATM   28  C   UNL     1     -11.928  13.918  69.306  1.00  0.00    -0.402 C  
HETATM   29  C   UNL     1     -11.087  15.126  69.398  1.00  0.00    -0.276 C  
HETATM   30  N   UNL     1      -9.862  15.181  68.974  1.00  0.00    -0.229 N  
HETATM   31  N   UNL     1     -11.611  16.266  69.943  1.00  0.00    -0.354 NA 
HETATM   32  H   UNL     1      -9.323  16.040  69.075  1.00  0.00     0.000 HD 
HETATM   33  C   UNL     1      -9.294  14.072  68.386  1.00  0.00    -0.210 C  
HETATM   34  H1  UNL     1     -11.030  17.101  70.007  1.00  0.00     0.000 HD 
HETATM   35  H2  UNL     1     -12.574  16.280  70.283  1.00  0.00     0.000 HD 
HETATM   36  O   UNL     1      -8.138  14.103  67.957  1.00  0.00    -0.127 OA 
ENDBRANCH  19  26
ENDBRANCH  16  17
ENDBRANCH  15  16
ENDBRANCH  12  15
ENDBRANCH  11  12
ENDBRANCH   8  11
ENDBRANCH   7   8
ENDBRANCH   6   7
ENDBRANCH   5   6
ENDBRANCH   2   5
TORSDOF 10
ENDMDL
MODEL        8
REMARK 921   NORMALIZED FREE ENERGY PREDICTED BY IDOCK:   -6.96 KCAL/MOL
REMARK 922        TOTAL FREE ENERGY PREDICTED BY IDOCK:  -11.96 KCAL/MOL
REMARK 923 INTER-LIGAND FREE ENERGY PREDICTED BY IDOCK:  -10.46 KCAL/MOL
REMARK 924 INTRA-LIGAND FREE ENERGY PREDICTED BY IDOCK:   -1.50 KCAL/MOL
REMARK 927      BINDING AFFINITY PREDICTED BY RF-SCORE:    0.00 PKD
ROOT
HETATM    1  C   UNL     1      -9.235  16.085  67.848  1.00  0.00    -0.196 C  
HETATM    2  N   UNL     1     -10.468  15.216  67.978  1.00  0.00    -0.243 N  
HETATM    3  C   UNL     1     -10.097  13.847  68.523  1.00  0.00    -0.234 C  
HETATM    4  C   UNL     1     -11.441  15.878  68.968  1.00  0.00    -0.380 C  
ENDROOT
BRANCH   2   5
HETATM    5  C   UNL     1     -11.109  15.097  66.573  1.00  0.00    -0.305 C  
BRANCH   5   6
HETATM    6  C   UNL     1     -12.356  14.233  66.514  1.00  0.00    -0.314 C  
BRANCH   6   7
HETATM    7  O   UNL     1     -12.923  14.315  65.221  1.00  0.00    -0.679 OA 
BRANCH   7   8
HETATM    8  P   UNL     1     -12.177  13.156  64.175  1.00  0.00    -0.367 P  
HETATM    9  O   UNL     1     -12.518  14.061  62.998  1.00  0.00    -0.641 OA 
HETATM   10  O   UNL     1     -13.203  12.127  64.664  1.00  0.00    -0.659 OA 
BRANCH   8  11
HETATM   11  O   UNL     1     -11.430  11.997  63.130  1.00  0.00    -0.319 OA 
BRANCH  11  12
HETATM   12  P   UNL     1     -10.382  10.979  64.055  1.00  0.00    -0.292 P  
HETATM   13  O   UNL     1      -9.333  10.968  62.785  1.00  0.00    -0.306 OA 
HETATM   14  O   UNL     1      -9.943  12.223  64.856  1.00  0.00    -0.259 OA 
BRANCH  12  15
HETATM   15  O   UNL     1      -9.332   9.960  64.980  1.00  0.00    -0.225 OA 
BRANCH  15  16
HETATM   16  C   UNL     1      -9.935   9.321  66.122  1.00  0.00    -0.277 C  
BRANCH  16  17
HETATM   17  C   UNL     1      -9.503   9.922  67.450  1.00  0.00    -0.149 C  
HETATM   18  O   UNL     1     -10.642  10.120  68.290  1.00  0.00    -0.198 OA 
HETATM   19  C   UNL     1     -10.159  10.175  69.633  1.00  0.00    -0.234 C  
HETATM   20  H   UNL     1      -6.544   8.919  68.390  1.00  0.00     0.000 HD 
HETATM   21  C   UNL     1      -8.874   9.322  69.685  1.00  0.00    -0.155 C  
HETATM   22  H   UNL     1      -7.005   9.445  70.413  1.00  0.00     0.000 HD 
HETATM   23  C   UNL     1      -8.508   9.076  68.223  1.00  0.00    -0.129 C  
HETATM   24  O   UNL     1      -7.797   9.971  70.381  1.00  0.00    -0.216 OA 
HETATM   25  O   UNL     1      -7.167   9.449  67.906  1.00  0.00    -0.081 OA 
BRANCH  19  26
HETATM   26  N   UNL     1     -11.207   9.766  70.571  1.00  0.00    -0.290 N  
HETATM   27  C   UNL     1     -11.364   8.450  70.941  1.00  0.00    -0.268 C  
HETATM   28  C   UNL     1     -12.378   8.067  71.707  1.00  0.00    -0.352 C  
HETATM   29  C   UNL     1     -13.312   9.131  72.116  1.00  0.00    -0.463 C  
HETATM   30  N   UNL     1     -13.175  10.376  71.776  1.00  0.00    -0.431 N  
HETATM   31  N   UNL     1     -14.399   8.810  72.883  1.00  0.00    -1.104 NA 
HETATM   32  H   UNL     1     -13.846  11.072  72.098  1.00  0.00     0.000 HD 
HETATM   33  C   UNL     1     -12.117  10.750  70.976  1.00  0.00    -0.346 C  
HETATM   34  H1  UNL     1     -15.045   9.546  73.165  1.00  0.00     0.000 HD 
HETATM   35  H2  UNL     1     -14.560   7.844  73.169  1.00  0.00     0.000 HD 
HETATM   36  O   UNL     1     -11.973  11.923  70.623  1.00  0.00    -0.342 OA 
ENDBRANCH  19  26
ENDBRANCH  16  17
ENDBRANCH  15  16
ENDBRANCH  12  15
ENDBRANCH  11  12
ENDBRANCH   8  11
ENDBRANCH   7   8
ENDBRANCH   6   7
ENDBRANCH   5   6
ENDBRANCH   2   5
TORSDOF 10
ENDMDL
MODEL        9
REMARK 921   NORMALIZED FREE ENERGY PREDICTED BY IDOCK:   -6.96 KCAL/MOL
REMARK 922        TOTAL FREE ENERGY PREDICTED BY IDOCK:  -11.96 KCAL/MOL
REMARK 923 INTER-LIGAND FREE ENERGY PREDICTED BY IDOCK:  -10.60 KCAL/MOL
REMARK 924 INTRA-LIGAND FREE ENERGY PREDICTED BY IDOCK:   -1.35 KCAL/MOL
REMARK 927      BINDING AFFINITY PREDICTED BY RF-SCORE:    0.00 PKD
ROOT
HETATM    1  C   UNL     1      -8.136   3.894  66.046  1.00  0.00    -0.101 C  
HETATM    2  N   UNL     1      -9.055   5.019  66.471  1.00  0.00    -0.122 N  
HETATM    3  C   UNL     1      -8.613   6.330  65.844  1.00  0.00    -0.148 C  
HETATM    4  C   UNL     1     -10.479   4.709  65.980  1.00  0.00    -0.264 C  
ENDROOT
BRANCH   2   5
HETATM    5  C   UNL     1      -9.013   5.102  68.017  1.00  0.00    -0.110 C  
BRANCH   5   6
HETATM    6  C   UNL     1     -10.323   5.506  68.669  1.00  0.00    -0.185 C  
BRANCH   6   7
HETATM    7  O   UNL     1     -10.397   4.940  69.962  1.00  0.00    -0.268 OA 
BRANCH   7   8
HETATM    8  P   UNL     1     -10.936   6.130  71.096  1.00  0.00    -0.271 P  
HETATM    9  O   UNL     1     -11.796   6.732  69.991  1.00  0.00    -0.316 OA 
HETATM   10  O   UNL     1      -9.477   6.573  71.250  1.00  0.00    -0.165 OA 
BRANCH   8  11
HETATM   11  O   UNL     1     -11.476   7.320  72.231  1.00  0.00    -0.261 OA 
BRANCH  11  12
HETATM   12  P   UNL     1     -12.035   8.717  71.379  1.00  0.00    -0.320 P  
HETATM   13  O   UNL     1     -12.959   9.100  72.687  1.00  0.00    -0.388 OA 
HETATM   14  O   UNL     1     -10.688   9.401  71.694  1.00  0.00    -0.356 OA 
BRANCH  12  15
HETATM   15  O   UNL     1     -12.596  10.115  70.526  1.00  0.00    -0.281 OA 
BRANCH  15  16
HETATM   16  C   UNL     1     -11.584  10.859  69.820  1.00  0.00    -0.322 C  
BRANCH  16  17
HETATM   17  C   UNL     1     -11.504  10.517  68.340  1.00  0.00    -0.214 C  
HETATM   18  O   UNL     1     -11.972  11.619  67.559  1.00  0.00    -0.622 OA 
HETATM   19  C   UNL     1     -11.409  11.468  66.255  1.00  0.00    -0.153 C  
HETATM   20  H   UNL     1      -8.997   8.554  67.628  1.00  0.00     0.000 HD 
HETATM   21  C   UNL     1     -10.073  10.714  66.426  1.00  0.00    -0.225 C  
HETATM   22  H   UNL     1      -9.083   9.182  65.584  1.00  0.00     0.000 HD 
HETATM   23  C   UNL     1     -10.108  10.175  67.854  1.00  0.00    -0.176 C  
HETATM   24  O   UNL     1      -9.905   9.647  65.479  1.00  0.00    -0.302 OA 
HETATM   25  O   UNL     1      -9.871   8.769  67.932  1.00  0.00    -0.156 OA 
BRANCH  19  26
HETATM   26  N   UNL     1     -11.300  12.770  65.591  1.00  0.00    -0.307 N  
HETATM   27  C   UNL     1     -10.266  13.632  65.871  1.00  0.00    -0.311 C  
HETATM   28  C   UNL     1     -10.226  14.852  65.347  1.00  0.00    -0.409 C  
HETATM   29  C   UNL     1     -11.356  15.212  64.472  1.00  0.00    -0.290 C  
HETATM   30  N   UNL     1     -12.336  14.407  64.199  1.00  0.00    -0.803 N  
HETATM   31  N   UNL     1     -11.401  16.462  63.917  1.00  0.00    -1.535 NA 
HETATM   32  H   UNL     1     -13.086  14.705  63.575  1.00  0.00     0.000 HD 
HETATM   33  C   UNL     1     -12.359  13.147  64.756  1.00  0.00    -0.423 C  
HETATM   34  H1  UNL     1     -12.183  16.711  63.312  1.00  0.00     0.000 HD 
HETATM   35  H2  UNL     1     -10.661  17.138  64.108  1.00  0.00     0.000 HD 
HETATM   36  O   UNL     1     -13.288  12.368  64.528  1.00  0.00    -0.800 OA 
ENDBRANCH  19  26
ENDBRANCH  16  17
ENDBRANCH  15  16
ENDBRANCH  12  15
ENDBRANCH  11  12
ENDBRANCH   8  11
ENDBRANCH   7   8
ENDBRANCH   6   7
ENDBRANCH   5   6
ENDBRANCH   2   5
TORSDOF 10
ENDMDL
MODEL       10
REMARK 921   NORMALIZED FREE ENERGY PREDICTED BY IDOCK:   -6.92 KCAL/MOL
REMARK 922        TOTAL FREE ENERGY PREDICTED BY IDOCK:  -11.89 KCAL/MOL
REMARK 923 INTER-LIGAND FREE ENERGY PREDICTED BY IDOCK:  -10.51 KCAL/MOL
REMARK 924 INTRA-LIGAND FREE ENERGY PREDICTED BY IDOCK:   -1.39 KCAL/MOL
REMARK 927      BINDING AFFINITY PREDICTED BY RF-SCORE:    0.00 PKD
ROOT
HETATM    1  C   UNL     1      -8.948  15.405  69.031  1.00  0.00    -0.230 C  
HETATM    2  N   UNL     1     -10.460  15.413  68.969  1.00  0.00    -0.238 N  
HETATM    3  C   UNL     1     -10.988  14.010  68.716  1.00  0.00    -0.262 C  
HETATM    4  C   UNL     1     -11.010  15.895  70.322  1.00  0.00    -0.362 C  
ENDROOT
BRANCH   2   5
HETATM    5  C   UNL     1     -10.879  16.376  67.831  1.00  0.00    -0.328 C  
BRANCH   5   6
HETATM    6  C   UNL     1      -9.754  16.785  66.898  1.00  0.00    -0.257 C  
BRANCH   6   7
HETATM    7  O   UNL     1     -10.279  17.027  65.607  1.00  0.00    -0.556 OA 
BRANCH   7   8
HETATM    8  P   UNL     1     -11.202  15.661  65.081  1.00  0.00    -0.166 P  
HETATM    9  O   UNL     1      -9.926  14.830  65.140  1.00  0.00    -0.355 OA 
HETATM   10  O   UNL     1     -11.540  16.443  63.806  1.00  0.00    -1.055 OA 
BRANCH   8  11
HETATM   11  O   UNL     1     -12.125  14.296  64.555  1.00  0.00    -0.441 OA 
BRANCH  11  12
HETATM   12  P   UNL     1     -11.257  12.843  64.911  1.00  0.00    -0.336 P  
HETATM   13  O   UNL     1     -12.470  12.414  65.939  1.00  0.00    -0.583 OA 
HETATM   14  O   UNL     1     -11.733  12.273  63.558  1.00  0.00    -0.450 OA 
BRANCH  12  15
HETATM   15  O   UNL     1     -10.390  11.389  65.268  1.00  0.00    -0.259 OA 
BRANCH  15  16
HETATM   16  C   UNL     1      -9.465  11.472  66.369  1.00  0.00    -0.213 C  
BRANCH  16  17
HETATM   17  C   UNL     1      -9.299  10.160  67.121  1.00  0.00    -0.153 C  
HETATM   18  O   UNL     1      -9.794  10.296  68.455  1.00  0.00    -0.155 OA 
HETATM   19  C   UNL     1     -10.095   8.979  68.919  1.00  0.00    -0.196 C  
HETATM   20  H   UNL     1      -9.601   7.548  65.190  1.00  0.00     0.000 HD 
HETATM   21  C   UNL     1     -10.458   8.137  67.678  1.00  0.00    -0.231 C  
HETATM   22  H   UNL     1     -10.038   6.334  66.898  1.00  0.00     0.000 HD 
HETATM   23  C   UNL     1     -10.015   8.983  66.487  1.00  0.00    -0.285 C  
HETATM   24  O   UNL     1      -9.814   6.852  67.662  1.00  0.00    -0.127 OA 
HETATM   25  O   UNL     1      -9.153   8.285  65.588  1.00  0.00    -0.156 OA 
BRANCH  19  26
HETATM   26  N   UNL     1     -11.129   9.025  69.956  1.00  0.00    -0.220 N  
HETATM   27  C   UNL     1     -11.959  10.113  70.091  1.00  0.00    -0.185 C  
HETATM   28  C   UNL     1     -12.824  10.198  71.095  1.00  0.00    -0.494 C  
HETATM   29  C   UNL     1     -12.821   9.069  72.042  1.00  0.00    -0.401 C  
HETATM   30  N   UNL     1     -12.044   8.037  71.925  1.00  0.00    -0.301 N  
HETATM   31  N   UNL     1     -13.664   9.097  73.120  1.00  0.00    -1.052 NA 
HETATM   32  H   UNL     1     -12.094   7.278  72.604  1.00  0.00     0.000 HD 
HETATM   33  C   UNL     1     -11.151   7.971  70.877  1.00  0.00    -0.255 C  
HETATM   34  H1  UNL     1     -13.662   8.316  73.775  1.00  0.00     0.000 HD 
HETATM   35  H2  UNL     1     -14.288   9.891  73.265  1.00  0.00     0.000 HD 
HETATM   36  O   UNL     1     -10.389   7.010  70.752  1.00  0.00    -0.205 OA 
ENDBRANCH  19  26
ENDBRANCH  16  17
ENDBRANCH  15  16
ENDBRANCH  12  15
ENDBRANCH  11  12
ENDBRANCH   8  11
ENDBRANCH   7   8
ENDBRANCH   6   7
ENDBRANCH   5   6
ENDBRANCH   2   5
TORSDOF 10
ENDMDL
MODEL       11
REMARK 921   NORMALIZED FREE ENERGY PREDICTED BY IDOCK:   -6.91 KCAL/MOL
REMARK 922        TOTAL FREE ENERGY PREDICTED BY IDOCK:  -11.89 KCAL/MOL
REMARK 923 INTER-LIGAND FREE ENERGY PREDICTED BY IDOCK:  -10.31 KCAL/MOL
REMARK 924 INTRA-LIGAND FREE ENERGY PREDICTED BY IDOCK:   -1.57 KCAL/MOL
REMARK 927      BINDING AFFINITY PREDICTED BY RF-SCORE:    0.00 PKD
ROOT
HETATM    1  C   UNL     1     -11.009  16.874  68.395  1.00  0.00    -0.296 C  
HETATM    2  N   UNL     1     -11.017  15.628  69.254  1.00  0.00    -0.247 N  
HETATM    3  C   UNL     1      -9.675  14.920  69.175  1.00  0.00    -0.183 C  
HETATM    4  C   UNL     1     -11.258  16.034  70.718  1.00  0.00    -0.352 C  
ENDROOT
BRANCH   2   5
HETATM    5  C   UNL     1     -12.157  14.712  68.743  1.00  0.00    -0.202 C  
BRANCH   5   6
HETATM    6  C   UNL     1     -11.891  13.225  68.886  1.00  0.00    -0.327 C  
BRANCH   6   7
HETATM    7  O   UNL     1     -12.389  12.776  70.131  1.00  0.00    -0.261 OA 
BRANCH   7   8
HETATM    8  P   UNL     1     -11.950  11.121  70.380  1.00  0.00    -0.367 P  
HETATM    9  O   UNL     1     -12.237  10.867  68.905  1.00  0.00    -0.494 OA 
HETATM   10  O   UNL     1     -13.087  11.024  71.403  1.00  0.00    -0.395 OA 
BRANCH   8  11
HETATM   11  O   UNL     1     -11.510   9.467  70.629  1.00  0.00    -0.264 OA 
BRANCH  11  12
HETATM   12  P   UNL     1     -10.357   8.991  69.431  1.00  0.00    -0.213 P  
HETATM   13  O   UNL     1      -9.158   9.279  70.523  1.00  0.00    -0.221 OA 
HETATM   14  O   UNL     1     -10.733   7.520  69.710  1.00  0.00    -0.241 OA 
BRANCH  12  15
HETATM   15  O   UNL     1      -9.202   8.515  68.233  1.00  0.00    -0.138 OA 
BRANCH  15  16
HETATM   16  C   UNL     1      -8.719   9.572  67.382  1.00  0.00    -0.125 C  
BRANCH  16  17
HETATM   17  C   UNL     1      -9.396   9.610  66.021  1.00  0.00    -0.207 C  
HETATM   18  O   UNL     1     -10.271  10.738  65.942  1.00  0.00    -0.248 OA 
HETATM   19  C   UNL     1     -10.456  11.019  64.554  1.00  0.00    -0.342 C  
HETATM   20  H   UNL     1      -7.500   8.449  63.633  1.00  0.00     0.000 HD 
HETATM   21  C   UNL     1      -9.180  10.549  63.825  1.00  0.00    -0.263 C  
HETATM   22  H   UNL     1      -8.673   9.504  62.186  1.00  0.00     0.000 HD 
HETATM   23  C   UNL     1      -8.435   9.697  64.850  1.00  0.00    -0.151 C  
HETATM   24  O   UNL     1      -9.459   9.793  62.635  1.00  0.00    -0.238 OA 
HETATM   25  O   UNL     1      -8.102   8.395  64.366  1.00  0.00    -0.151 OA 
BRANCH  19  26
HETATM   26  N   UNL     1     -10.792  12.432  64.359  1.00  0.00    -0.314 N  
HETATM   27  C   UNL     1     -10.110  13.428  65.020  1.00  0.00    -0.239 C  
HETATM   28  C   UNL     1     -10.484  14.698  64.923  1.00  0.00    -0.415 C  
HETATM   29  C   UNL     1     -11.665  14.958  64.080  1.00  0.00    -0.128 C  
HETATM   30  N   UNL     1     -12.315  14.028  63.450  1.00  0.00    -1.154 N  
HETATM   31  N   UNL     1     -12.129  16.239  63.953  1.00  0.00    -1.201 NA 
HETATM   32  H   UNL     1     -13.119  14.267  62.871  1.00  0.00     0.000 HD 
HETATM   33  C   UNL     1     -11.912  12.715  63.569  1.00  0.00    -0.548 C  
HETATM   34  H1  UNL     1     -12.946  16.418  63.371  1.00  0.00     0.000 HD 
HETATM   35  H2  UNL     1     -11.661  17.006  64.437  1.00  0.00     0.000 HD 
HETATM   36  O   UNL     1     -12.523  11.810  62.996  1.00  0.00    -0.387 OA 
ENDBRANCH  19  26
ENDBRANCH  16  17
ENDBRANCH  15  16
ENDBRANCH  12  15
ENDBRANCH  11  12
ENDBRANCH   8  11
ENDBRANCH   7   8
ENDBRANCH   6   7
ENDBRANCH   5   6
ENDBRANCH   2   5
TORSDOF 10
ENDMDL
MODEL       12
REMARK 921   NORMALIZED FREE ENERGY PREDICTED BY IDOCK:   -6.80 KCAL/MOL
REMARK 922        TOTAL FREE ENERGY PREDICTED BY IDOCK:  -11.70 KCAL/MOL
REMARK 923 INTER-LIGAND FREE ENERGY PREDICTED BY IDOCK:  -10.76 KCAL/MOL
REMARK 924 INTRA-LIGAND FREE ENERGY PREDICTED BY IDOCK:   -0.94 KCAL/MOL
REMARK 927      BINDING AFFINITY PREDICTED BY RF-SCORE:    0.00 PKD
ROOT
HETATM    1  C   UNL     1      -8.629   8.401  65.590  1.00  0.00    -0.174 C  
HETATM    2  N   UNL     1      -8.373   9.866  65.311  1.00  0.00    -0.141 N  
HETATM    3  C   UNL     1      -7.463  10.457  66.375  1.00  0.00    -0.120 C  
HETATM    4  C   UNL     1      -7.669   9.997  63.950  1.00  0.00    -0.145 C  
ENDROOT
BRANCH   2   5
HETATM    5  C   UNL     1      -9.744  10.587  65.292  1.00  0.00    -0.270 C  
BRANCH   5   6
HETATM    6  C   UNL     1     -10.228  10.998  63.913  1.00  0.00    -0.364 C  
BRANCH   6   7
HETATM    7  O   UNL     1     -11.634  11.140  63.933  1.00  0.00    -0.038 OA 
BRANCH   7   8
HETATM    8  P   UNL     1     -12.057  12.818  63.934  1.00  0.00    -0.519 P  
HETATM    9  O   UNL     1     -12.617  12.632  65.338  1.00  0.00    -0.641 OA 
HETATM   10  O   UNL     1     -12.949  12.544  62.718  1.00  0.00    -0.046 OA 
BRANCH   8  11
HETATM   11  O   UNL     1     -12.478  14.496  63.935  1.00  0.00    -0.814 OA 
BRANCH  11  12
HETATM   12  P   UNL     1     -11.531  15.327  65.120  1.00  0.00    -0.142 P  
HETATM   13  O   UNL     1     -10.241  14.400  64.684  1.00  0.00    -0.362 OA 
HETATM   14  O   UNL     1     -11.440  16.525  64.150  1.00  0.00    -1.059 OA 
BRANCH  12  15
HETATM   15  O   UNL     1     -10.582  16.158  66.305  1.00  0.00    -0.310 OA 
BRANCH  15  16
HETATM   16  C   UNL     1     -10.199  15.375  67.452  1.00  0.00    -0.249 C  
BRANCH  16  17
HETATM   17  C   UNL     1     -11.142  15.533  68.635  1.00  0.00    -0.297 C  
HETATM   18  O   UNL     1     -11.823  14.301  68.884  1.00  0.00    -0.307 OA 
HETATM   19  C   UNL     1     -12.260  14.340  70.244  1.00  0.00    -0.342 C  
HETATM   20  H   UNL     1     -10.025  17.626  70.874  1.00  0.00     0.000 HD 
HETATM   21  C   UNL     1     -11.266  15.237  71.011  1.00  0.00    -0.335 C  
HETATM   22  H   UNL     1     -11.303  16.739  72.344  1.00  0.00     0.000 HD 
HETATM   23  C   UNL     1     -10.460  15.946  69.926  1.00  0.00    -0.310 C  
HETATM   24  O   UNL     1     -11.915  16.187  71.872  1.00  0.00    -0.475 OA 
HETATM   25  O   UNL     1     -10.452  17.367  70.066  1.00  0.00     0.113 OA 
BRANCH  19  26
HETATM   26  N   UNL     1     -12.401  12.982  70.775  1.00  0.00    -0.360 N  
HETATM   27  C   UNL     1     -11.848  11.900  70.130  1.00  0.00    -0.308 C  
HETATM   28  C   UNL     1     -12.065  10.661  70.556  1.00  0.00    -0.448 C  
HETATM   29  C   UNL     1     -12.934  10.531  71.739  1.00  0.00    -0.476 C  
HETATM   30  N   UNL     1     -13.459  11.544  72.358  1.00  0.00    -0.453 N  
HETATM   31  N   UNL     1     -13.228   9.285  72.221  1.00  0.00    -0.445 NA 
HETATM   32  H   UNL     1     -14.043  11.396  73.180  1.00  0.00     0.000 HD 
HETATM   33  C   UNL     1     -13.224  12.821  71.896  1.00  0.00    -0.412 C  
HETATM   34  H1  UNL     1     -13.829   9.195  73.039  1.00  0.00     0.000 HD 
HETATM   35  H2  UNL     1     -12.850   8.454  71.765  1.00  0.00     0.000 HD 
HETATM   36  O   UNL     1     -13.726  13.800  72.454  1.00  0.00    -0.512 OA 
ENDBRANCH  19  26
ENDBRANCH  16  17
ENDBRANCH  15  16
ENDBRANCH  12  15
ENDBRANCH  11  12
ENDBRANCH   8  11
ENDBRANCH   7   8
ENDBRANCH   6   7
ENDBRANCH   5   6
ENDBRANCH   2   5
TORSDOF 10
ENDMDL
MODEL       13
REMARK 921   NORMALIZED FREE ENERGY PREDICTED BY IDOCK:   -6.75 KCAL/MOL
REMARK 922        TOTAL FREE ENERGY PREDICTED BY IDOCK:  -11.63 KCAL/MOL
REMARK 923 INTER-LIGAND FREE ENERGY PREDICTED BY IDOCK:  -10.01 KCAL/MOL
REMARK 924 INTRA-LIGAND FREE ENERGY PREDICTED BY IDOCK:   -1.62 KCAL/MOL
REMARK 927      BINDING AFFINITY PREDICTED BY RF-SCORE:    0.00 PKD
ROOT
HETATM    1  C   UNL     1      -9.873   7.727  71.211  1.00  0.00    -0.171 C  
HETATM    2  N   UNL     1     -10.554   6.607  70.453  1.00  0.00    -0.214 N  
HETATM    3  C   UNL     1     -10.104   5.257  70.985  1.00  0.00    -0.221 C  
HETATM    4  C   UNL     1     -12.074   6.720  70.657  1.00  0.00    -0.314 C  
ENDROOT
BRANCH   2   5
HETATM    5  C   UNL     1     -10.187   6.763  68.956  1.00  0.00    -0.178 C  
BRANCH   5   6
HETATM    6  C   UNL     1      -9.805   8.172  68.538  1.00  0.00    -0.179 C  
BRANCH   6   7
HETATM    7  O   UNL     1     -10.755   8.660  67.611  1.00  0.00    -0.224 OA 
BRANCH   7   8
HETATM    8  P   UNL     1     -10.116  10.040  66.785  1.00  0.00    -0.226 P  
HETATM    9  O   UNL     1      -9.587   9.099  65.710  1.00  0.00    -0.262 OA 
HETATM   10  O   UNL     1      -9.266  10.329  68.027  1.00  0.00    -0.134 OA 
BRANCH   8  11
HETATM   11  O   UNL     1      -9.479  11.420  65.959  1.00  0.00    -0.210 OA 
BRANCH  11  12
HETATM   12  P   UNL     1     -10.540  12.767  66.185  1.00  0.00    -0.278 P  
HETATM   13  O   UNL     1     -10.643  12.913  64.547  1.00  0.00    -0.337 OA 
HETATM   14  O   UNL     1     -11.671  11.771  66.515  1.00  0.00    -0.530 OA 
BRANCH  12  15
HETATM   15  O   UNL     1     -11.601  14.115  66.409  1.00  0.00    -0.341 OA 
BRANCH  15  16
HETATM   16  C   UNL     1     -11.042  15.233  67.126  1.00  0.00    -0.323 C  
BRANCH  16  17
HETATM   17  C   UNL     1     -11.697  15.476  68.476  1.00  0.00    -0.337 C  
HETATM   18  O   UNL     1     -12.398  14.303  68.897  1.00  0.00    -0.259 OA 
HETATM   19  C   UNL     1     -12.531  14.389  70.316  1.00  0.00    -0.354 C  
HETATM   20  H   UNL     1      -9.977  17.498  70.372  1.00  0.00     0.000 HD 
HETATM   21  C   UNL     1     -11.333  15.214  70.832  1.00  0.00    -0.307 C  
HETATM   22  H   UNL     1     -10.974  16.728  72.102  1.00  0.00     0.000 HD 
HETATM   23  C   UNL     1     -10.727  15.847  69.582  1.00  0.00    -0.304 C  
HETATM   24  O   UNL     1     -11.712  16.220  71.785  1.00  0.00    -0.486 OA 
HETATM   25  O   UNL     1     -10.584  17.265  69.680  1.00  0.00    -0.208 OA 
BRANCH  19  26
HETATM   26  N   UNL     1     -12.655  13.052  70.901  1.00  0.00    -0.323 N  
HETATM   27  C   UNL     1     -12.050  11.959  70.325  1.00  0.00    -0.325 C  
HETATM   28  C   UNL     1     -12.250  10.734  70.796  1.00  0.00    -0.480 C  
HETATM   29  C   UNL     1     -13.159  10.631  71.952  1.00  0.00    -0.458 C  
HETATM   30  N   UNL     1     -13.734  11.653  72.505  1.00  0.00    -0.251 N  
HETATM   31  N   UNL     1     -13.437   9.398  72.476  1.00  0.00    -0.646 NA 
HETATM   32  H   UNL     1     -14.344  11.524  73.312  1.00  0.00     0.000 HD 
HETATM   33  C   UNL     1     -13.515  12.916  71.997  1.00  0.00    -0.473 C  
HETATM   34  H1  UNL     1     -14.065   9.326  73.275  1.00  0.00     0.000 HD 
HETATM   35  H2  UNL     1     -13.019   8.559  72.072  1.00  0.00     0.000 HD 
HETATM   36  O   UNL     1     -14.064  13.903  72.493  1.00  0.00    -0.658 OA 
ENDBRANCH  19  26
ENDBRANCH  16  17
ENDBRANCH  15  16
ENDBRANCH  12  15
ENDBRANCH  11  12
ENDBRANCH   8  11
ENDBRANCH   7   8
ENDBRANCH   6   7
ENDBRANCH   5   6
ENDBRANCH   2   5
TORSDOF 10
ENDMDL
MODEL       14
REMARK 921   NORMALIZED FREE ENERGY PREDICTED BY IDOCK:   -6.72 KCAL/MOL
REMARK 922        TOTAL FREE ENERGY PREDICTED BY IDOCK:  -11.58 KCAL/MOL
REMARK 923 INTER-LIGAND FREE ENERGY PREDICTED BY IDOCK:  -10.05 KCAL/MOL
REMARK 924 INTRA-LIGAND FREE ENERGY PREDICTED BY IDOCK:   -1.54 KCAL/MOL
REMARK 927      BINDING AFFINITY PREDICTED BY RF-SCORE:    0.00 PKD
ROOT
HETATM    1  C   UNL     1      -9.606  14.994  68.969  1.00  0.00    -0.225 C  
HETATM    2  N   UNL     1     -10.809  15.714  68.400  1.00  0.00    -0.277 N  
HETATM    3  C   UNL     1     -12.006  15.557  69.322  1.00  0.00    -0.316 C  
HETATM    4  C   UNL     1     -10.484  17.213  68.287  1.00  0.00    -0.373 C  
ENDROOT
BRANCH   2   5
HETATM    5  C   UNL     1     -11.102  15.108  67.004  1.00  0.00    -0.328 C  
BRANCH   5   6
HETATM    6  C   UNL     1     -12.154  14.014  66.994  1.00  0.00    -0.420 C  
BRANCH   6   7
HETATM    7  O   UNL     1     -12.937  14.127  65.822  1.00  0.00    -0.492 OA 
BRANCH   7   8
HETATM    8  P   UNL     1     -12.145  13.332  64.505  1.00  0.00    -0.421 P  
HETATM    9  O   UNL     1     -12.428  14.561  63.649  1.00  0.00    -0.782 OA 
HETATM   10  O   UNL     1     -13.196  12.221  64.608  1.00  0.00    -0.763 OA 
BRANCH   8  11
HETATM   11  O   UNL     1     -11.353  12.538  63.188  1.00  0.00    -0.401 OA 
BRANCH  11  12
HETATM   12  P   UNL     1     -10.236  11.372  63.807  1.00  0.00    -0.464 P  
HETATM   13  O   UNL     1      -9.206  11.762  62.582  1.00  0.00    -0.303 OA 
HETATM   14  O   UNL     1      -9.856  12.380  64.913  1.00  0.00    -0.209 OA 
BRANCH  12  15
HETATM   15  O   UNL     1      -9.117  10.206  64.426  1.00  0.00    -0.203 OA 
BRANCH  15  16
HETATM   16  C   UNL     1      -8.444  10.577  65.645  1.00  0.00    -0.176 C  
BRANCH  16  17
HETATM   17  C   UNL     1      -8.684   9.603  66.789  1.00  0.00    -0.134 C  
HETATM   18  O   UNL     1      -9.150  10.309  67.941  1.00  0.00    -0.131 OA 
HETATM   19  C   UNL     1      -9.831   9.356  68.760  1.00  0.00    -0.163 C  
HETATM   20  H   UNL     1      -9.684   6.671  65.766  1.00  0.00     0.000 HD 
HETATM   21  C   UNL     1     -10.393   8.272  67.816  1.00  0.00    -0.234 C  
HETATM   22  H   UNL     1     -10.495   6.269  67.706  1.00  0.00     0.000 HD 
HETATM   23  C   UNL     1      -9.695   8.515  66.480  1.00  0.00    -0.260 C  
HETATM   24  O   UNL     1     -10.149   6.936  68.286  1.00  0.00    -0.155 OA 
HETATM   25  O   UNL     1      -9.051   7.352  65.959  1.00  0.00    -0.159 OA 
BRANCH  19  26
HETATM   26  N   UNL     1     -10.831  10.023  69.596  1.00  0.00    -0.244 N  
HETATM   27  C   UNL     1     -11.262  11.299  69.318  1.00  0.00    -0.272 C  
HETATM   28  C   UNL     1     -12.089  11.940  70.136  1.00  0.00    -0.382 C  
HETATM   29  C   UNL     1     -12.495  11.203  71.346  1.00  0.00    -0.309 C  
HETATM   30  N   UNL     1     -12.097   9.999  71.619  1.00  0.00    -0.378 N  
HETATM   31  N   UNL     1     -13.323  11.808  72.252  1.00  0.00    -0.545 NA 
HETATM   32  H   UNL     1     -12.421   9.532  72.465  1.00  0.00     0.000 HD 
HETATM   33  C   UNL     1     -11.236   9.354  70.758  1.00  0.00    -0.302 C  
HETATM   34  H1  UNL     1     -13.603  11.298  73.089  1.00  0.00     0.000 HD 
HETATM   35  H2  UNL     1     -13.656  12.759  72.091  1.00  0.00     0.000 HD 
HETATM   36  O   UNL     1     -10.828   8.216  71.002  1.00  0.00    -0.227 OA 
ENDBRANCH  19  26
ENDBRANCH  16  17
ENDBRANCH  15  16
ENDBRANCH  12  15
ENDBRANCH  11  12
ENDBRANCH   8  11
ENDBRANCH   7   8
ENDBRANCH   6   7
ENDBRANCH   5   6
ENDBRANCH   2   5
TORSDOF 10
ENDMDL
MODEL       15
REMARK 921   NORMALIZED FREE ENERGY PREDICTED BY IDOCK:   -6.67 KCAL/MOL
REMARK 922        TOTAL FREE ENERGY PREDICTED BY IDOCK:  -11.51 KCAL/MOL
REMARK 923 INTER-LIGAND FREE ENERGY PREDICTED BY IDOCK:  -10.00 KCAL/MOL
REMARK 924 INTRA-LIGAND FREE ENERGY PREDICTED BY IDOCK:   -1.50 KCAL/MOL
REMARK 927      BINDING AFFINITY PREDICTED BY RF-SCORE:    0.00 PKD
ROOT
HETATM    1  C   UNL     1     -11.827  12.004  65.855  1.00  0.00    -0.158 C  
HETATM    2  N   UNL     1     -11.296  12.257  64.460  1.00  0.00    -0.316 N  
HETATM    3  C   UNL     1     -10.322  11.163  64.057  1.00  0.00    -0.376 C  
HETATM    4  C   UNL     1     -12.473  12.241  63.470  1.00  0.00    -0.534 C  
ENDROOT
BRANCH   2   5
HETATM    5  C   UNL     1     -10.602  13.642  64.466  1.00  0.00    -0.411 C  
BRANCH   5   6
HETATM    6  C   UNL     1     -11.550  14.828  64.494  1.00  0.00    -0.361 C  
BRANCH   6   7
HETATM    7  O   UNL     1     -10.827  15.998  64.821  1.00  0.00    -0.587 OA 
BRANCH   7   8
HETATM    8  P   UNL     1      -9.811  15.700  66.190  1.00  0.00    -0.371 P  
HETATM    9  O   UNL     1     -11.023  15.920  67.085  1.00  0.00    -0.304 OA 
HETATM   10  O   UNL     1      -8.958  16.898  65.756  1.00  0.00    -0.524 OA 
BRANCH   8  11
HETATM   11  O   UNL     1      -8.794  15.400  67.557  1.00  0.00    -0.172 OA 
BRANCH  11  12
HETATM   12  P   UNL     1      -8.254  13.757  67.525  1.00  0.00    -0.186 P  
HETATM   13  O   UNL     1      -7.201  14.118  68.738  1.00  0.00    -0.109 OA 
HETATM   14  O   UNL     1      -9.537  13.361  68.286  1.00  0.00    -0.218 OA 
BRANCH  12  15
HETATM   15  O   UNL     1      -7.713  12.114  67.493  1.00  0.00    -0.137 OA 
BRANCH  15  16
HETATM   16  C   UNL     1      -7.737  11.428  68.759  1.00  0.00    -0.135 C  
BRANCH  16  17
HETATM   17  C   UNL     1      -8.369  10.046  68.687  1.00  0.00    -0.116 C  
HETATM   18  O   UNL     1      -9.100   9.781  69.887  1.00  0.00    -0.208 OA 
HETATM   19  C   UNL     1     -10.056   8.768  69.571  1.00  0.00    -0.202 C  
HETATM   20  H   UNL     1      -9.236   9.207  65.656  1.00  0.00     0.000 HD 
HETATM   21  C   UNL     1     -10.395   8.920  68.073  1.00  0.00    -0.219 C  
HETATM   22  H   UNL     1     -10.603   7.763  66.445  1.00  0.00     0.000 HD 
HETATM   23  C   UNL     1      -9.322   9.857  67.523  1.00  0.00    -0.140 C  
HETATM   24  O   UNL     1     -10.395   7.669  67.367  1.00  0.00    -0.223 OA 
HETATM   25  O   UNL     1      -8.639   9.326  66.386  1.00  0.00    -0.126 OA 
BRANCH  19  26
HETATM   26  N   UNL     1     -11.207   8.851  70.474  1.00  0.00    -0.256 N  
HETATM   27  C   UNL     1     -11.738  10.064  70.846  1.00  0.00    -0.374 C  
HETATM   28  C   UNL     1     -12.712  10.141  71.746  1.00  0.00    -0.534 C  
HETATM   29  C   UNL     1     -13.166   8.859  72.313  1.00  0.00    -0.447 C  
HETATM   30  N   UNL     1     -12.674   7.708  71.968  1.00  0.00    -0.447 N  
HETATM   31  N   UNL     1     -14.147   8.858  73.266  1.00  0.00    -1.248 NA 
HETATM   32  H   UNL     1     -13.036   6.851  72.385  1.00  0.00     0.000 HD 
HETATM   33  C   UNL     1     -11.661   7.652  71.036  1.00  0.00    -0.282 C  
HETATM   34  H1  UNL     1     -14.461   7.971  73.659  1.00  0.00     0.000 HD 
HETATM   35  H2  UNL     1     -14.560   9.736  73.581  1.00  0.00     0.000 HD 
HETATM   36  O   UNL     1     -11.163   6.574  70.704  1.00  0.00    -0.283 OA 
ENDBRANCH  19  26
ENDBRANCH  16  17
ENDBRANCH  15  16
ENDBRANCH  12  15
ENDBRANCH  11  12
ENDBRANCH   8  11
ENDBRANCH   7   8
ENDBRANCH   6   7
ENDBRANCH   5   6
ENDBRANCH   2   5
TORSDOF 10
ENDMDL
MODEL       16
REMARK 921   NORMALIZED FREE ENERGY PREDICTED BY IDOCK:   -6.64 KCAL/MOL
REMARK 922        TOTAL FREE ENERGY PREDICTED BY IDOCK:  -11.45 KCAL/MOL
REMARK 923 INTER-LIGAND FREE ENERGY PREDICTED BY IDOCK:  -10.25 KCAL/MOL
REMARK 924 INTRA-LIGAND FREE ENERGY PREDICTED BY IDOCK:   -1.21 KCAL/MOL
REMARK 927      BINDING AFFINITY PREDICTED BY RF-SCORE:    0.00 PKD
ROOT
HETATM    1  C   UNL     1      -6.419  18.491  66.830  1.00  0.00    -0.183 C  
HETATM    2  N   UNL     1      -7.282  19.681  67.190  1.00  0.00    -0.211 N  
HETATM    3  C   UNL     1      -7.745  19.582  68.634  1.00  0.00    -0.355 C  
HETATM    4  C   UNL     1      -6.448  20.964  67.042  1.00  0.00    -0.307 C  
ENDROOT
BRANCH   2   5
HETATM    5  C   UNL     1      -8.490  19.695  66.221  1.00  0.00    -0.360 C  
BRANCH   5   6
HETATM    6  C   UNL     1      -9.813  20.081  66.858  1.00  0.00    -0.438 C  
BRANCH   6   7
HETATM    7  O   UNL     1     -10.834  19.232  66.371  1.00  0.00    -0.387 OA 
BRANCH   7   8
HETATM    8  P   UNL     1     -10.179  17.673  66.006  1.00  0.00    -0.124 P  
HETATM    9  O   UNL     1     -11.099  17.618  64.792  1.00  0.00    -0.915 OA 
HETATM   10  O   UNL     1     -10.690  17.193  67.369  1.00  0.00    -0.323 OA 
BRANCH   8  11
HETATM   11  O   UNL     1      -9.523  16.114  65.640  1.00  0.00    -0.427 OA 
BRANCH  11  12
HETATM   12  P   UNL     1      -9.850  15.031  66.948  1.00  0.00    -0.254 P  
HETATM   13  O   UNL     1     -10.516  13.983  65.865  1.00  0.00    -0.292 OA 
HETATM   14  O   UNL     1      -8.358  14.634  66.941  1.00  0.00    -0.203 OA 
BRANCH  12  15
HETATM   15  O   UNL     1     -10.177  13.946  68.256  1.00  0.00    -0.234 OA 
BRANCH  15  16
HETATM   16  C   UNL     1     -10.934  12.769  67.911  1.00  0.00    -0.234 C  
BRANCH  16  17
HETATM   17  C   UNL     1     -11.972  12.390  68.956  1.00  0.00    -0.241 C  
HETATM   18  O   UNL     1     -11.813  11.019  69.327  1.00  0.00    -0.298 OA 
HETATM   19  C   UNL     1     -12.416  10.869  70.614  1.00  0.00    -0.369 C  
HETATM   20  H   UNL     1     -12.736  14.867  70.937  1.00  0.00     0.000 HD 
HETATM   21  C   UNL     1     -12.306  12.234  71.325  1.00  0.00    -0.056 C  
HETATM   22  H   UNL     1     -13.464  13.479  72.395  1.00  0.00     0.000 HD 
HETATM   23  C   UNL     1     -11.909  13.217  70.226  1.00  0.00    -0.224 C  
HETATM   24  O   UNL     1     -13.531  12.639  71.957  1.00  0.00    -0.498 OA 
HETATM   25  O   UNL     1     -12.776  14.349  70.141  1.00  0.00    -0.334 OA 
BRANCH  19  26
HETATM   26  N   UNL     1     -11.808   9.748  71.336  1.00  0.00    -0.389 N  
HETATM   27  C   UNL     1     -10.492   9.399  71.139  1.00  0.00    -0.322 C  
HETATM   28  C   UNL     1      -9.973   8.320  71.714  1.00  0.00    -0.284 C  
HETATM   29  C   UNL     1     -10.896   7.533  72.553  1.00  0.00    -0.299 C  
HETATM   30  N   UNL     1     -12.138   7.853  72.747  1.00  0.00    -0.614 N  
HETATM   31  N   UNL     1     -10.442   6.392  73.156  1.00  0.00    -0.227 NA 
HETATM   32  H   UNL     1     -12.727   7.278  73.348  1.00  0.00     0.000 HD 
HETATM   33  C   UNL     1     -12.656   8.975  72.137  1.00  0.00    -0.391 C  
HETATM   34  H1  UNL     1     -11.080   5.847  73.736  1.00  0.00     0.000 HD 
HETATM   35  H2  UNL     1      -9.476   6.089  73.027  1.00  0.00     0.000 HD 
HETATM   36  O   UNL     1     -13.839   9.291  72.290  1.00  0.00    -0.453 OA 
ENDBRANCH  19  26
ENDBRANCH  16  17
ENDBRANCH  15  16
ENDBRANCH  12  15
ENDBRANCH  11  12
ENDBRANCH   8  11
ENDBRANCH   7   8
ENDBRANCH   6   7
ENDBRANCH   5   6
ENDBRANCH   2   5
TORSDOF 10
ENDMDL
MODEL       17
REMARK 921   NORMALIZED FREE ENERGY PREDICTED BY IDOCK:   -6.60 KCAL/MOL
REMARK 922        TOTAL FREE ENERGY PREDICTED BY IDOCK:  -11.40 KCAL/MOL
REMARK 923 INTER-LIGAND FREE ENERGY PREDICTED BY IDOCK:   -9.64 KCAL/MOL
REMARK 924 INTRA-LIGAND FREE ENERGY PREDICTED BY IDOCK:   -1.76 KCAL/MOL
REMARK 927      BINDING AFFINITY PREDICTED BY RF-SCORE:    0.00 PKD
ROOT
HETATM    1  C   UNL     1     -14.019  14.629  71.487  1.00  0.00    -0.438 C  
HETATM    2  N   UNL     1     -12.577  14.495  71.048  1.00  0.00    -0.317 N  
HETATM    3  C   UNL     1     -12.313  15.355  69.824  1.00  0.00    -0.255 C  
HETATM    4  C   UNL     1     -11.664  14.987  72.184  1.00  0.00    -0.349 C  
ENDROOT
BRANCH   2   5
HETATM    5  C   UNL     1     -12.316  13.000  70.741  1.00  0.00    -0.310 C  
BRANCH   5   6
HETATM    6  C   UNL     1     -11.771  12.721  69.352  1.00  0.00    -0.319 C  
BRANCH   6   7
HETATM    7  O   UNL     1     -11.117  11.467  69.347  1.00  0.00    -0.247 OA 
BRANCH   7   8
HETATM    8  P   UNL     1      -9.473  11.661  68.844  1.00  0.00     0.236 P  
HETATM    9  O   UNL     1      -9.720  13.162  68.762  1.00  0.00    -0.103 OA 
HETATM   10  O   UNL     1      -9.790  10.773  67.635  1.00  0.00    -0.167 OA 
BRANCH   8  11
HETATM   11  O   UNL     1      -7.829  11.854  68.341  1.00  0.00    -0.129 OA 
BRANCH  11  12
HETATM   12  P   UNL     1      -7.368  13.513  68.506  1.00  0.00    -0.107 P  
HETATM   13  O   UNL     1      -6.417  13.083  69.782  1.00  0.00    -0.095 OA 
HETATM   14  O   UNL     1      -6.426  13.331  67.297  1.00  0.00    -0.256 OA 
BRANCH  12  15
HETATM   15  O   UNL     1      -6.905  15.172  68.673  1.00  0.00    -0.100 OA 
BRANCH  15  16
HETATM   16  C   UNL     1      -6.672  15.878  67.438  1.00  0.00    -0.194 C  
BRANCH  16  17
HETATM   17  C   UNL     1      -7.908  16.584  66.902  1.00  0.00    -0.228 C  
HETATM   18  O   UNL     1      -8.549  15.767  65.919  1.00  0.00    -0.194 OA 
HETATM   19  C   UNL     1      -9.907  16.202  65.844  1.00  0.00    -0.353 C  
HETATM   20  H   UNL     1      -9.377  18.443  69.145  1.00  0.00     0.000 HD 
HETATM   21  C   UNL     1     -10.276  16.769  67.232  1.00  0.00    -0.292 C  
HETATM   22  H   UNL     1     -11.193  18.376  68.014  1.00  0.00     0.000 HD 
HETATM   23  C   UNL     1      -8.943  16.920  67.960  1.00  0.00    -0.224 C  
HETATM   24  O   UNL     1     -10.966  18.027  67.159  1.00  0.00    -0.229 OA 
HETATM   25  O   UNL     1      -8.730  18.232  68.482  1.00  0.00    -0.309 OA 
BRANCH  19  26
HETATM   26  N   UNL     1     -10.768  15.114  65.376  1.00  0.00    -0.353 N  
HETATM   27  C   UNL     1     -10.626  13.832  65.854  1.00  0.00    -0.289 C  
HETATM   28  C   UNL     1     -11.336  12.827  65.352  1.00  0.00    -0.339 C  
HETATM   29  C   UNL     1     -12.260  13.178  64.259  1.00  0.00    -0.396 C  
HETATM   30  N   UNL     1     -12.405  14.383  63.801  1.00  0.00    -1.079 N  
HETATM   31  N   UNL     1     -13.005  12.192  63.671  1.00  0.00    -0.790 NA 
HETATM   32  H   UNL     1     -13.069  14.569  63.050  1.00  0.00     0.000 HD 
HETATM   33  C   UNL     1     -11.655  15.409  64.333  1.00  0.00    -0.264 C  
HETATM   34  H1  UNL     1     -13.644  12.434  62.915  1.00  0.00     0.000 HD 
HETATM   35  H2  UNL     1     -12.922  11.225  63.986  1.00  0.00     0.000 HD 
HETATM   36  O   UNL     1     -11.759  16.560  63.904  1.00  0.00    -1.148 OA 
ENDBRANCH  19  26
ENDBRANCH  16  17
ENDBRANCH  15  16
ENDBRANCH  12  15
ENDBRANCH  11  12
ENDBRANCH   8  11
ENDBRANCH   7   8
ENDBRANCH   6   7
ENDBRANCH   5   6
ENDBRANCH   2   5
TORSDOF 10
ENDMDL
MODEL       18
REMARK 921   NORMALIZED FREE ENERGY PREDICTED BY IDOCK:   -6.60 KCAL/MOL
REMARK 922        TOTAL FREE ENERGY PREDICTED BY IDOCK:  -11.39 KCAL/MOL
REMARK 923 INTER-LIGAND FREE ENERGY PREDICTED BY IDOCK:  -10.16 KCAL/MOL
REMARK 924 INTRA-LIGAND FREE ENERGY PREDICTED BY IDOCK:   -1.23 KCAL/MOL
REMARK 927      BINDING AFFINITY PREDICTED BY RF-SCORE:    0.00 PKD
ROOT
HETATM    1  C   UNL     1      -8.299  19.277  68.755  1.00  0.00    -0.351 C  
HETATM    2  N   UNL     1      -8.529  18.679  67.384  1.00  0.00    -0.263 N  
HETATM    3  C   UNL     1      -8.164  19.680  66.301  1.00  0.00    -0.347 C  
HETATM    4  C   UNL     1      -7.624  17.446  67.222  1.00  0.00    -0.192 C  
ENDROOT
BRANCH   2   5
HETATM    5  C   UNL     1     -10.023  18.281  67.290  1.00  0.00    -0.335 C  
BRANCH   5   6
HETATM    6  C   UNL     1     -10.278  16.901  66.710  1.00  0.00    -0.306 C  
BRANCH   6   7
HETATM    7  O   UNL     1     -10.532  17.015  65.323  1.00  0.00    -0.649 OA 
BRANCH   7   8
HETATM    8  P   UNL     1     -11.119  15.509  64.707  1.00  0.00    -0.211 P  
HETATM    9  O   UNL     1     -12.160  16.288  63.913  1.00  0.00    -0.986 OA 
HETATM   10  O   UNL     1     -11.421  15.091  66.150  1.00  0.00    -0.321 OA 
BRANCH   8  11
HETATM   11  O   UNL     1     -11.706  14.002  64.089  1.00  0.00    -0.381 OA 
BRANCH  11  12
HETATM   12  P   UNL     1     -11.826  12.858  65.380  1.00  0.00    -0.453 P  
HETATM   13  O   UNL     1     -13.360  12.519  64.888  1.00  0.00    -0.702 OA 
HETATM   14  O   UNL     1     -10.970  11.883  64.545  1.00  0.00    -0.296 OA 
BRANCH  12  15
HETATM   15  O   UNL     1     -11.947  11.713  66.672  1.00  0.00    -0.503 OA 
BRANCH  15  16
HETATM   16  C   UNL     1     -11.609  12.215  67.980  1.00  0.00    -0.348 C  
BRANCH  16  17
HETATM   17  C   UNL     1     -10.372  11.562  68.578  1.00  0.00    -0.210 C  
HETATM   18  O   UNL     1     -10.725  10.839  69.760  1.00  0.00    -0.245 OA 
HETATM   19  C   UNL     1      -9.701   9.864  69.967  1.00  0.00    -0.227 C  
HETATM   20  H   UNL     1      -8.202  10.655  66.317  1.00  0.00     0.000 HD 
HETATM   21  C   UNL     1      -9.125   9.514  68.579  1.00  0.00    -0.131 C  
HETATM   22  H   UNL     1      -7.334   9.273  67.701  1.00  0.00     0.000 HD 
HETATM   23  C   UNL     1      -9.666  10.595  67.646  1.00  0.00    -0.165 C  
HETATM   24  O   UNL     1      -7.689   9.489  68.556  1.00  0.00    -0.081 OA 
HETATM   25  O   UNL     1      -8.645  11.260  66.900  1.00  0.00    -0.139 OA 
BRANCH  19  26
HETATM   26  N   UNL     1     -10.226   8.724  70.721  1.00  0.00    -0.199 N  
HETATM   27  C   UNL     1     -11.384   8.085  70.341  1.00  0.00    -0.187 C  
HETATM   28  C   UNL     1     -11.914   7.121  71.085  1.00  0.00    -0.381 C  
HETATM   29  C   UNL     1     -11.191   6.798  72.328  1.00  0.00    -0.259 C  
HETATM   30  N   UNL     1     -10.097   7.391  72.696  1.00  0.00    -0.192 N  
HETATM   31  N   UNL     1     -11.690   5.835  73.161  1.00  0.00    -0.484 NA 
HETATM   32  H   UNL     1      -9.632   7.118  73.561  1.00  0.00     0.000 HD 
HETATM   33  C   UNL     1      -9.567   8.392  71.911  1.00  0.00    -0.254 C  
HETATM   34  H1  UNL     1     -11.190   5.611  74.021  1.00  0.00     0.000 HD 
HETATM   35  H2  UNL     1     -12.553   5.345  72.924  1.00  0.00     0.000 HD 
HETATM   36  O   UNL     1      -8.539   8.985  72.247  1.00  0.00    -0.362 OA 
ENDBRANCH  19  26
ENDBRANCH  16  17
ENDBRANCH  15  16
ENDBRANCH  12  15
ENDBRANCH  11  12
ENDBRANCH   8  11
ENDBRANCH   7   8
ENDBRANCH   6   7
ENDBRANCH   5   6
ENDBRANCH   2   5
TORSDOF 10
ENDMDL
MODEL       19
REMARK 921   NORMALIZED FREE ENERGY PREDICTED BY IDOCK:   -6.60 KCAL/MOL
REMARK 922        TOTAL FREE ENERGY PREDICTED BY IDOCK:  -11.39 KCAL/MOL
REMARK 923 INTER-LIGAND FREE ENERGY PREDICTED BY IDOCK:  -10.15 KCAL/MOL
REMARK 924 INTRA-LIGAND FREE ENERGY PREDICTED BY IDOCK:   -1.24 KCAL/MOL
REMARK 927      BINDING AFFINITY PREDICTED BY RF-SCORE:    0.00 PKD
ROOT
HETATM    1  C   UNL     1      -9.191   6.049  72.623  1.00  0.00    -0.143 C  
HETATM    2  N   UNL     1     -10.417   5.437  71.980  1.00  0.00    -0.216 N  
HETATM    3  C   UNL     1     -10.020   4.293  71.063  1.00  0.00    -0.153 C  
HETATM    4  C   UNL     1     -11.328   4.873  73.084  1.00  0.00    -0.315 C  
ENDROOT
BRANCH   2   5
HETATM    5  C   UNL     1     -11.141   6.555  71.189  1.00  0.00    -0.282 C  
BRANCH   5   6
HETATM    6  C   UNL     1     -12.068   7.424  72.020  1.00  0.00    -0.289 C  
BRANCH   6   7
HETATM    7  O   UNL     1     -11.442   8.664  72.280  1.00  0.00    -0.365 OA 
BRANCH   7   8
HETATM    8  P   UNL     1     -10.700   9.264  70.836  1.00  0.00    -0.356 P  
HETATM    9  O   UNL     1      -9.413   9.454  71.628  1.00  0.00    -0.262 OA 
HETATM   10  O   UNL     1     -11.752  10.379  70.817  1.00  0.00    -0.321 OA 
BRANCH   8  11
HETATM   11  O   UNL     1      -9.958   9.862  69.393  1.00  0.00    -0.187 OA 
BRANCH  11  12
HETATM   12  P   UNL     1     -11.011  11.006  68.635  1.00  0.00    -0.273 P  
HETATM   13  O   UNL     1      -9.735  12.039  68.505  1.00  0.00    -0.207 OA 
HETATM   14  O   UNL     1     -10.918  10.175  67.338  1.00  0.00    -0.292 OA 
BRANCH  12  15
HETATM   15  O   UNL     1     -12.064  12.151  67.878  1.00  0.00    -0.502 OA 
BRANCH  15  16
HETATM   16  C   UNL     1     -11.816  12.392  66.479  1.00  0.00    -0.339 C  
BRANCH  16  17
HETATM   17  C   UNL     1     -11.964  13.852  66.080  1.00  0.00    -0.423 C  
HETATM   18  O   UNL     1     -11.290  14.687  67.026  1.00  0.00    -0.333 OA 
HETATM   19  C   UNL     1     -11.015  15.922  66.362  1.00  0.00    -0.115 C  
HETATM   20  H   UNL     1     -12.082  14.277  62.848  1.00  0.00     0.000 HD 
HETATM   21  C   UNL     1     -10.871  15.602  64.859  1.00  0.00    -0.418 C  
HETATM   22  H   UNL     1     -11.502  16.322  63.093  1.00  0.00     0.000 HD 
HETATM   23  C   UNL     1     -11.412  14.183  64.707  1.00  0.00    -0.383 C  
HETATM   24  O   UNL     1     -11.591  16.519  64.018  1.00  0.00    -1.154 OA 
HETATM   25  O   UNL     1     -12.427  14.070  63.708  1.00  0.00    -0.753 OA 
BRANCH  19  26
HETATM   26  N   UNL     1      -9.853  16.579  66.966  1.00  0.00    -0.250 N  
HETATM   27  C   UNL     1      -8.797  15.851  67.465  1.00  0.00    -0.189 C  
HETATM   28  C   UNL     1      -7.796  16.442  68.105  1.00  0.00    -0.158 C  
HETATM   29  C   UNL     1      -7.900  17.905  68.249  1.00  0.00    -0.285 C  
HETATM   30  N   UNL     1      -8.889  18.603  67.781  1.00  0.00    -0.272 N  
HETATM   31  N   UNL     1      -6.921  18.583  68.922  1.00  0.00    -0.280 NA 
HETATM   32  H   UNL     1      -8.903  19.616  67.900  1.00  0.00     0.000 HD 
HETATM   33  C   UNL     1      -9.920  17.968  67.124  1.00  0.00    -0.325 C  
HETATM   34  H1  UNL     1      -6.993  19.595  69.022  1.00  0.00     0.000 HD 
HETATM   35  H2  UNL     1      -6.126  18.081  69.319  1.00  0.00     0.000 HD 
HETATM   36  O   UNL     1     -10.881  18.605  66.686  1.00  0.00    -0.312 OA 
ENDBRANCH  19  26
ENDBRANCH  16  17
ENDBRANCH  15  16
ENDBRANCH  12  15
ENDBRANCH  11  12
ENDBRANCH   8  11
ENDBRANCH   7   8
ENDBRANCH   6   7
ENDBRANCH   5   6
ENDBRANCH   2   5
TORSDOF 10
ENDMDL
MODEL       20
REMARK 921   NORMALIZED FREE ENERGY PREDICTED BY IDOCK:   -6.59 KCAL/MOL
REMARK 922        TOTAL FREE ENERGY PREDICTED BY IDOCK:  -11.38 KCAL/MOL
REMARK 923 INTER-LIGAND FREE ENERGY PREDICTED BY IDOCK:  -10.10 KCAL/MOL
REMARK 924 INTRA-LIGAND FREE ENERGY PREDICTED BY IDOCK:   -1.28 KCAL/MOL
REMARK 927      BINDING AFFINITY PREDICTED BY RF-SCORE:    0.00 PKD
ROOT
HETATM    1  C   UNL     1     -10.310  19.668  66.009  1.00  0.00    -0.523 C  
HETATM    2  N   UNL     1      -9.326  18.975  66.927  1.00  0.00    -0.303 N  
HETATM    3  C   UNL     1      -7.964  18.872  66.262  1.00  0.00    -0.273 C  
HETATM    4  C   UNL     1      -9.172  19.808  68.210  1.00  0.00    -0.311 C  
ENDROOT
BRANCH   2   5
HETATM    5  C   UNL     1      -9.893  17.570  67.248  1.00  0.00    -0.294 C  
BRANCH   5   6
HETATM    6  C   UNL     1      -9.612  17.077  68.656  1.00  0.00    -0.275 C  
BRANCH   6   7
HETATM    7  O   UNL     1     -10.834  16.893  69.342  1.00  0.00    -0.308 OA 
BRANCH   7   8
HETATM    8  P   UNL     1     -11.508  15.350  68.944  1.00  0.00    -0.373 P  
HETATM    9  O   UNL     1     -12.529  15.556  70.055  1.00  0.00    -0.361 OA 
HETATM   10  O   UNL     1     -10.146  14.726  69.269  1.00  0.00    -0.216 OA 
BRANCH   8  11
HETATM   11  O   UNL     1     -12.182  13.808  68.544  1.00  0.00    -0.348 OA 
BRANCH  11  12
HETATM   12  P   UNL     1     -11.013  12.877  67.673  1.00  0.00    -0.270 P  
HETATM   13  O   UNL     1     -12.104  11.645  67.598  1.00  0.00    -0.615 OA 
HETATM   14  O   UNL     1     -11.344  13.709  66.416  1.00  0.00    -0.304 OA 
BRANCH  12  15
HETATM   15  O   UNL     1      -9.844  11.944  66.802  1.00  0.00    -0.193 OA 
BRANCH  15  16
HETATM   16  C   UNL     1      -8.760  11.416  67.590  1.00  0.00    -0.136 C  
BRANCH  16  17
HETATM   17  C   UNL     1      -8.990   9.986  68.054  1.00  0.00    -0.128 C  
HETATM   18  O   UNL     1      -9.619   9.984  69.338  1.00  0.00    -0.197 OA 
HETATM   19  C   UNL     1     -10.262   8.717  69.480  1.00  0.00    -0.209 C  
HETATM   20  H   UNL     1      -9.597   7.937  65.588  1.00  0.00     0.000 HD 
HETATM   21  C   UNL     1     -10.631   8.238  68.060  1.00  0.00    -0.127 C  
HETATM   22  H   UNL     1     -10.517   6.567  66.951  1.00  0.00     0.000 HD 
HETATM   23  C   UNL     1      -9.856   9.159  67.122  1.00  0.00    -0.195 C  
HETATM   24  O   UNL     1     -10.289   6.862  67.825  1.00  0.00    -0.171 OA 
HETATM   25  O   UNL     1      -9.055   8.455  66.172  1.00  0.00    -0.168 OA 
BRANCH  19  26
HETATM   26  N   UNL     1     -11.390   8.817  70.408  1.00  0.00    -0.233 N  
HETATM   27  C   UNL     1     -12.024  10.016  70.638  1.00  0.00    -0.313 C  
HETATM   28  C   UNL     1     -12.977  10.126  71.557  1.00  0.00    -0.547 C  
HETATM   29  C   UNL     1     -13.291   8.896  72.306  1.00  0.00    -0.449 C  
HETATM   30  N   UNL     1     -12.702   7.759  72.097  1.00  0.00    -0.481 N  
HETATM   31  N   UNL     1     -14.242   8.936  73.289  1.00  0.00    -1.237 NA 
HETATM   32  H   UNL     1     -12.969   6.937  72.637  1.00  0.00     0.000 HD 
HETATM   33  C   UNL     1     -11.714   7.669  71.141  1.00  0.00    -0.290 C  
HETATM   34  H1  UNL     1     -14.459   8.085  73.807  1.00  0.00     0.000 HD 
HETATM   35  H2  UNL     1     -14.728   9.808  73.501  1.00  0.00     0.000 HD 
HETATM   36  O   UNL     1     -11.124   6.605  70.936  1.00  0.00    -0.255 OA 
ENDBRANCH  19  26
ENDBRANCH  16  17
ENDBRANCH  15  16
ENDBRANCH  12  15
ENDBRANCH  11  12
ENDBRANCH   8  11
ENDBRANCH   7   8
ENDBRANCH   6   7
ENDBRANCH   5   6
ENDBRANCH   2   5
TORSDOF 10
ENDMDL
MODEL       21
REMARK 921   NORMALIZED FREE ENERGY PREDICTED BY IDOCK:   -6.56 KCAL/MOL
REMARK 922        TOTAL FREE ENERGY PREDICTED BY IDOCK:  -11.34 KCAL/MOL
REMARK 923 INTER-LIGAND FREE ENERGY PREDICTED BY IDOCK:   -9.77 KCAL/MOL
REMARK 924 INTRA-LIGAND FREE ENERGY PREDICTED BY IDOCK:   -1.56 KCAL/MOL
REMARK 927      BINDING AFFINITY PREDICTED BY RF-SCORE:    0.00 PKD
ROOT
HETATM    1  C   UNL     1      -8.391   7.611  68.529  1.00  0.00    -0.129 C  
HETATM    2  N   UNL     1      -9.350   8.601  67.903  1.00  0.00    -0.141 N  
HETATM    3  C   UNL     1     -10.527   7.875  67.275  1.00  0.00    -0.320 C  
HETATM    4  C   UNL     1      -9.891   9.532  69.002  1.00  0.00    -0.176 C  
ENDROOT
BRANCH   2   5
HETATM    5  C   UNL     1      -8.564   9.407  66.838  1.00  0.00    -0.127 C  
BRANCH   5   6
HETATM    6  C   UNL     1      -8.988   9.148  65.404  1.00  0.00    -0.207 C  
BRANCH   6   7
HETATM    7  O   UNL     1      -8.717  10.293  64.621  1.00  0.00    -0.170 OA 
BRANCH   7   8
HETATM    8  P   UNL     1     -10.199  10.993  64.065  1.00  0.00    -0.349 P  
HETATM    9  O   UNL     1      -9.560  11.152  62.691  1.00  0.00    -0.304 OA 
HETATM   10  O   UNL     1     -10.019  12.091  65.119  1.00  0.00    -0.252 OA 
BRANCH   8  11
HETATM   11  O   UNL     1     -11.682  11.691  63.511  1.00  0.00    -0.430 OA 
BRANCH  11  12
HETATM   12  P   UNL     1     -11.904  13.236  64.254  1.00  0.00    -0.458 P  
HETATM   13  O   UNL     1     -12.602  13.766  62.859  1.00  0.00    -0.611 OA 
HETATM   14  O   UNL     1     -13.098  12.646  65.035  1.00  0.00    -0.808 OA 
BRANCH  12  15
HETATM   15  O   UNL     1     -12.127  14.783  64.996  1.00  0.00    -0.359 OA 
BRANCH  15  16
HETATM   16  C   UNL     1     -10.997  15.674  64.928  1.00  0.00    -0.431 C  
BRANCH  16  17
HETATM   17  C   UNL     1     -10.453  16.068  66.292  1.00  0.00    -0.320 C  
HETATM   18  O   UNL     1     -11.356  15.648  67.318  1.00  0.00    -0.255 OA 
HETATM   19  C   UNL     1     -10.598  15.563  68.525  1.00  0.00    -0.246 C  
HETATM   20  H   UNL     1      -7.194  16.001  66.424  1.00  0.00     0.000 HD 
HETATM   21  C   UNL     1      -9.144  15.238  68.121  1.00  0.00    -0.174 C  
HETATM   22  H   UNL     1      -7.281  15.850  68.557  1.00  0.00     0.000 HD 
HETATM   23  C   UNL     1      -9.092  15.480  66.615  1.00  0.00    -0.279 C  
HETATM   24  O   UNL     1      -8.176  16.050  68.805  1.00  0.00    -0.183 OA 
HETATM   25  O   UNL     1      -8.046  16.369  66.222  1.00  0.00    -0.312 OA 
BRANCH  19  26
HETATM   26  N   UNL     1     -11.210  14.603  69.447  1.00  0.00    -0.268 N  
HETATM   27  C   UNL     1     -11.418  13.293  69.083  1.00  0.00    -0.305 C  
HETATM   28  C   UNL     1     -12.067  12.452  69.880  1.00  0.00    -0.317 C  
HETATM   29  C   UNL     1     -12.549  13.017  71.153  1.00  0.00    -0.297 C  
HETATM   30  N   UNL     1     -12.357  14.250  71.509  1.00  0.00    -0.349 N  
HETATM   31  N   UNL     1     -13.251  12.220  72.016  1.00  0.00    -0.474 NA 
HETATM   32  H   UNL     1     -12.702  14.583  72.409  1.00  0.00     0.000 HD 
HETATM   33  C   UNL     1     -11.684  15.106  70.665  1.00  0.00    -0.312 C  
HETATM   34  H1  UNL     1     -13.585  12.611  72.896  1.00  0.00     0.000 HD 
HETATM   35  H2  UNL     1     -13.440  11.246  71.780  1.00  0.00     0.000 HD 
HETATM   36  O   UNL     1     -11.504  16.287  70.970  1.00  0.00    -0.407 OA 
ENDBRANCH  19  26
ENDBRANCH  16  17
ENDBRANCH  15  16
ENDBRANCH  12  15
ENDBRANCH  11  12
ENDBRANCH   8  11
ENDBRANCH   7   8
ENDBRANCH   6   7
ENDBRANCH   5   6
ENDBRANCH   2   5
TORSDOF 10
ENDMDL
MODEL       22
REMARK 921   NORMALIZED FREE ENERGY PREDICTED BY IDOCK:   -6.54 KCAL/MOL
REMARK 922        TOTAL FREE ENERGY PREDICTED BY IDOCK:  -11.30 KCAL/MOL
REMARK 923 INTER-LIGAND FREE ENERGY PREDICTED BY IDOCK:  -10.30 KCAL/MOL
REMARK 924 INTRA-LIGAND FREE ENERGY PREDICTED BY IDOCK:   -1.01 KCAL/MOL
REMARK 927      BINDING AFFINITY PREDICTED BY RF-SCORE:    0.00 PKD
ROOT
HETATM    1  C   UNL     1     -11.520   5.253  72.769  1.00  0.00    -0.247 C  
HETATM    2  N   UNL     1     -10.483   6.329  72.525  1.00  0.00    -0.197 N  
HETATM    3  C   UNL     1     -10.124   7.024  73.828  1.00  0.00    -0.352 C  
HETATM    4  C   UNL     1      -9.209   5.674  71.965  1.00  0.00    -0.144 C  
ENDROOT
BRANCH   2   5
HETATM    5  C   UNL     1     -11.079   7.333  71.507  1.00  0.00    -0.237 C  
BRANCH   5   6
HETATM    6  C   UNL     1     -11.825   8.500  72.128  1.00  0.00    -0.379 C  
BRANCH   6   7
HETATM    7  O   UNL     1     -11.234   9.713  71.705  1.00  0.00    -0.367 OA 
BRANCH   7   8
HETATM    8  P   UNL     1     -11.271   9.817  69.978  1.00  0.00    -0.207 P  
HETATM    9  O   UNL     1      -9.788  10.165  70.009  1.00  0.00    -0.228 OA 
HETATM   10  O   UNL     1     -12.316  10.930  70.116  1.00  0.00    -0.311 OA 
BRANCH   8  11
HETATM   11  O   UNL     1     -11.309   9.919  68.251  1.00  0.00    -0.144 OA 
BRANCH  11  12
HETATM   12  P   UNL     1     -10.617  11.422  67.748  1.00  0.00    -0.222 P  
HETATM   13  O   UNL     1      -9.705  10.593  66.654  1.00  0.00    -0.174 OA 
HETATM   14  O   UNL     1     -11.915  11.714  66.967  1.00  0.00    -0.593 OA 
BRANCH  12  15
HETATM   15  O   UNL     1      -9.923  12.925  67.244  1.00  0.00    -0.219 OA 
BRANCH  15  16
HETATM   16  C   UNL     1     -10.367  14.088  67.970  1.00  0.00    -0.240 C  
BRANCH  16  17
HETATM   17  C   UNL     1     -10.916  15.187  67.074  1.00  0.00    -0.322 C  
HETATM   18  O   UNL     1     -10.383  16.453  67.471  1.00  0.00    -0.275 OA 
HETATM   19  C   UNL     1     -10.495  17.319  66.341  1.00  0.00    -0.263 C  
HETATM   20  H   UNL     1     -11.459  14.177  64.020  1.00  0.00     0.000 HD 
HETATM   21  C   UNL     1     -10.426  16.429  65.082  1.00  0.00    -0.192 C  
HETATM   22  H   UNL     1     -11.391  16.203  63.335  1.00  0.00     0.000 HD 
HETATM   23  C   UNL     1     -10.605  15.004  65.600  1.00  0.00    -0.346 C  
HETATM   24  O   UNL     1     -11.433  16.751  64.110  1.00  0.00    -1.171 OA 
HETATM   25  O   UNL     1     -11.654  14.292  64.942  1.00  0.00    -0.349 OA 
BRANCH  19  26
HETATM   26  N   UNL     1      -9.481  18.375  66.404  1.00  0.00    -0.312 N  
HETATM   27  C   UNL     1      -8.159  18.116  66.127  1.00  0.00    -0.163 C  
HETATM   28  C   UNL     1      -7.227  19.048  66.286  1.00  0.00    -0.269 C  
HETATM   29  C   UNL     1      -7.702  20.352  66.784  1.00  0.00    -0.262 C  
HETATM   30  N   UNL     1      -8.946  20.609  67.047  1.00  0.00    -0.579 N  
HETATM   31  N   UNL     1      -6.797  21.355  67.001  1.00  0.00    -0.783 NA 
HETATM   32  H   UNL     1      -9.219  21.534  67.377  1.00  0.00     0.000 HD 
HETATM   33  C   UNL     1      -9.896  19.625  66.878  1.00  0.00    -0.383 C  
HETATM   34  H1  UNL     1      -7.124  22.257  67.345  1.00  0.00     0.000 HD 
HETATM   35  H2  UNL     1      -5.804  21.202  66.820  1.00  0.00     0.000 HD 
HETATM   36  O   UNL     1     -11.082  19.838  67.138  1.00  0.00    -0.366 OA 
ENDBRANCH  19  26
ENDBRANCH  16  17
ENDBRANCH  15  16
ENDBRANCH  12  15
ENDBRANCH  11  12
ENDBRANCH   8  11
ENDBRANCH   7   8
ENDBRANCH   6   7
ENDBRANCH   5   6
ENDBRANCH   2   5
TORSDOF 10
ENDMDL
MODEL       23
REMARK 921   NORMALIZED FREE ENERGY PREDICTED BY IDOCK:   -6.54 KCAL/MOL
REMARK 922        TOTAL FREE ENERGY PREDICTED BY IDOCK:  -11.29 KCAL/MOL
REMARK 923 INTER-LIGAND FREE ENERGY PREDICTED BY IDOCK:  -10.12 KCAL/MOL
REMARK 924 INTRA-LIGAND FREE ENERGY PREDICTED BY IDOCK:   -1.17 KCAL/MOL
REMARK 927      BINDING AFFINITY PREDICTED BY RF-SCORE:    0.00 PKD
ROOT
HETATM    1  C   UNL     1     -11.096   7.562  72.788  1.00  0.00    -0.366 C  
HETATM    2  N   UNL     1     -10.789   6.220  72.158  1.00  0.00    -0.231 N  
HETATM    3  C   UNL     1      -9.288   5.997  72.090  1.00  0.00    -0.148 C  
HETATM    4  C   UNL     1     -11.400   5.110  73.030  1.00  0.00    -0.309 C  
ENDROOT
BRANCH   2   5
HETATM    5  C   UNL     1     -11.415   6.213  70.741  1.00  0.00    -0.251 C  
BRANCH   5   6
HETATM    6  C   UNL     1     -10.509   5.677  69.647  1.00  0.00    -0.304 C  
BRANCH   6   7
HETATM    7  O   UNL     1     -10.674   6.454  68.478  1.00  0.00    -0.228 OA 
BRANCH   7   8
HETATM    8  P   UNL     1     -10.255   8.102  68.801  1.00  0.00    -0.185 P  
HETATM    9  O   UNL     1     -10.751   8.457  67.405  1.00  0.00    -0.269 OA 
HETATM   10  O   UNL     1      -8.806   7.643  68.999  1.00  0.00    -0.135 OA 
BRANCH   8  11
HETATM   11  O   UNL     1      -9.837   9.749  69.125  1.00  0.00    -0.171 OA 
BRANCH  11  12
HETATM   12  P   UNL     1     -10.927  10.796  68.284  1.00  0.00    -0.300 P  
HETATM   13  O   UNL     1     -11.823  10.908  69.661  1.00  0.00    -0.291 OA 
HETATM   14  O   UNL     1      -9.898  11.935  68.448  1.00  0.00    -0.198 OA 
BRANCH  12  15
HETATM   15  O   UNL     1     -12.018  11.844  67.444  1.00  0.00    -0.603 OA 
BRANCH  15  16
HETATM   16  C   UNL     1     -11.584  12.274  66.139  1.00  0.00    -0.390 C  
BRANCH  16  17
HETATM   17  C   UNL     1     -11.812  13.756  65.884  1.00  0.00    -0.383 C  
HETATM   18  O   UNL     1     -11.068  14.533  66.825  1.00  0.00    -0.309 OA 
HETATM   19  C   UNL     1     -10.895  15.827  66.245  1.00  0.00    -0.232 C  
HETATM   20  H   UNL     1     -12.270  14.441  62.727  1.00  0.00     0.000 HD 
HETATM   21  C   UNL     1     -10.896  15.638  64.714  1.00  0.00    -0.355 C  
HETATM   22  H   UNL     1     -11.724  16.478  63.087  1.00  0.00     0.000 HD 
HETATM   23  C   UNL     1     -11.412  14.218  64.495  1.00  0.00    -0.355 C  
HETATM   24  O   UNL     1     -11.723  16.594  64.030  1.00  0.00    -1.143 OA 
HETATM   25  O   UNL     1     -12.520  14.151  63.597  1.00  0.00    -0.819 OA 
BRANCH  19  26
HETATM   26  N   UNL     1      -9.695  16.473  66.784  1.00  0.00    -0.247 N  
HETATM   27  C   UNL     1      -8.449  16.220  66.260  1.00  0.00    -0.334 C  
HETATM   28  C   UNL     1      -7.354  16.724  66.816  1.00  0.00    -0.275 C  
HETATM   29  C   UNL     1      -7.566  17.549  68.020  1.00  0.00    -0.220 C  
HETATM   30  N   UNL     1      -8.736  17.796  68.523  1.00  0.00    -0.287 N  
HETATM   31  N   UNL     1      -6.483  18.080  68.666  1.00  0.00    -0.214 NA 
HETATM   32  H   UNL     1      -8.824  18.384  69.351  1.00  0.00     0.000 HD 
HETATM   33  C   UNL     1      -9.859  17.259  67.931  1.00  0.00    -0.283 C  
HETATM   34  H1  UNL     1      -6.629  18.650  69.499  1.00  0.00     0.000 HD 
HETATM   35  H2  UNL     1      -5.539  17.907  68.319  1.00  0.00     0.000 HD 
HETATM   36  O   UNL     1     -10.981  17.463  68.400  1.00  0.00    -0.285 OA 
ENDBRANCH  19  26
ENDBRANCH  16  17
ENDBRANCH  15  16
ENDBRANCH  12  15
ENDBRANCH  11  12
ENDBRANCH   8  11
ENDBRANCH   7   8
ENDBRANCH   6   7
ENDBRANCH   5   6
ENDBRANCH   2   5
TORSDOF 10
ENDMDL
MODEL       24
REMARK 921   NORMALIZED FREE ENERGY PREDICTED BY IDOCK:   -6.48 KCAL/MOL
REMARK 922        TOTAL FREE ENERGY PREDICTED BY IDOCK:  -11.21 KCAL/MOL
REMARK 923 INTER-LIGAND FREE ENERGY PREDICTED BY IDOCK:   -9.79 KCAL/MOL
REMARK 924 INTRA-LIGAND FREE ENERGY PREDICTED BY IDOCK:   -1.42 KCAL/MOL
REMARK 927      BINDING AFFINITY PREDICTED BY RF-SCORE:    0.00 PKD
ROOT
HETATM    1  C   UNL     1     -12.704  14.906  73.201  1.00  0.00    -0.489 C  
HETATM    2  N   UNL     1     -13.211  14.190  71.968  1.00  0.00    -0.371 N  
HETATM    3  C   UNL     1     -13.716  12.804  72.329  1.00  0.00    -0.400 C  
HETATM    4  C   UNL     1     -14.385  14.989  71.377  1.00  0.00    -0.497 C  
ENDROOT
BRANCH   2   5
HETATM    5  C   UNL     1     -12.040  14.107  70.958  1.00  0.00    -0.335 C  
BRANCH   5   6
HETATM    6  C   UNL     1     -11.187  15.359  70.869  1.00  0.00    -0.358 C  
BRANCH   6   7
HETATM    7  O   UNL     1     -11.849  16.323  70.074  1.00  0.00    -0.192 OA 
BRANCH   7   8
HETATM    8  P   UNL     1     -10.802  16.863  68.808  1.00  0.00    -0.158 P  
HETATM    9  O   UNL     1     -11.535  15.924  67.858  1.00  0.00    -0.299 OA 
HETATM   10  O   UNL     1      -9.618  16.341  69.630  1.00  0.00    -0.171 OA 
BRANCH   8  11
HETATM   11  O   UNL     1      -9.755  17.405  67.541  1.00  0.00    -0.256 OA 
BRANCH  11  12
HETATM   12  P   UNL     1     -10.099  16.524  66.093  1.00  0.00    -0.346 P  
HETATM   13  O   UNL     1     -10.622  17.927  65.407  1.00  0.00    -0.656 OA 
HETATM   14  O   UNL     1      -8.588  16.527  65.778  1.00  0.00    -0.442 OA 
BRANCH  12  15
HETATM   15  O   UNL     1     -10.444  15.643  64.644  1.00  0.00    -0.398 OA 
BRANCH  15  16
HETATM   16  C   UNL     1     -11.196  14.427  64.821  1.00  0.00    -0.387 C  
BRANCH  16  17
HETATM   17  C   UNL     1     -10.327  13.216  65.121  1.00  0.00    -0.311 C  
HETATM   18  O   UNL     1     -10.323  12.954  66.526  1.00  0.00    -0.257 OA 
HETATM   19  C   UNL     1      -9.960  11.582  66.688  1.00  0.00    -0.207 C  
HETATM   20  H   UNL     1     -10.379  10.998  62.729  1.00  0.00     0.000 HD 
HETATM   21  C   UNL     1     -10.429  10.839  65.420  1.00  0.00    -0.202 C  
HETATM   22  H   UNL     1      -9.721   9.496  64.104  1.00  0.00     0.000 HD 
HETATM   23  C   UNL     1     -10.768  11.943  64.422  1.00  0.00    -0.323 C  
HETATM   24  O   UNL     1      -9.432   9.953  64.885  1.00  0.00    -0.259 OA 
HETATM   25  O   UNL     1     -10.103  11.794  63.167  1.00  0.00    -0.418 OA 
BRANCH  19  26
HETATM   26  N   UNL     1     -10.498  11.055  67.945  1.00  0.00    -0.183 N  
HETATM   27  C   UNL     1     -11.763  11.382  68.375  1.00  0.00    -0.303 C  
HETATM   28  C   UNL     1     -12.209  10.989  69.562  1.00  0.00    -0.352 C  
HETATM   29  C   UNL     1     -11.264  10.203  70.375  1.00  0.00    -0.330 C  
HETATM   30  N   UNL     1     -10.070   9.886  69.980  1.00  0.00    -0.254 N  
HETATM   31  N   UNL     1     -11.641   9.786  71.623  1.00  0.00    -0.351 NA 
HETATM   32  H   UNL     1      -9.463   9.328  70.580  1.00  0.00     0.000 HD 
HETATM   33  C   UNL     1      -9.626  10.308  68.745  1.00  0.00    -0.175 C  
HETATM   34  H1  UNL     1     -10.987   9.242  72.185  1.00  0.00     0.000 HD 
HETATM   35  H2  UNL     1     -12.566  10.017  71.986  1.00  0.00     0.000 HD 
HETATM   36  O   UNL     1      -8.489  10.037  68.353  1.00  0.00    -0.109 OA 
ENDBRANCH  19  26
ENDBRANCH  16  17
ENDBRANCH  15  16
ENDBRANCH  12  15
ENDBRANCH  11  12
ENDBRANCH   8  11
ENDBRANCH   7   8
ENDBRANCH   6   7
ENDBRANCH   5   6
ENDBRANCH   2   5
TORSDOF 10
ENDMDL
MODEL       25
REMARK 921   NORMALIZED FREE ENERGY PREDICTED BY IDOCK:   -6.45 KCAL/MOL
REMARK 922        TOTAL FREE ENERGY PREDICTED BY IDOCK:  -11.16 KCAL/MOL
REMARK 923 INTER-LIGAND FREE ENERGY PREDICTED BY IDOCK:   -9.58 KCAL/MOL
REMARK 924 INTRA-LIGAND FREE ENERGY PREDICTED BY IDOCK:   -1.59 KCAL/MOL
REMARK 927      BINDING AFFINITY PREDICTED BY RF-SCORE:    0.00 PKD
ROOT
HETATM    1  C   UNL     1      -9.567   6.849  71.108  1.00  0.00    -0.166 C  
HETATM    2  N   UNL     1     -10.727   7.815  71.222  1.00  0.00    -0.227 N  
HETATM    3  C   UNL     1     -11.948   7.264  70.506  1.00  0.00    -0.160 C  
HETATM    4  C   UNL     1     -11.082   7.992  72.708  1.00  0.00    -0.381 C  
ENDROOT
BRANCH   2   5
HETATM    5  C   UNL     1     -10.280   9.161  70.599  1.00  0.00    -0.246 C  
BRANCH   5   6
HETATM    6  C   UNL     1     -10.486   9.267  69.099  1.00  0.00    -0.217 C  
BRANCH   6   7
HETATM    7  O   UNL     1      -9.868  10.446  68.623  1.00  0.00    -0.163 OA 
BRANCH   7   8
HETATM    8  P   UNL     1     -10.513  10.865  67.073  1.00  0.00    -0.262 P  
HETATM    9  O   UNL     1      -9.598  12.084  67.069  1.00  0.00    -0.189 OA 
HETATM   10  O   UNL     1     -11.896  10.957  67.727  1.00  0.00    -0.579 OA 
BRANCH   8  11
HETATM   11  O   UNL     1     -11.157  11.284  65.522  1.00  0.00    -0.191 OA 
BRANCH  11  12
HETATM   12  P   UNL     1     -11.505  12.977  65.481  1.00  0.00    -0.356 P  
HETATM   13  O   UNL     1     -10.615  13.089  64.100  1.00  0.00    -0.402 OA 
HETATM   14  O   UNL     1     -12.916  12.635  64.957  1.00  0.00    -0.812 OA 
BRANCH  12  15
HETATM   15  O   UNL     1     -11.853  14.672  65.439  1.00  0.00    -0.350 OA 
BRANCH  15  16
HETATM   16  C   UNL     1     -10.705  15.538  65.345  1.00  0.00    -0.405 C  
BRANCH  16  17
HETATM   17  C   UNL     1     -10.200  16.023  66.694  1.00  0.00    -0.291 C  
HETATM   18  O   UNL     1     -11.189  15.788  67.699  1.00  0.00    -0.318 OA 
HETATM   19  C   UNL     1     -10.505  15.763  68.953  1.00  0.00    -0.223 C  
HETATM   20  H   UNL     1      -6.971  15.695  67.029  1.00  0.00     0.000 HD 
HETATM   21  C   UNL     1      -9.067  15.277  68.672  1.00  0.00    -0.193 C  
HETATM   22  H   UNL     1      -7.181  15.771  69.157  1.00  0.00     0.000 HD 
HETATM   23  C   UNL     1      -8.916  15.359  67.155  1.00  0.00    -0.218 C  
HETATM   24  O   UNL     1      -8.067  16.070  69.330  1.00  0.00    -0.233 OA 
HETATM   25  O   UNL     1      -7.775  16.111  66.741  1.00  0.00    -0.225 OA 
BRANCH  19  26
HETATM   26  N   UNL     1     -11.247  14.958  69.925  1.00  0.00    -0.268 N  
HETATM   27  C   UNL     1     -11.565  13.643  69.673  1.00  0.00    -0.278 C  
HETATM   28  C   UNL     1     -12.328  12.947  70.508  1.00  0.00    -0.362 C  
HETATM   29  C   UNL     1     -12.809  13.675  71.696  1.00  0.00    -0.338 C  
HETATM   30  N   UNL     1     -12.515  14.913  71.947  1.00  0.00    -0.318 N  
HETATM   31  N   UNL     1     -13.624  13.033  72.589  1.00  0.00    -0.671 NA 
HETATM   32  H   UNL     1     -12.866  15.363  72.792  1.00  0.00     0.000 HD 
HETATM   33  C   UNL     1     -11.725  15.618  71.064  1.00  0.00    -0.403 C  
HETATM   34  H1  UNL     1     -13.957  13.536  73.411  1.00  0.00     0.000 HD 
HETATM   35  H2  UNL     1     -13.895  12.062  72.434  1.00  0.00     0.000 HD 
HETATM   36  O   UNL     1     -11.445  16.802  71.268  1.00  0.00    -0.128 OA 
ENDBRANCH  19  26
ENDBRANCH  16  17
ENDBRANCH  15  16
ENDBRANCH  12  15
ENDBRANCH  11  12
ENDBRANCH   8  11
ENDBRANCH   7   8
ENDBRANCH   6   7
ENDBRANCH   5   6
ENDBRANCH   2   5
TORSDOF 10
ENDMDL
MODEL       26
REMARK 921   NORMALIZED FREE ENERGY PREDICTED BY IDOCK:   -6.44 KCAL/MOL
REMARK 922        TOTAL FREE ENERGY PREDICTED BY IDOCK:  -11.14 KCAL/MOL
REMARK 923 INTER-LIGAND FREE ENERGY PREDICTED BY IDOCK:  -10.22 KCAL/MOL
REMARK 924 INTRA-LIGAND FREE ENERGY PREDICTED BY IDOCK:   -0.92 KCAL/MOL
REMARK 927      BINDING AFFINITY PREDICTED BY RF-SCORE:    0.00 PKD
ROOT
HETATM    1  C   UNL     1      -7.907  18.766  68.690  1.00  0.00    -0.328 C  
HETATM    2  N   UNL     1      -9.381  18.691  68.355  1.00  0.00    -0.324 N  
HETATM    3  C   UNL     1      -9.963  17.367  68.820  1.00  0.00    -0.329 C  
HETATM    4  C   UNL     1     -10.117  19.823  69.092  1.00  0.00    -0.285 C  
ENDROOT
BRANCH   2   5
HETATM    5  C   UNL     1      -9.523  18.850  66.821  1.00  0.00    -0.326 C  
BRANCH   5   6
HETATM    6  C   UNL     1     -10.653  18.048  66.200  1.00  0.00    -0.261 C  
BRANCH   6   7
HETATM    7  O   UNL     1     -10.121  17.145  65.251  1.00  0.00    -0.507 OA 
BRANCH   7   8
HETATM    8  P   UNL     1     -11.191  15.800  65.052  1.00  0.00    -0.163 P  
HETATM    9  O   UNL     1      -9.968  14.906  64.890  1.00  0.00    -0.288 OA 
HETATM   10  O   UNL     1     -11.778  16.512  63.827  1.00  0.00    -1.086 OA 
BRANCH   8  11
HETATM   11  O   UNL     1     -12.262  14.456  64.853  1.00  0.00    -0.413 OA 
BRANCH  11  12
HETATM   12  P   UNL     1     -11.362  12.983  64.956  1.00  0.00    -0.327 P  
HETATM   13  O   UNL     1     -12.345  12.511  66.191  1.00  0.00    -0.596 OA 
HETATM   14  O   UNL     1     -12.113  12.482  63.705  1.00  0.00    -0.468 OA 
BRANCH  12  15
HETATM   15  O   UNL     1     -10.462  11.508  65.060  1.00  0.00    -0.266 OA 
BRANCH  15  16
HETATM   16  C   UNL     1      -9.308  11.545  65.923  1.00  0.00    -0.226 C  
BRANCH  16  17
HETATM   17  C   UNL     1      -9.496  10.769  67.217  1.00  0.00    -0.159 C  
HETATM   18  O   UNL     1      -9.955  11.646  68.249  1.00  0.00    -0.188 OA 
HETATM   19  C   UNL     1     -10.592  10.827  69.232  1.00  0.00    -0.229 C  
HETATM   20  H   UNL     1     -10.440   7.686  66.721  1.00  0.00     0.000 HD 
HETATM   21  C   UNL     1     -11.146   9.589  68.496  1.00  0.00     0.015 C  
HETATM   22  H   UNL     1     -11.196   7.593  68.720  1.00  0.00     0.000 HD 
HETATM   23  C   UNL     1     -10.485   9.623  67.120  1.00  0.00    -0.249 C  
HETATM   24  O   UNL     1     -10.855   8.356  69.173  1.00  0.00    -0.155 OA 
HETATM   25  O   UNL     1      -9.821   8.405  66.782  1.00  0.00    -0.211 OA 
BRANCH  19  26
HETATM   26  N   UNL     1     -11.591  11.601  69.972  1.00  0.00    -0.285 N  
HETATM   27  C   UNL     1     -11.861  12.912  69.656  1.00  0.00    -0.320 C  
HETATM   28  C   UNL     1     -12.689  13.642  70.394  1.00  0.00    -0.210 C  
HETATM   29  C   UNL     1     -13.278  12.961  71.561  1.00  0.00    -0.257 C  
HETATM   30  N   UNL     1     -13.034  11.724  71.869  1.00  0.00    -0.391 N  
HETATM   31  N   UNL     1     -14.120  13.655  72.387  1.00  0.00    -0.713 NA 
HETATM   32  H   UNL     1     -13.480  11.301  72.682  1.00  0.00     0.000 HD 
HETATM   33  C   UNL     1     -12.168  10.987  71.091  1.00  0.00    -0.310 C  
HETATM   34  H1  UNL     1     -14.527  13.185  73.194  1.00  0.00     0.000 HD 
HETATM   35  H2  UNL     1     -14.337  14.634  72.197  1.00  0.00     0.000 HD 
HETATM   36  O   UNL     1     -11.903   9.815  71.372  1.00  0.00    -0.361 OA 
ENDBRANCH  19  26
ENDBRANCH  16  17
ENDBRANCH  15  16
ENDBRANCH  12  15
ENDBRANCH  11  12
ENDBRANCH   8  11
ENDBRANCH   7   8
ENDBRANCH   6   7
ENDBRANCH   5   6
ENDBRANCH   2   5
TORSDOF 10
ENDMDL
MODEL       27
REMARK 921   NORMALIZED FREE ENERGY PREDICTED BY IDOCK:   -6.43 KCAL/MOL
REMARK 922        TOTAL FREE ENERGY PREDICTED BY IDOCK:  -11.12 KCAL/MOL
REMARK 923 INTER-LIGAND FREE ENERGY PREDICTED BY IDOCK:   -9.45 KCAL/MOL
REMARK 924 INTRA-LIGAND FREE ENERGY PREDICTED BY IDOCK:   -1.67 KCAL/MOL
REMARK 927      BINDING AFFINITY PREDICTED BY RF-SCORE:    0.00 PKD
ROOT
HETATM    1  C   UNL     1     -12.110   8.023  71.791  1.00  0.00    -0.305 C  
HETATM    2  N   UNL     1     -10.948   7.389  71.056  1.00  0.00    -0.247 N  
HETATM    3  C   UNL     1     -10.053   6.638  72.026  1.00  0.00    -0.183 C  
HETATM    4  C   UNL     1     -11.499   6.381  70.033  1.00  0.00    -0.428 C  
ENDROOT
BRANCH   2   5
HETATM    5  C   UNL     1     -10.167   8.522  70.345  1.00  0.00    -0.195 C  
BRANCH   5   6
HETATM    6  C   UNL     1     -10.326   8.554  68.836  1.00  0.00    -0.210 C  
BRANCH   6   7
HETATM    7  O   UNL     1      -9.582   9.635  68.309  1.00  0.00    -0.139 OA 
BRANCH   7   8
HETATM    8  P   UNL     1      -9.910   9.807  66.618  1.00  0.00    -0.245 P  
HETATM    9  O   UNL     1     -10.298   8.334  66.587  1.00  0.00    -0.308 OA 
HETATM   10  O   UNL     1      -8.444  10.211  66.425  1.00  0.00    -0.128 OA 
BRANCH   8  11
HETATM   11  O   UNL     1     -10.238   9.980  64.928  1.00  0.00    -0.261 OA 
BRANCH  11  12
HETATM   12  P   UNL     1     -10.281  11.660  64.519  1.00  0.00    -0.329 P  
HETATM   13  O   UNL     1      -9.668  11.277  63.039  1.00  0.00    -0.341 OA 
HETATM   14  O   UNL     1     -11.804  11.530  64.307  1.00  0.00    -0.184 OA 
BRANCH  12  15
HETATM   15  O   UNL     1     -10.322  13.340  64.108  1.00  0.00    -0.407 OA 
BRANCH  15  16
HETATM   16  C   UNL     1     -11.556  14.022  64.408  1.00  0.00    -0.369 C  
BRANCH  16  17
HETATM   17  C   UNL     1     -11.478  14.895  65.651  1.00  0.00    -0.290 C  
HETATM   18  O   UNL     1     -12.238  14.306  66.709  1.00  0.00    -0.441 OA 
HETATM   19  C   UNL     1     -11.727  14.843  67.931  1.00  0.00    -0.321 C  
HETATM   20  H   UNL     1      -8.618  16.440  65.935  1.00  0.00     0.000 HD 
HETATM   21  C   UNL     1     -10.242  15.187  67.685  1.00  0.00    -0.241 C  
HETATM   22  H   UNL     1      -8.963  16.697  68.032  1.00  0.00     0.000 HD 
HETATM   23  C   UNL     1     -10.070  15.116  66.170  1.00  0.00    -0.295 C  
HETATM   24  O   UNL     1      -9.877  16.485  68.183  1.00  0.00    -0.235 OA 
HETATM   25  O   UNL     1      -9.500  16.301  65.611  1.00  0.00    -0.463 OA 
BRANCH  19  26
HETATM   26  N   UNL     1     -11.968  13.914  69.038  1.00  0.00    -0.353 N  
HETATM   27  C   UNL     1     -11.794  12.558  68.886  1.00  0.00    -0.301 C  
HETATM   28  C   UNL     1     -12.114  11.710  69.857  1.00  0.00    -0.373 C  
HETATM   29  C   UNL     1     -12.668  12.316  71.081  1.00  0.00    -0.243 C  
HETATM   30  N   UNL     1     -12.834  13.593  71.237  1.00  0.00    -0.348 N  
HETATM   31  N   UNL     1     -13.048  11.505  72.116  1.00  0.00    -0.487 NA 
HETATM   32  H   UNL     1     -13.211  13.957  72.112  1.00  0.00     0.000 HD 
HETATM   33  C   UNL     1     -12.500  14.454  70.215  1.00  0.00    -0.354 C  
HETATM   34  H1  UNL     1     -13.431  11.924  72.962  1.00  0.00     0.000 HD 
HETATM   35  H2  UNL     1     -12.948  10.492  72.041  1.00  0.00     0.000 HD 
HETATM   36  O   UNL     1     -12.665  15.671  70.330  1.00  0.00    -0.425 OA 
ENDBRANCH  19  26
ENDBRANCH  16  17
ENDBRANCH  15  16
ENDBRANCH  12  15
ENDBRANCH  11  12
ENDBRANCH   8  11
ENDBRANCH   7   8
ENDBRANCH   6   7
ENDBRANCH   5   6
ENDBRANCH   2   5
TORSDOF 10
ENDMDL
MODEL       28
REMARK 921   NORMALIZED FREE ENERGY PREDICTED BY IDOCK:   -6.42 KCAL/MOL
REMARK 922        TOTAL FREE ENERGY PREDICTED BY IDOCK:  -11.10 KCAL/MOL
REMARK 923 INTER-LIGAND FREE ENERGY PREDICTED BY IDOCK:  -10.14 KCAL/MOL
REMARK 924 INTRA-LIGAND FREE ENERGY PREDICTED BY IDOCK:   -0.96 KCAL/MOL
REMARK 927      BINDING AFFINITY PREDICTED BY RF-SCORE:    0.00 PKD
ROOT
HETATM    1  C   UNL     1      -8.287  20.320  67.313  1.00  0.00    -0.347 C  
HETATM    2  N   UNL     1      -9.092  19.134  67.800  1.00  0.00    -0.293 N  
HETATM    3  C   UNL     1      -8.177  18.089  68.415  1.00  0.00    -0.298 C  
HETATM    4  C   UNL     1     -10.073  19.611  68.884  1.00  0.00    -0.401 C  
ENDROOT
BRANCH   2   5
HETATM    5  C   UNL     1      -9.856  18.554  66.584  1.00  0.00    -0.354 C  
BRANCH   5   6
HETATM    6  C   UNL     1     -10.149  17.067  66.667  1.00  0.00    -0.306 C  
BRANCH   6   7
HETATM    7  O   UNL     1      -9.819  16.454  65.436  1.00  0.00    -0.515 OA 
BRANCH   7   8
HETATM    8  P   UNL     1     -11.082  15.372  64.959  1.00  0.00    -0.334 P  
HETATM    9  O   UNL     1     -11.619  16.467  64.047  1.00  0.00    -1.154 OA 
HETATM   10  O   UNL     1     -11.525  15.321  66.426  1.00  0.00    -0.238 OA 
BRANCH   8  11
HETATM   11  O   UNL     1     -12.345  14.289  64.482  1.00  0.00    -0.539 OA 
BRANCH  11  12
HETATM   12  P   UNL     1     -11.772  12.660  64.578  1.00  0.00    -0.417 P  
HETATM   13  O   UNL     1     -12.884  12.241  63.436  1.00  0.00    -0.754 OA 
HETATM   14  O   UNL     1     -10.551  13.080  63.733  1.00  0.00    -0.347 OA 
BRANCH  12  15
HETATM   15  O   UNL     1     -11.200  11.029  64.672  1.00  0.00    -0.105 OA 
BRANCH  15  16
HETATM   16  C   UNL     1      -9.768  10.873  64.668  1.00  0.00    -0.280 C  
BRANCH  16  17
HETATM   17  C   UNL     1      -9.225  10.238  65.938  1.00  0.00    -0.167 C  
HETATM   18  O   UNL     1      -9.817  10.855  67.084  1.00  0.00    -0.179 OA 
HETATM   19  C   UNL     1      -9.694   9.925  68.162  1.00  0.00    -0.144 C  
HETATM   20  H   UNL     1      -8.533   7.070  65.575  1.00  0.00     0.000 HD 
HETATM   21  C   UNL     1      -9.684   8.513  67.539  1.00  0.00    -0.162 C  
HETATM   22  H   UNL     1      -8.647   6.799  67.694  1.00  0.00     0.000 HD 
HETATM   23  C   UNL     1      -9.474   8.745  66.045  1.00  0.00    -0.233 C  
HETATM   24  O   UNL     1      -8.653   7.669  68.077  1.00  0.00    -0.123 OA 
HETATM   25  O   UNL     1      -8.377   8.005  65.508  1.00  0.00    -0.134 OA 
BRANCH  19  26
HETATM   26  N   UNL     1     -10.746  10.152  69.155  1.00  0.00    -0.214 N  
HETATM   27  C   UNL     1     -11.867  10.891  68.855  1.00  0.00    -0.270 C  
HETATM   28  C   UNL     1     -12.768  11.184  69.786  1.00  0.00    -0.007 C  
HETATM   29  C   UNL     1     -12.479  10.679  71.141  1.00  0.00    -0.418 C  
HETATM   30  N   UNL     1     -11.426   9.980  71.436  1.00  0.00    -0.328 N  
HETATM   31  N   UNL     1     -13.345  10.964  72.160  1.00  0.00    -0.580 NA 
HETATM   32  H   UNL     1     -11.284   9.645  72.388  1.00  0.00     0.000 HD 
HETATM   33  C   UNL     1     -10.503   9.691  70.455  1.00  0.00    -0.293 C  
HETATM   34  H1  UNL     1     -13.146  10.615  73.097  1.00  0.00     0.000 HD 
HETATM   35  H2  UNL     1     -14.183  11.520  71.985  1.00  0.00     0.000 HD 
HETATM   36  O   UNL     1      -9.485   9.044  70.712  1.00  0.00    -0.207 OA 
ENDBRANCH  19  26
ENDBRANCH  16  17
ENDBRANCH  15  16
ENDBRANCH  12  15
ENDBRANCH  11  12
ENDBRANCH   8  11
ENDBRANCH   7   8
ENDBRANCH   6   7
ENDBRANCH   5   6
ENDBRANCH   2   5
TORSDOF 10
ENDMDL
MODEL       29
REMARK 921   NORMALIZED FREE ENERGY PREDICTED BY IDOCK:   -6.35 KCAL/MOL
REMARK 922        TOTAL FREE ENERGY PREDICTED BY IDOCK:  -11.00 KCAL/MOL
REMARK 923 INTER-LIGAND FREE ENERGY PREDICTED BY IDOCK:  -10.05 KCAL/MOL
REMARK 924 INTRA-LIGAND FREE ENERGY PREDICTED BY IDOCK:   -0.95 KCAL/MOL
REMARK 927      BINDING AFFINITY PREDICTED BY RF-SCORE:    0.00 PKD
ROOT
HETATM    1  C   UNL     1      -6.811   2.570  70.539  1.00  0.00    -0.033 C  
HETATM    2  N   UNL     1      -6.858   4.065  70.304  1.00  0.00    -0.033 N  
HETATM    3  C   UNL     1      -6.347   4.809  71.525  1.00  0.00    -0.022 C  
HETATM    4  C   UNL     1      -5.944   4.409  69.116  1.00  0.00    -0.022 C  
ENDROOT
BRANCH   2   5
HETATM    5  C   UNL     1      -8.327   4.446  69.996  1.00  0.00    -0.062 C  
BRANCH   5   6
HETATM    6  C   UNL     1      -8.862   5.617  70.800  1.00  0.00    -0.139 C  
BRANCH   6   7
HETATM    7  O   UNL     1      -9.834   5.153  71.716  1.00  0.00    -0.162 OA 
BRANCH   7   8
HETATM    8  P   UNL     1     -11.183   6.237  71.743  1.00  0.00    -0.294 P  
HETATM    9  O   UNL     1     -11.826   5.341  72.795  1.00  0.00    -0.251 OA 
HETATM   10  O   UNL     1     -11.394   5.933  70.256  1.00  0.00    -0.322 OA 
BRANCH   8  11
HETATM   11  O   UNL     1     -12.531   7.321  71.771  1.00  0.00    -0.320 OA 
BRANCH  11  12
HETATM   12  P   UNL     1     -11.988   8.924  71.417  1.00  0.00    -0.342 P  
HETATM   13  O   UNL     1     -13.169   9.503  72.409  1.00  0.00    -0.431 OA 
HETATM   14  O   UNL     1     -10.806   8.696  72.383  1.00  0.00    -0.343 OA 
BRANCH  12  15
HETATM   15  O   UNL     1     -11.445  10.529  71.064  1.00  0.00    -0.300 OA 
BRANCH  15  16
HETATM   16  C   UNL     1     -12.136  11.195  69.988  1.00  0.00    -0.359 C  
BRANCH  16  17
HETATM   17  C   UNL     1     -11.631  10.801  68.609  1.00  0.00    -0.272 C  
HETATM   18  O   UNL     1     -12.083  11.745  67.635  1.00  0.00    -0.598 OA 
HETATM   19  C   UNL     1     -11.197  11.644  66.520  1.00  0.00    -0.294 C  
HETATM   20  H   UNL     1      -8.712   9.347  68.698  1.00  0.00     0.000 HD 
HETATM   21  C   UNL     1      -9.831  11.183  67.071  1.00  0.00    -0.185 C  
HETATM   22  H   UNL     1      -8.401   9.840  66.639  1.00  0.00     0.000 HD 
HETATM   23  C   UNL     1     -10.120  10.721  68.498  1.00  0.00    -0.176 C  
HETATM   24  O   UNL     1      -9.242  10.124  66.299  1.00  0.00    -0.150 OA 
HETATM   25  O   UNL     1      -9.658   9.397  68.767  1.00  0.00    -0.150 OA 
BRANCH  19  26
HETATM   26  N   UNL     1     -11.165  12.905  65.775  1.00  0.00    -0.287 N  
HETATM   27  C   UNL     1     -10.230  13.876  66.050  1.00  0.00    -0.310 C  
HETATM   28  C   UNL     1     -10.269  15.058  65.447  1.00  0.00    -0.411 C  
HETATM   29  C   UNL     1     -11.373  15.255  64.489  1.00  0.00    -0.300 C  
HETATM   30  N   UNL     1     -12.259  14.347  64.220  1.00  0.00    -0.671 N  
HETATM   31  N   UNL     1     -11.496  16.458  63.849  1.00  0.00    -1.618 NA 
HETATM   32  H   UNL     1     -12.994  14.534  63.539  1.00  0.00     0.000 HD 
HETATM   33  C   UNL     1     -12.202  13.128  64.861  1.00  0.00    -0.428 C  
HETATM   34  H1  UNL     1     -12.260  16.594  63.187  1.00  0.00     0.000 HD 
HETATM   35  H2  UNL     1     -10.832  17.210  64.032  1.00  0.00     0.000 HD 
HETATM   36  O   UNL     1     -13.043  12.254  64.638  1.00  0.00    -0.770 OA 
ENDBRANCH  19  26
ENDBRANCH  16  17
ENDBRANCH  15  16
ENDBRANCH  12  15
ENDBRANCH  11  12
ENDBRANCH   8  11
ENDBRANCH   7   8
ENDBRANCH   6   7
ENDBRANCH   5   6
ENDBRANCH   2   5
TORSDOF 10
ENDMDL
MODEL       30
REMARK 921   NORMALIZED FREE ENERGY PREDICTED BY IDOCK:   -6.32 KCAL/MOL
REMARK 922        TOTAL FREE ENERGY PREDICTED BY IDOCK:  -10.95 KCAL/MOL
REMARK 923 INTER-LIGAND FREE ENERGY PREDICTED BY IDOCK:   -9.69 KCAL/MOL
REMARK 924 INTRA-LIGAND FREE ENERGY PREDICTED BY IDOCK:   -1.27 KCAL/MOL
REMARK 927      BINDING AFFINITY PREDICTED BY RF-SCORE:    0.00 PKD
ROOT
HETATM    1  C   UNL     1     -11.098   7.766  72.665  1.00  0.00    -0.376 C  
HETATM    2  N   UNL     1     -11.836   7.802  71.344  1.00  0.00    -0.290 N  
HETATM    3  C   UNL     1     -11.708   6.468  70.628  1.00  0.00    -0.374 C  
HETATM    4  C   UNL     1     -13.328   8.058  71.616  1.00  0.00    -0.332 C  
ENDROOT
BRANCH   2   5
HETATM    5  C   UNL     1     -11.228   8.946  70.496  1.00  0.00    -0.252 C  
BRANCH   5   6
HETATM    6  C   UNL     1      -9.805   9.325  70.866  1.00  0.00    -0.293 C  
BRANCH   6   7
HETATM    7  O   UNL     1      -8.901   8.585  70.071  1.00  0.00    -0.135 OA 
BRANCH   7   8
HETATM    8  P   UNL     1      -8.782   9.295  68.498  1.00  0.00    -0.129 P  
HETATM    9  O   UNL     1      -8.058   8.038  68.031  1.00  0.00    -0.125 OA 
HETATM   10  O   UNL     1      -7.983  10.441  69.129  1.00  0.00    -0.118 OA 
BRANCH   8  11
HETATM   11  O   UNL     1      -8.664  10.006  66.924  1.00  0.00    -0.128 OA 
BRANCH  11  12
HETATM   12  P   UNL     1     -10.113  10.884  66.579  1.00  0.00    -0.235 P  
HETATM   13  O   UNL     1      -9.188  12.200  66.224  1.00  0.00    -0.220 OA 
HETATM   14  O   UNL     1     -10.194  10.143  65.227  1.00  0.00    -0.304 OA 
BRANCH  12  15
HETATM   15  O   UNL     1     -11.563  11.763  66.233  1.00  0.00    -0.441 OA 
BRANCH  15  16
HETATM   16  C   UNL     1     -11.878  12.827  67.153  1.00  0.00    -0.350 C  
BRANCH  16  17
HETATM   17  C   UNL     1     -11.918  14.199  66.499  1.00  0.00    -0.442 C  
HETATM   18  O   UNL     1     -10.935  15.051  67.094  1.00  0.00    -0.315 OA 
HETATM   19  C   UNL     1     -10.659  16.085  66.147  1.00  0.00    -0.297 C  
HETATM   20  H   UNL     1     -12.731  14.076  63.342  1.00  0.00     0.000 HD 
HETATM   21  C   UNL     1     -10.916  15.492  64.746  1.00  0.00    -0.399 C  
HETATM   22  H   UNL     1     -11.841  15.998  63.036  1.00  0.00     0.000 HD 
HETATM   23  C   UNL     1     -11.664  14.186  65.004  1.00  0.00    -0.376 C  
HETATM   24  O   UNL     1     -11.683  16.363  63.899  1.00  0.00    -1.085 OA 
HETATM   25  O   UNL     1     -12.890  14.085  64.279  1.00  0.00    -0.612 OA 
BRANCH  19  26
HETATM   26  N   UNL     1      -9.311  16.619  66.352  1.00  0.00    -0.264 N  
HETATM   27  C   UNL     1      -8.274  15.811  66.759  1.00  0.00    -0.267 C  
HETATM   28  C   UNL     1      -7.080  16.316  67.045  1.00  0.00    -0.259 C  
HETATM   29  C   UNL     1      -6.951  17.778  66.908  1.00  0.00    -0.180 C  
HETATM   30  N   UNL     1      -7.920  18.550  66.522  1.00  0.00    -0.265 N  
HETATM   31  N   UNL     1      -5.759  18.376  67.212  1.00  0.00    -0.133 NA 
HETATM   32  H   UNL     1      -7.770  19.554  66.433  1.00  0.00     0.000 HD 
HETATM   33  C   UNL     1      -9.152  18.005  66.235  1.00  0.00    -0.178 C  
HETATM   34  H1  UNL     1      -5.669  19.387  67.117  1.00  0.00     0.000 HD 
HETATM   35  H2  UNL     1      -4.967  17.816  67.530  1.00  0.00     0.000 HD 
HETATM   36  O   UNL     1     -10.096  18.718  65.884  1.00  0.00    -0.512 OA 
ENDBRANCH  19  26
ENDBRANCH  16  17
ENDBRANCH  15  16
ENDBRANCH  12  15
ENDBRANCH  11  12
ENDBRANCH   8  11
ENDBRANCH   7   8
ENDBRANCH   6   7
ENDBRANCH   5   6
ENDBRANCH   2   5
TORSDOF 10
ENDMDL
MODEL       31
REMARK 921   NORMALIZED FREE ENERGY PREDICTED BY IDOCK:   -6.28 KCAL/MOL
REMARK 922        TOTAL FREE ENERGY PREDICTED BY IDOCK:  -10.88 KCAL/MOL
REMARK 923 INTER-LIGAND FREE ENERGY PREDICTED BY IDOCK:   -9.47 KCAL/MOL
REMARK 924 INTRA-LIGAND FREE ENERGY PREDICTED BY IDOCK:   -1.41 KCAL/MOL
REMARK 927      BINDING AFFINITY PREDICTED BY RF-SCORE:    0.00 PKD
ROOT
HETATM    1  C   UNL     1     -12.247   8.059  71.306  1.00  0.00    -0.287 C  
HETATM    2  N   UNL     1     -10.804   8.225  70.878  1.00  0.00    -0.225 N  
HETATM    3  C   UNL     1      -9.987   8.842  72.000  1.00  0.00    -0.268 C  
HETATM    4  C   UNL     1     -10.217   6.839  70.564  1.00  0.00    -0.192 C  
ENDROOT
BRANCH   2   5
HETATM    5  C   UNL     1     -10.788   9.127  69.620  1.00  0.00    -0.197 C  
BRANCH   5   6
HETATM    6  C   UNL     1      -9.540   9.977  69.462  1.00  0.00    -0.230 C  
BRANCH   6   7
HETATM    7  O   UNL     1      -8.706   9.407  68.474  1.00  0.00    -0.126 OA 
BRANCH   7   8
HETATM    8  P   UNL     1      -7.526  10.564  67.959  1.00  0.00    -0.093 P  
HETATM    9  O   UNL     1      -8.666  11.530  67.660  1.00  0.00    -0.135 OA 
HETATM   10  O   UNL     1      -7.081   9.561  66.889  1.00  0.00    -0.084 OA 
BRANCH   8  11
HETATM   11  O   UNL     1      -6.347  11.721  67.446  1.00  0.00    -0.085 OA 
BRANCH  11  12
HETATM   12  P   UNL     1      -6.774  13.285  68.047  1.00  0.00    -0.167 P  
HETATM   13  O   UNL     1      -6.287  12.802  69.545  1.00  0.00    -0.116 OA 
HETATM   14  O   UNL     1      -5.476  13.838  67.422  1.00  0.00    -0.347 OA 
BRANCH  12  15
HETATM   15  O   UNL     1      -7.201  14.850  68.650  1.00  0.00    -0.106 OA 
BRANCH  15  16
HETATM   16  C   UNL     1      -6.776  15.964  67.842  1.00  0.00    -0.146 C  
BRANCH  16  17
HETATM   17  C   UNL     1      -7.928  16.719  67.197  1.00  0.00    -0.181 C  
HETATM   18  O   UNL     1      -8.609  15.871  66.269  1.00  0.00    -0.312 OA 
HETATM   19  C   UNL     1      -9.921  16.411  66.103  1.00  0.00    -0.339 C  
HETATM   20  H   UNL     1      -9.295  18.898  69.205  1.00  0.00     0.000 HD 
HETATM   21  C   UNL     1     -10.279  17.134  67.418  1.00  0.00    -0.321 C  
HETATM   22  H   UNL     1     -11.074  18.880  68.016  1.00  0.00     0.000 HD 
HETATM   23  C   UNL     1      -8.960  17.239  68.180  1.00  0.00    -0.254 C  
HETATM   24  O   UNL     1     -10.853  18.435  67.206  1.00  0.00    -0.389 OA 
HETATM   25  O   UNL     1      -8.649  18.571  68.589  1.00  0.00    -0.325 OA 
BRANCH  19  26
HETATM   26  N   UNL     1     -10.860  15.360  65.703  1.00  0.00    -0.344 N  
HETATM   27  C   UNL     1     -10.934  14.168  66.386  1.00  0.00    -0.311 C  
HETATM   28  C   UNL     1     -11.710  13.178  65.959  1.00  0.00    -0.424 C  
HETATM   29  C   UNL     1     -12.461  13.440  64.719  1.00  0.00    -0.365 C  
HETATM   30  N   UNL     1     -12.402  14.561  64.067  1.00  0.00    -0.974 N  
HETATM   31  N   UNL     1     -13.260  12.458  64.200  1.00  0.00    -0.661 NA 
HETATM   32  H   UNL     1     -12.954  14.691  63.220  1.00  0.00     0.000 HD 
HETATM   33  C   UNL     1     -11.587  15.573  64.526  1.00  0.00    -0.283 C  
HETATM   34  H1  UNL     1     -13.780  12.639  63.342  1.00  0.00     0.000 HD 
HETATM   35  H2  UNL     1     -13.335  11.554  64.667  1.00  0.00     0.000 HD 
HETATM   36  O   UNL     1     -11.497  16.641  63.916  1.00  0.00    -1.186 OA 
ENDBRANCH  19  26
ENDBRANCH  16  17
ENDBRANCH  15  16
ENDBRANCH  12  15
ENDBRANCH  11  12
ENDBRANCH   8  11
ENDBRANCH   7   8
ENDBRANCH   6   7
ENDBRANCH   5   6
ENDBRANCH   2   5
TORSDOF 10
ENDMDL
MODEL       32
REMARK 921   NORMALIZED FREE ENERGY PREDICTED BY IDOCK:   -6.25 KCAL/MOL
REMARK 922        TOTAL FREE ENERGY PREDICTED BY IDOCK:  -10.84 KCAL/MOL
REMARK 923 INTER-LIGAND FREE ENERGY PREDICTED BY IDOCK:   -9.23 KCAL/MOL
REMARK 924 INTRA-LIGAND FREE ENERGY PREDICTED BY IDOCK:   -1.61 KCAL/MOL
REMARK 927      BINDING AFFINITY PREDICTED BY RF-SCORE:    0.00 PKD
ROOT
HETATM    1  C   UNL     1     -11.547  15.332  72.063  1.00  0.00    -0.444 C  
HETATM    2  N   UNL     1     -12.445  14.891  70.927  1.00  0.00    -0.305 N  
HETATM    3  C   UNL     1     -12.338  13.390  70.719  1.00  0.00    -0.354 C  
HETATM    4  C   UNL     1     -13.903  15.221  71.289  1.00  0.00    -0.478 C  
ENDROOT
BRANCH   2   5
HETATM    5  C   UNL     1     -12.007  15.660  69.656  1.00  0.00    -0.349 C  
BRANCH   5   6
HETATM    6  C   UNL     1     -11.133  14.865  68.701  1.00  0.00    -0.263 C  
BRANCH   6   7
HETATM    7  O   UNL     1     -11.562  15.092  67.373  1.00  0.00    -0.348 OA 
BRANCH   7   8
HETATM    8  P   UNL     1     -11.273  13.682  66.412  1.00  0.00    -0.324 P  
HETATM    9  O   UNL     1     -12.372  12.975  67.195  1.00  0.00    -0.303 OA 
HETATM   10  O   UNL     1      -9.836  13.674  66.944  1.00  0.00    -0.247 OA 
BRANCH   8  11
HETATM   11  O   UNL     1     -10.985  12.274  65.450  1.00  0.00    -0.283 OA 
BRANCH  11  12
HETATM   12  P   UNL     1      -9.618  11.419  66.076  1.00  0.00    -0.234 P  
HETATM   13  O   UNL     1     -10.649  10.278  66.668  1.00  0.00    -0.223 OA 
HETATM   14  O   UNL     1      -9.327  10.914  64.647  1.00  0.00    -0.208 OA 
BRANCH  12  15
HETATM   15  O   UNL     1      -8.252  10.562  66.704  1.00  0.00    -0.122 OA 
BRANCH  15  16
HETATM   16  C   UNL     1      -7.933  10.828  68.083  1.00  0.00    -0.114 C  
BRANCH  16  17
HETATM   17  C   UNL     1      -8.039   9.602  68.976  1.00  0.00    -0.103 C  
HETATM   18  O   UNL     1      -8.989   9.838  70.019  1.00  0.00    -0.217 OA 
HETATM   19  C   UNL     1      -9.425   8.557  70.476  1.00  0.00    -0.170 C  
HETATM   20  H   UNL     1      -7.589   6.809  67.351  1.00  0.00     0.000 HD 
HETATM   21  C   UNL     1      -9.301   7.586  69.283  1.00  0.00    -0.151 C  
HETATM   22  H   UNL     1      -8.607   5.740  68.900  1.00  0.00     0.000 HD 
HETATM   23  C   UNL     1      -8.463   8.338  68.252  1.00  0.00    -0.136 C  
HETATM   24  O   UNL     1      -8.683   6.338  69.635  1.00  0.00    -0.134 OA 
HETATM   25  O   UNL     1      -7.324   7.601  67.804  1.00  0.00    -0.093 OA 
BRANCH  19  26
HETATM   26  N   UNL     1     -10.767   8.650  71.057  1.00  0.00    -0.217 N  
HETATM   27  C   UNL     1     -11.655   9.621  70.656  1.00  0.00    -0.299 C  
HETATM   28  C   UNL     1     -12.830   9.770  71.256  1.00  0.00    -0.472 C  
HETATM   29  C   UNL     1     -13.103   8.844  72.370  1.00  0.00    -0.418 C  
HETATM   30  N   UNL     1     -12.275   7.923  72.757  1.00  0.00    -0.606 N  
HETATM   31  N   UNL     1     -14.281   8.953  73.057  1.00  0.00    -1.158 NA 
HETATM   32  H   UNL     1     -12.522   7.301  73.526  1.00  0.00     0.000 HD 
HETATM   33  C   UNL     1     -11.059   7.789  72.121  1.00  0.00    -0.279 C  
HETATM   34  H1  UNL     1     -14.470   8.313  73.828  1.00  0.00     0.000 HD 
HETATM   35  H2  UNL     1     -14.963   9.668  72.801  1.00  0.00     0.000 HD 
HETATM   36  O   UNL     1     -10.246   6.934  72.481  1.00  0.00    -0.178 OA 
ENDBRANCH  19  26
ENDBRANCH  16  17
ENDBRANCH  15  16
ENDBRANCH  12  15
ENDBRANCH  11  12
ENDBRANCH   8  11
ENDBRANCH   7   8
ENDBRANCH   6   7
ENDBRANCH   5   6
ENDBRANCH   2   5
TORSDOF 10
ENDMDL
MODEL       33
REMARK 921   NORMALIZED FREE ENERGY PREDICTED BY IDOCK:   -6.24 KCAL/MOL
REMARK 922        TOTAL FREE ENERGY PREDICTED BY IDOCK:  -10.83 KCAL/MOL
REMARK 923 INTER-LIGAND FREE ENERGY PREDICTED BY IDOCK:   -9.20 KCAL/MOL
REMARK 924 INTRA-LIGAND FREE ENERGY PREDICTED BY IDOCK:   -1.63 KCAL/MOL
REMARK 927      BINDING AFFINITY PREDICTED BY RF-SCORE:    0.00 PKD
ROOT
HETATM    1  C   UNL     1     -11.526  15.356  67.757  1.00  0.00    -0.278 C  
HETATM    2  N   UNL     1     -10.976  14.552  68.916  1.00  0.00    -0.247 N  
HETATM    3  C   UNL     1      -9.847  13.651  68.447  1.00  0.00    -0.223 C  
HETATM    4  C   UNL     1     -10.412  15.520  69.969  1.00  0.00    -0.309 C  
ENDROOT
BRANCH   2   5
HETATM    5  C   UNL     1     -12.142  13.718  69.504  1.00  0.00    -0.334 C  
BRANCH   5   6
HETATM    6  C   UNL     1     -11.845  12.239  69.670  1.00  0.00    -0.324 C  
BRANCH   6   7
HETATM    7  O   UNL     1     -12.564  11.737  70.780  1.00  0.00    -0.317 OA 
BRANCH   7   8
HETATM    8  P   UNL     1     -12.127  10.088  71.069  1.00  0.00    -0.422 P  
HETATM    9  O   UNL     1     -11.413  10.086  69.722  1.00  0.00    -0.236 OA 
HETATM   10  O   UNL     1     -13.622   9.755  71.136  1.00  0.00    -0.340 OA 
BRANCH   8  11
HETATM   11  O   UNL     1     -11.690   8.440  71.359  1.00  0.00    -0.270 OA 
BRANCH  11  12
HETATM   12  P   UNL     1     -10.572   7.918  70.146  1.00  0.00    -0.237 P  
HETATM   13  O   UNL     1      -9.562   7.414  71.345  1.00  0.00    -0.160 OA 
HETATM   14  O   UNL     1     -11.468   6.685  69.906  1.00  0.00    -0.358 OA 
BRANCH  12  15
HETATM   15  O   UNL     1      -9.454   7.397  68.933  1.00  0.00    -0.145 OA 
BRANCH  15  16
HETATM   16  C   UNL     1      -9.928   7.477  67.575  1.00  0.00    -0.174 C  
BRANCH  16  17
HETATM   17  C   UNL     1      -9.056   8.343  66.679  1.00  0.00    -0.164 C  
HETATM   18  O   UNL     1      -9.871   9.047  65.738  1.00  0.00    -0.262 OA 
HETATM   19  C   UNL     1      -9.116  10.180  65.307  1.00  0.00    -0.195 C  
HETATM   20  H   UNL     1      -6.418   9.496  68.213  1.00  0.00     0.000 HD 
HETATM   21  C   UNL     1      -8.175  10.563  66.468  1.00  0.00    -0.133 C  
HETATM   22  H   UNL     1      -6.248  11.053  66.755  1.00  0.00     0.000 HD 
HETATM   23  C   UNL     1      -8.227   9.372  67.423  1.00  0.00    -0.121 C  
HETATM   24  O   UNL     1      -6.827  10.817  66.040  1.00  0.00    -0.131 OA 
HETATM   25  O   UNL     1      -6.938   8.851  67.747  1.00  0.00    -0.073 OA 
BRANCH  19  26
HETATM   26  N   UNL     1     -10.010  11.251  64.861  1.00  0.00    -0.257 N  
HETATM   27  C   UNL     1     -10.974  11.772  65.693  1.00  0.00    -0.295 C  
HETATM   28  C   UNL     1     -11.851  12.667  65.254  1.00  0.00    -0.452 C  
HETATM   29  C   UNL     1     -11.726  13.046  63.835  1.00  0.00    -0.468 C  
HETATM   30  N   UNL     1     -10.821  12.564  63.041  1.00  0.00    -0.559 N  
HETATM   31  N   UNL     1     -12.612  13.942  63.302  1.00  0.00    -1.006 NA 
HETATM   32  H   UNL     1     -10.774  12.872  62.071  1.00  0.00     0.000 HD 
HETATM   33  C   UNL     1      -9.923  11.633  63.517  1.00  0.00    -0.405 C  
HETATM   34  H1  UNL     1     -12.526  14.205  62.320  1.00  0.00     0.000 HD 
HETATM   35  H2  UNL     1     -13.351  14.344  63.880  1.00  0.00     0.000 HD 
HETATM   36  O   UNL     1      -9.064  11.144  62.779  1.00  0.00    -0.303 OA 
ENDBRANCH  19  26
ENDBRANCH  16  17
ENDBRANCH  15  16
ENDBRANCH  12  15
ENDBRANCH  11  12
ENDBRANCH   8  11
ENDBRANCH   7   8
ENDBRANCH   6   7
ENDBRANCH   5   6
ENDBRANCH   2   5
TORSDOF 10
ENDMDL
MODEL       34
REMARK 921   NORMALIZED FREE ENERGY PREDICTED BY IDOCK:   -6.11 KCAL/MOL
REMARK 922        TOTAL FREE ENERGY PREDICTED BY IDOCK:  -10.61 KCAL/MOL
REMARK 923 INTER-LIGAND FREE ENERGY PREDICTED BY IDOCK:   -9.73 KCAL/MOL
REMARK 924 INTRA-LIGAND FREE ENERGY PREDICTED BY IDOCK:   -0.88 KCAL/MOL
REMARK 927      BINDING AFFINITY PREDICTED BY RF-SCORE:    0.00 PKD
ROOT
HETATM    1  C   UNL     1      -8.276  17.564  68.400  1.00  0.00    -0.278 C  
HETATM    2  N   UNL     1      -8.740  18.900  67.861  1.00  0.00    -0.292 N  
HETATM    3  C   UNL     1      -9.899  19.431  68.687  1.00  0.00    -0.443 C  
HETATM    4  C   UNL     1      -7.580  19.906  67.960  1.00  0.00    -0.297 C  
ENDROOT
BRANCH   2   5
HETATM    5  C   UNL     1      -9.161  18.691  66.385  1.00  0.00    -0.291 C  
BRANCH   5   6
HETATM    6  C   UNL     1     -10.209  17.613  66.170  1.00  0.00    -0.343 C  
BRANCH   6   7
HETATM    7  O   UNL     1      -9.622  16.515  65.500  1.00  0.00    -0.502 OA 
BRANCH   7   8
HETATM    8  P   UNL     1     -10.855  15.428  64.960  1.00  0.00    -0.360 P  
HETATM    9  O   UNL     1     -11.515  16.599  64.243  1.00  0.00    -1.075 OA 
HETATM   10  O   UNL     1     -11.188  15.152  66.431  1.00  0.00    -0.339 OA 
BRANCH   8  11
HETATM   11  O   UNL     1     -12.087  14.339  64.419  1.00  0.00    -0.450 OA 
BRANCH  11  12
HETATM   12  P   UNL     1     -12.052  12.905  65.385  1.00  0.00    -0.470 P  
HETATM   13  O   UNL     1     -13.284  12.305  64.471  1.00  0.00    -0.799 OA 
HETATM   14  O   UNL     1     -10.796  12.458  64.608  1.00  0.00    -0.284 OA 
BRANCH  12  15
HETATM   15  O   UNL     1     -12.019  11.469  66.350  1.00  0.00    -0.345 OA 
BRANCH  15  16
HETATM   16  C   UNL     1     -11.098  11.488  67.458  1.00  0.00    -0.272 C  
BRANCH  16  17
HETATM   17  C   UNL     1     -11.510  10.576  68.603  1.00  0.00    -0.223 C  
HETATM   18  O   UNL     1     -10.949   9.275  68.418  1.00  0.00    -0.121 OA 
HETATM   19  C   UNL     1     -10.917   8.654  69.704  1.00  0.00    -0.091 C  
HETATM   20  H   UNL     1     -11.840  12.169  71.432  1.00  0.00     0.000 HD 
HETATM   21  C   UNL     1     -10.786   9.784  70.747  1.00  0.00    -0.333 C  
HETATM   22  H   UNL     1     -11.608  10.328  72.498  1.00  0.00     0.000 HD 
HETATM   23  C   UNL     1     -11.083  11.066  69.974  1.00  0.00    -0.161 C  
HETATM   24  O   UNL     1     -11.689   9.633  71.856  1.00  0.00    -0.357 OA 
HETATM   25  O   UNL     1     -12.107  11.862  70.573  1.00  0.00    -0.366 OA 
BRANCH  19  26
HETATM   26  N   UNL     1      -9.860   7.642  69.758  1.00  0.00    -0.179 N  
HETATM   27  C   UNL     1      -8.535   7.981  69.605  1.00  0.00    -0.131 C  
HETATM   28  C   UNL     1      -7.589   7.051  69.549  1.00  0.00    -0.098 C  
HETATM   29  C   UNL     1      -8.053   5.656  69.649  1.00  0.00    -0.102 C  
HETATM   30  N   UNL     1      -9.298   5.323  69.795  1.00  0.00    -0.127 N  
HETATM   31  N   UNL     1      -7.140   4.639  69.570  1.00  0.00    -0.050 NA 
HETATM   32  H   UNL     1      -9.561   4.341  69.872  1.00  0.00     0.000 HD 
HETATM   33  C   UNL     1     -10.264   6.304  69.847  1.00  0.00    -0.184 C  
HETATM   34  H1  UNL     1      -7.461   3.674  69.639  1.00  0.00     0.000 HD 
HETATM   35  H2  UNL     1      -6.149   4.846  69.444  1.00  0.00     0.000 HD 
HETATM   36  O   UNL     1     -11.457   6.015  69.967  1.00  0.00    -0.372 OA 
ENDBRANCH  19  26
ENDBRANCH  16  17
ENDBRANCH  15  16
ENDBRANCH  12  15
ENDBRANCH  11  12
ENDBRANCH   8  11
ENDBRANCH   7   8
ENDBRANCH   6   7
ENDBRANCH   5   6
ENDBRANCH   2   5
TORSDOF 10
ENDMDL
MODEL       35
REMARK 921   NORMALIZED FREE ENERGY PREDICTED BY IDOCK:   -6.11 KCAL/MOL
REMARK 922        TOTAL FREE ENERGY PREDICTED BY IDOCK:  -10.61 KCAL/MOL
REMARK 923 INTER-LIGAND FREE ENERGY PREDICTED BY IDOCK:   -9.37 KCAL/MOL
REMARK 924 INTRA-LIGAND FREE ENERGY PREDICTED BY IDOCK:   -1.24 KCAL/MOL
REMARK 927      BINDING AFFINITY PREDICTED BY RF-SCORE:    0.00 PKD
ROOT
HETATM    1  C   UNL     1      -8.711  16.524  66.328  1.00  0.00    -0.333 C  
HETATM    2  N   UNL     1     -10.019  17.206  66.665  1.00  0.00    -0.282 N  
HETATM    3  C   UNL     1     -10.661  16.552  67.876  1.00  0.00    -0.337 C  
HETATM    4  C   UNL     1      -9.737  18.679  67.009  1.00  0.00    -0.308 C  
ENDROOT
BRANCH   2   5
HETATM    5  C   UNL     1     -10.939  17.098  65.424  1.00  0.00     0.035 C  
BRANCH   5   6
HETATM    6  C   UNL     1     -10.729  15.852  64.583  1.00  0.00    -0.078 C  
BRANCH   6   7
HETATM    7  O   UNL     1     -11.982  15.265  64.293  1.00  0.00    -0.444 OA 
BRANCH   7   8
HETATM    8  P   UNL     1     -12.070  13.685  64.994  1.00  0.00    -0.440 P  
HETATM    9  O   UNL     1     -12.759  13.206  63.723  1.00  0.00    -0.688 OA 
HETATM   10  O   UNL     1     -12.905  14.289  66.130  1.00  0.00    -0.326 OA 
BRANCH   8  11
HETATM   11  O   UNL     1     -12.156  12.106  65.696  1.00  0.00    -0.545 OA 
BRANCH  11  12
HETATM   12  P   UNL     1     -10.871  11.911  66.836  1.00  0.00    -0.292 P  
HETATM   13  O   UNL     1     -11.779  10.776  67.610  1.00  0.00    -0.538 OA 
HETATM   14  O   UNL     1     -10.110  11.084  65.779  1.00  0.00    -0.233 OA 
BRANCH  12  15
HETATM   15  O   UNL     1      -9.586  11.715  67.978  1.00  0.00    -0.172 OA 
BRANCH  15  16
HETATM   16  C   UNL     1      -8.573  10.758  67.614  1.00  0.00    -0.123 C  
BRANCH  16  17
HETATM   17  C   UNL     1      -8.555   9.526  68.507  1.00  0.00    -0.119 C  
HETATM   18  O   UNL     1      -9.393   9.738  69.646  1.00  0.00    -0.191 OA 
HETATM   19  C   UNL     1      -9.748   8.446  70.141  1.00  0.00    -0.173 C  
HETATM   20  H   UNL     1      -8.221   6.750  66.827  1.00  0.00     0.000 HD 
HETATM   21  C   UNL     1      -9.732   7.482  68.936  1.00  0.00    -0.151 C  
HETATM   22  H   UNL     1      -9.042   5.653  68.471  1.00  0.00     0.000 HD 
HETATM   23  C   UNL     1      -9.026   8.255  67.825  1.00  0.00    -0.136 C  
HETATM   24  O   UNL     1      -9.052   6.247  69.213  1.00  0.00    -0.134 OA 
HETATM   25  O   UNL     1      -7.926   7.546  67.254  1.00  0.00    -0.114 OA 
BRANCH  19  26
HETATM   26  N   UNL     1     -11.021   8.507  70.863  1.00  0.00    -0.243 N  
HETATM   27  C   UNL     1     -11.967   9.462  70.568  1.00  0.00    -0.097 C  
HETATM   28  C   UNL     1     -13.073   9.581  71.293  1.00  0.00    -0.402 C  
HETATM   29  C   UNL     1     -13.206   8.642  72.421  1.00  0.00    -0.346 C  
HETATM   30  N   UNL     1     -12.323   7.736  72.708  1.00  0.00    -0.574 N  
HETATM   31  N   UNL     1     -14.306   8.722  73.232  1.00  0.00    -1.130 NA 
HETATM   32  H   UNL     1     -12.474   7.105  73.494  1.00  0.00     0.000 HD 
HETATM   33  C   UNL     1     -11.180   7.633  71.945  1.00  0.00    -0.257 C  
HETATM   34  H1  UNL     1     -14.398   8.073  74.012  1.00  0.00     0.000 HD 
HETATM   35  H2  UNL     1     -15.026   9.424  73.057  1.00  0.00     0.000 HD 
HETATM   36  O   UNL     1     -10.316   6.793  72.208  1.00  0.00    -0.193 OA 
ENDBRANCH  19  26
ENDBRANCH  16  17
ENDBRANCH  15  16
ENDBRANCH  12  15
ENDBRANCH  11  12
ENDBRANCH   8  11
ENDBRANCH   7   8
ENDBRANCH   6   7
ENDBRANCH   5   6
ENDBRANCH   2   5
TORSDOF 10
ENDMDL
MODEL       36
REMARK 921   NORMALIZED FREE ENERGY PREDICTED BY IDOCK:   -6.10 KCAL/MOL
REMARK 922        TOTAL FREE ENERGY PREDICTED BY IDOCK:  -10.61 KCAL/MOL
REMARK 923 INTER-LIGAND FREE ENERGY PREDICTED BY IDOCK:   -9.26 KCAL/MOL
REMARK 924 INTRA-LIGAND FREE ENERGY PREDICTED BY IDOCK:   -1.35 KCAL/MOL
REMARK 927      BINDING AFFINITY PREDICTED BY RF-SCORE:    0.00 PKD
ROOT
HETATM    1  C   UNL     1     -10.909   7.412  73.290  1.00  0.00    -0.368 C  
HETATM    2  N   UNL     1     -11.176   8.058  71.948  1.00  0.00    -0.264 N  
HETATM    3  C   UNL     1     -12.432   8.910  72.011  1.00  0.00    -0.392 C  
HETATM    4  C   UNL     1      -9.993   8.974  71.592  1.00  0.00    -0.313 C  
ENDROOT
BRANCH   2   5
HETATM    5  C   UNL     1     -11.328   6.925  70.903  1.00  0.00    -0.304 C  
BRANCH   5   6
HETATM    6  C   UNL     1     -11.251   7.379  69.456  1.00  0.00     0.008 C  
BRANCH   6   7
HETATM    7  O   UNL     1     -11.260   6.248  68.608  1.00  0.00    -0.356 OA 
BRANCH   7   8
HETATM    8  P   UNL     1     -10.169   6.492  67.287  1.00  0.00    -0.257 P  
HETATM    9  O   UNL     1     -10.758   7.887  67.116  1.00  0.00    -0.326 OA 
HETATM   10  O   UNL     1     -10.828   5.299  66.586  1.00  0.00    -0.258 OA 
BRANCH   8  11
HETATM   11  O   UNL     1      -9.078   6.737  65.967  1.00  0.00    -0.148 OA 
BRANCH  11  12
HETATM   12  P   UNL     1      -8.611   8.401  65.907  1.00  0.00    -0.170 P  
HETATM   13  O   UNL     1      -7.326   8.037  66.871  1.00  0.00    -0.086 OA 
HETATM   14  O   UNL     1      -8.059   8.155  64.487  1.00  0.00    -0.147 OA 
BRANCH  12  15
HETATM   15  O   UNL     1      -8.142  10.066  65.848  1.00  0.00    -0.118 OA 
BRANCH  15  16
HETATM   16  C   UNL     1      -8.810  10.864  64.852  1.00  0.00    -0.116 C  
BRANCH  16  17
HETATM   17  C   UNL     1     -10.289  11.075  65.137  1.00  0.00    -0.283 C  
HETATM   18  O   UNL     1     -10.487  11.317  66.532  1.00  0.00    -0.235 OA 
HETATM   19  C   UNL     1     -11.736  11.999  66.658  1.00  0.00    -0.256 C  
HETATM   20  H   UNL     1     -11.861  12.517  62.669  1.00  0.00     0.000 HD 
HETATM   21  C   UNL     1     -11.951  12.790  65.350  1.00  0.00    -0.436 C  
HETATM   22  H   UNL     1     -13.410  13.131  64.012  1.00  0.00     0.000 HD 
HETATM   23  C   UNL     1     -10.911  12.233  64.381  1.00  0.00    -0.329 C  
HETATM   24  O   UNL     1     -13.278  12.645  64.817  1.00  0.00    -0.846 OA 
HETATM   25  O   UNL     1     -11.471  11.792  63.143  1.00  0.00    -0.290 OA 
BRANCH  19  26
HETATM   26  N   UNL     1     -11.755  12.811  67.877  1.00  0.00    -0.348 N  
HETATM   27  C   UNL     1     -11.710  14.184  67.824  1.00  0.00    -0.373 C  
HETATM   28  C   UNL     1     -11.621  14.913  68.931  1.00  0.00    -0.339 C  
HETATM   29  C   UNL     1     -11.564  14.157  70.195  1.00  0.00    -0.224 C  
HETATM   30  N   UNL     1     -11.608  12.862  70.258  1.00  0.00    -0.532 N  
HETATM   31  N   UNL     1     -11.443  14.837  71.376  1.00  0.00    -0.531 NA 
HETATM   32  H   UNL     1     -11.577  12.392  71.162  1.00  0.00     0.000 HD 
HETATM   33  C   UNL     1     -11.696  12.125  69.097  1.00  0.00    -0.328 C  
HETATM   34  H1  UNL     1     -11.403  14.314  72.251  1.00  0.00     0.000 HD 
HETATM   35  H2  UNL     1     -11.394  15.856  71.382  1.00  0.00     0.000 HD 
HETATM   36  O   UNL     1     -11.720  10.893  69.128  1.00  0.00    -0.292 OA 
ENDBRANCH  19  26
ENDBRANCH  16  17
ENDBRANCH  15  16
ENDBRANCH  12  15
ENDBRANCH  11  12
ENDBRANCH   8  11
ENDBRANCH   7   8
ENDBRANCH   6   7
ENDBRANCH   5   6
ENDBRANCH   2   5
TORSDOF 10
ENDMDL
MODEL       37
REMARK 921   NORMALIZED FREE ENERGY PREDICTED BY IDOCK:   -6.09 KCAL/MOL
REMARK 922        TOTAL FREE ENERGY PREDICTED BY IDOCK:  -10.59 KCAL/MOL
REMARK 923 INTER-LIGAND FREE ENERGY PREDICTED BY IDOCK:   -9.24 KCAL/MOL
REMARK 924 INTRA-LIGAND FREE ENERGY PREDICTED BY IDOCK:   -1.35 KCAL/MOL
REMARK 927      BINDING AFFINITY PREDICTED BY RF-SCORE:    0.00 PKD
ROOT
HETATM    1  C   UNL     1     -10.434  10.975  64.300  1.00  0.00    -0.359 C  
HETATM    2  N   UNL     1      -9.415  10.398  65.260  1.00  0.00    -0.215 N  
HETATM    3  C   UNL     1      -8.361   9.609  64.504  1.00  0.00    -0.169 C  
HETATM    4  C   UNL     1      -8.714  11.554  65.993  1.00  0.00    -0.095 C  
ENDROOT
BRANCH   2   5
HETATM    5  C   UNL     1     -10.174   9.492  66.262  1.00  0.00    -0.220 C  
BRANCH   5   6
HETATM    6  C   UNL     1      -9.301   8.848  67.324  1.00  0.00    -0.140 C  
BRANCH   6   7
HETATM    7  O   UNL     1      -9.765   7.537  67.579  1.00  0.00    -0.139 OA 
BRANCH   7   8
HETATM    8  P   UNL     1     -10.306   7.412  69.218  1.00  0.00    -0.202 P  
HETATM    9  O   UNL     1      -8.937   6.851  69.583  1.00  0.00    -0.143 OA 
HETATM   10  O   UNL     1     -11.409   6.466  68.730  1.00  0.00    -0.327 OA 
BRANCH   8  11
HETATM   11  O   UNL     1     -10.847   7.288  70.857  1.00  0.00    -0.236 OA 
BRANCH  11  12
HETATM   12  P   UNL     1     -11.582   8.779  71.335  1.00  0.00    -0.347 P  
HETATM   13  O   UNL     1     -11.413   8.316  72.906  1.00  0.00    -0.347 OA 
HETATM   14  O   UNL     1     -10.244   9.489  71.038  1.00  0.00    -0.297 OA 
BRANCH  12  15
HETATM   15  O   UNL     1     -12.317  10.270  71.814  1.00  0.00    -0.377 OA 
BRANCH  15  16
HETATM   16  C   UNL     1     -12.746  11.126  70.736  1.00  0.00    -0.297 C  
BRANCH  16  17
HETATM   17  C   UNL     1     -12.141  12.520  70.793  1.00  0.00    -0.146 C  
HETATM   18  O   UNL     1     -11.556  12.850  69.531  1.00  0.00    -0.290 OA 
HETATM   19  C   UNL     1     -11.486  14.276  69.470  1.00  0.00    -0.287 C  
HETATM   20  H   UNL     1     -13.789  14.535  72.760  1.00  0.00     0.000 HD 
HETATM   21  C   UNL     1     -12.640  14.821  70.337  1.00  0.00    -0.346 C  
HETATM   22  H   UNL     1     -12.942  16.220  71.747  1.00  0.00     0.000 HD 
HETATM   23  C   UNL     1     -13.132  13.616  71.136  1.00  0.00    -0.234 C  
HETATM   24  O   UNL     1     -12.232  15.884  71.213  1.00  0.00    -0.405 OA 
HETATM   25  O   UNL     1     -13.169  13.849  72.545  1.00  0.00    -0.462 OA 
BRANCH  19  26
HETATM   26  N   UNL     1     -11.496  14.729  68.077  1.00  0.00    -0.318 N  
HETATM   27  C   UNL     1     -12.120  14.000  67.091  1.00  0.00    -0.401 C  
HETATM   28  C   UNL     1     -12.038  14.358  65.815  1.00  0.00    -0.362 C  
HETATM   29  C   UNL     1     -11.236  15.563  65.536  1.00  0.00    -0.188 C  
HETATM   30  N   UNL     1     -10.645  16.260  66.457  1.00  0.00    -0.291 N  
HETATM   31  N   UNL     1     -11.081  15.978  64.242  1.00  0.00    -1.044 NA 
HETATM   32  H   UNL     1     -10.113  17.092  66.207  1.00  0.00     0.000 HD 
HETATM   33  C   UNL     1     -10.740  15.868  67.775  1.00  0.00    -0.320 C  
HETATM   34  H1  UNL     1     -10.526  16.811  64.048  1.00  0.00     0.000 HD 
HETATM   35  H2  UNL     1     -11.517  15.460  63.478  1.00  0.00     0.000 HD 
HETATM   36  O   UNL     1     -10.172  16.501  68.668  1.00  0.00    -0.235 OA 
ENDBRANCH  19  26
ENDBRANCH  16  17
ENDBRANCH  15  16
ENDBRANCH  12  15
ENDBRANCH  11  12
ENDBRANCH   8  11
ENDBRANCH   7   8
ENDBRANCH   6   7
ENDBRANCH   5   6
ENDBRANCH   2   5
TORSDOF 10
ENDMDL
MODEL       38
REMARK 921   NORMALIZED FREE ENERGY PREDICTED BY IDOCK:   -6.09 KCAL/MOL
REMARK 922        TOTAL FREE ENERGY PREDICTED BY IDOCK:  -10.58 KCAL/MOL
REMARK 923 INTER-LIGAND FREE ENERGY PREDICTED BY IDOCK:   -9.45 KCAL/MOL
REMARK 924 INTRA-LIGAND FREE ENERGY PREDICTED BY IDOCK:   -1.13 KCAL/MOL
REMARK 927      BINDING AFFINITY PREDICTED BY RF-SCORE:    0.00 PKD
ROOT
HETATM    1  C   UNL     1      -8.315   5.965  66.121  1.00  0.00    -0.124 C  
HETATM    2  N   UNL     1      -8.920   4.754  66.797  1.00  0.00    -0.110 N  
HETATM    3  C   UNL     1      -8.857   3.546  65.878  1.00  0.00    -0.128 C  
HETATM    4  C   UNL     1      -8.108   4.435  68.064  1.00  0.00    -0.090 C  
ENDROOT
BRANCH   2   5
HETATM    5  C   UNL     1     -10.386   5.101  67.157  1.00  0.00    -0.192 C  
BRANCH   5   6
HETATM    6  C   UNL     1     -10.633   6.563  67.481  1.00  0.00    -0.280 C  
BRANCH   6   7
HETATM    7  O   UNL     1     -10.497   6.765  68.873  1.00  0.00    -0.185 OA 
BRANCH   7   8
HETATM    8  P   UNL     1     -10.236   8.443  69.203  1.00  0.00    -0.205 P  
HETATM    9  O   UNL     1     -11.211   8.322  70.368  1.00  0.00    -0.263 OA 
HETATM   10  O   UNL     1     -10.766   8.751  67.798  1.00  0.00    -0.218 OA 
BRANCH   8  11
HETATM   11  O   UNL     1      -9.974  10.122  69.533  1.00  0.00    -0.214 OA 
BRANCH  11  12
HETATM   12  P   UNL     1     -11.052  11.073  68.571  1.00  0.00    -0.296 P  
HETATM   13  O   UNL     1     -11.801  11.557  69.956  1.00  0.00    -0.310 OA 
HETATM   14  O   UNL     1      -9.924  12.113  68.405  1.00  0.00    -0.208 OA 
BRANCH  12  15
HETATM   15  O   UNL     1     -12.131  12.024  67.610  1.00  0.00    -0.547 OA 
BRANCH  15  16
HETATM   16  C   UNL     1     -11.636  12.401  66.310  1.00  0.00    -0.393 C  
BRANCH  16  17
HETATM   17  C   UNL     1     -11.806  13.881  66.004  1.00  0.00    -0.393 C  
HETATM   18  O   UNL     1     -11.050  14.662  66.934  1.00  0.00    -0.316 OA 
HETATM   19  C   UNL     1     -10.820  15.929  66.316  1.00  0.00    -0.200 C  
HETATM   20  H   UNL     1     -12.187  14.480  62.820  1.00  0.00     0.000 HD 
HETATM   21  C   UNL     1     -10.803  15.691  64.791  1.00  0.00    -0.355 C  
HETATM   22  H   UNL     1     -11.573  16.507  63.125  1.00  0.00     0.000 HD 
HETATM   23  C   UNL     1     -11.366  14.284  64.609  1.00  0.00    -0.373 C  
HETATM   24  O   UNL     1     -11.583  16.654  64.064  1.00  0.00    -1.197 OA 
HETATM   25  O   UNL     1     -12.461  14.228  63.694  1.00  0.00    -0.816 OA 
BRANCH  19  26
HETATM   26  N   UNL     1      -9.608  16.549  66.855  1.00  0.00    -0.235 N  
HETATM   27  C   UNL     1      -8.462  15.817  67.066  1.00  0.00    -0.220 C  
HETATM   28  C   UNL     1      -7.399  16.356  67.652  1.00  0.00    -0.156 C  
HETATM   29  C   UNL     1      -7.538  17.765  68.063  1.00  0.00    -0.236 C  
HETATM   30  N   UNL     1      -8.611  18.466  67.868  1.00  0.00    -0.267 N  
HETATM   31  N   UNL     1      -6.495  18.382  68.699  1.00  0.00    -0.223 NA 
HETATM   32  H   UNL     1      -8.646  19.442  68.162  1.00  0.00     0.000 HD 
HETATM   33  C   UNL     1      -9.704  17.885  67.261  1.00  0.00    -0.289 C  
HETATM   34  H1  UNL     1      -6.590  19.356  68.983  1.00  0.00     0.000 HD 
HETATM   35  H2  UNL     1      -5.631  17.872  68.887  1.00  0.00     0.000 HD 
HETATM   36  O   UNL     1     -10.744  18.524  67.081  1.00  0.00    -0.409 OA 
ENDBRANCH  19  26
ENDBRANCH  16  17
ENDBRANCH  15  16
ENDBRANCH  12  15
ENDBRANCH  11  12
ENDBRANCH   8  11
ENDBRANCH   7   8
ENDBRANCH   6   7
ENDBRANCH   5   6
ENDBRANCH   2   5
TORSDOF 10
ENDMDL
MODEL       39
REMARK 921   NORMALIZED FREE ENERGY PREDICTED BY IDOCK:   -6.06 KCAL/MOL
REMARK 922        TOTAL FREE ENERGY PREDICTED BY IDOCK:  -10.54 KCAL/MOL
REMARK 923 INTER-LIGAND FREE ENERGY PREDICTED BY IDOCK:   -9.05 KCAL/MOL
REMARK 924 INTRA-LIGAND FREE ENERGY PREDICTED BY IDOCK:   -1.49 KCAL/MOL
REMARK 927      BINDING AFFINITY PREDICTED BY RF-SCORE:    0.00 PKD
ROOT
HETATM    1  C   UNL     1     -10.298  19.814  66.172  1.00  0.00    -0.524 C  
HETATM    2  N   UNL     1      -9.767  18.916  67.269  1.00  0.00    -0.304 N  
HETATM    3  C   UNL     1      -8.267  18.727  67.120  1.00  0.00    -0.265 C  
HETATM    4  C   UNL     1     -10.033  19.583  68.629  1.00  0.00    -0.449 C  
ENDROOT
BRANCH   2   5
HETATM    5  C   UNL     1     -10.510  17.560  67.168  1.00  0.00    -0.312 C  
BRANCH   5   6
HETATM    6  C   UNL     1     -10.572  16.771  68.463  1.00  0.00    -0.354 C  
BRANCH   6   7
HETATM    7  O   UNL     1     -10.211  15.427  68.212  1.00  0.00    -0.224 OA 
BRANCH   7   8
HETATM    8  P   UNL     1     -10.498  15.041  66.550  1.00  0.00    -0.302 P  
HETATM    9  O   UNL     1     -11.678  14.186  66.996  1.00  0.00    -0.363 OA 
HETATM   10  O   UNL     1      -9.094  14.430  66.500  1.00  0.00    -0.257 OA 
BRANCH   8  11
HETATM   11  O   UNL     1     -10.786  14.656  64.888  1.00  0.00    -0.402 OA 
BRANCH  11  12
HETATM   12  P   UNL     1     -11.183  12.979  64.746  1.00  0.00    -0.359 P  
HETATM   13  O   UNL     1     -12.475  13.401  63.815  1.00  0.00    -0.682 OA 
HETATM   14  O   UNL     1     -10.045  12.836  63.713  1.00  0.00    -0.372 OA 
BRANCH  12  15
HETATM   15  O   UNL     1     -11.582  11.301  64.603  1.00  0.00    -0.039 OA 
BRANCH  15  16
HETATM   16  C   UNL     1     -10.648  10.387  65.211  1.00  0.00     0.007 C  
BRANCH  16  17
HETATM   17  C   UNL     1     -10.157  10.842  66.576  1.00  0.00    -0.222 C  
HETATM   18  O   UNL     1     -11.077  10.427  67.589  1.00  0.00    -0.310 OA 
HETATM   19  C   UNL     1     -10.352  10.405  68.819  1.00  0.00    -0.196 C  
HETATM   20  H   UNL     1      -6.902  10.882  66.802  1.00  0.00     0.000 HD 
HETATM   21  C   UNL     1      -8.878  10.113  68.469  1.00  0.00    -0.127 C  
HETATM   22  H   UNL     1      -7.047  10.797  68.936  1.00  0.00     0.000 HD 
HETATM   23  C   UNL     1      -8.789  10.308  66.957  1.00  0.00    -0.136 C  
HETATM   24  O   UNL     1      -7.955  10.977  69.152  1.00  0.00    -0.138 OA 
HETATM   25  O   UNL     1      -7.759  11.216  66.564  1.00  0.00    -0.150 OA 
BRANCH  19  26
HETATM   26  N   UNL     1     -10.961   9.457  69.755  1.00  0.00    -0.235 N  
HETATM   27  C   UNL     1     -10.635   8.121  69.735  1.00  0.00    -0.231 C  
HETATM   28  C   UNL     1     -11.265   7.247  70.511  1.00  0.00    -0.305 C  
HETATM   29  C   UNL     1     -12.326   7.801  71.372  1.00  0.00    -0.323 C  
HETATM   30  N   UNL     1     -12.641   9.059  71.402  1.00  0.00    -0.323 N  
HETATM   31  N   UNL     1     -13.039   6.958  72.180  1.00  0.00    -0.548 NA 
HETATM   32  H   UNL     1     -13.376   9.388  72.027  1.00  0.00     0.000 HD 
HETATM   33  C   UNL     1     -11.977   9.947  70.585  1.00  0.00    -0.277 C  
HETATM   34  H1  UNL     1     -13.773   7.341  72.775  1.00  0.00     0.000 HD 
HETATM   35  H2  UNL     1     -12.839   5.958  72.187  1.00  0.00     0.000 HD 
HETATM   36  O   UNL     1     -12.270  11.146  70.580  1.00  0.00    -0.328 OA 
ENDBRANCH  19  26
ENDBRANCH  16  17
ENDBRANCH  15  16
ENDBRANCH  12  15
ENDBRANCH  11  12
ENDBRANCH   8  11
ENDBRANCH   7   8
ENDBRANCH   6   7
ENDBRANCH   5   6
ENDBRANCH   2   5
TORSDOF 10
ENDMDL
MODEL       40
REMARK 921   NORMALIZED FREE ENERGY PREDICTED BY IDOCK:   -6.04 KCAL/MOL
REMARK 922        TOTAL FREE ENERGY PREDICTED BY IDOCK:  -10.51 KCAL/MOL
REMARK 923 INTER-LIGAND FREE ENERGY PREDICTED BY IDOCK:   -9.55 KCAL/MOL
REMARK 924 INTRA-LIGAND FREE ENERGY PREDICTED BY IDOCK:   -0.96 KCAL/MOL
REMARK 927      BINDING AFFINITY PREDICTED BY RF-SCORE:    0.00 PKD
ROOT
HETATM    1  C   UNL     1      -8.353   5.417  66.693  1.00  0.00    -0.108 C  
HETATM    2  N   UNL     1      -8.489   6.895  66.992  1.00  0.00    -0.120 N  
HETATM    3  C   UNL     1      -9.954   7.281  67.103  1.00  0.00    -0.215 C  
HETATM    4  C   UNL     1      -7.811   7.194  68.339  1.00  0.00    -0.122 C  
ENDROOT
BRANCH   2   5
HETATM    5  C   UNL     1      -7.797   7.672  65.844  1.00  0.00    -0.103 C  
BRANCH   5   6
HETATM    6  C   UNL     1      -8.342   9.068  65.602  1.00  0.00    -0.132 C  
BRANCH   6   7
HETATM    7  O   UNL     1      -8.137   9.424  64.249  1.00  0.00    -0.124 OA 
BRANCH   7   8
HETATM    8  P   UNL     1      -9.310  10.601  63.765  1.00  0.00    -0.313 P  
HETATM    9  O   UNL     1     -10.244  10.047  64.834  1.00  0.00    -0.261 OA 
HETATM   10  O   UNL     1      -9.295   9.969  62.368  1.00  0.00    -0.287 OA 
BRANCH   8  11
HETATM   11  O   UNL     1     -10.482  11.778  63.281  1.00  0.00    -0.400 OA 
BRANCH  11  12
HETATM   12  P   UNL     1     -11.392  12.286  64.661  1.00  0.00    -0.341 P  
HETATM   13  O   UNL     1     -10.835  13.817  64.419  1.00  0.00    -0.395 OA 
HETATM   14  O   UNL     1     -12.665  12.238  63.791  1.00  0.00    -0.693 OA 
BRANCH  12  15
HETATM   15  O   UNL     1     -12.302  12.795  66.042  1.00  0.00    -0.547 OA 
BRANCH  15  16
HETATM   16  C   UNL     1     -12.234  14.201  66.346  1.00  0.00    -0.446 C  
BRANCH  16  17
HETATM   17  C   UNL     1     -11.320  14.524  67.519  1.00  0.00    -0.340 C  
HETATM   18  O   UNL     1     -10.382  15.535  67.143  1.00  0.00    -0.261 OA 
HETATM   19  C   UNL     1      -9.932  16.149  68.352  1.00  0.00    -0.230 C  
HETATM   20  H   UNL     1     -12.813  14.230  70.405  1.00  0.00     0.000 HD 
HETATM   21  C   UNL     1     -11.079  16.020  69.376  1.00  0.00    -0.331 C  
HETATM   22  H   UNL     1     -11.339  15.498  71.299  1.00  0.00     0.000 HD 
HETATM   23  C   UNL     1     -12.045  15.013  68.758  1.00  0.00    -0.180 C  
HETATM   24  O   UNL     1     -10.633  15.577  70.668  1.00  0.00    -0.308 OA 
HETATM   25  O   UNL     1     -12.359  13.924  69.628  1.00  0.00    -0.328 OA 
BRANCH  19  26
HETATM   26  N   UNL     1      -9.487  17.520  68.095  1.00  0.00    -0.281 N  
HETATM   27  C   UNL     1     -10.261  18.401  67.375  1.00  0.00    -0.372 C  
HETATM   28  C   UNL     1      -9.811  19.608  67.054  1.00  0.00    -0.491 C  
HETATM   29  C   UNL     1      -8.444  19.926  67.506  1.00  0.00    -0.329 C  
HETATM   30  N   UNL     1      -7.706  19.105  68.187  1.00  0.00    -0.282 N  
HETATM   31  N   UNL     1      -7.899  21.140  67.189  1.00  0.00    -0.675 NA 
HETATM   32  H   UNL     1      -6.771  19.383  68.485  1.00  0.00     0.000 HD 
HETATM   33  C   UNL     1      -8.192  17.855  68.506  1.00  0.00    -0.295 C  
HETATM   34  H1  UNL     1      -6.954  21.360  67.501  1.00  0.00     0.000 HD 
HETATM   35  H2  UNL     1      -8.434  21.819  66.645  1.00  0.00     0.000 HD 
HETATM   36  O   UNL     1      -7.503  17.049  69.136  1.00  0.00    -0.235 OA 
ENDBRANCH  19  26
ENDBRANCH  16  17
ENDBRANCH  15  16
ENDBRANCH  12  15
ENDBRANCH  11  12
ENDBRANCH   8  11
ENDBRANCH   7   8
ENDBRANCH   6   7
ENDBRANCH   5   6
ENDBRANCH   2   5
TORSDOF 10
ENDMDL
MODEL       41
REMARK 921   NORMALIZED FREE ENERGY PREDICTED BY IDOCK:   -6.03 KCAL/MOL
REMARK 922        TOTAL FREE ENERGY PREDICTED BY IDOCK:  -10.49 KCAL/MOL
REMARK 923 INTER-LIGAND FREE ENERGY PREDICTED BY IDOCK:   -9.52 KCAL/MOL
REMARK 924 INTRA-LIGAND FREE ENERGY PREDICTED BY IDOCK:   -0.97 KCAL/MOL
REMARK 927      BINDING AFFINITY PREDICTED BY RF-SCORE:    0.00 PKD
ROOT
HETATM    1  C   UNL     1      -9.537   4.225  67.782  1.00  0.00    -0.158 C  
HETATM    2  N   UNL     1      -9.330   5.265  68.862  1.00  0.00    -0.118 N  
HETATM    3  C   UNL     1     -10.667   5.743  69.401  1.00  0.00    -0.326 C  
HETATM    4  C   UNL     1      -8.546   4.627  70.022  1.00  0.00    -0.077 C  
ENDROOT
BRANCH   2   5
HETATM    5  C   UNL     1      -8.533   6.437  68.239  1.00  0.00    -0.115 C  
BRANCH   5   6
HETATM    6  C   UNL     1      -9.310   7.734  68.104  1.00  0.00    -0.145 C  
BRANCH   6   7
HETATM    7  O   UNL     1      -8.743   8.712  68.953  1.00  0.00    -0.129 OA 
BRANCH   7   8
HETATM    8  P   UNL     1      -9.996   9.602  69.747  1.00  0.00    -0.257 P  
HETATM    9  O   UNL     1      -9.422  10.874  69.135  1.00  0.00    -0.176 OA 
HETATM   10  O   UNL     1      -9.448   9.087  71.083  1.00  0.00    -0.241 OA 
BRANCH   8  11
HETATM   11  O   UNL     1     -11.250  10.491  70.540  1.00  0.00    -0.314 OA 
BRANCH  11  12
HETATM   12  P   UNL     1     -11.614  11.914  69.627  1.00  0.00    -0.258 P  
HETATM   13  O   UNL     1     -12.634  11.013  68.699  1.00  0.00    -0.304 OA 
HETATM   14  O   UNL     1     -12.521  12.379  70.786  1.00  0.00    -0.349 OA 
BRANCH  12  15
HETATM   15  O   UNL     1     -11.979  13.337  68.712  1.00  0.00    -0.325 OA 
BRANCH  15  16
HETATM   16  C   UNL     1     -10.900  13.850  67.906  1.00  0.00    -0.244 C  
BRANCH  16  17
HETATM   17  C   UNL     1     -11.333  14.939  66.938  1.00  0.00    -0.337 C  
HETATM   18  O   UNL     1     -10.851  16.209  67.384  1.00  0.00    -0.322 OA 
HETATM   19  C   UNL     1     -10.821  17.064  66.240  1.00  0.00     0.034 C  
HETATM   20  H   UNL     1     -11.496  13.897  63.851  1.00  0.00     0.000 HD 
HETATM   21  C   UNL     1     -10.599  16.160  65.009  1.00  0.00    -0.276 C  
HETATM   22  H   UNL     1     -11.341  15.916  63.158  1.00  0.00     0.000 HD 
HETATM   23  C   UNL     1     -10.843  14.741  65.516  1.00  0.00    -0.351 C  
HETATM   24  O   UNL     1     -11.478  16.472  63.916  1.00  0.00    -1.145 OA 
HETATM   25  O   UNL     1     -11.803  14.021  64.741  1.00  0.00    -0.363 OA 
BRANCH  19  26
HETATM   26  N   UNL     1      -9.822  18.120  66.416  1.00  0.00    -0.349 N  
HETATM   27  C   UNL     1      -8.663  17.899  67.124  1.00  0.00    -0.243 C  
HETATM   28  C   UNL     1      -7.809  18.885  67.372  1.00  0.00    -0.255 C  
HETATM   29  C   UNL     1      -8.192  20.211  66.854  1.00  0.00    -0.316 C  
HETATM   30  N   UNL     1      -9.281  20.432  66.184  1.00  0.00    -0.624 N  
HETATM   31  N   UNL     1      -7.377  21.284  67.094  1.00  0.00    -0.785 NA 
HETATM   32  H   UNL     1      -9.488  21.368  65.838  1.00  0.00     0.000 HD 
HETATM   33  C   UNL     1     -10.154  19.394  65.941  1.00  0.00    -0.322 C  
HETATM   34  H1  UNL     1      -7.642  22.201  66.736  1.00  0.00     0.000 HD 
HETATM   35  H2  UNL     1      -6.514  21.167  67.625  1.00  0.00     0.000 HD 
HETATM   36  O   UNL     1     -11.205  19.581  65.323  1.00  0.00    -0.331 OA 
ENDBRANCH  19  26
ENDBRANCH  16  17
ENDBRANCH  15  16
ENDBRANCH  12  15
ENDBRANCH  11  12
ENDBRANCH   8  11
ENDBRANCH   7   8
ENDBRANCH   6   7
ENDBRANCH   5   6
ENDBRANCH   2   5
TORSDOF 10
ENDMDL
MODEL       42
REMARK 921   NORMALIZED FREE ENERGY PREDICTED BY IDOCK:   -6.03 KCAL/MOL
REMARK 922        TOTAL FREE ENERGY PREDICTED BY IDOCK:  -10.49 KCAL/MOL
REMARK 923 INTER-LIGAND FREE ENERGY PREDICTED BY IDOCK:   -8.71 KCAL/MOL
REMARK 924 INTRA-LIGAND FREE ENERGY PREDICTED BY IDOCK:   -1.77 KCAL/MOL
REMARK 927      BINDING AFFINITY PREDICTED BY RF-SCORE:    0.00 PKD
ROOT
HETATM    1  C   UNL     1      -7.881  12.027  67.922  1.00  0.00    -0.144 C  
HETATM    2  N   UNL     1      -6.549  11.335  67.725  1.00  0.00    -0.066 N  
HETATM    3  C   UNL     1      -6.415  10.162  68.681  1.00  0.00    -0.052 C  
HETATM    4  C   UNL     1      -6.480  10.792  66.287  1.00  0.00    -0.134 C  
ENDROOT
BRANCH   2   5
HETATM    5  C   UNL     1      -5.434  12.382  67.971  1.00  0.00    -0.073 C  
BRANCH   5   6
HETATM    6  C   UNL     1      -5.930  13.747  68.412  1.00  0.00    -0.099 C  
BRANCH   6   7
HETATM    7  O   UNL     1      -5.132  14.751  67.817  1.00  0.00    -0.250 OA 
BRANCH   7   8
HETATM    8  P   UNL     1      -6.057  16.200  67.622  1.00  0.00    -0.158 P  
HETATM    9  O   UNL     1      -6.226  16.245  69.136  1.00  0.00    -0.142 OA 
HETATM   10  O   UNL     1      -7.046  15.397  66.771  1.00  0.00    -0.140 OA 
BRANCH   8  11
HETATM   11  O   UNL     1      -6.981  17.651  67.428  1.00  0.00    -0.163 OA 
BRANCH  11  12
HETATM   12  P   UNL     1      -8.443  17.292  66.577  1.00  0.00    -0.265 P  
HETATM   13  O   UNL     1      -9.291  17.891  67.856  1.00  0.00    -0.261 OA 
HETATM   14  O   UNL     1      -8.198  18.544  65.708  1.00  0.00    -0.481 OA 
BRANCH  12  15
HETATM   15  O   UNL     1      -9.906  16.934  65.726  1.00  0.00    -0.514 OA 
BRANCH  15  16
HETATM   16  C   UNL     1     -10.656  15.810  66.227  1.00  0.00    -0.310 C  
BRANCH  16  17
HETATM   17  C   UNL     1     -10.834  14.697  65.206  1.00  0.00    -0.377 C  
HETATM   18  O   UNL     1     -10.182  13.509  65.661  1.00  0.00    -0.287 OA 
HETATM   19  C   UNL     1     -10.794  12.415  64.975  1.00  0.00    -0.295 C  
HETATM   20  H   UNL     1     -13.684  14.870  63.627  1.00  0.00     0.000 HD 
HETATM   21  C   UNL     1     -12.244  12.837  64.658  1.00  0.00    -0.447 C  
HETATM   22  H   UNL     1     -13.527  12.799  63.112  1.00  0.00     0.000 HD 
HETATM   23  C   UNL     1     -12.280  14.341  64.916  1.00  0.00    -0.440 C  
HETATM   24  O   UNL     1     -12.634  12.539  63.307  1.00  0.00    -0.667 OA 
HETATM   25  O   UNL     1     -12.778  15.093  63.809  1.00  0.00    -0.722 OA 
BRANCH  19  26
HETATM   26  N   UNL     1     -10.668  11.184  65.759  1.00  0.00    -0.226 N  
HETATM   27  C   UNL     1     -11.121  11.112  67.056  1.00  0.00    -0.273 C  
HETATM   28  C   UNL     1     -10.912  10.031  67.799  1.00  0.00    -0.310 C  
HETATM   29  C   UNL     1     -10.164   8.941  67.148  1.00  0.00    -0.269 C  
HETATM   30  N   UNL     1      -9.733   8.996  65.926  1.00  0.00    -0.395 N  
HETATM   31  N   UNL     1      -9.884   7.805  67.859  1.00  0.00    -0.154 NA 
HETATM   32  H   UNL     1      -9.231   8.205  65.523  1.00  0.00     0.000 HD 
HETATM   33  C   UNL     1      -9.958  10.129  65.175  1.00  0.00    -0.309 C  
HETATM   34  H1  UNL     1      -9.366   7.050  67.409  1.00  0.00     0.000 HD 
HETATM   35  H2  UNL     1     -10.190   7.714  68.828  1.00  0.00     0.000 HD 
HETATM   36  O   UNL     1      -9.543  10.215  64.016  1.00  0.00    -0.291 OA 
ENDBRANCH  19  26
ENDBRANCH  16  17
ENDBRANCH  15  16
ENDBRANCH  12  15
ENDBRANCH  11  12
ENDBRANCH   8  11
ENDBRANCH   7   8
ENDBRANCH   6   7
ENDBRANCH   5   6
ENDBRANCH   2   5
TORSDOF 10
ENDMDL
MODEL       43
REMARK 921   NORMALIZED FREE ENERGY PREDICTED BY IDOCK:   -6.03 KCAL/MOL
REMARK 922        TOTAL FREE ENERGY PREDICTED BY IDOCK:  -10.49 KCAL/MOL
REMARK 923 INTER-LIGAND FREE ENERGY PREDICTED BY IDOCK:   -9.61 KCAL/MOL
REMARK 924 INTRA-LIGAND FREE ENERGY PREDICTED BY IDOCK:   -0.88 KCAL/MOL
REMARK 927      BINDING AFFINITY PREDICTED BY RF-SCORE:    0.00 PKD
ROOT
HETATM    1  C   UNL     1      -7.259  16.919  69.172  1.00  0.00    -0.209 C  
HETATM    2  N   UNL     1      -6.433  18.186  69.102  1.00  0.00    -0.248 N  
HETATM    3  C   UNL     1      -5.672  18.394  70.400  1.00  0.00    -0.168 C  
HETATM    4  C   UNL     1      -5.409  18.051  67.963  1.00  0.00    -0.152 C  
ENDROOT
BRANCH   2   5
HETATM    5  C   UNL     1      -7.402  19.364  68.833  1.00  0.00    -0.367 C  
BRANCH   5   6
HETATM    6  C   UNL     1      -8.867  18.975  68.743  1.00  0.00    -0.316 C  
BRANCH   6   7
HETATM    7  O   UNL     1      -9.416  19.489  67.546  1.00  0.00    -0.302 OA 
BRANCH   7   8
HETATM    8  P   UNL     1      -9.793  18.191  66.466  1.00  0.00    -0.361 P  
HETATM    9  O   UNL     1      -8.380  18.302  65.907  1.00  0.00    -0.506 OA 
HETATM   10  O   UNL     1     -10.911  19.065  65.885  1.00  0.00    -0.381 OA 
BRANCH   8  11
HETATM   11  O   UNL     1     -10.171  16.892  65.387  1.00  0.00    -0.605 OA 
BRANCH  11  12
HETATM   12  P   UNL     1     -10.451  15.450  66.298  1.00  0.00    -0.327 P  
HETATM   13  O   UNL     1      -8.820  15.255  66.421  1.00  0.00    -0.290 OA 
HETATM   14  O   UNL     1     -10.787  16.332  67.519  1.00  0.00    -0.321 OA 
BRANCH  12  15
HETATM   15  O   UNL     1     -10.730  14.005  67.209  1.00  0.00    -0.274 OA 
BRANCH  15  16
HETATM   16  C   UNL     1     -10.270  12.785  66.596  1.00  0.00    -0.238 C  
BRANCH  16  17
HETATM   17  C   UNL     1      -9.615  11.824  67.576  1.00  0.00    -0.177 C  
HETATM   18  O   UNL     1     -10.365  11.783  68.793  1.00  0.00    -0.213 OA 
HETATM   19  C   UNL     1     -10.042  10.547  69.433  1.00  0.00    -0.209 C  
HETATM   20  H   UNL     1      -8.163   9.304  66.099  1.00  0.00     0.000 HD 
HETATM   21  C   UNL     1      -9.674   9.545  68.319  1.00  0.00    -0.147 C  
HETATM   22  H   UNL     1      -8.253   8.182  67.919  1.00  0.00     0.000 HD 
HETATM   23  C   UNL     1      -9.494  10.400  67.067  1.00  0.00    -0.163 C  
HETATM   24  O   UNL     1      -8.480   8.799  68.605  1.00  0.00    -0.127 OA 
HETATM   25  O   UNL     1      -8.239  10.196  66.418  1.00  0.00    -0.118 OA 
BRANCH  19  26
HETATM   26  N   UNL     1     -11.139  10.121  70.306  1.00  0.00    -0.296 N  
HETATM   27  C   UNL     1     -12.405  10.640  70.169  1.00  0.00    -0.295 C  
HETATM   28  C   UNL     1     -13.371  10.332  71.026  1.00  0.00    -0.299 C  
HETATM   29  C   UNL     1     -12.992   9.421  72.121  1.00  0.00    -0.421 C  
HETATM   30  N   UNL     1     -11.801   8.924  72.260  1.00  0.00    -0.335 N  
HETATM   31  N   UNL     1     -13.925   9.079  73.062  1.00  0.00    -1.141 NA 
HETATM   32  H   UNL     1     -11.598   8.288  73.031  1.00  0.00     0.000 HD 
HETATM   33  C   UNL     1     -10.813   9.260  71.361  1.00  0.00    -0.364 C  
HETATM   34  H1  UNL     1     -13.662   8.449  73.819  1.00  0.00     0.000 HD 
HETATM   35  H2  UNL     1     -14.874   9.451  73.005  1.00  0.00     0.000 HD 
HETATM   36  O   UNL     1      -9.668   8.817  71.480  1.00  0.00    -0.236 OA 
ENDBRANCH  19  26
ENDBRANCH  16  17
ENDBRANCH  15  16
ENDBRANCH  12  15
ENDBRANCH  11  12
ENDBRANCH   8  11
ENDBRANCH   7   8
ENDBRANCH   6   7
ENDBRANCH   5   6
ENDBRANCH   2   5
TORSDOF 10
ENDMDL
MODEL       44
REMARK 921   NORMALIZED FREE ENERGY PREDICTED BY IDOCK:   -6.02 KCAL/MOL
REMARK 922        TOTAL FREE ENERGY PREDICTED BY IDOCK:  -10.48 KCAL/MOL
REMARK 923 INTER-LIGAND FREE ENERGY PREDICTED BY IDOCK:   -8.79 KCAL/MOL
REMARK 924 INTRA-LIGAND FREE ENERGY PREDICTED BY IDOCK:   -1.68 KCAL/MOL
REMARK 927      BINDING AFFINITY PREDICTED BY RF-SCORE:    0.00 PKD
ROOT
HETATM    1  C   UNL     1      -9.842   9.739  69.800  1.00  0.00    -0.234 C  
HETATM    2  N   UNL     1      -9.003   8.859  68.899  1.00  0.00    -0.136 N  
HETATM    3  C   UNL     1      -8.050   8.011  69.724  1.00  0.00    -0.115 C  
HETATM    4  C   UNL     1      -9.933   7.914  68.120  1.00  0.00    -0.180 C  
ENDROOT
BRANCH   2   5
HETATM    5  C   UNL     1      -8.224   9.784  67.931  1.00  0.00    -0.113 C  
BRANCH   5   6
HETATM    6  C   UNL     1      -7.945  11.177  68.468  1.00  0.00    -0.143 C  
BRANCH   6   7
HETATM    7  O   UNL     1      -6.548  11.368  68.572  1.00  0.00    -0.057 OA 
BRANCH   7   8
HETATM    8  P   UNL     1      -6.122  12.938  67.983  1.00  0.00    -0.138 P  
HETATM    9  O   UNL     1      -7.606  13.286  67.964  1.00  0.00    -0.116 OA 
HETATM   10  O   UNL     1      -5.487  12.256  66.767  1.00  0.00    -0.329 OA 
BRANCH   8  11
HETATM   11  O   UNL     1      -5.696  14.508  67.395  1.00  0.00    -0.342 OA 
BRANCH  11  12
HETATM   12  P   UNL     1      -6.893  15.654  67.893  1.00  0.00    -0.174 P  
HETATM   13  O   UNL     1      -5.803  16.271  68.963  1.00  0.00    -0.124 OA 
HETATM   14  O   UNL     1      -6.605  16.455  66.606  1.00  0.00    -0.255 OA 
BRANCH  12  15
HETATM   15  O   UNL     1      -8.089  16.800  68.392  1.00  0.00    -0.199 OA 
BRANCH  15  16
HETATM   16  C   UNL     1      -9.019  17.211  67.371  1.00  0.00    -0.220 C  
BRANCH  16  17
HETATM   17  C   UNL     1     -10.332  16.445  67.405  1.00  0.00    -0.295 C  
HETATM   18  O   UNL     1     -10.511  15.727  66.181  1.00  0.00    -0.294 OA 
HETATM   19  C   UNL     1     -11.428  14.667  66.455  1.00  0.00    -0.351 C  
HETATM   20  H   UNL     1     -11.117  15.410  70.398  1.00  0.00     0.000 HD 
HETATM   21  C   UNL     1     -11.261  14.301  67.945  1.00  0.00    -0.285 C  
HETATM   22  H   UNL     1     -12.411  13.931  69.550  1.00  0.00     0.000 HD 
HETATM   23  C   UNL     1     -10.441  15.443  68.539  1.00  0.00    -0.234 C  
HETATM   24  O   UNL     1     -12.514  14.157  68.633  1.00  0.00    -0.145 OA 
HETATM   25  O   UNL     1     -11.049  16.037  69.687  1.00  0.00    -0.282 OA 
BRANCH  19  26
HETATM   26  N   UNL     1     -11.222  13.558  65.522  1.00  0.00    -0.291 N  
HETATM   27  C   UNL     1     -10.383  12.511  65.827  1.00  0.00    -0.265 C  
HETATM   28  C   UNL     1     -10.115  11.561  64.939  1.00  0.00    -0.314 C  
HETATM   29  C   UNL     1     -10.762  11.713  63.623  1.00  0.00    -0.435 C  
HETATM   30  N   UNL     1     -11.556  12.694  63.323  1.00  0.00    -0.757 N  
HETATM   31  N   UNL     1     -10.513  10.789  62.644  1.00  0.00    -0.724 NA 
HETATM   32  H   UNL     1     -11.986  12.741  62.399  1.00  0.00     0.000 HD 
HETATM   33  C   UNL     1     -11.816  13.671  64.259  1.00  0.00    -0.425 C  
HETATM   34  H1  UNL     1     -10.959  10.894  61.734  1.00  0.00     0.000 HD 
HETATM   35  H2  UNL     1      -9.887  10.004  62.824  1.00  0.00     0.000 HD 
HETATM   36  O   UNL     1     -12.553  14.624  63.994  1.00  0.00    -0.819 OA 
ENDBRANCH  19  26
ENDBRANCH  16  17
ENDBRANCH  15  16
ENDBRANCH  12  15
ENDBRANCH  11  12
ENDBRANCH   8  11
ENDBRANCH   7   8
ENDBRANCH   6   7
ENDBRANCH   5   6
ENDBRANCH   2   5
TORSDOF 10
ENDMDL
MODEL       45
REMARK 921   NORMALIZED FREE ENERGY PREDICTED BY IDOCK:   -6.01 KCAL/MOL
REMARK 922        TOTAL FREE ENERGY PREDICTED BY IDOCK:  -10.46 KCAL/MOL
REMARK 923 INTER-LIGAND FREE ENERGY PREDICTED BY IDOCK:   -9.36 KCAL/MOL
REMARK 924 INTRA-LIGAND FREE ENERGY PREDICTED BY IDOCK:   -1.10 KCAL/MOL
REMARK 927      BINDING AFFINITY PREDICTED BY RF-SCORE:    0.00 PKD
ROOT
HETATM    1  C   UNL     1     -11.667   9.992  71.323  1.00  0.00    -0.369 C  
HETATM    2  N   UNL     1     -10.924   8.678  71.443  1.00  0.00    -0.251 N  
HETATM    3  C   UNL     1      -9.458   8.926  71.759  1.00  0.00    -0.264 C  
HETATM    4  C   UNL     1     -11.533   7.866  72.598  1.00  0.00    -0.395 C  
ENDROOT
BRANCH   2   5
HETATM    5  C   UNL     1     -11.081   7.926  70.098  1.00  0.00    -0.201 C  
BRANCH   5   6
HETATM    6  C   UNL     1     -11.536   6.483  70.226  1.00  0.00    -0.411 C  
BRANCH   6   7
HETATM    7  O   UNL     1     -10.578   5.634  69.626  1.00  0.00    -0.282 OA 
BRANCH   7   8
HETATM    8  P   UNL     1      -9.895   6.405  68.236  1.00  0.00    -0.142 P  
HETATM    9  O   UNL     1     -10.863   5.608  67.371  1.00  0.00    -0.243 OA 
HETATM   10  O   UNL     1      -8.543   5.795  68.623  1.00  0.00    -0.109 OA 
BRANCH   8  11
HETATM   11  O   UNL     1      -9.212   7.178  66.847  1.00  0.00    -0.136 OA 
BRANCH  11  12
HETATM   12  P   UNL     1      -9.725   8.828  66.795  1.00  0.00    -0.266 P  
HETATM   13  O   UNL     1      -8.555   9.188  67.898  1.00  0.00    -0.121 OA 
HETATM   14  O   UNL     1      -8.987   8.975  65.448  1.00  0.00    -0.193 OA 
BRANCH  12  15
HETATM   15  O   UNL     1     -10.237  10.481  66.745  1.00  0.00    -0.217 OA 
BRANCH  15  16
HETATM   16  C   UNL     1     -10.580  10.985  65.439  1.00  0.00    -0.202 C  
BRANCH  16  17
HETATM   17  C   UNL     1     -11.446  12.234  65.481  1.00  0.00    -0.361 C  
HETATM   18  O   UNL     1     -10.939  13.146  66.458  1.00  0.00    -0.281 OA 
HETATM   19  C   UNL     1     -11.427  14.441  66.105  1.00  0.00    -0.357 C  
HETATM   20  H   UNL     1     -12.700  13.002  62.569  1.00  0.00     0.000 HD 
HETATM   21  C   UNL     1     -11.622  14.447  64.574  1.00  0.00    -0.384 C  
HETATM   22  H   UNL     1     -12.999  15.017  63.226  1.00  0.00     0.000 HD 
HETATM   23  C   UNL     1     -11.528  12.980  64.162  1.00  0.00    -0.402 C  
HETATM   24  O   UNL     1     -12.879  15.014  64.169  1.00  0.00    -0.644 OA 
HETATM   25  O   UNL     1     -12.648  12.536  63.395  1.00  0.00    -0.690 OA 
BRANCH  19  26
HETATM   26  N   UNL     1     -10.532  15.482  66.615  1.00  0.00    -0.294 N  
HETATM   27  C   UNL     1      -9.393  15.845  65.933  1.00  0.00    -0.318 C  
HETATM   28  C   UNL     1      -8.530  16.712  66.448  1.00  0.00    -0.348 C  
HETATM   29  C   UNL     1      -8.868  17.239  67.783  1.00  0.00    -0.234 C  
HETATM   30  N   UNL     1      -9.939  16.907  68.435  1.00  0.00    -0.260 N  
HETATM   31  N   UNL     1      -8.012  18.116  68.392  1.00  0.00    -0.294 NA 
HETATM   32  H   UNL     1     -10.128  17.314  69.350  1.00  0.00     0.000 HD 
HETATM   33  C   UNL     1     -10.820  16.002  67.883  1.00  0.00    -0.333 C  
HETATM   34  H1  UNL     1      -8.246  18.481  69.315  1.00  0.00     0.000 HD 
HETATM   35  H2  UNL     1      -7.150  18.402  67.927  1.00  0.00     0.000 HD 
HETATM   36  O   UNL     1     -11.836  15.655  68.489  1.00  0.00    -0.355 OA 
ENDBRANCH  19  26
ENDBRANCH  16  17
ENDBRANCH  15  16
ENDBRANCH  12  15
ENDBRANCH  11  12
ENDBRANCH   8  11
ENDBRANCH   7   8
ENDBRANCH   6   7
ENDBRANCH   5   6
ENDBRANCH   2   5
TORSDOF 10
ENDMDL
MODEL       46
REMARK 921   NORMALIZED FREE ENERGY PREDICTED BY IDOCK:   -6.00 KCAL/MOL
REMARK 922        TOTAL FREE ENERGY PREDICTED BY IDOCK:  -10.44 KCAL/MOL
REMARK 923 INTER-LIGAND FREE ENERGY PREDICTED BY IDOCK:   -9.49 KCAL/MOL
REMARK 924 INTRA-LIGAND FREE ENERGY PREDICTED BY IDOCK:   -0.95 KCAL/MOL
REMARK 927      BINDING AFFINITY PREDICTED BY RF-SCORE:    0.00 PKD
ROOT
HETATM    1  C   UNL     1      -9.851  17.924  68.733  1.00  0.00    -0.352 C  
HETATM    2  N   UNL     1      -9.028  18.837  67.849  1.00  0.00    -0.290 N  
HETATM    3  C   UNL     1      -9.842  20.052  67.439  1.00  0.00    -0.422 C  
HETATM    4  C   UNL     1      -7.804  19.325  68.642  1.00  0.00    -0.361 C  
ENDROOT
BRANCH   2   5
HETATM    5  C   UNL     1      -8.590  18.019  66.608  1.00  0.00    -0.263 C  
BRANCH   5   6
HETATM    6  C   UNL     1      -9.410  16.768  66.349  1.00  0.00    -0.278 C  
BRANCH   6   7
HETATM    7  O   UNL     1     -10.546  17.104  65.577  1.00  0.00    -0.563 OA 
BRANCH   7   8
HETATM    8  P   UNL     1     -11.271  15.668  64.940  1.00  0.00    -0.208 P  
HETATM    9  O   UNL     1      -9.898  15.008  64.980  1.00  0.00    -0.252 OA 
HETATM   10  O   UNL     1     -11.687  16.482  63.709  1.00  0.00    -1.086 OA 
BRANCH   8  11
HETATM   11  O   UNL     1     -11.996  14.231  64.304  1.00  0.00    -0.446 OA 
BRANCH  11  12
HETATM   12  P   UNL     1     -11.967  12.990  65.507  1.00  0.00    -0.470 P  
HETATM   13  O   UNL     1     -12.655  14.050  66.564  1.00  0.00    -0.393 OA 
HETATM   14  O   UNL     1     -13.189  12.347  64.818  1.00  0.00    -0.784 OA 
BRANCH  12  15
HETATM   15  O   UNL     1     -11.939  11.749  66.712  1.00  0.00    -0.584 OA 
BRANCH  15  16
HETATM   16  C   UNL     1     -10.759  10.921  66.724  1.00  0.00    -0.252 C  
BRANCH  16  17
HETATM   17  C   UNL     1     -10.169  10.728  68.112  1.00  0.00    -0.172 C  
HETATM   18  O   UNL     1     -10.626   9.493  68.669  1.00  0.00    -0.213 OA 
HETATM   19  C   UNL     1      -9.683   9.122  69.676  1.00  0.00    -0.176 C  
HETATM   20  H   UNL     1      -7.181  12.006  68.406  1.00  0.00     0.000 HD 
HETATM   21  C   UNL     1      -8.322   9.718  69.260  1.00  0.00    -0.142 C  
HETATM   22  H   UNL     1      -6.801  10.738  70.087  1.00  0.00     0.000 HD 
HETATM   23  C   UNL     1      -8.652  10.709  68.147  1.00  0.00    -0.123 C  
HETATM   24  O   UNL     1      -7.640  10.371  70.343  1.00  0.00    -0.180 OA 
HETATM   25  O   UNL     1      -8.131  12.018  68.384  1.00  0.00    -0.151 OA 
BRANCH  19  26
HETATM   26  N   UNL     1      -9.687   7.670  69.869  1.00  0.00    -0.175 N  
HETATM   27  C   UNL     1      -9.881   6.808  68.815  1.00  0.00    -0.143 C  
HETATM   28  C   UNL     1      -9.989   5.498  69.008  1.00  0.00    -0.244 C  
HETATM   29  C   UNL     1      -9.897   5.046  70.408  1.00  0.00    -0.230 C  
HETATM   30  N   UNL     1      -9.712   5.848  71.410  1.00  0.00    -0.164 N  
HETATM   31  N   UNL     1     -10.027   3.713  70.690  1.00  0.00    -0.040 NA 
HETATM   32  H   UNL     1      -9.643   5.478  72.357  1.00  0.00     0.000 HD 
HETATM   33  C   UNL     1      -9.607   7.204  71.187  1.00  0.00    -0.164 C  
HETATM   34  H1  UNL     1      -9.964   3.400  71.658  1.00  0.00     0.000 HD 
HETATM   35  H2  UNL     1     -10.185   3.040  69.940  1.00  0.00     0.000 HD 
HETATM   36  O   UNL     1      -9.449   7.991  72.124  1.00  0.00    -0.167 OA 
ENDBRANCH  19  26
ENDBRANCH  16  17
ENDBRANCH  15  16
ENDBRANCH  12  15
ENDBRANCH  11  12
ENDBRANCH   8  11
ENDBRANCH   7   8
ENDBRANCH   6   7
ENDBRANCH   5   6
ENDBRANCH   2   5
TORSDOF 10
ENDMDL
MODEL       47
REMARK 921   NORMALIZED FREE ENERGY PREDICTED BY IDOCK:   -5.97 KCAL/MOL
REMARK 922        TOTAL FREE ENERGY PREDICTED BY IDOCK:  -10.40 KCAL/MOL
REMARK 923 INTER-LIGAND FREE ENERGY PREDICTED BY IDOCK:   -9.22 KCAL/MOL
REMARK 924 INTRA-LIGAND FREE ENERGY PREDICTED BY IDOCK:   -1.18 KCAL/MOL
REMARK 927      BINDING AFFINITY PREDICTED BY RF-SCORE:    0.00 PKD
ROOT
HETATM    1  C   UNL     1     -11.714   5.998  72.137  1.00  0.00    -0.279 C  
HETATM    2  N   UNL     1     -10.625   6.946  71.683  1.00  0.00    -0.209 N  
HETATM    3  C   UNL     1     -10.295   7.940  72.783  1.00  0.00    -0.333 C  
HETATM    4  C   UNL     1      -9.355   6.134  71.376  1.00  0.00    -0.152 C  
ENDROOT
BRANCH   2   5
HETATM    5  C   UNL     1     -11.133   7.672  70.414  1.00  0.00    -0.258 C  
BRANCH   5   6
HETATM    6  C   UNL     1     -10.046   8.309  69.566  1.00  0.00    -0.197 C  
BRANCH   6   7
HETATM    7  O   UNL     1     -10.354   8.132  68.198  1.00  0.00    -0.203 OA 
BRANCH   7   8
HETATM    8  P   UNL     1      -9.947   9.562  67.312  1.00  0.00    -0.220 P  
HETATM    9  O   UNL     1      -9.532   8.671  66.148  1.00  0.00    -0.223 OA 
HETATM   10  O   UNL     1      -8.932   9.895  68.412  1.00  0.00    -0.119 OA 
BRANCH   8  11
HETATM   11  O   UNL     1      -9.541  10.992  66.427  1.00  0.00    -0.189 OA 
BRANCH  11  12
HETATM   12  P   UNL     1     -10.953  11.972  66.239  1.00  0.00    -0.322 P  
HETATM   13  O   UNL     1     -11.159  11.323  64.739  1.00  0.00    -0.243 OA 
HETATM   14  O   UNL     1     -11.713  10.986  67.150  1.00  0.00    -0.456 OA 
BRANCH  12  15
HETATM   15  O   UNL     1     -12.366  12.953  66.049  1.00  0.00    -0.504 OA 
BRANCH  15  16
HETATM   16  C   UNL     1     -12.177  14.364  66.278  1.00  0.00    -0.345 C  
BRANCH  16  17
HETATM   17  C   UNL     1     -11.325  14.670  67.499  1.00  0.00    -0.348 C  
HETATM   18  O   UNL     1     -10.368  15.685  67.184  1.00  0.00    -0.272 OA 
HETATM   19  C   UNL     1      -9.980  16.283  68.422  1.00  0.00    -0.234 C  
HETATM   20  H   UNL     1     -12.965  14.345  70.301  1.00  0.00     0.000 HD 
HETATM   21  C   UNL     1     -11.178  16.145  69.384  1.00  0.00    -0.335 C  
HETATM   22  H   UNL     1     -11.537  15.600  71.285  1.00  0.00     0.000 HD 
HETATM   23  C   UNL     1     -12.112  15.146  68.706  1.00  0.00    -0.165 C  
HETATM   24  O   UNL     1     -10.799  15.685  70.692  1.00  0.00    -0.324 OA 
HETATM   25  O   UNL     1     -12.472  14.048  69.545  1.00  0.00    -0.299 OA 
BRANCH  19  26
HETATM   26  N   UNL     1      -9.521  17.657  68.204  1.00  0.00    -0.277 N  
HETATM   27  C   UNL     1     -10.373  18.631  67.738  1.00  0.00    -0.410 C  
HETATM   28  C   UNL     1      -9.930  19.848  67.442  1.00  0.00    -0.558 C  
HETATM   29  C   UNL     1      -8.486  20.070  67.635  1.00  0.00    -0.326 C  
HETATM   30  N   UNL     1      -7.673  19.161  68.076  1.00  0.00    -0.275 N  
HETATM   31  N   UNL     1      -7.949  21.290  67.324  1.00  0.00    -0.634 NA 
HETATM   32  H   UNL     1      -6.684  19.375  68.202  1.00  0.00     0.000 HD 
HETATM   33  C   UNL     1      -8.153  17.904  68.373  1.00  0.00    -0.299 C  
HETATM   34  H1  UNL     1      -6.951  21.444  67.458  1.00  0.00     0.000 HD 
HETATM   35  H2  UNL     1      -8.543  22.038  66.963  1.00  0.00     0.000 HD 
HETATM   36  O   UNL     1      -7.399  17.015  68.776  1.00  0.00    -0.214 OA 
ENDBRANCH  19  26
ENDBRANCH  16  17
ENDBRANCH  15  16
ENDBRANCH  12  15
ENDBRANCH  11  12
ENDBRANCH   8  11
ENDBRANCH   7   8
ENDBRANCH   6   7
ENDBRANCH   5   6
ENDBRANCH   2   5
TORSDOF 10
ENDMDL
MODEL       48
REMARK 921   NORMALIZED FREE ENERGY PREDICTED BY IDOCK:   -5.97 KCAL/MOL
REMARK 922        TOTAL FREE ENERGY PREDICTED BY IDOCK:  -10.40 KCAL/MOL
REMARK 923 INTER-LIGAND FREE ENERGY PREDICTED BY IDOCK:   -9.12 KCAL/MOL
REMARK 924 INTRA-LIGAND FREE ENERGY PREDICTED BY IDOCK:   -1.27 KCAL/MOL
REMARK 927      BINDING AFFINITY PREDICTED BY RF-SCORE:    0.00 PKD
ROOT
HETATM    1  C   UNL     1     -10.024   9.522  65.818  1.00  0.00    -0.245 C  
HETATM    2  N   UNL     1      -9.115  10.383  64.968  1.00  0.00    -0.188 N  
HETATM    3  C   UNL     1      -7.863  10.758  65.743  1.00  0.00    -0.106 C  
HETATM    4  C   UNL     1      -8.687   9.581  63.727  1.00  0.00    -0.217 C  
ENDROOT
BRANCH   2   5
HETATM    5  C   UNL     1      -9.912  11.646  64.558  1.00  0.00    -0.253 C  
BRANCH   5   6
HETATM    6  C   UNL     1     -10.999  11.405  63.526  1.00  0.00    -0.324 C  
BRANCH   6   7
HETATM    7  O   UNL     1     -11.633  12.631  63.217  1.00  0.00    -0.489 OA 
BRANCH   7   8
HETATM    8  P   UNL     1     -12.123  13.424  64.675  1.00  0.00    -0.427 P  
HETATM    9  O   UNL     1     -13.217  12.375  64.828  1.00  0.00    -0.784 OA 
HETATM   10  O   UNL     1     -12.389  14.683  63.843  1.00  0.00    -0.730 OA 
BRANCH   8  11
HETATM   11  O   UNL     1     -12.612  14.217  66.133  1.00  0.00    -0.465 OA 
BRANCH  11  12
HETATM   12  P   UNL     1     -11.681  13.610  67.458  1.00  0.00    -0.380 P  
HETATM   13  O   UNL     1     -10.352  14.335  66.809  1.00  0.00    -0.268 OA 
HETATM   14  O   UNL     1     -12.285  14.723  68.341  1.00  0.00    -0.209 OA 
BRANCH  12  15
HETATM   15  O   UNL     1     -10.749  13.004  68.784  1.00  0.00    -0.248 OA 
BRANCH  15  16
HETATM   16  C   UNL     1     -10.501  11.585  68.771  1.00  0.00    -0.204 C  
BRANCH  16  17
HETATM   17  C   UNL     1     -11.566  10.778  69.496  1.00  0.00    -0.303 C  
HETATM   18  O   UNL     1     -11.108   9.438  69.701  1.00  0.00    -0.222 OA 
HETATM   19  C   UNL     1     -11.866   8.906  70.788  1.00  0.00    -0.194 C  
HETATM   20  H   UNL     1     -13.314  12.576  71.583  1.00  0.00     0.000 HD 
HETATM   21  C   UNL     1     -12.260  10.096  71.688  1.00  0.00    -0.331 C  
HETATM   22  H   UNL     1     -13.884  10.803  72.637  1.00  0.00     0.000 HD 
HETATM   23  C   UNL     1     -11.957  11.337  70.851  1.00  0.00    -0.214 C  
HETATM   24  O   UNL     1     -13.641  10.070  72.083  1.00  0.00    -0.395 OA 
HETATM   25  O   UNL     1     -13.069  12.225  70.735  1.00  0.00     0.020 OA 
BRANCH  19  26
HETATM   26  N   UNL     1     -11.115   7.846  71.464  1.00  0.00    -0.237 N  
HETATM   27  C   UNL     1     -10.310   8.116  72.546  1.00  0.00    -0.330 C  
HETATM   28  C   UNL     1      -9.550   7.174  73.091  1.00  0.00    -0.213 C  
HETATM   29  C   UNL     1      -9.622   5.845  72.458  1.00  0.00    -0.154 C  
HETATM   30  N   UNL     1     -10.379   5.576  71.439  1.00  0.00    -0.221 N  
HETATM   31  N   UNL     1      -8.846   4.828  72.945  1.00  0.00    -0.116 NA 
HETATM   32  H   UNL     1     -10.398   4.635  71.049  1.00  0.00     0.000 HD 
HETATM   33  C   UNL     1     -11.157   6.571  70.887  1.00  0.00    -0.292 C  
HETATM   34  H1  UNL     1      -8.895   3.909  72.507  1.00  0.00     0.000 HD 
HETATM   35  H2  UNL     1      -8.225   4.989  73.738  1.00  0.00     0.000 HD 
HETATM   36  O   UNL     1     -11.871   6.348  69.906  1.00  0.00    -0.384 OA 
ENDBRANCH  19  26
ENDBRANCH  16  17
ENDBRANCH  15  16
ENDBRANCH  12  15
ENDBRANCH  11  12
ENDBRANCH   8  11
ENDBRANCH   7   8
ENDBRANCH   6   7
ENDBRANCH   5   6
ENDBRANCH   2   5
TORSDOF 10
ENDMDL
MODEL       49
REMARK 921   NORMALIZED FREE ENERGY PREDICTED BY IDOCK:   -5.95 KCAL/MOL
REMARK 922        TOTAL FREE ENERGY PREDICTED BY IDOCK:  -10.37 KCAL/MOL
REMARK 923 INTER-LIGAND FREE ENERGY PREDICTED BY IDOCK:   -8.98 KCAL/MOL
REMARK 924 INTRA-LIGAND FREE ENERGY PREDICTED BY IDOCK:   -1.39 KCAL/MOL
REMARK 927      BINDING AFFINITY PREDICTED BY RF-SCORE:    0.00 PKD
ROOT
HETATM    1  C   UNL     1      -7.326   7.987  65.394  1.00  0.00    -0.069 C  
HETATM    2  N   UNL     1      -7.434   9.342  64.728  1.00  0.00    -0.102 N  
HETATM    3  C   UNL     1      -6.769   9.315  63.362  1.00  0.00    -0.091 C  
HETATM    4  C   UNL     1      -8.921   9.681  64.530  1.00  0.00    -0.235 C  
ENDROOT
BRANCH   2   5
HETATM    5  C   UNL     1      -6.753  10.378  65.656  1.00  0.00    -0.127 C  
BRANCH   5   6
HETATM    6  C   UNL     1      -7.684  11.055  66.645  1.00  0.00    -0.153 C  
BRANCH   6   7
HETATM    7  O   UNL     1      -7.548  10.442  67.912  1.00  0.00    -0.087 OA 
BRANCH   7   8
HETATM    8  P   UNL     1      -9.061  10.483  68.752  1.00  0.00    -0.171 P  
HETATM    9  O   UNL     1      -9.541   9.351  67.853  1.00  0.00    -0.132 OA 
HETATM   10  O   UNL     1      -9.221  11.937  68.292  1.00  0.00    -0.182 OA 
BRANCH   8  11
HETATM   11  O   UNL     1     -10.573  10.524  69.592  1.00  0.00    -0.236 OA 
BRANCH  11  12
HETATM   12  P   UNL     1     -11.365  12.029  69.279  1.00  0.00    -0.228 P  
HETATM   13  O   UNL     1     -12.385  11.238  68.256  1.00  0.00    -0.542 OA 
HETATM   14  O   UNL     1     -12.072  11.896  70.645  1.00  0.00    -0.373 OA 
BRANCH  12  15
HETATM   15  O   UNL     1     -12.158  13.535  68.966  1.00  0.00    -0.341 OA 
BRANCH  15  16
HETATM   16  C   UNL     1     -11.336  14.710  69.101  1.00  0.00    -0.281 C  
BRANCH  16  17
HETATM   17  C   UNL     1     -11.423  15.651  67.909  1.00  0.00    -0.251 C  
HETATM   18  O   UNL     1     -10.793  16.895  68.222  1.00  0.00    -0.362 OA 
HETATM   19  C   UNL     1     -10.446  17.505  66.978  1.00  0.00    -0.293 C  
HETATM   20  H   UNL     1     -11.319  14.083  65.050  1.00  0.00     0.000 HD 
HETATM   21  C   UNL     1     -10.212  16.364  65.967  1.00  0.00    -0.356 C  
HETATM   22  H   UNL     1     -10.709  15.890  64.079  1.00  0.00     0.000 HD 
HETATM   23  C   UNL     1     -10.775  15.118  66.645  1.00  0.00    -0.310 C  
HETATM   24  O   UNL     1     -10.854  16.593  64.702  1.00  0.00    -0.784 OA 
HETATM   25  O   UNL     1     -11.725  14.417  65.841  1.00  0.00    -0.360 OA 
BRANCH  19  26
HETATM   26  N   UNL     1      -9.311  18.415  67.154  1.00  0.00    -0.266 N  
HETATM   27  C   UNL     1      -8.208  18.050  67.890  1.00  0.00    -0.247 C  
HETATM   28  C   UNL     1      -7.228  18.912  68.136  1.00  0.00    -0.278 C  
HETATM   29  C   UNL     1      -7.410  20.265  67.582  1.00  0.00    -0.305 C  
HETATM   30  N   UNL     1      -8.445  20.621  66.884  1.00  0.00    -0.563 N  
HETATM   31  N   UNL     1      -6.457  21.218  67.816  1.00  0.00    -0.422 NA 
HETATM   32  H   UNL     1      -8.512  21.569  66.514  1.00  0.00     0.000 HD 
HETATM   33  C   UNL     1      -9.451  19.711  66.645  1.00  0.00    -0.375 C  
HETATM   34  H1  UNL     1      -6.583  22.155  67.433  1.00  0.00     0.000 HD 
HETATM   35  H2  UNL     1      -5.629  20.994  68.368  1.00  0.00     0.000 HD 
HETATM   36  O   UNL     1     -10.454  20.029  66.001  1.00  0.00    -0.457 OA 
ENDBRANCH  19  26
ENDBRANCH  16  17
ENDBRANCH  15  16
ENDBRANCH  12  15
ENDBRANCH  11  12
ENDBRANCH   8  11
ENDBRANCH   7   8
ENDBRANCH   6   7
ENDBRANCH   5   6
ENDBRANCH   2   5
TORSDOF 10
ENDMDL
MODEL       50
REMARK 921   NORMALIZED FREE ENERGY PREDICTED BY IDOCK:   -5.95 KCAL/MOL
REMARK 922        TOTAL FREE ENERGY PREDICTED BY IDOCK:  -10.37 KCAL/MOL
REMARK 923 INTER-LIGAND FREE ENERGY PREDICTED BY IDOCK:   -9.47 KCAL/MOL
REMARK 924 INTRA-LIGAND FREE ENERGY PREDICTED BY IDOCK:   -0.90 KCAL/MOL
REMARK 927      BINDING AFFINITY PREDICTED BY RF-SCORE:    0.00 PKD
ROOT
HETATM    1  C   UNL     1      -8.201  17.613  68.379  1.00  0.00    -0.289 C  
HETATM    2  N   UNL     1      -8.661  18.979  67.916  1.00  0.00    -0.293 N  
HETATM    3  C   UNL     1      -9.842  19.450  68.747  1.00  0.00    -0.456 C  
HETATM    4  C   UNL     1      -7.510  19.982  68.108  1.00  0.00    -0.266 C  
ENDROOT
BRANCH   2   5
HETATM    5  C   UNL     1      -9.046  18.864  66.421  1.00  0.00    -0.311 C  
BRANCH   5   6
HETATM    6  C   UNL     1     -10.152  17.868  66.124  1.00  0.00    -0.320 C  
BRANCH   6   7
HETATM    7  O   UNL     1      -9.616  16.769  65.413  1.00  0.00    -0.461 OA 
BRANCH   7   8
HETATM    8  P   UNL     1     -10.882  15.669  64.986  1.00  0.00    -0.288 P  
HETATM    9  O   UNL     1     -11.503  16.778  64.146  1.00  0.00    -1.171 OA 
HETATM   10  O   UNL     1     -11.225  15.562  66.476  1.00  0.00    -0.243 OA 
BRANCH   8  11
HETATM   11  O   UNL     1     -12.146  14.569  64.558  1.00  0.00    -0.455 OA 
BRANCH  11  12
HETATM   12  P   UNL     1     -12.062  13.172  65.574  1.00  0.00    -0.481 P  
HETATM   13  O   UNL     1     -13.224  12.469  64.642  1.00  0.00    -0.848 OA 
HETATM   14  O   UNL     1     -10.755  12.775  64.854  1.00  0.00    -0.283 OA 
BRANCH  12  15
HETATM   15  O   UNL     1     -11.978  11.773  66.589  1.00  0.00    -0.561 OA 
BRANCH  15  16
HETATM   16  C   UNL     1     -10.778  10.986  66.464  1.00  0.00    -0.241 C  
BRANCH  16  17
HETATM   17  C   UNL     1     -10.364  10.304  67.759  1.00  0.00    -0.204 C  
HETATM   18  O   UNL     1     -10.672   8.909  67.696  1.00  0.00    -0.244 OA 
HETATM   19  C   UNL     1      -9.830   8.258  68.649  1.00  0.00    -0.176 C  
HETATM   20  H   UNL     1      -7.718  11.652  69.110  1.00  0.00     0.000 HD 
HETATM   21  C   UNL     1      -8.549   9.110  68.774  1.00  0.00    -0.131 C  
HETATM   22  H   UNL     1      -7.362   9.854  70.214  1.00  0.00     0.000 HD 
HETATM   23  C   UNL     1      -8.888  10.430  68.086  1.00  0.00    -0.132 C  
HETATM   24  O   UNL     1      -8.151   9.330  70.137  1.00  0.00    -0.108 OA 
HETATM   25  O   UNL     1      -8.642  11.573  68.905  1.00  0.00    -0.093 OA 
BRANCH  19  26
HETATM   26  N   UNL     1      -9.606   6.863  68.265  1.00  0.00    -0.129 N  
HETATM   27  C   UNL     1      -8.950   6.537  67.100  1.00  0.00    -0.113 C  
HETATM   28  C   UNL     1      -8.841   5.275  66.702  1.00  0.00    -0.113 C  
HETATM   29  C   UNL     1      -9.472   4.269  67.575  1.00  0.00    -0.178 C  
HETATM   30  N   UNL     1     -10.092   4.563  68.676  1.00  0.00    -0.031 N  
HETATM   31  N   UNL     1      -9.427   2.949  67.217  1.00  0.00    -0.381 NA 
HETATM   32  H   UNL     1     -10.499   3.824  69.248  1.00  0.00     0.000 HD 
HETATM   33  C   UNL     1     -10.196   5.880  69.069  1.00  0.00    -0.203 C  
HETATM   34  H1  UNL     1      -9.863   2.253  67.821  1.00  0.00     0.000 HD 
HETATM   35  H2  UNL     1      -8.961   2.664  66.355  1.00  0.00     0.000 HD 
HETATM   36  O   UNL     1     -10.797   6.189  70.101  1.00  0.00    -0.268 OA 
ENDBRANCH  19  26
ENDBRANCH  16  17
ENDBRANCH  15  16
ENDBRANCH  12  15
ENDBRANCH  11  12
ENDBRANCH   8  11
ENDBRANCH   7   8
ENDBRANCH   6   7
ENDBRANCH   5   6
ENDBRANCH   2   5
TORSDOF 10
ENDMDL
MODEL       51
REMARK 921   NORMALIZED FREE ENERGY PREDICTED BY IDOCK:   -5.93 KCAL/MOL
REMARK 922        TOTAL FREE ENERGY PREDICTED BY IDOCK:  -10.33 KCAL/MOL
REMARK 923 INTER-LIGAND FREE ENERGY PREDICTED BY IDOCK:   -8.87 KCAL/MOL
REMARK 924 INTRA-LIGAND FREE ENERGY PREDICTED BY IDOCK:   -1.45 KCAL/MOL
REMARK 927      BINDING AFFINITY PREDICTED BY RF-SCORE:    0.00 PKD
ROOT
HETATM    1  C   UNL     1      -8.985  14.672  67.093  1.00  0.00    -0.225 C  
HETATM    2  N   UNL     1     -10.098  15.680  66.903  1.00  0.00    -0.257 N  
HETATM    3  C   UNL     1     -11.017  15.689  68.113  1.00  0.00    -0.314 C  
HETATM    4  C   UNL     1      -9.481  17.081  66.759  1.00  0.00    -0.258 C  
ENDROOT
BRANCH   2   5
HETATM    5  C   UNL     1     -10.874  15.286  65.621  1.00  0.00    -0.363 C  
BRANCH   5   6
HETATM    6  C   UNL     1     -12.096  14.418  65.859  1.00  0.00    -0.348 C  
BRANCH   6   7
HETATM    7  O   UNL     1     -12.419  13.726  64.669  1.00  0.00    -0.548 OA 
BRANCH   7   8
HETATM    8  P   UNL     1     -11.533  12.241  64.592  1.00  0.00    -0.338 P  
HETATM    9  O   UNL     1     -12.353  11.864  63.365  1.00  0.00    -0.557 OA 
HETATM   10  O   UNL     1     -12.063  11.909  65.992  1.00  0.00    -0.500 OA 
BRANCH   8  11
HETATM   11  O   UNL     1     -10.646  10.757  64.515  1.00  0.00    -0.336 OA 
BRANCH  11  12
HETATM   12  P   UNL     1      -9.733  10.556  65.970  1.00  0.00    -0.231 P  
HETATM   13  O   UNL     1     -10.206   8.979  66.005  1.00  0.00    -0.225 OA 
HETATM   14  O   UNL     1      -8.450  10.513  65.112  1.00  0.00    -0.169 OA 
BRANCH  12  15
HETATM   15  O   UNL     1      -8.819  10.354  67.425  1.00  0.00    -0.132 OA 
BRANCH  15  16
HETATM   16  C   UNL     1      -9.341  11.031  68.585  1.00  0.00    -0.194 C  
BRANCH  16  17
HETATM   17  C   UNL     1     -10.683  10.487  69.050  1.00  0.00    -0.225 C  
HETATM   18  O   UNL     1     -10.516   9.176  69.596  1.00  0.00    -0.210 OA 
HETATM   19  C   UNL     1     -11.634   8.943  70.454  1.00  0.00    -0.101 C  
HETATM   20  H   UNL     1     -12.677  12.818  70.161  1.00  0.00     0.000 HD 
HETATM   21  C   UNL     1     -12.091  10.318  70.984  1.00  0.00    -0.386 C  
HETATM   22  H   UNL     1     -13.796  11.349  71.242  1.00  0.00     0.000 HD 
HETATM   23  C   UNL     1     -11.368  11.336  70.104  1.00  0.00    -0.164 C  
HETATM   24  O   UNL     1     -13.514  10.502  70.916  1.00  0.00    -0.197 OA 
HETATM   25  O   UNL     1     -12.247  12.286  69.501  1.00  0.00    -0.212 OA 
BRANCH  19  26
HETATM   26  N   UNL     1     -11.287   7.968  71.492  1.00  0.00    -0.252 N  
HETATM   27  C   UNL     1     -10.031   7.934  72.051  1.00  0.00    -0.193 C  
HETATM   28  C   UNL     1      -9.688   6.985  72.914  1.00  0.00    -0.188 C  
HETATM   29  C   UNL     1     -10.727   5.983  73.214  1.00  0.00    -0.262 C  
HETATM   30  N   UNL     1     -11.915   6.005  72.694  1.00  0.00    -0.533 N  
HETATM   31  N   UNL     1     -10.439   4.957  74.072  1.00  0.00    -0.257 NA 
HETATM   32  H   UNL     1     -12.599   5.293  72.948  1.00  0.00     0.000 HD 
HETATM   33  C   UNL     1     -12.249   6.998  71.798  1.00  0.00    -0.351 C  
HETATM   34  H1  UNL     1     -11.157   4.264  74.279  1.00  0.00     0.000 HD 
HETATM   35  H2  UNL     1      -9.515   4.886  74.500  1.00  0.00     0.000 HD 
HETATM   36  O   UNL     1     -13.365   7.032  71.275  1.00  0.00    -0.346 OA 
ENDBRANCH  19  26
ENDBRANCH  16  17
ENDBRANCH  15  16
ENDBRANCH  12  15
ENDBRANCH  11  12
ENDBRANCH   8  11
ENDBRANCH   7   8
ENDBRANCH   6   7
ENDBRANCH   5   6
ENDBRANCH   2   5
TORSDOF 10
ENDMDL
MODEL       52
REMARK 921   NORMALIZED FREE ENERGY PREDICTED BY IDOCK:   -5.92 KCAL/MOL
REMARK 922        TOTAL FREE ENERGY PREDICTED BY IDOCK:  -10.31 KCAL/MOL
REMARK 923 INTER-LIGAND FREE ENERGY PREDICTED BY IDOCK:   -8.42 KCAL/MOL
REMARK 924 INTRA-LIGAND FREE ENERGY PREDICTED BY IDOCK:   -1.89 KCAL/MOL
REMARK 927      BINDING AFFINITY PREDICTED BY RF-SCORE:    0.00 PKD
ROOT
HETATM    1  C   UNL     1     -12.141  15.230  64.005  1.00  0.00    -0.010 C  
HETATM    2  N   UNL     1     -11.682  14.093  64.893  1.00  0.00    -0.372 N  
HETATM    3  C   UNL     1     -10.460  14.507  65.695  1.00  0.00    -0.336 C  
HETATM    4  C   UNL     1     -12.809  13.747  65.880  1.00  0.00    -0.315 C  
ENDROOT
BRANCH   2   5
HETATM    5  C   UNL     1     -11.361  12.884  63.979  1.00  0.00    -0.415 C  
BRANCH   5   6
HETATM    6  C   UNL     1     -10.303  11.940  64.522  1.00  0.00    -0.292 C  
BRANCH   6   7
HETATM    7  O   UNL     1     -10.907  11.017  65.406  1.00  0.00    -0.206 OA 
BRANCH   7   8
HETATM    8  P   UNL     1      -9.688  10.130  66.256  1.00  0.00    -0.247 P  
HETATM    9  O   UNL     1      -9.093  11.460  66.703  1.00  0.00    -0.170 OA 
HETATM   10  O   UNL     1      -9.265   9.522  64.914  1.00  0.00    -0.234 OA 
BRANCH   8  11
HETATM   11  O   UNL     1      -8.470   9.243  67.105  1.00  0.00    -0.122 OA 
BRANCH  11  12
HETATM   12  P   UNL     1      -9.219   8.199  68.262  1.00  0.00    -0.133 P  
HETATM   13  O   UNL     1     -10.683   8.790  67.793  1.00  0.00    -0.218 OA 
HETATM   14  O   UNL     1      -8.993   7.022  67.289  1.00  0.00    -0.118 OA 
BRANCH  12  15
HETATM   15  O   UNL     1      -9.970   7.154  69.419  1.00  0.00    -0.160 OA 
BRANCH  15  16
HETATM   16  C   UNL     1      -9.698   7.461  70.801  1.00  0.00    -0.171 C  
BRANCH  16  17
HETATM   17  C   UNL     1     -10.838   8.190  71.495  1.00  0.00    -0.238 C  
HETATM   18  O   UNL     1     -10.697   9.601  71.312  1.00  0.00    -0.335 OA 
HETATM   19  C   UNL     1     -11.992  10.173  71.504  1.00  0.00    -0.317 C  
HETATM   20  H   UNL     1     -13.625   6.495  71.474  1.00  0.00     0.000 HD 
HETATM   21  C   UNL     1     -13.023   9.096  71.103  1.00  0.00    -0.177 C  
HETATM   22  H   UNL     1     -14.727   8.299  71.806  1.00  0.00     0.000 HD 
HETATM   23  C   UNL     1     -12.219   7.803  71.001  1.00  0.00    -0.215 C  
HETATM   24  O   UNL     1     -14.092   8.961  72.053  1.00  0.00    -0.421 OA 
HETATM   25  O   UNL     1     -12.760   6.738  71.783  1.00  0.00    -0.362 OA 
BRANCH  19  26
HETATM   26  N   UNL     1     -12.107  11.437  70.774  1.00  0.00    -0.361 N  
HETATM   27  C   UNL     1     -11.402  11.661  69.614  1.00  0.00    -0.236 C  
HETATM   28  C   UNL     1     -11.426  12.844  69.011  1.00  0.00    -0.358 C  
HETATM   29  C   UNL     1     -12.238  13.883  69.669  1.00  0.00    -0.321 C  
HETATM   30  N   UNL     1     -12.909  13.684  70.762  1.00  0.00    -0.247 N  
HETATM   31  N   UNL     1     -12.290  15.137  69.124  1.00  0.00    -0.592 NA 
HETATM   32  H   UNL     1     -13.465  14.437  71.166  1.00  0.00     0.000 HD 
HETATM   33  C   UNL     1     -12.866  12.449  71.372  1.00  0.00    -0.260 C  
HETATM   34  H1  UNL     1     -12.852  15.856  69.579  1.00  0.00     0.000 HD 
HETATM   35  H2  UNL     1     -11.772  15.350  68.271  1.00  0.00     0.000 HD 
HETATM   36  O   UNL     1     -13.479  12.239  72.422  1.00  0.00    -0.467 OA 
ENDBRANCH  19  26
ENDBRANCH  16  17
ENDBRANCH  15  16
ENDBRANCH  12  15
ENDBRANCH  11  12
ENDBRANCH   8  11
ENDBRANCH   7   8
ENDBRANCH   6   7
ENDBRANCH   5   6
ENDBRANCH   2   5
TORSDOF 10
ENDMDL
MODEL       53
REMARK 921   NORMALIZED FREE ENERGY PREDICTED BY IDOCK:   -5.92 KCAL/MOL
REMARK 922        TOTAL FREE ENERGY PREDICTED BY IDOCK:  -10.31 KCAL/MOL
REMARK 923 INTER-LIGAND FREE ENERGY PREDICTED BY IDOCK:   -9.36 KCAL/MOL
REMARK 924 INTRA-LIGAND FREE ENERGY PREDICTED BY IDOCK:   -0.95 KCAL/MOL
REMARK 927      BINDING AFFINITY PREDICTED BY RF-SCORE:    0.00 PKD
ROOT
HETATM    1  C   UNL     1      -6.682   3.182  65.091  1.00  0.00    -0.040 C  
HETATM    2  N   UNL     1      -7.912   4.059  64.987  1.00  0.00    -0.092 N  
HETATM    3  C   UNL     1      -8.407   4.108  63.552  1.00  0.00    -0.096 C  
HETATM    4  C   UNL     1      -9.027   3.456  65.858  1.00  0.00    -0.145 C  
ENDROOT
BRANCH   2   5
HETATM    5  C   UNL     1      -7.525   5.472  65.488  1.00  0.00    -0.074 C  
BRANCH   5   6
HETATM    6  C   UNL     1      -8.604   6.180  66.289  1.00  0.00    -0.136 C  
BRANCH   6   7
HETATM    7  O   UNL     1      -8.992   7.360  65.613  1.00  0.00    -0.089 OA 
BRANCH   7   8
HETATM    8  P   UNL     1      -9.868   8.394  66.688  1.00  0.00    -0.262 P  
HETATM    9  O   UNL     1      -8.604   8.520  67.529  1.00  0.00    -0.127 OA 
HETATM   10  O   UNL     1     -10.835   7.232  66.939  1.00  0.00    -0.355 OA 
BRANCH   8  11
HETATM   11  O   UNL     1     -10.744   9.430  67.762  1.00  0.00    -0.265 OA 
BRANCH  11  12
HETATM   12  P   UNL     1     -10.377  11.080  67.399  1.00  0.00    -0.232 P  
HETATM   13  O   UNL     1     -11.984  11.423  67.502  1.00  0.00    -0.626 OA 
HETATM   14  O   UNL     1      -9.892  11.252  68.854  1.00  0.00    -0.198 OA 
BRANCH  12  15
HETATM   15  O   UNL     1     -10.010  12.732  67.036  1.00  0.00    -0.225 OA 
BRANCH  15  16
HETATM   16  C   UNL     1     -10.822  13.711  67.713  1.00  0.00    -0.253 C  
BRANCH  16  17
HETATM   17  C   UNL     1     -11.265  14.855  66.814  1.00  0.00    -0.338 C  
HETATM   18  O   UNL     1     -10.784  16.098  67.333  1.00  0.00    -0.312 OA 
HETATM   19  C   UNL     1     -10.764  17.019  66.241  1.00  0.00    -0.086 C  
HETATM   20  H   UNL     1     -11.445  13.999  63.671  1.00  0.00     0.000 HD 
HETATM   21  C   UNL     1     -10.547  16.192  64.957  1.00  0.00    -0.276 C  
HETATM   22  H   UNL     1     -11.302  16.056  63.100  1.00  0.00     0.000 HD 
HETATM   23  C   UNL     1     -10.784  14.744  65.380  1.00  0.00    -0.371 C  
HETATM   24  O   UNL     1     -11.435  16.566  63.891  1.00  0.00    -1.145 OA 
HETATM   25  O   UNL     1     -11.747  14.069  64.569  1.00  0.00    -0.381 OA 
BRANCH  19  26
HETATM   26  N   UNL     1      -9.767  18.066  66.474  1.00  0.00    -0.325 N  
HETATM   27  C   UNL     1      -8.622  17.817  67.195  1.00  0.00    -0.233 C  
HETATM   28  C   UNL     1      -7.772  18.793  67.494  1.00  0.00    -0.244 C  
HETATM   29  C   UNL     1      -8.143  20.137  67.017  1.00  0.00    -0.326 C  
HETATM   30  N   UNL     1      -9.218  20.384  66.335  1.00  0.00    -0.612 N  
HETATM   31  N   UNL     1      -7.331  21.199  67.310  1.00  0.00    -0.668 NA 
HETATM   32  H   UNL     1      -9.418  21.333  66.020  1.00  0.00     0.000 HD 
HETATM   33  C   UNL     1     -10.089  19.358  66.039  1.00  0.00    -0.410 C  
HETATM   34  H1  UNL     1      -7.588  22.129  66.981  1.00  0.00     0.000 HD 
HETATM   35  H2  UNL     1      -6.478  21.061  67.853  1.00  0.00     0.000 HD 
HETATM   36  O   UNL     1     -11.128  19.568  65.409  1.00  0.00    -0.415 OA 
ENDBRANCH  19  26
ENDBRANCH  16  17
ENDBRANCH  15  16
ENDBRANCH  12  15
ENDBRANCH  11  12
ENDBRANCH   8  11
ENDBRANCH   7   8
ENDBRANCH   6   7
ENDBRANCH   5   6
ENDBRANCH   2   5
TORSDOF 10
ENDMDL
MODEL       54
REMARK 921   NORMALIZED FREE ENERGY PREDICTED BY IDOCK:   -5.91 KCAL/MOL
REMARK 922        TOTAL FREE ENERGY PREDICTED BY IDOCK:  -10.29 KCAL/MOL
REMARK 923 INTER-LIGAND FREE ENERGY PREDICTED BY IDOCK:   -9.06 KCAL/MOL
REMARK 924 INTRA-LIGAND FREE ENERGY PREDICTED BY IDOCK:   -1.23 KCAL/MOL
REMARK 927      BINDING AFFINITY PREDICTED BY RF-SCORE:    0.00 PKD
ROOT
HETATM    1  C   UNL     1     -11.747  12.230  67.812  1.00  0.00    -0.337 C  
HETATM    2  N   UNL     1     -11.500  13.719  67.932  1.00  0.00    -0.295 N  
HETATM    3  C   UNL     1     -12.045  14.242  69.250  1.00  0.00    -0.313 C  
HETATM    4  C   UNL     1      -9.984  13.975  67.905  1.00  0.00    -0.237 C  
ENDROOT
BRANCH   2   5
HETATM    5  C   UNL     1     -12.195  14.409  66.732  1.00  0.00    -0.288 C  
BRANCH   5   6
HETATM    6  C   UNL     1     -12.545  13.483  65.581  1.00  0.00    -0.459 C  
BRANCH   6   7
HETATM    7  O   UNL     1     -11.578  13.618  64.559  1.00  0.00    -0.360 OA 
BRANCH   7   8
HETATM    8  P   UNL     1     -10.876  12.078  64.203  1.00  0.00    -0.436 P  
HETATM    9  O   UNL     1      -9.819  12.798  63.376  1.00  0.00    -0.152 OA 
HETATM   10  O   UNL     1     -12.206  11.676  63.554  1.00  0.00    -0.443 OA 
BRANCH   8  11
HETATM   11  O   UNL     1     -10.174  10.536  63.849  1.00  0.00    -0.303 OA 
BRANCH  11  12
HETATM   12  P   UNL     1      -9.025  10.131  65.075  1.00  0.00    -0.236 P  
HETATM   13  O   UNL     1     -10.251   9.474  65.956  1.00  0.00    -0.272 OA 
HETATM   14  O   UNL     1      -8.559   8.952  64.196  1.00  0.00    -0.179 OA 
BRANCH  12  15
HETATM   15  O   UNL     1      -7.875   9.725  66.304  1.00  0.00    -0.104 OA 
BRANCH  15  16
HETATM   16  C   UNL     1      -8.164  10.240  67.618  1.00  0.00    -0.114 C  
BRANCH  16  17
HETATM   17  C   UNL     1      -8.218   9.163  68.691  1.00  0.00    -0.114 C  
HETATM   18  O   UNL     1      -9.106   9.562  69.739  1.00  0.00    -0.172 OA 
HETATM   19  C   UNL     1      -9.513   8.368  70.409  1.00  0.00    -0.168 C  
HETATM   20  H   UNL     1      -7.861   6.154  67.483  1.00  0.00     0.000 HD 
HETATM   21  C   UNL     1      -9.459   7.227  69.371  1.00  0.00    -0.154 C  
HETATM   22  H   UNL     1      -8.786   5.339  69.233  1.00  0.00     0.000 HD 
HETATM   23  C   UNL     1      -8.682   7.808  68.192  1.00  0.00    -0.126 C  
HETATM   24  O   UNL     1      -8.820   6.042  69.872  1.00  0.00    -0.135 OA 
HETATM   25  O   UNL     1      -7.571   7.003  67.796  1.00  0.00    -0.105 OA 
BRANCH  19  26
HETATM   26  N   UNL     1     -10.819   8.559  71.046  1.00  0.00    -0.232 N  
HETATM   27  C   UNL     1     -11.718   9.486  70.571  1.00  0.00    -0.222 C  
HETATM   28  C   UNL     1     -12.855   9.731  71.211  1.00  0.00    -0.472 C  
HETATM   29  C   UNL     1     -13.075   8.961  72.449  1.00  0.00    -0.418 C  
HETATM   30  N   UNL     1     -12.236   8.082  72.905  1.00  0.00    -0.598 N  
HETATM   31  N   UNL     1     -14.211   9.178  73.180  1.00  0.00    -1.122 NA 
HETATM   32  H   UNL     1     -12.446   7.569  73.761  1.00  0.00     0.000 HD 
HETATM   33  C   UNL     1     -11.060   7.847  72.227  1.00  0.00    -0.318 C  
HETATM   34  H1  UNL     1     -14.363   8.646  74.036  1.00  0.00     0.000 HD 
HETATM   35  H2  UNL     1     -14.899   9.866  72.871  1.00  0.00     0.000 HD 
HETATM   36  O   UNL     1     -10.236   7.031  72.648  1.00  0.00    -0.181 OA 
ENDBRANCH  19  26
ENDBRANCH  16  17
ENDBRANCH  15  16
ENDBRANCH  12  15
ENDBRANCH  11  12
ENDBRANCH   8  11
ENDBRANCH   7   8
ENDBRANCH   6   7
ENDBRANCH   5   6
ENDBRANCH   2   5
TORSDOF 10
ENDMDL
MODEL       55
REMARK 921   NORMALIZED FREE ENERGY PREDICTED BY IDOCK:   -5.91 KCAL/MOL
REMARK 922        TOTAL FREE ENERGY PREDICTED BY IDOCK:  -10.29 KCAL/MOL
REMARK 923 INTER-LIGAND FREE ENERGY PREDICTED BY IDOCK:   -9.08 KCAL/MOL
REMARK 924 INTRA-LIGAND FREE ENERGY PREDICTED BY IDOCK:   -1.22 KCAL/MOL
REMARK 927      BINDING AFFINITY PREDICTED BY RF-SCORE:    0.00 PKD
ROOT
HETATM    1  C   UNL     1      -9.499   3.403  69.871  1.00  0.00    -0.166 C  
HETATM    2  N   UNL     1      -9.457   4.758  69.198  1.00  0.00    -0.136 N  
HETATM    3  C   UNL     1      -8.121   5.435  69.451  1.00  0.00    -0.093 C  
HETATM    4  C   UNL     1      -9.616   4.564  67.680  1.00  0.00    -0.165 C  
ENDROOT
BRANCH   2   5
HETATM    5  C   UNL     1     -10.623   5.603  69.769  1.00  0.00    -0.329 C  
BRANCH   5   6
HETATM    6  C   UNL     1     -10.995   6.817  68.937  1.00  0.00    -0.218 C  
BRANCH   6   7
HETATM    7  O   UNL     1     -11.026   7.962  69.767  1.00  0.00    -0.233 OA 
BRANCH   7   8
HETATM    8  P   UNL     1     -10.323   9.309  68.939  1.00  0.00    -0.205 P  
HETATM    9  O   UNL     1      -9.695   8.324  67.960  1.00  0.00    -0.153 OA 
HETATM   10  O   UNL     1      -9.588   9.660  70.237  1.00  0.00    -0.241 OA 
BRANCH   8  11
HETATM   11  O   UNL     1      -9.620  10.656  68.111  1.00  0.00    -0.151 OA 
BRANCH  11  12
HETATM   12  P   UNL     1     -10.864  11.555  67.315  1.00  0.00    -0.286 P  
HETATM   13  O   UNL     1     -10.560  10.694  65.944  1.00  0.00    -0.199 OA 
HETATM   14  O   UNL     1     -11.908  10.684  68.046  1.00  0.00    -0.494 OA 
BRANCH  12  15
HETATM   15  O   UNL     1     -12.109  12.455  66.518  1.00  0.00    -0.599 OA 
BRANCH  15  16
HETATM   16  C   UNL     1     -11.956  13.887  66.547  1.00  0.00    -0.439 C  
BRANCH  16  17
HETATM   17  C   UNL     1     -11.222  14.392  67.779  1.00  0.00    -0.300 C  
HETATM   18  O   UNL     1     -10.289  15.410  67.409  1.00  0.00    -0.253 OA 
HETATM   19  C   UNL     1     -10.031  16.180  68.584  1.00  0.00    -0.228 C  
HETATM   20  H   UNL     1     -13.070  14.332  70.467  1.00  0.00     0.000 HD 
HETATM   21  C   UNL     1     -11.298  16.098  69.462  1.00  0.00    -0.321 C  
HETATM   22  H   UNL     1     -11.787  15.778  71.385  1.00  0.00     0.000 HD 
HETATM   23  C   UNL     1     -12.126  14.972  68.850  1.00  0.00    -0.188 C  
HETATM   24  O   UNL     1     -11.007  15.829  70.844  1.00  0.00    -0.327 OA 
HETATM   25  O   UNL     1     -12.503  13.970  69.796  1.00  0.00    -0.325 OA 
BRANCH  19  26
HETATM   26  N   UNL     1      -9.619  17.539  68.225  1.00  0.00    -0.287 N  
HETATM   27  C   UNL     1     -10.485  18.411  67.607  1.00  0.00    -0.419 C  
HETATM   28  C   UNL     1     -10.078  19.604  67.189  1.00  0.00    -0.533 C  
HETATM   29  C   UNL     1      -8.656  19.915  67.419  1.00  0.00    -0.335 C  
HETATM   30  N   UNL     1      -7.830  19.102  68.002  1.00  0.00    -0.281 N  
HETATM   31  N   UNL     1      -8.155  21.114  66.990  1.00  0.00    -0.630 NA 
HETATM   32  H   UNL     1      -6.858  19.375  68.147  1.00  0.00     0.000 HD 
HETATM   33  C   UNL     1      -8.272  17.868  68.425  1.00  0.00    -0.300 C  
HETATM   34  H1  UNL     1      -7.171  21.329  67.149  1.00  0.00     0.000 HD 
HETATM   35  H2  UNL     1      -8.759  21.785  66.516  1.00  0.00     0.000 HD 
HETATM   36  O   UNL     1      -7.504  17.068  68.965  1.00  0.00    -0.239 OA 
ENDBRANCH  19  26
ENDBRANCH  16  17
ENDBRANCH  15  16
ENDBRANCH  12  15
ENDBRANCH  11  12
ENDBRANCH   8  11
ENDBRANCH   7   8
ENDBRANCH   6   7
ENDBRANCH   5   6
ENDBRANCH   2   5
TORSDOF 10
ENDMDL
MODEL       56
REMARK 921   NORMALIZED FREE ENERGY PREDICTED BY IDOCK:   -5.88 KCAL/MOL
REMARK 922        TOTAL FREE ENERGY PREDICTED BY IDOCK:  -10.25 KCAL/MOL
REMARK 923 INTER-LIGAND FREE ENERGY PREDICTED BY IDOCK:   -8.87 KCAL/MOL
REMARK 924 INTRA-LIGAND FREE ENERGY PREDICTED BY IDOCK:   -1.38 KCAL/MOL
REMARK 927      BINDING AFFINITY PREDICTED BY RF-SCORE:    0.00 PKD
ROOT
HETATM    1  C   UNL     1     -13.118  13.108  72.147  1.00  0.00    -0.378 C  
HETATM    2  N   UNL     1     -12.877  14.589  71.947  1.00  0.00    -0.324 N  
HETATM    3  C   UNL     1     -14.153  15.277  71.493  1.00  0.00    -0.524 C  
HETATM    4  C   UNL     1     -12.449  15.209  73.288  1.00  0.00    -0.483 C  
ENDROOT
BRANCH   2   5
HETATM    5  C   UNL     1     -11.757  14.744  70.888  1.00  0.00    -0.307 C  
BRANCH   5   6
HETATM    6  C   UNL     1     -11.483  16.173  70.455  1.00  0.00    -0.343 C  
BRANCH   6   7
HETATM    7  O   UNL     1     -11.486  16.245  69.043  1.00  0.00    -0.328 OA 
BRANCH   7   8
HETATM    8  P   UNL     1      -9.984  16.896  68.483  1.00  0.00    -0.310 P  
HETATM    9  O   UNL     1     -10.255  18.135  69.328  1.00  0.00    -0.286 OA 
HETATM   10  O   UNL     1     -10.537  16.815  67.056  1.00  0.00    -0.305 OA 
BRANCH   8  11
HETATM   11  O   UNL     1      -8.482  17.547  67.924  1.00  0.00    -0.221 OA 
BRANCH  11  12
HETATM   12  P   UNL     1      -7.248  16.343  68.056  1.00  0.00    -0.148 P  
HETATM   13  O   UNL     1      -7.184  16.281  66.411  1.00  0.00    -0.129 OA 
HETATM   14  O   UNL     1      -6.244  17.464  68.399  1.00  0.00    -0.161 OA 
BRANCH  12  15
HETATM   15  O   UNL     1      -6.013  15.138  68.186  1.00  0.00    -0.114 OA 
BRANCH  15  16
HETATM   16  C   UNL     1      -6.321  13.866  67.583  1.00  0.00    -0.126 C  
BRANCH  16  17
HETATM   17  C   UNL     1      -7.596  13.235  68.118  1.00  0.00    -0.141 C  
HETATM   18  O   UNL     1      -8.688  13.521  67.241  1.00  0.00    -0.205 OA 
HETATM   19  C   UNL     1      -9.682  12.523  67.481  1.00  0.00    -0.196 C  
HETATM   20  H   UNL     1      -7.055  10.433  69.701  1.00  0.00     0.000 HD 
HETATM   21  C   UNL     1      -8.942  11.256  67.959  1.00  0.00    -0.156 C  
HETATM   22  H   UNL     1      -9.097   9.868  69.403  1.00  0.00     0.000 HD 
HETATM   23  C   UNL     1      -7.526  11.728  68.281  1.00  0.00    -0.103 C  
HETATM   24  O   UNL     1      -9.553  10.648  69.109  1.00  0.00    -0.201 OA 
HETATM   25  O   UNL     1      -7.099  11.377  69.598  1.00  0.00    -0.080 OA 
BRANCH  19  26
HETATM   26  N   UNL     1     -10.517  12.336  66.293  1.00  0.00    -0.233 N  
HETATM   27  C   UNL     1     -10.069  11.618  65.208  1.00  0.00    -0.264 C  
HETATM   28  C   UNL     1     -10.784  11.538  64.092  1.00  0.00    -0.428 C  
HETATM   29  C   UNL     1     -12.064  12.270  64.096  1.00  0.00    -0.436 C  
HETATM   30  N   UNL     1     -12.498  12.949  65.113  1.00  0.00    -0.495 N  
HETATM   31  N   UNL     1     -12.844  12.260  62.973  1.00  0.00    -0.676 NA 
HETATM   32  H   UNL     1     -13.398  13.426  65.064  1.00  0.00     0.000 HD 
HETATM   33  C   UNL     1     -11.737  13.022  66.260  1.00  0.00    -0.387 C  
HETATM   34  H1  UNL     1     -13.729  12.766  62.975  1.00  0.00     0.000 HD 
HETATM   35  H2  UNL     1     -12.544  11.750  62.141  1.00  0.00     0.000 HD 
HETATM   36  O   UNL     1     -12.118  13.675  67.234  1.00  0.00    -0.380 OA 
ENDBRANCH  19  26
ENDBRANCH  16  17
ENDBRANCH  15  16
ENDBRANCH  12  15
ENDBRANCH  11  12
ENDBRANCH   8  11
ENDBRANCH   7   8
ENDBRANCH   6   7
ENDBRANCH   5   6
ENDBRANCH   2   5
TORSDOF 10
ENDMDL
MODEL       57
REMARK 921   NORMALIZED FREE ENERGY PREDICTED BY IDOCK:   -5.86 KCAL/MOL
REMARK 922        TOTAL FREE ENERGY PREDICTED BY IDOCK:  -10.23 KCAL/MOL
REMARK 923 INTER-LIGAND FREE ENERGY PREDICTED BY IDOCK:   -8.66 KCAL/MOL
REMARK 924 INTRA-LIGAND FREE ENERGY PREDICTED BY IDOCK:   -1.56 KCAL/MOL
REMARK 927      BINDING AFFINITY PREDICTED BY RF-SCORE:    0.00 PKD
ROOT
HETATM    1  C   UNL     1      -8.540   9.953  68.920  1.00  0.00    -0.135 C  
HETATM    2  N   UNL     1      -7.336  10.869  68.866  1.00  0.00    -0.102 N  
HETATM    3  C   UNL     1      -6.578  10.825  70.181  1.00  0.00    -0.143 C  
HETATM    4  C   UNL     1      -6.393  10.384  67.752  1.00  0.00    -0.060 C  
ENDROOT
BRANCH   2   5
HETATM    5  C   UNL     1      -7.847  12.300  68.568  1.00  0.00    -0.111 C  
BRANCH   5   6
HETATM    6  C   UNL     1      -6.769  13.369  68.543  1.00  0.00    -0.096 C  
BRANCH   6   7
HETATM    7  O   UNL     1      -7.009  14.303  69.577  1.00  0.00    -0.131 OA 
BRANCH   7   8
HETATM    8  P   UNL     1      -7.456  15.831  68.899  1.00  0.00    -0.203 P  
HETATM    9  O   UNL     1      -8.917  15.433  69.073  1.00  0.00    -0.197 OA 
HETATM   10  O   UNL     1      -6.706  15.429  67.624  1.00  0.00    -0.146 OA 
BRANCH   8  11
HETATM   11  O   UNL     1      -7.902  17.359  68.222  1.00  0.00    -0.227 OA 
BRANCH  11  12
HETATM   12  P   UNL     1      -9.340  17.173  67.279  1.00  0.00    -0.252 P  
HETATM   13  O   UNL     1      -9.819  18.667  67.783  1.00  0.00    -0.303 OA 
HETATM   14  O   UNL     1      -8.507  17.485  66.018  1.00  0.00    -0.500 OA 
BRANCH  12  15
HETATM   15  O   UNL     1     -10.780  16.989  66.337  1.00  0.00    -0.214 OA 
BRANCH  15  16
HETATM   16  C   UNL     1     -10.606  16.348  65.058  1.00  0.00    -0.193 C  
BRANCH  16  17
HETATM   17  C   UNL     1     -10.963  14.870  65.067  1.00  0.00    -0.420 C  
HETATM   18  O   UNL     1     -10.741  14.323  66.369  1.00  0.00    -0.291 OA 
HETATM   19  C   UNL     1     -11.547  13.147  66.465  1.00  0.00    -0.356 C  
HETATM   20  H   UNL     1     -13.421  14.149  63.047  1.00  0.00     0.000 HD 
HETATM   21  C   UNL     1     -12.764  13.360  65.541  1.00  0.00    -0.410 C  
HETATM   22  H   UNL     1     -13.798  12.350  64.145  1.00  0.00     0.000 HD 
HETATM   23  C   UNL     1     -12.402  14.574  64.688  1.00  0.00    -0.403 C  
HETATM   24  O   UNL     1     -13.049  12.220  64.714  1.00  0.00    -0.724 OA 
HETATM   25  O   UNL     1     -12.521  14.334  63.285  1.00  0.00    -0.705 OA 
BRANCH  19  26
HETATM   26  N   UNL     1     -11.878  12.867  67.864  1.00  0.00    -0.353 N  
HETATM   27  C   UNL     1     -12.036  13.881  68.780  1.00  0.00    -0.309 C  
HETATM   28  C   UNL     1     -12.232  13.620  70.067  1.00  0.00    -0.395 C  
HETATM   29  C   UNL     1     -12.255  12.194  70.438  1.00  0.00    -0.294 C  
HETATM   30  N   UNL     1     -12.110  11.229  69.583  1.00  0.00    -0.326 N  
HETATM   31  N   UNL     1     -12.424  11.846  71.750  1.00  0.00    -0.016 NA 
HETATM   32  H   UNL     1     -12.148  10.259  69.894  1.00  0.00     0.000 HD 
HETATM   33  C   UNL     1     -11.904  11.522  68.252  1.00  0.00    -0.256 C  
HETATM   34  H1  UNL     1     -12.440  10.860  72.007  1.00  0.00     0.000 HD 
HETATM   35  H2  UNL     1     -12.533  12.567  72.465  1.00  0.00     0.000 HD 
HETATM   36  O   UNL     1     -11.744  10.624  67.422  1.00  0.00    -0.391 OA 
ENDBRANCH  19  26
ENDBRANCH  16  17
ENDBRANCH  15  16
ENDBRANCH  12  15
ENDBRANCH  11  12
ENDBRANCH   8  11
ENDBRANCH   7   8
ENDBRANCH   6   7
ENDBRANCH   5   6
ENDBRANCH   2   5
TORSDOF 10
ENDMDL
MODEL       58
REMARK 921   NORMALIZED FREE ENERGY PREDICTED BY IDOCK:   -5.86 KCAL/MOL
REMARK 922        TOTAL FREE ENERGY PREDICTED BY IDOCK:  -10.22 KCAL/MOL
REMARK 923 INTER-LIGAND FREE ENERGY PREDICTED BY IDOCK:   -9.03 KCAL/MOL
REMARK 924 INTRA-LIGAND FREE ENERGY PREDICTED BY IDOCK:   -1.19 KCAL/MOL
REMARK 927      BINDING AFFINITY PREDICTED BY RF-SCORE:    0.00 PKD
ROOT
HETATM    1  C   UNL     1      -7.804  16.330  69.145  1.00  0.00    -0.231 C  
HETATM    2  N   UNL     1      -6.413  16.778  68.751  1.00  0.00    -0.161 N  
HETATM    3  C   UNL     1      -5.515  16.856  69.974  1.00  0.00    -0.209 C  
HETATM    4  C   UNL     1      -5.814  15.744  67.782  1.00  0.00    -0.148 C  
ENDROOT
BRANCH   2   5
HETATM    5  C   UNL     1      -6.540  18.162  68.068  1.00  0.00    -0.194 C  
BRANCH   5   6
HETATM    6  C   UNL     1      -7.490  19.126  68.756  1.00  0.00    -0.344 C  
BRANCH   6   7
HETATM    7  O   UNL     1      -7.876  20.136  67.845  1.00  0.00    -0.291 OA 
BRANCH   7   8
HETATM    8  P   UNL     1      -9.066  19.519  66.751  1.00  0.00    -0.378 P  
HETATM    9  O   UNL     1      -8.127  19.865  65.602  1.00  0.00    -0.350 OA 
HETATM   10  O   UNL     1     -10.036  20.580  67.285  1.00  0.00    -0.450 OA 
BRANCH   8  11
HETATM   11  O   UNL     1     -10.256  18.902  65.657  1.00  0.00    -0.504 OA 
BRANCH  11  12
HETATM   12  P   UNL     1     -10.531  17.227  65.991  1.00  0.00    -0.081 P  
HETATM   13  O   UNL     1      -8.933  16.946  65.710  1.00  0.00    -0.524 OA 
HETATM   14  O   UNL     1     -10.563  17.572  67.495  1.00  0.00    -0.358 OA 
BRANCH  12  15
HETATM   15  O   UNL     1     -10.806  15.552  66.325  1.00  0.00    -0.313 OA 
BRANCH  15  16
HETATM   16  C   UNL     1     -10.943  14.703  65.168  1.00  0.00    -0.386 C  
BRANCH  16  17
HETATM   17  C   UNL     1     -10.218  13.373  65.304  1.00  0.00    -0.298 C  
HETATM   18  O   UNL     1     -10.156  12.989  66.680  1.00  0.00    -0.241 OA 
HETATM   19  C   UNL     1      -9.962  11.574  66.705  1.00  0.00    -0.207 C  
HETATM   20  H   UNL     1     -10.708  11.398  62.754  1.00  0.00     0.000 HD 
HETATM   21  C   UNL     1     -10.604  11.009  65.420  1.00  0.00    -0.202 C  
HETATM   22  H   UNL     1     -10.160   9.711  63.952  1.00  0.00     0.000 HD 
HETATM   23  C   UNL     1     -10.862  12.231  64.542  1.00  0.00    -0.315 C  
HETATM   24  O   UNL     1      -9.765  10.059  64.743  1.00  0.00    -0.305 OA 
HETATM   25  O   UNL     1     -10.305  12.113  63.232  1.00  0.00    -0.432 OA 
BRANCH  19  26
HETATM   26  N   UNL     1     -10.481  11.008  67.952  1.00  0.00    -0.183 N  
HETATM   27  C   UNL     1     -11.704  11.386  68.456  1.00  0.00    -0.318 C  
HETATM   28  C   UNL     1     -12.125  10.952  69.638  1.00  0.00    -0.400 C  
HETATM   29  C   UNL     1     -11.200  10.062  70.362  1.00  0.00    -0.323 C  
HETATM   30  N   UNL     1     -10.045   9.697  69.897  1.00  0.00    -0.229 N  
HETATM   31  N   UNL     1     -11.550   9.596  71.600  1.00  0.00    -0.379 NA 
HETATM   32  H   UNL     1      -9.450   9.069  70.437  1.00  0.00     0.000 HD 
HETATM   33  C   UNL     1      -9.626  10.163  68.670  1.00  0.00    -0.163 C  
HETATM   34  H1  UNL     1     -10.910   8.981  72.101  1.00  0.00     0.000 HD 
HETATM   35  H2  UNL     1     -12.443   9.861  72.017  1.00  0.00     0.000 HD 
HETATM   36  O   UNL     1      -8.525   9.847  68.213  1.00  0.00    -0.109 OA 
ENDBRANCH  19  26
ENDBRANCH  16  17
ENDBRANCH  15  16
ENDBRANCH  12  15
ENDBRANCH  11  12
ENDBRANCH   8  11
ENDBRANCH   7   8
ENDBRANCH   6   7
ENDBRANCH   5   6
ENDBRANCH   2   5
TORSDOF 10
ENDMDL
MODEL       59
REMARK 921   NORMALIZED FREE ENERGY PREDICTED BY IDOCK:   -5.86 KCAL/MOL
REMARK 922        TOTAL FREE ENERGY PREDICTED BY IDOCK:  -10.21 KCAL/MOL
REMARK 923 INTER-LIGAND FREE ENERGY PREDICTED BY IDOCK:   -8.85 KCAL/MOL
REMARK 924 INTRA-LIGAND FREE ENERGY PREDICTED BY IDOCK:   -1.36 KCAL/MOL
REMARK 927      BINDING AFFINITY PREDICTED BY RF-SCORE:    0.00 PKD
ROOT
HETATM    1  C   UNL     1      -9.523   4.112  68.757  1.00  0.00    -0.163 C  
HETATM    2  N   UNL     1      -9.106   4.778  67.464  1.00  0.00    -0.114 N  
HETATM    3  C   UNL     1      -8.228   3.846  66.647  1.00  0.00    -0.100 C  
HETATM    4  C   UNL     1     -10.365   5.095  66.640  1.00  0.00    -0.281 C  
ENDROOT
BRANCH   2   5
HETATM    5  C   UNL     1      -8.346   6.077  67.829  1.00  0.00    -0.112 C  
BRANCH   5   6
HETATM    6  C   UNL     1      -8.731   6.685  69.165  1.00  0.00    -0.130 C  
BRANCH   6   7
HETATM    7  O   UNL     1      -9.727   7.668  68.964  1.00  0.00    -0.157 OA 
BRANCH   7   8
HETATM    8  P   UNL     1      -9.205   8.799  67.763  1.00  0.00    -0.134 P  
HETATM    9  O   UNL     1      -8.447   9.544  68.855  1.00  0.00    -0.117 OA 
HETATM   10  O   UNL     1     -10.679   9.128  67.503  1.00  0.00    -0.273 OA 
BRANCH   8  11
HETATM   11  O   UNL     1      -8.683   9.930  66.562  1.00  0.00    -0.127 OA 
BRANCH  11  12
HETATM   12  P   UNL     1     -10.026  10.895  66.058  1.00  0.00    -0.260 P  
HETATM   13  O   UNL     1      -9.127  12.241  66.367  1.00  0.00    -0.211 OA 
HETATM   14  O   UNL     1      -9.663  10.566  64.594  1.00  0.00    -0.255 OA 
BRANCH  12  15
HETATM   15  O   UNL     1     -11.369  11.863  65.554  1.00  0.00    -0.322 OA 
BRANCH  15  16
HETATM   16  C   UNL     1     -11.956  12.691  66.576  1.00  0.00    -0.331 C  
BRANCH  16  17
HETATM   17  C   UNL     1     -11.981  14.169  66.218  1.00  0.00    -0.429 C  
HETATM   18  O   UNL     1     -11.240  14.918  67.184  1.00  0.00    -0.328 OA 
HETATM   19  C   UNL     1     -10.862  16.143  66.554  1.00  0.00    -0.139 C  
HETATM   20  H   UNL     1     -12.063  14.690  62.999  1.00  0.00     0.000 HD 
HETATM   21  C   UNL     1     -10.745  15.854  65.042  1.00  0.00    -0.404 C  
HETATM   22  H   UNL     1     -11.314  16.672  63.298  1.00  0.00     0.000 HD 
HETATM   23  C   UNL     1     -11.403  14.490  64.853  1.00  0.00    -0.394 C  
HETATM   24  O   UNL     1     -11.386  16.850  64.229  1.00  0.00    -1.202 OA 
HETATM   25  O   UNL     1     -12.424  14.489  63.854  1.00  0.00    -0.814 OA 
BRANCH  19  26
HETATM   26  N   UNL     1      -9.649  16.684  67.172  1.00  0.00    -0.237 N  
HETATM   27  C   UNL     1      -8.743  15.866  67.806  1.00  0.00    -0.170 C  
HETATM   28  C   UNL     1      -7.699  16.368  68.456  1.00  0.00    -0.195 C  
HETATM   29  C   UNL     1      -7.592  17.838  68.459  1.00  0.00    -0.276 C  
HETATM   30  N   UNL     1      -8.439  18.620  67.864  1.00  0.00    -0.271 N  
HETATM   31  N   UNL     1      -6.560  18.433  69.132  1.00  0.00    -0.267 NA 
HETATM   32  H   UNL     1      -8.308  19.631  67.888  1.00  0.00     0.000 HD 
HETATM   33  C   UNL     1      -9.517  18.077  67.198  1.00  0.00    -0.264 C  
HETATM   34  H1  UNL     1      -6.485  19.449  69.134  1.00  0.00     0.000 HD 
HETATM   35  H2  UNL     1      -5.871  17.864  69.626  1.00  0.00     0.000 HD 
HETATM   36  O   UNL     1     -10.347  18.798  66.640  1.00  0.00    -0.374 OA 
ENDBRANCH  19  26
ENDBRANCH  16  17
ENDBRANCH  15  16
ENDBRANCH  12  15
ENDBRANCH  11  12
ENDBRANCH   8  11
ENDBRANCH   7   8
ENDBRANCH   6   7
ENDBRANCH   5   6
ENDBRANCH   2   5
TORSDOF 10
ENDMDL
MODEL       60
REMARK 921   NORMALIZED FREE ENERGY PREDICTED BY IDOCK:   -5.84 KCAL/MOL
REMARK 922        TOTAL FREE ENERGY PREDICTED BY IDOCK:  -10.19 KCAL/MOL
REMARK 923 INTER-LIGAND FREE ENERGY PREDICTED BY IDOCK:   -8.63 KCAL/MOL
REMARK 924 INTRA-LIGAND FREE ENERGY PREDICTED BY IDOCK:   -1.56 KCAL/MOL
REMARK 927      BINDING AFFINITY PREDICTED BY RF-SCORE:    0.00 PKD
ROOT
HETATM    1  C   UNL     1     -11.007   7.542  73.058  1.00  0.00    -0.390 C  
HETATM    2  N   UNL     1     -10.261   7.926  71.798  1.00  0.00    -0.190 N  
HETATM    3  C   UNL     1      -8.821   8.283  72.124  1.00  0.00    -0.201 C  
HETATM    4  C   UNL     1     -10.251   6.723  70.840  1.00  0.00    -0.195 C  
ENDROOT
BRANCH   2   5
HETATM    5  C   UNL     1     -11.000   9.129  71.162  1.00  0.00    -0.320 C  
BRANCH   5   6
HETATM    6  C   UNL     1     -10.882   9.222  69.651  1.00  0.00    -0.212 C  
BRANCH   6   7
HETATM    7  O   UNL     1     -10.315  10.468  69.301  1.00  0.00    -0.206 OA 
BRANCH   7   8
HETATM    8  P   UNL     1      -9.328  10.292  67.890  1.00  0.00    -0.139 P  
HETATM    9  O   UNL     1      -8.669   9.089  68.554  1.00  0.00    -0.132 OA 
HETATM   10  O   UNL     1      -8.783  11.699  68.155  1.00  0.00    -0.147 OA 
BRANCH   8  11
HETATM   11  O   UNL     1      -8.343  10.114  66.479  1.00  0.00    -0.121 OA 
BRANCH  11  12
HETATM   12  P   UNL     1      -9.058  10.981  65.165  1.00  0.00    -0.088 P  
HETATM   13  O   UNL     1      -7.875  10.392  64.181  1.00  0.00    -0.136 OA 
HETATM   14  O   UNL     1     -10.147   9.890  65.089  1.00  0.00    -0.309 OA 
BRANCH  12  15
HETATM   15  O   UNL     1      -9.773  11.847  63.848  1.00  0.00    -0.249 OA 
BRANCH  15  16
HETATM   16  C   UNL     1     -10.593  12.973  64.219  1.00  0.00    -0.412 C  
BRANCH  16  17
HETATM   17  C   UNL     1     -10.577  13.268  65.710  1.00  0.00    -0.284 C  
HETATM   18  O   UNL     1      -9.977  14.544  65.949  1.00  0.00    -0.299 OA 
HETATM   19  C   UNL     1     -10.444  14.986  67.225  1.00  0.00    -0.265 C  
HETATM   20  H   UNL     1     -13.144  12.003  67.278  1.00  0.00     0.000 HD 
HETATM   21  C   UNL     1     -11.835  14.355  67.438  1.00  0.00    -0.400 C  
HETATM   22  H   UNL     1     -12.855  13.393  68.878  1.00  0.00     0.000 HD 
HETATM   23  C   UNL     1     -11.950  13.283  66.357  1.00  0.00    -0.410 C  
HETATM   24  O   UNL     1     -11.998  13.782  68.746  1.00  0.00    -0.346 OA 
HETATM   25  O   UNL     1     -12.284  11.994  66.872  1.00  0.00    -0.529 OA 
BRANCH  19  26
HETATM   26  N   UNL     1     -10.413  16.449  67.301  1.00  0.00    -0.303 N  
HETATM   27  C   UNL     1     -10.605  17.228  66.184  1.00  0.00    -0.204 C  
HETATM   28  C   UNL     1     -10.473  18.549  66.236  1.00  0.00    -0.441 C  
HETATM   29  C   UNL     1     -10.102  19.106  67.549  1.00  0.00    -0.376 C  
HETATM   30  N   UNL     1      -9.920  18.381  68.610  1.00  0.00    -0.377 N  
HETATM   31  N   UNL     1      -9.919  20.456  67.676  1.00  0.00    -0.410 NA 
HETATM   32  H   UNL     1      -9.676  18.823  69.496  1.00  0.00     0.000 HD 
HETATM   33  C   UNL     1     -10.059  17.013  68.532  1.00  0.00    -0.303 C  
HETATM   34  H1  UNL     1      -9.662  20.842  68.584  1.00  0.00     0.000 HD 
HETATM   35  H2  UNL     1     -10.039  21.070  66.870  1.00  0.00     0.000 HD 
HETATM   36  O   UNL     1      -9.873  16.299  69.521  1.00  0.00    -0.234 OA 
ENDBRANCH  19  26
ENDBRANCH  16  17
ENDBRANCH  15  16
ENDBRANCH  12  15
ENDBRANCH  11  12
ENDBRANCH   8  11
ENDBRANCH   7   8
ENDBRANCH   6   7
ENDBRANCH   5   6
ENDBRANCH   2   5
TORSDOF 10
ENDMDL
MODEL       61
REMARK 921   NORMALIZED FREE ENERGY PREDICTED BY IDOCK:   -5.83 KCAL/MOL
REMARK 922        TOTAL FREE ENERGY PREDICTED BY IDOCK:  -10.18 KCAL/MOL
REMARK 923 INTER-LIGAND FREE ENERGY PREDICTED BY IDOCK:   -9.14 KCAL/MOL
REMARK 924 INTRA-LIGAND FREE ENERGY PREDICTED BY IDOCK:   -1.03 KCAL/MOL
REMARK 927      BINDING AFFINITY PREDICTED BY RF-SCORE:    0.00 PKD
ROOT
HETATM    1  C   UNL     1      -7.778  18.199  68.489  1.00  0.00    -0.297 C  
HETATM    2  N   UNL     1      -9.238  18.417  68.151  1.00  0.00    -0.303 N  
HETATM    3  C   UNL     1     -10.122  17.565  69.045  1.00  0.00    -0.291 C  
HETATM    4  C   UNL     1      -9.590  19.894  68.397  1.00  0.00    -0.304 C  
ENDROOT
BRANCH   2   5
HETATM    5  C   UNL     1      -9.435  18.046  66.660  1.00  0.00    -0.297 C  
BRANCH   5   6
HETATM    6  C   UNL     1     -10.402  16.902  66.413  1.00  0.00    -0.300 C  
BRANCH   6   7
HETATM    7  O   UNL     1     -10.308  16.492  65.063  1.00  0.00    -0.622 OA 
BRANCH   7   8
HETATM    8  P   UNL     1     -11.467  15.248  64.742  1.00  0.00    -0.210 P  
HETATM    9  O   UNL     1     -12.131  16.183  63.739  1.00  0.00    -0.946 OA 
HETATM   10  O   UNL     1     -11.870  15.311  66.220  1.00  0.00    -0.027 OA 
BRANCH   8  11
HETATM   11  O   UNL     1     -12.625  14.003  64.422  1.00  0.00    -0.651 OA 
BRANCH  11  12
HETATM   12  P   UNL     1     -11.808  12.490  64.239  1.00  0.00    -0.466 P  
HETATM   13  O   UNL     1     -10.374  13.295  64.329  1.00  0.00    -0.427 OA 
HETATM   14  O   UNL     1     -12.126  12.183  65.718  1.00  0.00    -0.572 OA 
BRANCH  12  15
HETATM   15  O   UNL     1     -10.990  10.976  64.056  1.00  0.00    -0.313 OA 
BRANCH  15  16
HETATM   16  C   UNL     1      -9.645  11.056  63.543  1.00  0.00    -0.313 C  
BRANCH  16  17
HETATM   17  C   UNL     1      -8.661  10.165  64.285  1.00  0.00    -0.193 C  
HETATM   18  O   UNL     1      -9.146   9.893  65.603  1.00  0.00    -0.156 OA 
HETATM   19  C   UNL     1      -8.500   8.696  66.040  1.00  0.00    -0.141 C  
HETATM   20  H   UNL     1      -7.108   8.079  62.315  1.00  0.00     0.000 HD 
HETATM   21  C   UNL     1      -8.186   7.867  64.777  1.00  0.00    -0.108 C  
HETATM   22  H   UNL     1      -6.656   6.828  63.992  1.00  0.00     0.000 HD 
HETATM   23  C   UNL     1      -8.398   8.831  63.613  1.00  0.00    -0.143 C  
HETATM   24  O   UNL     1      -6.849   7.339  64.769  1.00  0.00    -0.048 OA 
HETATM   25  O   UNL     1      -7.273   8.914  62.737  1.00  0.00    -0.097 OA 
BRANCH  19  26
HETATM   26  N   UNL     1      -9.320   8.009  67.040  1.00  0.00    -0.147 N  
HETATM   27  C   UNL     1     -10.307   7.125  66.671  1.00  0.00    -0.151 C  
HETATM   28  C   UNL     1     -11.118   6.583  67.573  1.00  0.00    -0.396 C  
HETATM   29  C   UNL     1     -10.895   7.000  68.969  1.00  0.00    -0.182 C  
HETATM   30  N   UNL     1      -9.967   7.831  69.330  1.00  0.00    -0.178 N  
HETATM   31  N   UNL     1     -11.709   6.507  69.953  1.00  0.00    -0.617 NA 
HETATM   32  H   UNL     1      -9.850   8.073  70.313  1.00  0.00     0.000 HD 
HETATM   33  C   UNL     1      -9.139   8.383  68.377  1.00  0.00    -0.135 C  
HETATM   34  H1  UNL     1     -11.555   6.795  70.918  1.00  0.00     0.000 HD 
HETATM   35  H2  UNL     1     -12.462   5.858  69.722  1.00  0.00     0.000 HD 
HETATM   36  O   UNL     1      -8.260   9.190  68.690  1.00  0.00    -0.111 OA 
ENDBRANCH  19  26
ENDBRANCH  16  17
ENDBRANCH  15  16
ENDBRANCH  12  15
ENDBRANCH  11  12
ENDBRANCH   8  11
ENDBRANCH   7   8
ENDBRANCH   6   7
ENDBRANCH   5   6
ENDBRANCH   2   5
TORSDOF 10
ENDMDL
MODEL       62
REMARK 921   NORMALIZED FREE ENERGY PREDICTED BY IDOCK:   -5.82 KCAL/MOL
REMARK 922        TOTAL FREE ENERGY PREDICTED BY IDOCK:  -10.16 KCAL/MOL
REMARK 923 INTER-LIGAND FREE ENERGY PREDICTED BY IDOCK:   -9.05 KCAL/MOL
REMARK 924 INTRA-LIGAND FREE ENERGY PREDICTED BY IDOCK:   -1.10 KCAL/MOL
REMARK 927      BINDING AFFINITY PREDICTED BY RF-SCORE:    0.00 PKD
ROOT
HETATM    1  C   UNL     1      -8.440   4.467  69.339  1.00  0.00    -0.077 C  
HETATM    2  N   UNL     1      -7.588   5.288  70.284  1.00  0.00    -0.070 N  
HETATM    3  C   UNL     1      -8.013   5.049  71.723  1.00  0.00    -0.110 C  
HETATM    4  C   UNL     1      -6.121   4.849  70.138  1.00  0.00    -0.021 C  
ENDROOT
BRANCH   2   5
HETATM    5  C   UNL     1      -7.758   6.778  69.896  1.00  0.00    -0.109 C  
BRANCH   5   6
HETATM    6  C   UNL     1      -9.176   7.307  70.009  1.00  0.00    -0.148 C  
BRANCH   6   7
HETATM    7  O   UNL     1      -9.254   8.210  71.094  1.00  0.00    -0.144 OA 
BRANCH   7   8
HETATM    8  P   UNL     1     -10.470   9.401  70.784  1.00  0.00    -0.321 P  
HETATM    9  O   UNL     1     -11.378   8.282  70.288  1.00  0.00    -0.234 OA 
HETATM   10  O   UNL     1      -9.494  10.074  69.812  1.00  0.00    -0.220 OA 
BRANCH   8  11
HETATM   11  O   UNL     1     -11.687  10.592  70.474  1.00  0.00    -0.298 OA 
BRANCH  11  12
HETATM   12  P   UNL     1     -11.221  11.550  69.111  1.00  0.00    -0.296 P  
HETATM   13  O   UNL     1     -12.376  10.781  68.223  1.00  0.00    -0.296 OA 
HETATM   14  O   UNL     1     -11.993  12.735  69.730  1.00  0.00    -0.314 OA 
BRANCH  12  15
HETATM   15  O   UNL     1     -10.756  12.507  67.747  1.00  0.00    -0.211 OA 
BRANCH  15  16
HETATM   16  C   UNL     1     -11.807  12.796  66.804  1.00  0.00    -0.382 C  
BRANCH  16  17
HETATM   17  C   UNL     1     -11.847  14.252  66.370  1.00  0.00    -0.411 C  
HETATM   18  O   UNL     1     -10.979  15.032  67.196  1.00  0.00    -0.315 OA 
HETATM   19  C   UNL     1     -10.658  16.212  66.457  1.00  0.00    -0.268 C  
HETATM   20  H   UNL     1     -12.310  14.603  63.159  1.00  0.00     0.000 HD 
HETATM   21  C   UNL     1     -10.731  15.840  64.961  1.00  0.00    -0.421 C  
HETATM   22  H   UNL     1     -11.493  16.579  63.255  1.00  0.00     0.000 HD 
HETATM   23  C   UNL     1     -11.434  14.485  64.928  1.00  0.00    -0.396 C  
HETATM   24  O   UNL     1     -11.447  16.807  64.176  1.00  0.00    -1.171 OA 
HETATM   25  O   UNL     1     -12.568  14.458  64.062  1.00  0.00    -0.764 OA 
BRANCH  19  26
HETATM   26  N   UNL     1      -9.369  16.753  66.894  1.00  0.00    -0.229 N  
HETATM   27  C   UNL     1      -8.194  16.071  66.676  1.00  0.00    -0.289 C  
HETATM   28  C   UNL     1      -7.041  16.512  67.164  1.00  0.00    -0.228 C  
HETATM   29  C   UNL     1      -7.111  17.756  67.952  1.00  0.00    -0.205 C  
HETATM   30  N   UNL     1      -8.212  18.410  68.163  1.00  0.00    -0.279 N  
HETATM   31  N   UNL     1      -5.969  18.259  68.512  1.00  0.00    -0.184 NA 
HETATM   32  H   UNL     1      -8.199  19.273  68.705  1.00  0.00     0.000 HD 
HETATM   33  C   UNL     1      -9.398  17.932  67.649  1.00  0.00    -0.258 C  
HETATM   34  H1  UNL     1      -6.017  19.119  69.057  1.00  0.00     0.000 HD 
HETATM   35  H2  UNL     1      -5.078  17.777  68.386  1.00  0.00     0.000 HD 
HETATM   36  O   UNL     1     -10.461  18.523  67.850  1.00  0.00    -0.386 OA 
ENDBRANCH  19  26
ENDBRANCH  16  17
ENDBRANCH  15  16
ENDBRANCH  12  15
ENDBRANCH  11  12
ENDBRANCH   8  11
ENDBRANCH   7   8
ENDBRANCH   6   7
ENDBRANCH   5   6
ENDBRANCH   2   5
TORSDOF 10
ENDMDL
MODEL       63
REMARK 921   NORMALIZED FREE ENERGY PREDICTED BY IDOCK:   -5.79 KCAL/MOL
REMARK 922        TOTAL FREE ENERGY PREDICTED BY IDOCK:  -10.10 KCAL/MOL
REMARK 923 INTER-LIGAND FREE ENERGY PREDICTED BY IDOCK:   -8.25 KCAL/MOL
REMARK 924 INTRA-LIGAND FREE ENERGY PREDICTED BY IDOCK:   -1.85 KCAL/MOL
REMARK 927      BINDING AFFINITY PREDICTED BY RF-SCORE:    0.00 PKD
ROOT
HETATM    1  C   UNL     1      -7.065   7.704  64.126  1.00  0.00    -0.068 C  
HETATM    2  N   UNL     1      -7.090   9.141  63.653  1.00  0.00    -0.092 N  
HETATM    3  C   UNL     1      -6.857  10.087  64.818  1.00  0.00    -0.133 C  
HETATM    4  C   UNL     1      -5.957   9.348  62.633  1.00  0.00    -0.093 C  
ENDROOT
BRANCH   2   5
HETATM    5  C   UNL     1      -8.471   9.397  62.999  1.00  0.00    -0.204 C  
BRANCH   5   6
HETATM    6  C   UNL     1      -9.110  10.725  63.362  1.00  0.00    -0.235 C  
BRANCH   6   7
HETATM    7  O   UNL     1     -10.517  10.607  63.278  1.00  0.00    -0.129 OA 
BRANCH   7   8
HETATM    8  P   UNL     1     -11.250  12.164  63.459  1.00  0.00    -0.407 P  
HETATM    9  O   UNL     1     -10.675  12.224  64.869  1.00  0.00    -0.277 OA 
HETATM   10  O   UNL     1     -12.610  11.496  63.222  1.00  0.00    -0.365 OA 
BRANCH   8  11
HETATM   11  O   UNL     1     -11.983  13.720  63.640  1.00  0.00    -0.391 OA 
BRANCH  11  12
HETATM   12  P   UNL     1     -11.633  14.343  65.215  1.00  0.00    -0.374 P  
HETATM   13  O   UNL     1     -11.437  15.833  64.542  1.00  0.00    -0.417 OA 
HETATM   14  O   UNL     1     -13.144  14.300  65.526  1.00  0.00    -0.639 OA 
BRANCH  12  15
HETATM   15  O   UNL     1     -11.282  14.967  66.790  1.00  0.00    -0.335 OA 
BRANCH  15  16
HETATM   16  C   UNL     1     -11.764  14.175  67.893  1.00  0.00    -0.367 C  
BRANCH  16  17
HETATM   17  C   UNL     1     -10.682  13.337  68.556  1.00  0.00    -0.262 C  
HETATM   18  O   UNL     1     -11.083  11.966  68.598  1.00  0.00    -0.213 OA 
HETATM   19  C   UNL     1      -9.890  11.192  68.728  1.00  0.00    -0.192 C  
HETATM   20  H   UNL     1      -7.676  14.468  67.981  1.00  0.00     0.000 HD 
HETATM   21  C   UNL     1      -8.755  11.999  68.062  1.00  0.00    -0.175 C  
HETATM   22  H   UNL     1      -6.861  12.545  68.449  1.00  0.00     0.000 HD 
HETATM   23  C   UNL     1      -9.334  13.397  67.861  1.00  0.00    -0.216 C  
HETATM   24  O   UNL     1      -7.560  12.049  68.859  1.00  0.00    -0.099 OA 
HETATM   25  O   UNL     1      -8.520  14.431  68.415  1.00  0.00    -0.153 OA 
BRANCH  19  26
HETATM   26  N   UNL     1     -10.091   9.847  68.182  1.00  0.00    -0.159 N  
HETATM   27  C   UNL     1      -9.831   9.565  66.861  1.00  0.00    -0.204 C  
HETATM   28  C   UNL     1     -10.113   8.374  66.343  1.00  0.00    -0.242 C  
HETATM   29  C   UNL     1     -10.723   7.401  67.267  1.00  0.00    -0.308 C  
HETATM   30  N   UNL     1     -10.970   7.655  68.515  1.00  0.00    -0.417 N  
HETATM   31  N   UNL     1     -11.068   6.162  66.801  1.00  0.00    -0.725 NA 
HETATM   32  H   UNL     1     -11.382   6.938  69.112  1.00  0.00     0.000 HD 
HETATM   33  C   UNL     1     -10.673   8.898  69.030  1.00  0.00    -0.126 C  
HETATM   34  H1  UNL     1     -11.490   5.488  67.440  1.00  0.00     0.000 HD 
HETATM   35  H2  UNL     1     -10.905   5.914  65.825  1.00  0.00     0.000 HD 
HETATM   36  O   UNL     1     -10.916   9.172  70.208  1.00  0.00    -0.233 OA 
ENDBRANCH  19  26
ENDBRANCH  16  17
ENDBRANCH  15  16
ENDBRANCH  12  15
ENDBRANCH  11  12
ENDBRANCH   8  11
ENDBRANCH   7   8
ENDBRANCH   6   7
ENDBRANCH   5   6
ENDBRANCH   2   5
TORSDOF 10
ENDMDL
MODEL       64
REMARK 921   NORMALIZED FREE ENERGY PREDICTED BY IDOCK:   -5.75 KCAL/MOL
REMARK 922        TOTAL FREE ENERGY PREDICTED BY IDOCK:  -10.04 KCAL/MOL
REMARK 923 INTER-LIGAND FREE ENERGY PREDICTED BY IDOCK:   -8.61 KCAL/MOL
REMARK 924 INTRA-LIGAND FREE ENERGY PREDICTED BY IDOCK:   -1.42 KCAL/MOL
REMARK 927      BINDING AFFINITY PREDICTED BY RF-SCORE:    0.00 PKD
ROOT
HETATM    1  C   UNL     1     -11.506  10.851  70.012  1.00  0.00    -0.329 C  
HETATM    2  N   UNL     1     -10.554  10.389  68.930  1.00  0.00    -0.202 N  
HETATM    3  C   UNL     1      -9.281  11.218  68.954  1.00  0.00    -0.064 C  
HETATM    4  C   UNL     1     -10.176   8.922  69.195  1.00  0.00    -0.206 C  
ENDROOT
BRANCH   2   5
HETATM    5  C   UNL     1     -11.282  10.532  67.571  1.00  0.00    -0.224 C  
BRANCH   5   6
HETATM    6  C   UNL     1     -11.723  11.945  67.231  1.00  0.00    -0.247 C  
BRANCH   6   7
HETATM    7  O   UNL     1     -12.129  11.997  65.878  1.00  0.00    -0.546 OA 
BRANCH   7   8
HETATM    8  P   UNL     1     -11.541  13.448  65.141  1.00  0.00    -0.342 P  
HETATM    9  O   UNL     1     -10.135  12.864  65.216  1.00  0.00    -0.284 OA 
HETATM   10  O   UNL     1     -12.105  14.225  66.336  1.00  0.00    -0.422 OA 
BRANCH   8  11
HETATM   11  O   UNL     1     -10.952  14.898  64.403  1.00  0.00    -0.247 OA 
BRANCH  11  12
HETATM   12  P   UNL     1     -10.876  16.156  65.587  1.00  0.00    -0.104 P  
HETATM   13  O   UNL     1      -9.235  16.131  65.455  1.00  0.00    -0.377 OA 
HETATM   14  O   UNL     1     -11.296  17.159  64.491  1.00  0.00    -1.034 OA 
BRANCH  12  15
HETATM   15  O   UNL     1     -10.799  17.415  66.771  1.00  0.00    -0.154 OA 
BRANCH  15  16
HETATM   16  C   UNL     1     -10.206  18.651  66.326  1.00  0.00    -0.427 C  
BRANCH  16  17
HETATM   17  C   UNL     1      -8.905  18.989  67.037  1.00  0.00    -0.294 C  
HETATM   18  O   UNL     1      -8.708  18.102  68.142  1.00  0.00    -0.262 OA 
HETATM   19  C   UNL     1      -7.309  18.107  68.428  1.00  0.00    -0.270 C  
HETATM   20  H   UNL     1      -6.609  20.109  65.008  1.00  0.00     0.000 HD 
HETATM   21  C   UNL     1      -6.579  18.412  67.103  1.00  0.00    -0.184 C  
HETATM   22  H   UNL     1      -5.096  19.589  66.430  1.00  0.00     0.000 HD 
HETATM   23  C   UNL     1      -7.672  18.900  66.157  1.00  0.00    -0.257 C  
HETATM   24  O   UNL     1      -5.545  19.401  67.246  1.00  0.00    -0.171 OA 
HETATM   25  O   UNL     1      -7.380  20.164  65.560  1.00  0.00    -0.324 OA 
BRANCH  19  26
HETATM   26  N   UNL     1      -6.915  16.852  69.073  1.00  0.00    -0.214 N  
HETATM   27  C   UNL     1      -7.538  15.664  68.768  1.00  0.00    -0.162 C  
HETATM   28  C   UNL     1      -7.252  14.548  69.428  1.00  0.00    -0.120 C  
HETATM   29  C   UNL     1      -6.246  14.674  70.498  1.00  0.00    -0.149 C  
HETATM   30  N   UNL     1      -5.649  15.788  70.793  1.00  0.00    -0.081 N  
HETATM   31  N   UNL     1      -5.918  13.574  71.242  1.00  0.00    -0.552 NA 
HETATM   32  H   UNL     1      -4.951  15.814  71.535  1.00  0.00     0.000 HD 
HETATM   33  C   UNL     1      -5.964  16.935  70.097  1.00  0.00    -0.124 C  
HETATM   34  H1  UNL     1      -5.222  13.661  71.982  1.00  0.00     0.000 HD 
HETATM   35  H2  UNL     1      -6.366  12.675  71.059  1.00  0.00     0.000 HD 
HETATM   36  O   UNL     1      -5.426  18.011  70.370  1.00  0.00    -0.240 OA 
ENDBRANCH  19  26
ENDBRANCH  16  17
ENDBRANCH  15  16
ENDBRANCH  12  15
ENDBRANCH  11  12
ENDBRANCH   8  11
ENDBRANCH   7   8
ENDBRANCH   6   7
ENDBRANCH   5   6
ENDBRANCH   2   5
TORSDOF 10
ENDMDL
MODEL       65
REMARK 921   NORMALIZED FREE ENERGY PREDICTED BY IDOCK:   -5.73 KCAL/MOL
REMARK 922        TOTAL FREE ENERGY PREDICTED BY IDOCK:  -10.01 KCAL/MOL
REMARK 923 INTER-LIGAND FREE ENERGY PREDICTED BY IDOCK:   -8.23 KCAL/MOL
REMARK 924 INTRA-LIGAND FREE ENERGY PREDICTED BY IDOCK:   -1.78 KCAL/MOL
REMARK 927      BINDING AFFINITY PREDICTED BY RF-SCORE:    0.00 PKD
ROOT
HETATM    1  C   UNL     1     -10.705  15.523  65.195  1.00  0.00    -0.440 C  
HETATM    2  N   UNL     1     -11.056  14.508  66.261  1.00  0.00    -0.327 N  
HETATM    3  C   UNL     1     -11.249  15.194  67.603  1.00  0.00    -0.327 C  
HETATM    4  C   UNL     1     -12.378  13.822  65.879  1.00  0.00    -0.476 C  
ENDROOT
BRANCH   2   5
HETATM    5  C   UNL     1      -9.901  13.477  66.327  1.00  0.00    -0.299 C  
BRANCH   5   6
HETATM    6  C   UNL     1     -10.343  12.037  66.513  1.00  0.00    -0.210 C  
BRANCH   6   7
HETATM    7  O   UNL     1      -9.927  11.579  67.784  1.00  0.00    -0.177 OA 
BRANCH   7   8
HETATM    8  P   UNL     1     -11.251  11.644  68.896  1.00  0.00    -0.295 P  
HETATM    9  O   UNL     1     -10.435  10.783  69.853  1.00  0.00    -0.170 OA 
HETATM   10  O   UNL     1     -12.120  10.974  67.825  1.00  0.00    -0.534 OA 
BRANCH   8  11
HETATM   11  O   UNL     1     -12.575  11.709  70.009  1.00  0.00    -0.118 OA 
BRANCH  11  12
HETATM   12  P   UNL     1     -12.439  10.411  71.143  1.00  0.00    -0.457 P  
HETATM   13  O   UNL     1     -13.071  11.402  72.297  1.00  0.00    -0.365 OA 
HETATM   14  O   UNL     1     -13.694   9.776  70.508  1.00  0.00    -0.004 OA 
BRANCH  12  15
HETATM   15  O   UNL     1     -12.304   9.112  72.279  1.00  0.00    -0.359 OA 
BRANCH  15  16
HETATM   16  C   UNL     1     -13.123   7.959  72.004  1.00  0.00    -0.231 C  
BRANCH  16  17
HETATM   17  C   UNL     1     -12.323   6.736  71.582  1.00  0.00    -0.362 C  
HETATM   18  O   UNL     1     -12.117   6.752  70.167  1.00  0.00    -0.289 OA 
HETATM   19  C   UNL     1     -10.979   5.928  69.908  1.00  0.00    -0.374 C  
HETATM   20  H   UNL     1     -10.182   5.779  73.850  1.00  0.00     0.000 HD 
HETATM   21  C   UNL     1     -10.083   5.989  71.164  1.00  0.00    -0.194 C  
HETATM   22  H   UNL     1      -9.062   4.735  72.355  1.00  0.00     0.000 HD 
HETATM   23  C   UNL     1     -10.961   6.624  72.240  1.00  0.00    -0.246 C  
HETATM   24  O   UNL     1      -9.613   4.697  71.582  1.00  0.00    -0.145 OA 
HETATM   25  O   UNL     1     -11.035   5.850  73.437  1.00  0.00    -0.260 OA 
BRANCH  19  26
HETATM   26  N   UNL     1     -10.323   6.339  68.664  1.00  0.00    -0.184 N  
HETATM   27  C   UNL     1     -10.363   7.643  68.230  1.00  0.00    -0.198 C  
HETATM   28  C   UNL     1      -9.859   7.993  67.052  1.00  0.00    -0.295 C  
HETATM   29  C   UNL     1      -9.275   6.899  66.254  1.00  0.00    -0.120 C  
HETATM   30  N   UNL     1      -9.228   5.666  66.654  1.00  0.00    -0.130 N  
HETATM   31  N   UNL     1      -8.761   7.175  65.017  1.00  0.00    -0.358 NA 
HETATM   32  H   UNL     1      -8.800   4.952  66.064  1.00  0.00     0.000 HD 
HETATM   33  C   UNL     1      -9.761   5.325  67.878  1.00  0.00    -0.141 C  
HETATM   34  H1  UNL     1      -8.357   6.419  64.465  1.00  0.00     0.000 HD 
HETATM   35  H2  UNL     1      -8.782   8.127  64.650  1.00  0.00     0.000 HD 
HETATM   36  O   UNL     1      -9.747   4.157  68.273  1.00  0.00    -0.148 OA 
ENDBRANCH  19  26
ENDBRANCH  16  17
ENDBRANCH  15  16
ENDBRANCH  12  15
ENDBRANCH  11  12
ENDBRANCH   8  11
ENDBRANCH   7   8
ENDBRANCH   6   7
ENDBRANCH   5   6
ENDBRANCH   2   5
TORSDOF 10
ENDMDL
MODEL       66
REMARK 921   NORMALIZED FREE ENERGY PREDICTED BY IDOCK:   -5.73 KCAL/MOL
REMARK 922        TOTAL FREE ENERGY PREDICTED BY IDOCK:  -10.01 KCAL/MOL
REMARK 923 INTER-LIGAND FREE ENERGY PREDICTED BY IDOCK:   -8.95 KCAL/MOL
REMARK 924 INTRA-LIGAND FREE ENERGY PREDICTED BY IDOCK:   -1.06 KCAL/MOL
REMARK 927      BINDING AFFINITY PREDICTED BY RF-SCORE:    0.00 PKD
ROOT
HETATM    1  C   UNL     1     -10.476   6.965  73.779  1.00  0.00    -0.357 C  
HETATM    2  N   UNL     1     -10.791   5.950  72.701  1.00  0.00    -0.235 N  
HETATM    3  C   UNL     1      -9.543   5.625  71.898  1.00  0.00    -0.152 C  
HETATM    4  C   UNL     1     -11.284   4.655  73.367  1.00  0.00    -0.338 C  
ENDROOT
BRANCH   2   5
HETATM    5  C   UNL     1     -11.891   6.555  71.794  1.00  0.00    -0.335 C  
BRANCH   5   6
HETATM    6  C   UNL     1     -11.534   6.623  70.320  1.00  0.00    -0.391 C  
BRANCH   6   7
HETATM    7  O   UNL     1     -11.208   7.956  69.977  1.00  0.00    -0.214 OA 
BRANCH   7   8
HETATM    8  P   UNL     1      -9.967   7.969  68.772  1.00  0.00    -0.196 P  
HETATM    9  O   UNL     1     -10.243   6.490  68.533  1.00  0.00    -0.151 OA 
HETATM   10  O   UNL     1      -8.978   8.389  69.866  1.00  0.00    -0.139 OA 
BRANCH   8  11
HETATM   11  O   UNL     1      -8.726   7.982  67.567  1.00  0.00    -0.124 OA 
BRANCH  11  12
HETATM   12  P   UNL     1      -8.837   9.439  66.642  1.00  0.00    -0.141 P  
HETATM   13  O   UNL     1      -8.882   8.524  65.274  1.00  0.00    -0.172 OA 
HETATM   14  O   UNL     1     -10.324   9.535  67.044  1.00  0.00    -0.238 OA 
BRANCH  12  15
HETATM   15  O   UNL     1      -8.947  10.897  65.716  1.00  0.00    -0.183 OA 
BRANCH  15  16
HETATM   16  C   UNL     1     -10.068  10.975  64.813  1.00  0.00    -0.308 C  
BRANCH  16  17
HETATM   17  C   UNL     1     -11.081  12.042  65.196  1.00  0.00    -0.318 C  
HETATM   18  O   UNL     1     -10.522  12.914  66.183  1.00  0.00    -0.262 OA 
HETATM   19  C   UNL     1     -11.260  14.135  66.117  1.00  0.00    -0.326 C  
HETATM   20  H   UNL     1     -13.015  12.901  62.713  1.00  0.00     0.000 HD 
HETATM   21  C   UNL     1     -11.768  14.278  64.667  1.00  0.00    -0.430 C  
HETATM   22  H   UNL     1     -13.465  14.747  63.699  1.00  0.00     0.000 HD 
HETATM   23  C   UNL     1     -11.546  12.905  64.038  1.00  0.00    -0.426 C  
HETATM   24  O   UNL     1     -13.152  14.659  64.591  1.00  0.00    -0.392 OA 
HETATM   25  O   UNL     1     -12.723  12.361  63.438  1.00  0.00    -0.722 OA 
BRANCH  19  26
HETATM   26  N   UNL     1     -10.442  15.253  66.595  1.00  0.00    -0.284 N  
HETATM   27  C   UNL     1      -9.290  15.627  65.943  1.00  0.00    -0.321 C  
HETATM   28  C   UNL     1      -8.495  16.570  66.437  1.00  0.00    -0.357 C  
HETATM   29  C   UNL     1      -8.924  17.167  67.715  1.00  0.00    -0.226 C  
HETATM   30  N   UNL     1     -10.009  16.824  68.338  1.00  0.00    -0.255 N  
HETATM   31  N   UNL     1      -8.143  18.125  68.301  1.00  0.00    -0.288 NA 
HETATM   32  H   UNL     1     -10.263  17.280  69.214  1.00  0.00     0.000 HD 
HETATM   33  C   UNL     1     -10.817  15.840  67.810  1.00  0.00    -0.316 C  
HETATM   34  H1  UNL     1      -8.439  18.538  69.185  1.00  0.00     0.000 HD 
HETATM   35  H2  UNL     1      -7.274  18.424  67.858  1.00  0.00     0.000 HD 
HETATM   36  O   UNL     1     -11.844  15.482  68.391  1.00  0.00    -0.351 OA 
ENDBRANCH  19  26
ENDBRANCH  16  17
ENDBRANCH  15  16
ENDBRANCH  12  15
ENDBRANCH  11  12
ENDBRANCH   8  11
ENDBRANCH   7   8
ENDBRANCH   6   7
ENDBRANCH   5   6
ENDBRANCH   2   5
TORSDOF 10
ENDMDL
MODEL       67
REMARK 921   NORMALIZED FREE ENERGY PREDICTED BY IDOCK:   -5.71 KCAL/MOL
REMARK 922        TOTAL FREE ENERGY PREDICTED BY IDOCK:   -9.99 KCAL/MOL
REMARK 923 INTER-LIGAND FREE ENERGY PREDICTED BY IDOCK:   -8.40 KCAL/MOL
REMARK 924 INTRA-LIGAND FREE ENERGY PREDICTED BY IDOCK:   -1.58 KCAL/MOL
REMARK 927      BINDING AFFINITY PREDICTED BY RF-SCORE:    0.00 PKD
ROOT
HETATM    1  C   UNL     1     -12.652  13.751  65.420  1.00  0.00    -0.497 C  
HETATM    2  N   UNL     1     -11.293  13.925  66.064  1.00  0.00    -0.318 N  
HETATM    3  C   UNL     1     -10.312  12.902  65.516  1.00  0.00    -0.291 C  
HETATM    4  C   UNL     1     -10.760  15.328  65.727  1.00  0.00    -0.348 C  
ENDROOT
BRANCH   2   5
HETATM    5  C   UNL     1     -11.472  13.757  67.593  1.00  0.00    -0.323 C  
BRANCH   5   6
HETATM    6  C   UNL     1     -11.732  12.333  68.050  1.00  0.00    -0.356 C  
BRANCH   6   7
HETATM    7  O   UNL     1     -11.050  12.099  69.267  1.00  0.00    -0.226 OA 
BRANCH   7   8
HETATM    8  P   UNL     1     -12.139  11.431  70.433  1.00  0.00    -0.320 P  
HETATM    9  O   UNL     1     -12.885  10.757  69.289  1.00  0.00    -0.150 OA 
HETATM   10  O   UNL     1     -12.506  12.863  70.839  1.00  0.00    -0.367 OA 
BRANCH   8  11
HETATM   11  O   UNL     1     -13.227  10.763  71.601  1.00  0.00    -0.413 OA 
BRANCH  11  12
HETATM   12  P   UNL     1     -13.130   9.037  71.557  1.00  0.00    -0.290 P  
HETATM   13  O   UNL     1     -11.528   9.155  71.921  1.00  0.00    -0.360 OA 
HETATM   14  O   UNL     1     -13.800   9.002  72.947  1.00  0.00    -0.359 OA 
BRANCH  12  15
HETATM   15  O   UNL     1     -13.031   7.310  71.513  1.00  0.00    -0.365 OA 
BRANCH  15  16
HETATM   16  C   UNL     1     -11.872   6.738  72.150  1.00  0.00    -0.290 C  
BRANCH  16  17
HETATM   17  C   UNL     1     -10.954   6.001  71.188  1.00  0.00    -0.278 C  
HETATM   18  O   UNL     1     -11.134   6.503  69.861  1.00  0.00    -0.302 OA 
HETATM   19  C   UNL     1      -9.946   6.182  69.135  1.00  0.00    -0.154 C  
HETATM   20  H   UNL     1      -8.135   5.105  72.563  1.00  0.00     0.000 HD 
HETATM   21  C   UNL     1      -8.792   6.132  70.159  1.00  0.00    -0.144 C  
HETATM   22  H   UNL     1      -7.236   4.950  70.627  1.00  0.00     0.000 HD 
HETATM   23  C   UNL     1      -9.479   6.116  71.522  1.00  0.00    -0.148 C  
HETATM   24  O   UNL     1      -7.947   4.981  69.997  1.00  0.00    -0.072 OA 
HETATM   25  O   UNL     1      -9.059   5.034  72.354  1.00  0.00    -0.132 OA 
BRANCH  19  26
HETATM   26  N   UNL     1      -9.749   7.126  68.032  1.00  0.00    -0.137 N  
HETATM   27  C   UNL     1     -10.166   8.434  68.126  1.00  0.00    -0.208 C  
HETATM   28  C   UNL     1     -10.083   9.258  67.088  1.00  0.00    -0.299 C  
HETATM   29  C   UNL     1      -9.532   8.679  65.850  1.00  0.00    -0.173 C  
HETATM   30  N   UNL     1      -9.133   7.448  65.750  1.00  0.00    -0.380 N  
HETATM   31  N   UNL     1      -9.440   9.458  64.729  1.00  0.00    -0.446 NA 
HETATM   32  H   UNL     1      -8.748   7.104  64.871  1.00  0.00     0.000 HD 
HETATM   33  C   UNL     1      -9.233   6.609  66.838  1.00  0.00    -0.142 C  
HETATM   34  H1  UNL     1      -9.060   9.058  63.873  1.00  0.00     0.000 HD 
HETATM   35  H2  UNL     1      -9.750  10.431  64.751  1.00  0.00     0.000 HD 
HETATM   36  O   UNL     1      -8.879   5.430  66.765  1.00  0.00    -0.113 OA 
ENDBRANCH  19  26
ENDBRANCH  16  17
ENDBRANCH  15  16
ENDBRANCH  12  15
ENDBRANCH  11  12
ENDBRANCH   8  11
ENDBRANCH   7   8
ENDBRANCH   6   7
ENDBRANCH   5   6
ENDBRANCH   2   5
TORSDOF 10
ENDMDL
MODEL       68
REMARK 921   NORMALIZED FREE ENERGY PREDICTED BY IDOCK:   -5.67 KCAL/MOL
REMARK 922        TOTAL FREE ENERGY PREDICTED BY IDOCK:   -9.92 KCAL/MOL
REMARK 923 INTER-LIGAND FREE ENERGY PREDICTED BY IDOCK:   -8.53 KCAL/MOL
REMARK 924 INTRA-LIGAND FREE ENERGY PREDICTED BY IDOCK:   -1.39 KCAL/MOL
REMARK 927      BINDING AFFINITY PREDICTED BY RF-SCORE:    0.00 PKD
ROOT
HETATM    1  C   UNL     1      -8.626   8.486  71.254  1.00  0.00    -0.176 C  
HETATM    2  N   UNL     1      -9.805   8.447  70.305  1.00  0.00    -0.179 N  
HETATM    3  C   UNL     1     -10.785   7.363  70.721  1.00  0.00    -0.232 C  
HETATM    4  C   UNL     1     -10.535   9.800  70.363  1.00  0.00    -0.297 C  
ENDROOT
BRANCH   2   5
HETATM    5  C   UNL     1      -9.255   8.180  68.882  1.00  0.00    -0.147 C  
BRANCH   5   6
HETATM    6  C   UNL     1      -9.367   9.354  67.926  1.00  0.00    -0.129 C  
BRANCH   6   7
HETATM    7  O   UNL     1      -8.902   8.964  66.649  1.00  0.00    -0.123 OA 
BRANCH   7   8
HETATM    8  P   UNL     1      -9.591   9.986  65.434  1.00  0.00    -0.310 P  
HETATM    9  O   UNL     1      -8.245  10.691  65.324  1.00  0.00    -0.158 OA 
HETATM   10  O   UNL     1     -10.611  10.457  66.478  1.00  0.00    -0.218 OA 
BRANCH   8  11
HETATM   11  O   UNL     1     -10.280  11.008  64.219  1.00  0.00    -0.301 OA 
BRANCH  11  12
HETATM   12  P   UNL     1     -11.112  12.322  64.976  1.00  0.00    -0.338 P  
HETATM   13  O   UNL     1     -10.222  13.363  64.062  1.00  0.00    -0.336 OA 
HETATM   14  O   UNL     1     -12.327  12.021  64.072  1.00  0.00    -0.420 OA 
BRANCH  12  15
HETATM   15  O   UNL     1     -11.944  13.637  65.732  1.00  0.00    -0.353 OA 
BRANCH  15  16
HETATM   16  C   UNL     1     -12.407  13.390  67.074  1.00  0.00    -0.177 C  
BRANCH  16  17
HETATM   17  C   UNL     1     -11.491  13.962  68.145  1.00  0.00    -0.312 C  
HETATM   18  O   UNL     1     -10.618  14.937  67.571  1.00  0.00    -0.258 OA 
HETATM   19  C   UNL     1     -10.181  15.778  68.639  1.00  0.00    -0.221 C  
HETATM   20  H   UNL     1     -12.913  14.109  71.078  1.00  0.00     0.000 HD 
HETATM   21  C   UNL     1     -11.300  15.775  69.702  1.00  0.00    -0.334 C  
HETATM   22  H   UNL     1     -11.495  15.590  71.693  1.00  0.00     0.000 HD 
HETATM   23  C   UNL     1     -12.220  14.625  69.299  1.00  0.00    -0.212 C  
HETATM   24  O   UNL     1     -10.806  15.592  71.039  1.00  0.00    -0.321 OA 
HETATM   25  O   UNL     1     -12.457  13.694  70.355  1.00  0.00    -0.326 OA 
BRANCH  19  26
HETATM   26  N   UNL     1      -9.818  17.103  68.132  1.00  0.00    -0.269 N  
HETATM   27  C   UNL     1     -10.692  17.842  67.368  1.00  0.00    -0.279 C  
HETATM   28  C   UNL     1     -10.323  18.995  66.822  1.00  0.00    -0.486 C  
HETATM   29  C   UNL     1      -8.933  19.412  67.080  1.00  0.00    -0.302 C  
HETATM   30  N   UNL     1      -8.100  18.726  67.801  1.00  0.00    -0.252 N  
HETATM   31  N   UNL     1      -8.470  20.575  66.528  1.00  0.00    -0.542 NA 
HETATM   32  H   UNL     1      -7.153  19.070  67.957  1.00  0.00     0.000 HD 
HETATM   33  C   UNL     1      -8.503  17.530  68.354  1.00  0.00    -0.275 C  
HETATM   34  H1  UNL     1      -7.509  20.864  66.706  1.00  0.00     0.000 HD 
HETATM   35  H2  UNL     1      -9.080  21.147  65.943  1.00  0.00     0.000 HD 
HETATM   36  O   UNL     1      -7.726  16.849  69.028  1.00  0.00    -0.243 OA 
ENDBRANCH  19  26
ENDBRANCH  16  17
ENDBRANCH  15  16
ENDBRANCH  12  15
ENDBRANCH  11  12
ENDBRANCH   8  11
ENDBRANCH   7   8
ENDBRANCH   6   7
ENDBRANCH   5   6
ENDBRANCH   2   5
TORSDOF 10
ENDMDL
MODEL       69
REMARK 921   NORMALIZED FREE ENERGY PREDICTED BY IDOCK:   -5.67 KCAL/MOL
REMARK 922        TOTAL FREE ENERGY PREDICTED BY IDOCK:   -9.91 KCAL/MOL
REMARK 923 INTER-LIGAND FREE ENERGY PREDICTED BY IDOCK:   -9.25 KCAL/MOL
REMARK 924 INTRA-LIGAND FREE ENERGY PREDICTED BY IDOCK:   -0.67 KCAL/MOL
REMARK 927      BINDING AFFINITY PREDICTED BY RF-SCORE:    0.00 PKD
ROOT
HETATM    1  C   UNL     1      -9.085   8.868  65.745  1.00  0.00    -0.221 C  
HETATM    2  N   UNL     1      -8.337  10.130  66.120  1.00  0.00    -0.127 N  
HETATM    3  C   UNL     1      -7.998  10.124  67.601  1.00  0.00    -0.102 C  
HETATM    4  C   UNL     1      -7.021  10.182  65.327  1.00  0.00    -0.137 C  
ENDROOT
BRANCH   2   5
HETATM    5  C   UNL     1      -9.242  11.335  65.764  1.00  0.00    -0.219 C  
BRANCH   5   6
HETATM    6  C   UNL     1     -10.106  11.139  64.531  1.00  0.00    -0.308 C  
BRANCH   6   7
HETATM    7  O   UNL     1     -11.470  11.230  64.895  1.00  0.00    -0.055 OA 
BRANCH   7   8
HETATM    8  P   UNL     1     -12.060  12.825  64.577  1.00  0.00    -0.459 P  
HETATM    9  O   UNL     1     -12.612  12.857  65.997  1.00  0.00    -0.467 OA 
HETATM   10  O   UNL     1     -12.908  12.233  63.446  1.00  0.00    -0.754 OA 
BRANCH   8  11
HETATM   11  O   UNL     1     -12.649  14.421  64.260  1.00  0.00    -0.676 OA 
BRANCH  11  12
HETATM   12  P   UNL     1     -11.554  15.582  64.926  1.00  0.00    -0.027 P  
HETATM   13  O   UNL     1     -10.314  14.553  64.587  1.00  0.00    -0.370 OA 
HETATM   14  O   UNL     1     -11.691  16.400  63.624  1.00  0.00    -0.933 OA 
BRANCH  12  15
HETATM   15  O   UNL     1     -10.458  16.743  65.592  1.00  0.00    -0.470 OA 
BRANCH  15  16
HETATM   16  C   UNL     1      -9.111  16.277  65.801  1.00  0.00    -0.075 C  
BRANCH  16  17
HETATM   17  C   UNL     1      -8.712  16.215  67.267  1.00  0.00    -0.183 C  
HETATM   18  O   UNL     1      -9.811  16.616  68.089  1.00  0.00    -0.239 OA 
HETATM   19  C   UNL     1      -9.580  16.060  69.385  1.00  0.00    -0.236 C  
HETATM   20  H   UNL     1      -6.579  13.829  67.899  1.00  0.00     0.000 HD 
HETATM   21  C   UNL     1      -8.755  14.772  69.182  1.00  0.00    -0.085 C  
HETATM   22  H   UNL     1      -7.137  13.874  69.964  1.00  0.00     0.000 HD 
HETATM   23  C   UNL     1      -8.270  14.841  67.736  1.00  0.00    -0.159 C  
HETATM   24  O   UNL     1      -7.646  14.667  70.089  1.00  0.00     0.131 OA 
HETATM   25  O   UNL     1      -6.856  14.689  67.606  1.00  0.00    -0.165 OA 
BRANCH  19  26
HETATM   26  N   UNL     1     -10.848  15.873  70.094  1.00  0.00    -0.335 N  
HETATM   27  C   UNL     1     -10.963  16.144  71.438  1.00  0.00     0.291 C  
HETATM   28  C   UNL     1     -12.082  15.875  72.101  1.00  0.00    -0.596 C  
HETATM   29  C   UNL     1     -13.166  15.264  71.310  1.00  0.00    -0.488 C  
HETATM   30  N   UNL     1     -13.070  15.006  70.042  1.00  0.00    -0.579 N  
HETATM   31  N   UNL     1     -14.340  14.931  71.929  1.00  0.00    -0.526 NA 
HETATM   32  H   UNL     1     -13.858  14.594  69.542  1.00  0.00     0.000 HD 
HETATM   33  C   UNL     1     -11.898  15.290  69.375  1.00  0.00    -0.343 C  
HETATM   34  H1  UNL     1     -15.090  14.509  71.382  1.00  0.00     0.000 HD 
HETATM   35  H2  UNL     1     -14.464  15.104  72.927  1.00  0.00     0.000 HD 
HETATM   36  O   UNL     1     -11.774  15.037  68.174  1.00  0.00    -0.333 OA 
ENDBRANCH  19  26
ENDBRANCH  16  17
ENDBRANCH  15  16
ENDBRANCH  12  15
ENDBRANCH  11  12
ENDBRANCH   8  11
ENDBRANCH   7   8
ENDBRANCH   6   7
ENDBRANCH   5   6
ENDBRANCH   2   5
TORSDOF 10
ENDMDL
MODEL       70
REMARK 921   NORMALIZED FREE ENERGY PREDICTED BY IDOCK:   -5.65 KCAL/MOL
REMARK 922        TOTAL FREE ENERGY PREDICTED BY IDOCK:   -9.89 KCAL/MOL
REMARK 923 INTER-LIGAND FREE ENERGY PREDICTED BY IDOCK:   -8.93 KCAL/MOL
REMARK 924 INTRA-LIGAND FREE ENERGY PREDICTED BY IDOCK:   -0.96 KCAL/MOL
REMARK 927      BINDING AFFINITY PREDICTED BY RF-SCORE:    0.00 PKD
ROOT
HETATM    1  C   UNL     1      -7.803   5.524  69.039  1.00  0.00    -0.091 C  
HETATM    2  N   UNL     1      -8.989   5.539  68.098  1.00  0.00    -0.108 N  
HETATM    3  C   UNL     1      -8.537   5.849  66.681  1.00  0.00    -0.119 C  
HETATM    4  C   UNL     1      -9.642   4.147  68.099  1.00  0.00    -0.134 C  
ENDROOT
BRANCH   2   5
HETATM    5  C   UNL     1      -9.981   6.613  68.611  1.00  0.00    -0.147 C  
BRANCH   5   6
HETATM    6  C   UNL     1     -11.111   6.075  69.469  1.00  0.00    -0.398 C  
BRANCH   6   7
HETATM    7  O   UNL     1     -10.860   6.388  70.825  1.00  0.00    -0.239 OA 
BRANCH   7   8
HETATM    8  P   UNL     1     -11.540   7.932  71.209  1.00  0.00    -0.284 P  
HETATM    9  O   UNL     1     -10.786   7.887  72.533  1.00  0.00    -0.273 OA 
HETATM   10  O   UNL     1     -12.929   7.292  71.105  1.00  0.00    -0.346 OA 
BRANCH   8  11
HETATM   11  O   UNL     1     -12.219   9.477  71.593  1.00  0.00    -0.351 OA 
BRANCH  11  12
HETATM   12  P   UNL     1     -11.680  10.646  70.439  1.00  0.00    -0.378 P  
HETATM   13  O   UNL     1     -10.621   9.527  69.855  1.00  0.00    -0.212 OA 
HETATM   14  O   UNL     1     -12.960  10.371  69.620  1.00  0.00    -0.029 OA 
BRANCH  12  15
HETATM   15  O   UNL     1     -11.140  11.815  69.283  1.00  0.00    -0.242 OA 
BRANCH  15  16
HETATM   16  C   UNL     1     -12.015  12.942  69.085  1.00  0.00    -0.259 C  
BRANCH  16  17
HETATM   17  C   UNL     1     -11.897  13.564  67.702  1.00  0.00    -0.363 C  
HETATM   18  O   UNL     1     -11.769  14.984  67.815  1.00  0.00    -0.339 OA 
HETATM   19  C   UNL     1     -11.158  15.440  66.607  1.00  0.00    -0.236 C  
HETATM   20  H   UNL     1     -10.350  11.635  65.574  1.00  0.00     0.000 HD 
HETATM   21  C   UNL     1     -10.283  14.282  66.080  1.00  0.00    -0.307 C  
HETATM   22  H   UNL     1      -9.912  13.334  64.348  1.00  0.00     0.000 HD 
HETATM   23  C   UNL     1     -10.716  13.064  66.892  1.00  0.00    -0.262 C  
HETATM   24  O   UNL     1     -10.451  14.046  64.672  1.00  0.00    -0.434 OA 
HETATM   25  O   UNL     1     -11.089  11.949  66.081  1.00  0.00    -0.303 OA 
BRANCH  19  26
HETATM   26  N   UNL     1     -10.442  16.696  66.838  1.00  0.00    -0.295 N  
HETATM   27  C   UNL     1      -9.817  16.955  68.036  1.00  0.00    -0.264 C  
HETATM   28  C   UNL     1      -9.260  18.135  68.281  1.00  0.00    -0.307 C  
HETATM   29  C   UNL     1      -9.367  19.132  67.200  1.00  0.00    -0.310 C  
HETATM   30  N   UNL     1      -9.951  18.900  66.065  1.00  0.00    -0.334 N  
HETATM   31  N   UNL     1      -8.841  20.381  67.389  1.00  0.00    -0.346 NA 
HETATM   32  H   UNL     1      -9.984  19.624  65.349  1.00  0.00     0.000 HD 
HETATM   33  C   UNL     1     -10.526  17.669  65.835  1.00  0.00    -0.246 C  
HETATM   34  H1  UNL     1      -8.915  21.071  66.642  1.00  0.00     0.000 HD 
HETATM   35  H2  UNL     1      -8.381  20.620  68.267  1.00  0.00     0.000 HD 
HETATM   36  O   UNL     1     -11.104  17.428  64.772  1.00  0.00    -0.973 OA 
ENDBRANCH  19  26
ENDBRANCH  16  17
ENDBRANCH  15  16
ENDBRANCH  12  15
ENDBRANCH  11  12
ENDBRANCH   8  11
ENDBRANCH   7   8
ENDBRANCH   6   7
ENDBRANCH   5   6
ENDBRANCH   2   5
TORSDOF 10
ENDMDL
MODEL       71
REMARK 921   NORMALIZED FREE ENERGY PREDICTED BY IDOCK:   -5.65 KCAL/MOL
REMARK 922        TOTAL FREE ENERGY PREDICTED BY IDOCK:   -9.89 KCAL/MOL
REMARK 923 INTER-LIGAND FREE ENERGY PREDICTED BY IDOCK:   -8.84 KCAL/MOL
REMARK 924 INTRA-LIGAND FREE ENERGY PREDICTED BY IDOCK:   -1.05 KCAL/MOL
REMARK 927      BINDING AFFINITY PREDICTED BY RF-SCORE:    0.00 PKD
ROOT
HETATM    1  C   UNL     1      -9.105   6.549  66.188  1.00  0.00    -0.124 C  
HETATM    2  N   UNL     1      -8.942   7.889  66.873  1.00  0.00    -0.131 N  
HETATM    3  C   UNL     1      -8.591   7.696  68.339  1.00  0.00    -0.124 C  
HETATM    4  C   UNL     1      -7.789   8.654  66.201  1.00  0.00    -0.098 C  
ENDROOT
BRANCH   2   5
HETATM    5  C   UNL     1     -10.276   8.660  66.720  1.00  0.00    -0.291 C  
BRANCH   5   6
HETATM    6  C   UNL     1     -10.213   9.863  65.796  1.00  0.00    -0.181 C  
BRANCH   6   7
HETATM    7  O   UNL     1     -10.135  11.045  66.568  1.00  0.00    -0.211 OA 
BRANCH   7   8
HETATM    8  P   UNL     1     -11.144  12.269  65.876  1.00  0.00    -0.349 P  
HETATM    9  O   UNL     1     -12.123  12.049  67.022  1.00  0.00    -0.603 OA 
HETATM   10  O   UNL     1     -11.245  11.404  64.615  1.00  0.00    -0.258 OA 
BRANCH   8  11
HETATM   11  O   UNL     1     -12.152  13.493  65.185  1.00  0.00    -0.363 OA 
BRANCH  11  12
HETATM   12  P   UNL     1     -11.310  15.004  65.192  1.00  0.00    -0.323 P  
HETATM   13  O   UNL     1     -10.016  14.244  64.512  1.00  0.00    -0.178 OA 
HETATM   14  O   UNL     1     -12.144  15.430  63.966  1.00  0.00    -0.574 OA 
BRANCH  12  15
HETATM   15  O   UNL     1     -10.467  16.515  65.199  1.00  0.00    -0.637 OA 
BRANCH  15  16
HETATM   16  C   UNL     1     -10.887  17.456  66.206  1.00  0.00     0.057 C  
BRANCH  16  17
HETATM   17  C   UNL     1     -10.183  17.268  67.541  1.00  0.00    -0.328 C  
HETATM   18  O   UNL     1     -11.134  16.915  68.549  1.00  0.00    -0.327 OA 
HETATM   19  C   UNL     1     -10.406  16.264  69.591  1.00  0.00    -0.261 C  
HETATM   20  H   UNL     1      -7.158  16.090  67.222  1.00  0.00     0.000 HD 
HETATM   21  C   UNL     1      -9.181  15.594  68.934  1.00  0.00    -0.226 C  
HETATM   22  H   UNL     1      -7.205  15.413  69.252  1.00  0.00     0.000 HD 
HETATM   23  C   UNL     1      -9.108  16.198  67.534  1.00  0.00    -0.203 C  
HETATM   24  O   UNL     1      -7.960  15.825  69.656  1.00  0.00    -0.193 OA 
HETATM   25  O   UNL     1      -7.832  16.760  67.227  1.00  0.00    -0.159 OA 
BRANCH  19  26
HETATM   26  N   UNL     1     -11.281  15.353  70.334  1.00  0.00    -0.296 N  
HETATM   27  C   UNL     1     -11.632  14.124  69.825  1.00  0.00    -0.290 C  
HETATM   28  C   UNL     1     -12.508  13.345  70.450  1.00  0.00    -0.322 C  
HETATM   29  C   UNL     1     -13.072  13.888  71.699  1.00  0.00    -0.367 C  
HETATM   30  N   UNL     1     -12.747  15.044  72.190  1.00  0.00    -0.314 N  
HETATM   31  N   UNL     1     -14.002  13.156  72.386  1.00  0.00    -0.626 NA 
HETATM   32  H   UNL     1     -13.160  15.363  73.066  1.00  0.00     0.000 HD 
HETATM   33  C   UNL     1     -11.840  15.837  71.522  1.00  0.00    -0.446 C  
HETATM   34  H1  UNL     1     -14.393  13.532  73.250  1.00  0.00     0.000 HD 
HETATM   35  H2  UNL     1     -14.301  12.245  72.038  1.00  0.00     0.000 HD 
HETATM   36  O   UNL     1     -11.527  16.948  71.957  1.00  0.00    -0.098 OA 
ENDBRANCH  19  26
ENDBRANCH  16  17
ENDBRANCH  15  16
ENDBRANCH  12  15
ENDBRANCH  11  12
ENDBRANCH   8  11
ENDBRANCH   7   8
ENDBRANCH   6   7
ENDBRANCH   5   6
ENDBRANCH   2   5
TORSDOF 10
ENDMDL
MODEL       72
REMARK 921   NORMALIZED FREE ENERGY PREDICTED BY IDOCK:   -5.65 KCAL/MOL
REMARK 922        TOTAL FREE ENERGY PREDICTED BY IDOCK:   -9.88 KCAL/MOL
REMARK 923 INTER-LIGAND FREE ENERGY PREDICTED BY IDOCK:   -8.52 KCAL/MOL
REMARK 924 INTRA-LIGAND FREE ENERGY PREDICTED BY IDOCK:   -1.36 KCAL/MOL
REMARK 927      BINDING AFFINITY PREDICTED BY RF-SCORE:    0.00 PKD
ROOT
HETATM    1  C   UNL     1      -7.294  11.867  67.643  1.00  0.00    -0.123 C  
HETATM    2  N   UNL     1      -6.071  11.749  68.527  1.00  0.00    -0.049 N  
HETATM    3  C   UNL     1      -6.476  11.399  69.949  1.00  0.00    -0.118 C  
HETATM    4  C   UNL     1      -5.177  10.617  67.991  1.00  0.00    -0.036 C  
ENDROOT
BRANCH   2   5
HETATM    5  C   UNL     1      -5.325  13.106  68.481  1.00  0.00    -0.069 C  
BRANCH   5   6
HETATM    6  C   UNL     1      -6.054  14.206  67.731  1.00  0.00    -0.122 C  
BRANCH   6   7
HETATM    7  O   UNL     1      -5.456  15.452  68.029  1.00  0.00    -0.112 OA 
BRANCH   7   8
HETATM    8  P   UNL     1      -6.459  16.740  67.455  1.00  0.00    -0.185 P  
HETATM    9  O   UNL     1      -6.541  17.258  68.886  1.00  0.00    -0.190 OA 
HETATM   10  O   UNL     1      -7.458  15.681  66.973  1.00  0.00    -0.216 OA 
BRANCH   8  11
HETATM   11  O   UNL     1      -7.462  18.028  66.880  1.00  0.00    -0.197 OA 
BRANCH  11  12
HETATM   12  P   UNL     1      -9.109  17.706  67.298  1.00  0.00    -0.245 P  
HETATM   13  O   UNL     1      -9.171  19.179  68.034  1.00  0.00    -0.295 OA 
HETATM   14  O   UNL     1      -9.502  18.031  65.841  1.00  0.00    -0.520 OA 
BRANCH  12  15
HETATM   15  O   UNL     1     -10.757  17.386  67.717  1.00  0.00    -0.373 OA 
BRANCH  15  16
HETATM   16  C   UNL     1     -10.954  16.405  68.754  1.00  0.00    -0.344 C  
BRANCH  16  17
HETATM   17  C   UNL     1     -10.730  14.975  68.286  1.00  0.00    -0.253 C  
HETATM   18  O   UNL     1     -10.836  14.077  69.393  1.00  0.00    -0.206 OA 
HETATM   19  C   UNL     1     -11.137  12.790  68.852  1.00  0.00    -0.262 C  
HETATM   20  H   UNL     1     -11.805  14.455  65.250  1.00  0.00     0.000 HD 
HETATM   21  C   UNL     1     -11.903  13.024  67.533  1.00  0.00    -0.355 C  
HETATM   22  H   UNL     1     -11.894  12.353  65.639  1.00  0.00     0.000 HD 
HETATM   23  C   UNL     1     -11.708  14.507  67.225  1.00  0.00    -0.406 C  
HETATM   24  O   UNL     1     -11.423  12.209  66.451  1.00  0.00    -0.344 OA 
HETATM   25  O   UNL     1     -11.193  14.749  65.915  1.00  0.00    -0.335 OA 
BRANCH  19  26
HETATM   26  N   UNL     1     -11.846  11.973  69.839  1.00  0.00    -0.337 N  
HETATM   27  C   UNL     1     -12.487  12.544  70.914  1.00  0.00    -0.269 C  
HETATM   28  C   UNL     1     -13.040  11.797  71.862  1.00  0.00    -0.482 C  
HETATM   29  C   UNL     1     -12.908  10.339  71.689  1.00  0.00    -0.463 C  
HETATM   30  N   UNL     1     -12.308   9.788  70.679  1.00  0.00    -0.457 N  
HETATM   31  N   UNL     1     -13.426   9.502  72.640  1.00  0.00    -0.647 NA 
HETATM   32  H   UNL     1     -12.258   8.772  70.604  1.00  0.00     0.000 HD 
HETATM   33  C   UNL     1     -11.739  10.583  69.708  1.00  0.00    -0.281 C  
HETATM   34  H1  UNL     1     -13.336   8.494  72.520  1.00  0.00     0.000 HD 
HETATM   35  H2  UNL     1     -13.899   9.884  73.460  1.00  0.00     0.000 HD 
HETATM   36  O   UNL     1     -11.146  10.085  68.748  1.00  0.00    -0.226 OA 
ENDBRANCH  19  26
ENDBRANCH  16  17
ENDBRANCH  15  16
ENDBRANCH  12  15
ENDBRANCH  11  12
ENDBRANCH   8  11
ENDBRANCH   7   8
ENDBRANCH   6   7
ENDBRANCH   5   6
ENDBRANCH   2   5
TORSDOF 10
ENDMDL
MODEL       73
REMARK 921   NORMALIZED FREE ENERGY PREDICTED BY IDOCK:   -5.64 KCAL/MOL
REMARK 922        TOTAL FREE ENERGY PREDICTED BY IDOCK:   -9.87 KCAL/MOL
REMARK 923 INTER-LIGAND FREE ENERGY PREDICTED BY IDOCK:   -8.39 KCAL/MOL
REMARK 924 INTRA-LIGAND FREE ENERGY PREDICTED BY IDOCK:   -1.48 KCAL/MOL
REMARK 927      BINDING AFFINITY PREDICTED BY RF-SCORE:    0.00 PKD
ROOT
HETATM    1  C   UNL     1      -8.728  10.724  66.657  1.00  0.00    -0.147 C  
HETATM    2  N   UNL     1      -7.582  10.519  67.624  1.00  0.00    -0.092 N  
HETATM    3  C   UNL     1      -8.093  10.490  69.054  1.00  0.00    -0.143 C  
HETATM    4  C   UNL     1      -6.916   9.165  67.325  1.00  0.00    -0.078 C  
ENDROOT
BRANCH   2   5
HETATM    5  C   UNL     1      -6.579  11.681  67.417  1.00  0.00    -0.106 C  
BRANCH   5   6
HETATM    6  C   UNL     1      -6.970  12.985  68.089  1.00  0.00    -0.105 C  
BRANCH   6   7
HETATM    7  O   UNL     1      -5.814  13.775  68.288  1.00  0.00    -0.089 OA 
BRANCH   7   8
HETATM    8  P   UNL     1      -6.093  15.383  67.713  1.00  0.00    -0.094 P  
HETATM    9  O   UNL     1      -6.075  15.858  69.160  1.00  0.00    -0.118 OA 
HETATM   10  O   UNL     1      -7.403  14.882  67.094  1.00  0.00    -0.179 OA 
BRANCH   8  11
HETATM   11  O   UNL     1      -6.371  16.991  67.137  1.00  0.00    -0.145 OA 
BRANCH  11  12
HETATM   12  P   UNL     1      -8.070  17.248  66.945  1.00  0.00    -0.269 P  
HETATM   13  O   UNL     1      -7.961  18.510  67.999  1.00  0.00    -0.262 OA 
HETATM   14  O   UNL     1      -7.777  17.910  65.582  1.00  0.00    -0.541 OA 
BRANCH  12  15
HETATM   15  O   UNL     1      -9.771  17.507  66.754  1.00  0.00    -0.271 OA 
BRANCH  15  16
HETATM   16  C   UNL     1     -10.403  16.733  65.716  1.00  0.00    -0.305 C  
BRANCH  16  17
HETATM   17  C   UNL     1     -10.597  15.270  66.084  1.00  0.00    -0.313 C  
HETATM   18  O   UNL     1     -10.667  15.130  67.505  1.00  0.00    -0.271 OA 
HETATM   19  C   UNL     1     -11.345  13.899  67.764  1.00  0.00    -0.308 C  
HETATM   20  H   UNL     1     -12.356  13.632  63.878  1.00  0.00     0.000 HD 
HETATM   21  C   UNL     1     -12.295  13.650  66.574  1.00  0.00    -0.361 C  
HETATM   22  H   UNL     1     -12.820  12.147  65.347  1.00  0.00     0.000 HD 
HETATM   23  C   UNL     1     -11.849  14.641  65.502  1.00  0.00    -0.292 C  
HETATM   24  O   UNL     1     -12.235  12.301  66.081  1.00  0.00    -0.647 OA 
HETATM   25  O   UNL     1     -11.572  14.027  64.243  1.00  0.00    -0.380 OA 
BRANCH  19  26
HETATM   26  N   UNL     1     -11.999  13.942  69.074  1.00  0.00    -0.353 N  
HETATM   27  C   UNL     1     -12.448  15.125  69.613  1.00  0.00    -0.136 C  
HETATM   28  C   UNL     1     -12.944  15.177  70.844  1.00  0.00    -0.488 C  
HETATM   29  C   UNL     1     -12.969  13.900  71.580  1.00  0.00    -0.352 C  
HETATM   30  N   UNL     1     -12.551  12.777  71.082  1.00  0.00    -0.340 N  
HETATM   31  N   UNL     1     -13.440  13.877  72.864  1.00  0.00    -0.650 NA 
HETATM   32  H   UNL     1     -12.604  11.921  71.634  1.00  0.00     0.000 HD 
HETATM   33  C   UNL     1     -12.036  12.748  69.805  1.00  0.00    -0.292 C  
HETATM   34  H1  UNL     1     -13.457  12.995  73.374  1.00  0.00     0.000 HD 
HETATM   35  H2  UNL     1     -13.770  14.735  73.308  1.00  0.00     0.000 HD 
HETATM   36  O   UNL     1     -11.615  11.697  69.314  1.00  0.00    -0.265 OA 
ENDBRANCH  19  26
ENDBRANCH  16  17
ENDBRANCH  15  16
ENDBRANCH  12  15
ENDBRANCH  11  12
ENDBRANCH   8  11
ENDBRANCH   7   8
ENDBRANCH   6   7
ENDBRANCH   5   6
ENDBRANCH   2   5
TORSDOF 10
ENDMDL
MODEL       74
REMARK 921   NORMALIZED FREE ENERGY PREDICTED BY IDOCK:   -5.62 KCAL/MOL
REMARK 922        TOTAL FREE ENERGY PREDICTED BY IDOCK:   -9.84 KCAL/MOL
REMARK 923 INTER-LIGAND FREE ENERGY PREDICTED BY IDOCK:   -8.45 KCAL/MOL
REMARK 924 INTRA-LIGAND FREE ENERGY PREDICTED BY IDOCK:   -1.39 KCAL/MOL
REMARK 927      BINDING AFFINITY PREDICTED BY RF-SCORE:    0.00 PKD
ROOT
HETATM    1  C   UNL     1     -12.357  13.081  65.459  1.00  0.00    -0.472 C  
HETATM    2  N   UNL     1     -10.910  13.470  65.242  1.00  0.00    -0.299 N  
HETATM    3  C   UNL     1     -10.323  12.699  64.073  1.00  0.00    -0.389 C  
HETATM    4  C   UNL     1     -10.844  14.970  64.908  1.00  0.00    -0.411 C  
ENDROOT
BRANCH   2   5
HETATM    5  C   UNL     1     -10.140  13.164  66.550  1.00  0.00    -0.280 C  
BRANCH   5   6
HETATM    6  C   UNL     1     -10.719  12.032  67.380  1.00  0.00    -0.229 C  
BRANCH   6   7
HETATM    7  O   UNL     1     -10.625  12.360  68.752  1.00  0.00    -0.227 OA 
BRANCH   7   8
HETATM    8  P   UNL     1     -11.663  11.329  69.676  1.00  0.00    -0.403 P  
HETATM    9  O   UNL     1     -12.373  10.954  68.381  1.00  0.00    -0.477 OA 
HETATM   10  O   UNL     1     -12.115  12.568  70.458  1.00  0.00    -0.365 OA 
BRANCH   8  11
HETATM   11  O   UNL     1     -12.701  10.298  70.601  1.00  0.00    -0.327 OA 
BRANCH  11  12
HETATM   12  P   UNL     1     -11.749   9.109  71.420  1.00  0.00    -0.394 P  
HETATM   13  O   UNL     1     -12.906   9.043  72.590  1.00  0.00    -0.381 OA 
HETATM   14  O   UNL     1     -12.237   8.066  70.392  1.00  0.00     0.110 OA 
BRANCH  12  15
HETATM   15  O   UNL     1     -10.798   7.919  72.241  1.00  0.00    -0.249 OA 
BRANCH  15  16
HETATM   16  C   UNL     1      -9.457   8.324  72.582  1.00  0.00    -0.284 C  
BRANCH  16  17
HETATM   17  C   UNL     1      -8.430   7.977  71.515  1.00  0.00    -0.121 C  
HETATM   18  O   UNL     1      -8.948   6.962  70.651  1.00  0.00    -0.150 OA 
HETATM   19  C   UNL     1      -8.216   7.051  69.427  1.00  0.00    -0.132 C  
HETATM   20  H   UNL     1      -6.605  10.535  70.637  1.00  0.00     0.000 HD 
HETATM   21  C   UNL     1      -7.770   8.520  69.275  1.00  0.00    -0.093 C  
HETATM   22  H   UNL     1      -6.117   9.557  68.797  1.00  0.00     0.000 HD 
HETATM   23  C   UNL     1      -8.016   9.148  70.645  1.00  0.00    -0.154 C  
HETATM   24  O   UNL     1      -6.391   8.653  68.891  1.00  0.00    -0.044 OA 
HETATM   25  O   UNL     1      -6.865   9.801  71.182  1.00  0.00    -0.314 OA 
BRANCH  19  26
HETATM   26  N   UNL     1      -9.014   6.532  68.315  1.00  0.00    -0.122 N  
HETATM   27  C   UNL     1     -10.258   7.043  68.026  1.00  0.00    -0.182 C  
HETATM   28  C   UNL     1     -11.023   6.502  67.085  1.00  0.00    -0.480 C  
HETATM   29  C   UNL     1     -10.459   5.329  66.394  1.00  0.00    -0.292 C  
HETATM   30  N   UNL     1      -9.286   4.839  66.656  1.00  0.00    -0.134 N  
HETATM   31  N   UNL     1     -11.199   4.699  65.432  1.00  0.00    -0.984 NA 
HETATM   32  H   UNL     1      -8.941   4.032  66.137  1.00  0.00     0.000 HD 
HETATM   33  C   UNL     1      -8.511   5.414  67.639  1.00  0.00    -0.105 C  
HETATM   34  H1  UNL     1     -10.809   3.887  64.954  1.00  0.00     0.000 HD 
HETATM   35  H2  UNL     1     -12.132   5.037  65.195  1.00  0.00     0.000 HD 
HETATM   36  O   UNL     1      -7.401   4.956  67.921  1.00  0.00    -0.069 OA 
ENDBRANCH  19  26
ENDBRANCH  16  17
ENDBRANCH  15  16
ENDBRANCH  12  15
ENDBRANCH  11  12
ENDBRANCH   8  11
ENDBRANCH   7   8
ENDBRANCH   6   7
ENDBRANCH   5   6
ENDBRANCH   2   5
TORSDOF 10
ENDMDL
MODEL       75
REMARK 921   NORMALIZED FREE ENERGY PREDICTED BY IDOCK:   -5.62 KCAL/MOL
REMARK 922        TOTAL FREE ENERGY PREDICTED BY IDOCK:   -9.83 KCAL/MOL
REMARK 923 INTER-LIGAND FREE ENERGY PREDICTED BY IDOCK:   -8.59 KCAL/MOL
REMARK 924 INTRA-LIGAND FREE ENERGY PREDICTED BY IDOCK:   -1.24 KCAL/MOL
REMARK 927      BINDING AFFINITY PREDICTED BY RF-SCORE:    0.00 PKD
ROOT
HETATM    1  C   UNL     1      -7.715   7.124  68.636  1.00  0.00    -0.120 C  
HETATM    2  N   UNL     1      -8.304   8.428  68.140  1.00  0.00    -0.127 N  
HETATM    3  C   UNL     1      -8.840   8.264  66.728  1.00  0.00    -0.140 C  
HETATM    4  C   UNL     1      -9.475   8.824  69.054  1.00  0.00    -0.160 C  
ENDROOT
BRANCH   2   5
HETATM    5  C   UNL     1      -7.183   9.496  68.187  1.00  0.00    -0.080 C  
BRANCH   5   6
HETATM    6  C   UNL     1      -7.659  10.925  67.993  1.00  0.00    -0.092 C  
BRANCH   6   7
HETATM    7  O   UNL     1      -6.813  11.802  68.710  1.00  0.00    -0.081 OA 
BRANCH   7   8
HETATM    8  P   UNL     1      -6.747  13.338  67.915  1.00  0.00    -0.172 P  
HETATM    9  O   UNL     1      -8.213  13.160  67.541  1.00  0.00    -0.159 OA 
HETATM   10  O   UNL     1      -5.656  12.765  67.004  1.00  0.00    -0.341 OA 
BRANCH   8  11
HETATM   11  O   UNL     1      -6.681  14.874  67.121  1.00  0.00    -0.265 OA 
BRANCH  11  12
HETATM   12  P   UNL     1      -8.240  15.619  67.178  1.00  0.00    -0.253 P  
HETATM   13  O   UNL     1      -7.795  16.360  68.580  1.00  0.00    -0.186 OA 
HETATM   14  O   UNL     1      -7.763  16.611  66.096  1.00  0.00    -0.289 OA 
BRANCH  12  15
HETATM   15  O   UNL     1      -9.800  16.365  67.236  1.00  0.00    -0.237 OA 
BRANCH  15  16
HETATM   16  C   UNL     1     -10.916  15.462  67.361  1.00  0.00    -0.312 C  
BRANCH  16  17
HETATM   17  C   UNL     1     -11.644  15.580  68.692  1.00  0.00    -0.368 C  
HETATM   18  O   UNL     1     -12.306  14.350  68.997  1.00  0.00    -0.242 OA 
HETATM   19  C   UNL     1     -12.508  14.331  70.410  1.00  0.00    -0.362 C  
HETATM   20  H   UNL     1     -10.111  17.539  70.803  1.00  0.00     0.000 HD 
HETATM   21  C   UNL     1     -11.376  15.170  71.039  1.00  0.00    -0.316 C  
HETATM   22  H   UNL     1     -11.149  16.606  72.426  1.00  0.00     0.000 HD 
HETATM   23  C   UNL     1     -10.744  15.916  69.867  1.00  0.00    -0.334 C  
HETATM   24  O   UNL     1     -11.846  16.089  72.038  1.00  0.00    -0.455 OA 
HETATM   25  O   UNL     1     -10.675  17.328  70.067  1.00  0.00     0.035 OA 
BRANCH  19  26
HETATM   26  N   UNL     1     -12.595  12.951  70.896  1.00  0.00    -0.320 N  
HETATM   27  C   UNL     1     -11.947  11.923  70.251  1.00  0.00    -0.330 C  
HETATM   28  C   UNL     1     -12.112  10.661  70.630  1.00  0.00    -0.461 C  
HETATM   29  C   UNL     1     -13.029  10.446  71.764  1.00  0.00    -0.475 C  
HETATM   30  N   UNL     1     -13.644  11.407  72.382  1.00  0.00    -0.398 N  
HETATM   31  N   UNL     1     -13.272   9.170  72.195  1.00  0.00    -0.423 NA 
HETATM   32  H   UNL     1     -14.258  11.200  73.169  1.00  0.00     0.000 HD 
HETATM   33  C   UNL     1     -13.461  12.709  71.968  1.00  0.00    -0.418 C  
HETATM   34  H1  UNL     1     -13.907   9.021  72.978  1.00  0.00     0.000 HD 
HETATM   35  H2  UNL     1     -12.823   8.377  71.737  1.00  0.00     0.000 HD 
HETATM   36  O   UNL     1     -14.048  13.640  72.526  1.00  0.00    -0.712 OA 
ENDBRANCH  19  26
ENDBRANCH  16  17
ENDBRANCH  15  16
ENDBRANCH  12  15
ENDBRANCH  11  12
ENDBRANCH   8  11
ENDBRANCH   7   8
ENDBRANCH   6   7
ENDBRANCH   5   6
ENDBRANCH   2   5
TORSDOF 10
ENDMDL
MODEL       76
REMARK 921   NORMALIZED FREE ENERGY PREDICTED BY IDOCK:   -5.61 KCAL/MOL
REMARK 922        TOTAL FREE ENERGY PREDICTED BY IDOCK:   -9.83 KCAL/MOL
REMARK 923 INTER-LIGAND FREE ENERGY PREDICTED BY IDOCK:   -8.39 KCAL/MOL
REMARK 924 INTRA-LIGAND FREE ENERGY PREDICTED BY IDOCK:   -1.44 KCAL/MOL
REMARK 927      BINDING AFFINITY PREDICTED BY RF-SCORE:    0.00 PKD
ROOT
HETATM    1  C   UNL     1     -11.590   6.632  70.500  1.00  0.00    -0.390 C  
HETATM    2  N   UNL     1     -10.875   7.654  71.357  1.00  0.00    -0.224 N  
HETATM    3  C   UNL     1     -11.697   7.980  72.592  1.00  0.00    -0.358 C  
HETATM    4  C   UNL     1      -9.531   7.064  71.818  1.00  0.00    -0.152 C  
ENDROOT
BRANCH   2   5
HETATM    5  C   UNL     1     -10.651   8.919  70.491  1.00  0.00    -0.220 C  
BRANCH   5   6
HETATM    6  C   UNL     1      -9.213   9.402  70.431  1.00  0.00    -0.257 C  
BRANCH   6   7
HETATM    7  O   UNL     1      -8.780   9.419  69.085  1.00  0.00    -0.132 OA 
BRANCH   7   8
HETATM    8  P   UNL     1      -7.418  10.473  68.918  1.00  0.00    -0.124 P  
HETATM    9  O   UNL     1      -6.805   9.460  67.958  1.00  0.00    -0.072 OA 
HETATM   10  O   UNL     1      -7.183  10.329  70.426  1.00  0.00    -0.257 OA 
BRANCH   8  11
HETATM   11  O   UNL     1      -6.056  11.528  68.750  1.00  0.00    -0.047 OA 
BRANCH  11  12
HETATM   12  P   UNL     1      -6.550  12.984  67.959  1.00  0.00    -0.155 P  
HETATM   13  O   UNL     1      -6.108  12.310  66.522  1.00  0.00    -0.069 OA 
HETATM   14  O   UNL     1      -8.016  12.528  68.119  1.00  0.00    -0.139 OA 
BRANCH  12  15
HETATM   15  O   UNL     1      -7.043  14.441  67.166  1.00  0.00    -0.150 OA 
BRANCH  15  16
HETATM   16  C   UNL     1      -7.517  15.489  68.033  1.00  0.00    -0.127 C  
BRANCH  16  17
HETATM   17  C   UNL     1      -8.992  15.809  67.846  1.00  0.00    -0.180 C  
HETATM   18  O   UNL     1      -9.444  15.309  66.585  1.00  0.00    -0.229 OA 
HETATM   19  C   UNL     1     -10.861  15.164  66.683  1.00  0.00    -0.318 C  
HETATM   20  H   UNL     1     -10.656  15.798  70.652  1.00  0.00     0.000 HD 
HETATM   21  C   UNL     1     -11.184  14.893  68.168  1.00  0.00    -0.299 C  
HETATM   22  H   UNL     1     -12.481  15.513  69.571  1.00  0.00     0.000 HD 
HETATM   23  C   UNL     1      -9.897  15.229  68.916  1.00  0.00    -0.221 C  
HETATM   24  O   UNL     1     -12.282  15.680  68.657  1.00  0.00    -0.180 OA 
HETATM   25  O   UNL     1     -10.089  16.161  69.981  1.00  0.00    -0.172 OA 
BRANCH  19  26
HETATM   26  N   UNL     1     -11.337  14.137  65.753  1.00  0.00    -0.312 N  
HETATM   27  C   UNL     1     -11.257  12.799  66.061  1.00  0.00    -0.299 C  
HETATM   28  C   UNL     1     -11.590  11.868  65.175  1.00  0.00    -0.278 C  
HETATM   29  C   UNL     1     -12.032  12.363  63.859  1.00  0.00    -0.486 C  
HETATM   30  N   UNL     1     -12.114  13.622  63.556  1.00  0.00    -0.866 N  
HETATM   31  N   UNL     1     -12.366  11.463  62.883  1.00  0.00    -0.834 NA 
HETATM   32  H   UNL     1     -12.438  13.907  62.633  1.00  0.00     0.000 HD 
HETATM   33  C   UNL     1     -11.759  14.571  64.490  1.00  0.00    -0.410 C  
HETATM   34  H1  UNL     1     -12.671  11.805  61.973  1.00  0.00     0.000 HD 
HETATM   35  H2  UNL     1     -12.309  10.461  63.065  1.00  0.00     0.000 HD 
HETATM   36  O   UNL     1     -11.809  15.774  64.223  1.00  0.00    -0.433 OA 
ENDBRANCH  19  26
ENDBRANCH  16  17
ENDBRANCH  15  16
ENDBRANCH  12  15
ENDBRANCH  11  12
ENDBRANCH   8  11
ENDBRANCH   7   8
ENDBRANCH   6   7
ENDBRANCH   5   6
ENDBRANCH   2   5
TORSDOF 10
ENDMDL
MODEL       77
REMARK 921   NORMALIZED FREE ENERGY PREDICTED BY IDOCK:   -5.56 KCAL/MOL
REMARK 922        TOTAL FREE ENERGY PREDICTED BY IDOCK:   -9.74 KCAL/MOL
REMARK 923 INTER-LIGAND FREE ENERGY PREDICTED BY IDOCK:   -9.04 KCAL/MOL
REMARK 924 INTRA-LIGAND FREE ENERGY PREDICTED BY IDOCK:   -0.70 KCAL/MOL
REMARK 927      BINDING AFFINITY PREDICTED BY RF-SCORE:    0.00 PKD
ROOT
HETATM    1  C   UNL     1     -10.041  11.146  63.345  1.00  0.00    -0.390 C  
HETATM    2  N   UNL     1     -10.952  11.959  64.239  1.00  0.00    -0.329 N  
HETATM    3  C   UNL     1     -10.447  13.387  64.352  1.00  0.00    -0.384 C  
HETATM    4  C   UNL     1     -12.357  11.996  63.616  1.00  0.00    -0.539 C  
ENDROOT
BRANCH   2   5
HETATM    5  C   UNL     1     -10.984  11.272  65.627  1.00  0.00    -0.134 C  
BRANCH   5   6
HETATM    6  C   UNL     1      -9.806  10.357  65.911  1.00  0.00    -0.235 C  
BRANCH   6   7
HETATM    7  O   UNL     1     -10.277   9.046  66.149  1.00  0.00    -0.267 OA 
BRANCH   7   8
HETATM    8  P   UNL     1     -10.116   8.657  67.827  1.00  0.00    -0.238 P  
HETATM    9  O   UNL     1      -8.604   8.728  67.655  1.00  0.00    -0.126 OA 
HETATM   10  O   UNL     1     -10.852   7.342  67.543  1.00  0.00    -0.242 OA 
BRANCH   8  11
HETATM   11  O   UNL     1      -9.956   8.269  69.506  1.00  0.00    -0.179 OA 
BRANCH  11  12
HETATM   12  P   UNL     1     -10.987   9.299  70.436  1.00  0.00    -0.280 P  
HETATM   13  O   UNL     1      -9.716   9.606  71.437  1.00  0.00    -0.130 OA 
HETATM   14  O   UNL     1     -10.834  10.376  69.342  1.00  0.00    -0.215 OA 
BRANCH  12  15
HETATM   15  O   UNL     1     -12.019  10.330  71.368  1.00  0.00    -0.368 OA 
BRANCH  15  16
HETATM   16  C   UNL     1     -12.694  11.366  70.627  1.00  0.00    -0.195 C  
BRANCH  16  17
HETATM   17  C   UNL     1     -12.388  12.767  71.132  1.00  0.00    -0.149 C  
HETATM   18  O   UNL     1     -11.416  13.389  70.287  1.00  0.00    -0.104 OA 
HETATM   19  C   UNL     1     -11.554  14.799  70.469  1.00  0.00    -0.279 C  
HETATM   20  H   UNL     1     -14.969  14.207  72.514  1.00  0.00     0.000 HD 
HETATM   21  C   UNL     1     -13.026  15.062  70.852  1.00  0.00    -0.405 C  
HETATM   22  H   UNL     1     -14.071  16.124  72.200  1.00  0.00     0.000 HD 
HETATM   23  C   UNL     1     -13.594  13.686  71.191  1.00  0.00     0.034 C  
HETATM   24  O   UNL     1     -13.165  15.962  71.964  1.00  0.00    -0.449 OA 
HETATM   25  O   UNL     1     -14.213  13.632  72.476  1.00  0.00    -0.724 OA 
BRANCH  19  26
HETATM   26  N   UNL     1     -11.091  15.516  69.279  1.00  0.00    -0.264 N  
HETATM   27  C   UNL     1     -10.442  16.725  69.378  1.00  0.00    -0.312 C  
HETATM   28  C   UNL     1     -10.117  17.423  68.296  1.00  0.00    -0.339 C  
HETATM   29  C   UNL     1     -10.505  16.825  67.006  1.00  0.00    -0.285 C  
HETATM   30  N   UNL     1     -11.115  15.685  66.899  1.00  0.00    -0.242 N  
HETATM   31  N   UNL     1     -10.230  17.498  65.847  1.00  0.00    -0.564 NA 
HETATM   32  H   UNL     1     -11.348  15.313  65.979  1.00  0.00     0.000 HD 
HETATM   33  C   UNL     1     -11.446  14.980  68.035  1.00  0.00    -0.342 C  
HETATM   34  H1  UNL     1     -10.498  17.084  64.955  1.00  0.00     0.000 HD 
HETATM   35  H2  UNL     1      -9.761  18.403  65.875  1.00  0.00     0.000 HD 
HETATM   36  O   UNL     1     -12.043  13.903  67.963  1.00  0.00    -0.367 OA 
ENDBRANCH  19  26
ENDBRANCH  16  17
ENDBRANCH  15  16
ENDBRANCH  12  15
ENDBRANCH  11  12
ENDBRANCH   8  11
ENDBRANCH   7   8
ENDBRANCH   6   7
ENDBRANCH   5   6
ENDBRANCH   2   5
TORSDOF 10
ENDMDL
MODEL       78
REMARK 921   NORMALIZED FREE ENERGY PREDICTED BY IDOCK:   -5.56 KCAL/MOL
REMARK 922        TOTAL FREE ENERGY PREDICTED BY IDOCK:   -9.74 KCAL/MOL
REMARK 923 INTER-LIGAND FREE ENERGY PREDICTED BY IDOCK:   -8.83 KCAL/MOL
REMARK 924 INTRA-LIGAND FREE ENERGY PREDICTED BY IDOCK:   -0.91 KCAL/MOL
REMARK 927      BINDING AFFINITY PREDICTED BY RF-SCORE:    0.00 PKD
ROOT
HETATM    1  C   UNL     1      -7.308   3.018  69.778  1.00  0.00    -0.044 C  
HETATM    2  N   UNL     1      -8.456   3.959  70.078  1.00  0.00    -0.063 N  
HETATM    3  C   UNL     1      -9.025   4.528  68.790  1.00  0.00    -0.111 C  
HETATM    4  C   UNL     1      -9.570   3.172  70.788  1.00  0.00    -0.149 C  
ENDROOT
BRANCH   2   5
HETATM    5  C   UNL     1      -7.912   5.086  70.990  1.00  0.00    -0.093 C  
BRANCH   5   6
HETATM    6  C   UNL     1      -8.543   5.148  72.370  1.00  0.00    -0.125 C  
BRANCH   6   7
HETATM    7  O   UNL     1      -8.522   6.483  72.836  1.00  0.00    -0.120 OA 
BRANCH   7   8
HETATM    8  P   UNL     1     -10.135   7.099  72.932  1.00  0.00    -0.266 P  
HETATM    9  O   UNL     1      -9.580   8.483  72.617  1.00  0.00    -0.280 OA 
HETATM   10  O   UNL     1     -10.183   6.613  74.385  1.00  0.00    -0.360 OA 
BRANCH   8  11
HETATM   11  O   UNL     1     -11.749   7.716  73.026  1.00  0.00    -0.238 OA 
BRANCH  11  12
HETATM   12  P   UNL     1     -11.926   9.039  71.928  1.00  0.00    -0.354 P  
HETATM   13  O   UNL     1     -12.154   7.952  70.712  1.00  0.00    -0.220 OA 
HETATM   14  O   UNL     1     -13.354   9.252  72.474  1.00  0.00    -0.457 OA 
BRANCH  12  15
HETATM   15  O   UNL     1     -12.102  10.363  70.828  1.00  0.00    -0.304 OA 
BRANCH  15  16
HETATM   16  C   UNL     1     -13.025  11.392  71.237  1.00  0.00    -0.316 C  
BRANCH  16  17
HETATM   17  C   UNL     1     -12.404  12.779  71.283  1.00  0.00    -0.059 C  
HETATM   18  O   UNL     1     -11.681  13.031  70.076  1.00  0.00    -0.289 OA 
HETATM   19  C   UNL     1     -11.578  14.449  69.946  1.00  0.00    -0.284 C  
HETATM   20  H   UNL     1     -14.215  14.922  72.949  1.00  0.00     0.000 HD 
HETATM   21  C   UNL     1     -12.808  15.057  70.653  1.00  0.00    -0.363 C  
HETATM   22  H   UNL     1     -13.232  16.536  71.945  1.00  0.00     0.000 HD 
HETATM   23  C   UNL     1     -13.405  13.905  71.457  1.00  0.00    -0.335 C  
HETATM   24  O   UNL     1     -12.475  16.162  71.509  1.00  0.00    -0.412 OA 
HETATM   25  O   UNL     1     -13.587  14.216  72.839  1.00  0.00    -0.651 OA 
BRANCH  19  26
HETATM   26  N   UNL     1     -11.430  14.825  68.537  1.00  0.00    -0.293 N  
HETATM   27  C   UNL     1     -12.007  14.081  67.534  1.00  0.00    -0.395 C  
HETATM   28  C   UNL     1     -11.785  14.362  66.255  1.00  0.00    -0.394 C  
HETATM   29  C   UNL     1     -10.884  15.499  65.994  1.00  0.00    -0.300 C  
HETATM   30  N   UNL     1     -10.336  16.210  66.932  1.00  0.00    -0.293 N  
HETATM   31  N   UNL     1     -10.584  15.833  64.702  1.00  0.00    -0.722 NA 
HETATM   32  H   UNL     1      -9.731  16.994  66.693  1.00  0.00     0.000 HD 
HETATM   33  C   UNL     1     -10.577  15.898  68.252  1.00  0.00    -0.276 C  
HETATM   34  H1  UNL     1      -9.961  16.619  64.521  1.00  0.00     0.000 HD 
HETATM   35  H2  UNL     1     -10.980  15.300  63.927  1.00  0.00     0.000 HD 
HETATM   36  O   UNL     1     -10.055  16.545  69.163  1.00  0.00    -0.262 OA 
ENDBRANCH  19  26
ENDBRANCH  16  17
ENDBRANCH  15  16
ENDBRANCH  12  15
ENDBRANCH  11  12
ENDBRANCH   8  11
ENDBRANCH   7   8
ENDBRANCH   6   7
ENDBRANCH   5   6
ENDBRANCH   2   5
TORSDOF 10
ENDMDL
MODEL       79
REMARK 921   NORMALIZED FREE ENERGY PREDICTED BY IDOCK:   -5.55 KCAL/MOL
REMARK 922        TOTAL FREE ENERGY PREDICTED BY IDOCK:   -9.73 KCAL/MOL
REMARK 923 INTER-LIGAND FREE ENERGY PREDICTED BY IDOCK:   -8.18 KCAL/MOL
REMARK 924 INTRA-LIGAND FREE ENERGY PREDICTED BY IDOCK:   -1.55 KCAL/MOL
REMARK 927      BINDING AFFINITY PREDICTED BY RF-SCORE:    0.00 PKD
ROOT
HETATM    1  C   UNL     1      -5.787   8.659  70.914  1.00  0.00    -0.034 C  
HETATM    2  N   UNL     1      -6.849   9.041  69.906  1.00  0.00    -0.045 N  
HETATM    3  C   UNL     1      -8.171   9.310  70.605  1.00  0.00    -0.190 C  
HETATM    4  C   UNL     1      -6.414  10.331  69.190  1.00  0.00    -0.050 C  
ENDROOT
BRANCH   2   5
HETATM    5  C   UNL     1      -6.983   7.872  68.898  1.00  0.00    -0.066 C  
BRANCH   5   6
HETATM    6  C   UNL     1      -7.313   8.291  67.477  1.00  0.00    -0.093 C  
BRANCH   6   7
HETATM    7  O   UNL     1      -8.650   7.940  67.182  1.00  0.00    -0.125 OA 
BRANCH   7   8
HETATM    8  P   UNL     1      -9.403   9.201  66.269  1.00  0.00    -0.255 P  
HETATM    9  O   UNL     1     -10.738   8.787  66.876  1.00  0.00    -0.240 OA 
HETATM   10  O   UNL     1      -8.902   8.512  64.995  1.00  0.00    -0.144 OA 
BRANCH   8  11
HETATM   11  O   UNL     1     -10.156  10.464  65.355  1.00  0.00    -0.277 OA 
BRANCH  11  12
HETATM   12  P   UNL     1      -9.924  11.975  66.162  1.00  0.00    -0.240 P  
HETATM   13  O   UNL     1      -8.303  11.678  66.174  1.00  0.00    -0.099 OA 
HETATM   14  O   UNL     1     -10.135  12.686  64.809  1.00  0.00    -0.275 OA 
BRANCH  12  15
HETATM   15  O   UNL     1      -9.690  13.488  66.969  1.00  0.00    -0.236 OA 
BRANCH  15  16
HETATM   16  C   UNL     1     -10.729  14.466  66.768  1.00  0.00    -0.292 C  
BRANCH  16  17
HETATM   17  C   UNL     1     -11.428  14.879  68.054  1.00  0.00    -0.337 C  
HETATM   18  O   UNL     1     -12.162  13.774  68.587  1.00  0.00    -0.347 OA 
HETATM   19  C   UNL     1     -12.345  14.035  69.979  1.00  0.00    -0.337 C  
HETATM   20  H   UNL     1      -9.748  17.100  69.752  1.00  0.00     0.000 HD 
HETATM   21  C   UNL     1     -11.154  14.904  70.435  1.00  0.00    -0.174 C  
HETATM   22  H   UNL     1     -10.819  16.559  71.524  1.00  0.00     0.000 HD 
HETATM   23  C   UNL     1     -10.494  15.373  69.142  1.00  0.00    -0.239 C  
HETATM   24  O   UNL     1     -11.552  16.024  71.244  1.00  0.00    -0.408 OA 
HETATM   25  O   UNL     1     -10.333  16.791  69.071  1.00  0.00    -0.287 OA 
BRANCH  19  26
HETATM   26  N   UNL     1     -12.510  12.781  70.718  1.00  0.00    -0.322 N  
HETATM   27  C   UNL     1     -11.908  11.618  70.298  1.00  0.00    -0.326 C  
HETATM   28  C   UNL     1     -12.144  10.462  70.907  1.00  0.00    -0.477 C  
HETATM   29  C   UNL     1     -13.088  10.513  72.038  1.00  0.00    -0.406 C  
HETATM   30  N   UNL     1     -13.661  11.604  72.445  1.00  0.00    -0.427 N  
HETATM   31  N   UNL     1     -13.404   9.357  72.699  1.00  0.00    -0.603 NA 
HETATM   32  H   UNL     1     -14.296  11.582  73.242  1.00  0.00     0.000 HD 
HETATM   33  C   UNL     1     -13.405  12.791  71.795  1.00  0.00    -0.342 C  
HETATM   34  H1  UNL     1     -14.057   9.392  73.481  1.00  0.00     0.000 HD 
HETATM   35  H2  UNL     1     -12.990   8.470  72.412  1.00  0.00     0.000 HD 
HETATM   36  O   UNL     1     -13.950  13.839  72.150  1.00  0.00    -0.489 OA 
ENDBRANCH  19  26
ENDBRANCH  16  17
ENDBRANCH  15  16
ENDBRANCH  12  15
ENDBRANCH  11  12
ENDBRANCH   8  11
ENDBRANCH   7   8
ENDBRANCH   6   7
ENDBRANCH   5   6
ENDBRANCH   2   5
TORSDOF 10
ENDMDL
MODEL       80
REMARK 921   NORMALIZED FREE ENERGY PREDICTED BY IDOCK:   -5.55 KCAL/MOL
REMARK 922        TOTAL FREE ENERGY PREDICTED BY IDOCK:   -9.72 KCAL/MOL
REMARK 923 INTER-LIGAND FREE ENERGY PREDICTED BY IDOCK:   -9.00 KCAL/MOL
REMARK 924 INTRA-LIGAND FREE ENERGY PREDICTED BY IDOCK:   -0.72 KCAL/MOL
REMARK 927      BINDING AFFINITY PREDICTED BY RF-SCORE:    0.00 PKD
ROOT
HETATM    1  C   UNL     1      -6.595   5.057  66.607  1.00  0.00    -0.046 C  
HETATM    2  N   UNL     1      -7.850   5.902  66.557  1.00  0.00    -0.100 N  
HETATM    3  C   UNL     1      -7.614   7.242  67.230  1.00  0.00    -0.104 C  
HETATM    4  C   UNL     1      -8.215   6.162  65.085  1.00  0.00    -0.141 C  
ENDROOT
BRANCH   2   5
HETATM    5  C   UNL     1      -8.977   5.113  67.271  1.00  0.00    -0.112 C  
BRANCH   5   6
HETATM    6  C   UNL     1      -8.781   4.939  68.766  1.00  0.00    -0.093 C  
BRANCH   6   7
HETATM    7  O   UNL     1      -9.987   4.484  69.347  1.00  0.00    -0.204 OA 
BRANCH   7   8
HETATM    8  P   UNL     1     -10.321   5.380  70.789  1.00  0.00    -0.216 P  
HETATM    9  O   UNL     1     -11.226   6.287  69.966  1.00  0.00    -0.350 OA 
HETATM   10  O   UNL     1      -8.822   5.688  70.886  1.00  0.00    -0.136 OA 
BRANCH   8  11
HETATM   11  O   UNL     1     -10.654   6.275  72.232  1.00  0.00    -0.202 OA 
BRANCH  11  12
HETATM   12  P   UNL     1     -10.762   7.959  71.854  1.00  0.00    -0.272 P  
HETATM   13  O   UNL     1     -12.243   7.988  72.575  1.00  0.00    -0.318 OA 
HETATM   14  O   UNL     1      -9.800   8.245  73.026  1.00  0.00    -0.266 OA 
BRANCH  12  15
HETATM   15  O   UNL     1     -10.872   9.644  71.475  1.00  0.00    -0.329 OA 
BRANCH  15  16
HETATM   16  C   UNL     1     -10.584   9.993  70.107  1.00  0.00    -0.296 C  
BRANCH  16  17
HETATM   17  C   UNL     1     -11.469  11.105  69.567  1.00  0.00    -0.303 C  
HETATM   18  O   UNL     1     -12.088  11.805  70.649  1.00  0.00    -0.368 OA 
HETATM   19  C   UNL     1     -12.455  13.092  70.150  1.00  0.00    -0.122 C  
HETATM   20  H   UNL     1     -10.318  12.412  66.808  1.00  0.00     0.000 HD 
HETATM   21  C   UNL     1     -11.457  13.440  69.025  1.00  0.00    -0.301 C  
HETATM   22  H   UNL     1     -11.482  14.174  67.155  1.00  0.00     0.000 HD 
HETATM   23  C   UNL     1     -10.737  12.129  68.721  1.00  0.00    -0.219 C  
HETATM   24  O   UNL     1     -12.096  13.960  67.848  1.00  0.00    -0.366 OA 
HETATM   25  O   UNL     1     -10.776  11.771  67.339  1.00  0.00    -0.218 OA 
BRANCH  19  26
HETATM   26  N   UNL     1     -12.515  14.066  71.242  1.00  0.00    -0.358 N  
HETATM   27  C   UNL     1     -11.749  15.209  71.226  1.00  0.00    -0.359 C  
HETATM   28  C   UNL     1     -11.727  16.037  72.264  1.00  0.00    -0.581 C  
HETATM   29  C   UNL     1     -12.557  15.644  73.417  1.00  0.00    -0.533 C  
HETATM   30  N   UNL     1     -13.285  14.571  73.443  1.00  0.00    -0.258 N  
HETATM   31  N   UNL     1     -12.564  16.432  74.536  1.00  0.00    -0.915 NA 
HETATM   32  H   UNL     1     -13.851  14.355  74.264  1.00  0.00     0.000 HD 
HETATM   33  C   UNL     1     -13.291  13.724  72.356  1.00  0.00    -0.535 C  
HETATM   34  H1  UNL     1     -13.138  16.160  75.333  1.00  0.00     0.000 HD 
HETATM   35  H2  UNL     1     -12.001  17.282  74.571  1.00  0.00     0.000 HD 
HETATM   36  O   UNL     1     -13.959  12.687  72.363  1.00  0.00    -0.380 OA 
ENDBRANCH  19  26
ENDBRANCH  16  17
ENDBRANCH  15  16
ENDBRANCH  12  15
ENDBRANCH  11  12
ENDBRANCH   8  11
ENDBRANCH   7   8
ENDBRANCH   6   7
ENDBRANCH   5   6
ENDBRANCH   2   5
TORSDOF 10
ENDMDL
MODEL       81
REMARK 921   NORMALIZED FREE ENERGY PREDICTED BY IDOCK:   -5.51 KCAL/MOL
REMARK 922        TOTAL FREE ENERGY PREDICTED BY IDOCK:   -9.66 KCAL/MOL
REMARK 923 INTER-LIGAND FREE ENERGY PREDICTED BY IDOCK:   -8.51 KCAL/MOL
REMARK 924 INTRA-LIGAND FREE ENERGY PREDICTED BY IDOCK:   -1.16 KCAL/MOL
REMARK 927      BINDING AFFINITY PREDICTED BY RF-SCORE:    0.00 PKD
ROOT
HETATM    1  C   UNL     1      -7.375  18.446  65.994  1.00  0.00    -0.238 C  
HETATM    2  N   UNL     1      -7.747  19.076  67.319  1.00  0.00    -0.236 N  
HETATM    3  C   UNL     1      -6.860  18.540  68.430  1.00  0.00    -0.252 C  
HETATM    4  C   UNL     1      -7.530  20.596  67.225  1.00  0.00    -0.347 C  
ENDROOT
BRANCH   2   5
HETATM    5  C   UNL     1      -9.236  18.750  67.593  1.00  0.00    -0.285 C  
BRANCH   5   6
HETATM    6  C   UNL     1      -9.820  17.658  66.714  1.00  0.00    -0.304 C  
BRANCH   6   7
HETATM    7  O   UNL     1      -9.673  16.408  67.359  1.00  0.00    -0.233 OA 
BRANCH   7   8
HETATM    8  P   UNL     1     -10.603  16.385  68.817  1.00  0.00    -0.355 P  
HETATM    9  O   UNL     1      -9.452  15.647  69.489  1.00  0.00    -0.265 OA 
HETATM   10  O   UNL     1     -11.676  15.591  68.063  1.00  0.00    -0.322 OA 
BRANCH   8  11
HETATM   11  O   UNL     1     -11.533  16.362  70.276  1.00  0.00    -0.296 OA 
BRANCH  11  12
HETATM   12  P   UNL     1     -12.402  14.871  70.382  1.00  0.00    -0.360 P  
HETATM   13  O   UNL     1     -11.661  14.584  71.825  1.00  0.00    -0.256 OA 
HETATM   14  O   UNL     1     -13.655  15.674  70.790  1.00  0.00    -0.524 OA 
BRANCH  12  15
HETATM   15  O   UNL     1     -13.270  13.378  70.490  1.00  0.00     0.100 OA 
BRANCH  15  16
HETATM   16  C   UNL     1     -12.630  12.341  71.260  1.00  0.00    -0.234 C  
BRANCH  16  17
HETATM   17  C   UNL     1     -12.310  11.095  70.449  1.00  0.00    -0.344 C  
HETATM   18  O   UNL     1     -12.265  11.417  69.056  1.00  0.00    -0.405 OA 
HETATM   19  C   UNL     1     -11.481  10.404  68.425  1.00  0.00    -0.155 C  
HETATM   20  H   UNL     1     -10.346   9.026  72.031  1.00  0.00     0.000 HD 
HETATM   21  C   UNL     1     -10.481   9.885  69.480  1.00  0.00    -0.241 C  
HETATM   22  H   UNL     1      -9.784   8.132  70.170  1.00  0.00     0.000 HD 
HETATM   23  C   UNL     1     -10.989  10.440  70.808  1.00  0.00    -0.014 C  
HETATM   24  O   UNL     1     -10.400   8.451  69.521  1.00  0.00    -0.210 OA 
HETATM   25  O   UNL     1     -11.173   9.436  71.806  1.00  0.00    -0.376 OA 
BRANCH  19  26
HETATM   26  N   UNL     1     -10.869  10.920  67.198  1.00  0.00    -0.274 N  
HETATM   27  C   UNL     1     -10.843  12.268  66.923  1.00  0.00    -0.251 C  
HETATM   28  C   UNL     1     -10.383  12.725  65.765  1.00  0.00    -0.297 C  
HETATM   29  C   UNL     1      -9.922  11.703  64.808  1.00  0.00    -0.254 C  
HETATM   30  N   UNL     1      -9.939  10.429  65.056  1.00  0.00    -0.315 N  
HETATM   31  N   UNL     1      -9.461  12.094  63.581  1.00  0.00    -0.615 NA 
HETATM   32  H   UNL     1      -9.595   9.767  64.362  1.00  0.00     0.000 HD 
HETATM   33  C   UNL     1     -10.424   9.977  66.264  1.00  0.00    -0.102 C  
HETATM   34  H1  UNL     1      -9.142  11.387  62.920  1.00  0.00     0.000 HD 
HETATM   35  H2  UNL     1      -9.436  13.083  63.331  1.00  0.00     0.000 HD 
HETATM   36  O   UNL     1     -10.469   8.771  66.518  1.00  0.00    -0.242 OA 
ENDBRANCH  19  26
ENDBRANCH  16  17
ENDBRANCH  15  16
ENDBRANCH  12  15
ENDBRANCH  11  12
ENDBRANCH   8  11
ENDBRANCH   7   8
ENDBRANCH   6   7
ENDBRANCH   5   6
ENDBRANCH   2   5
TORSDOF 10
ENDMDL
MODEL       82
REMARK 921   NORMALIZED FREE ENERGY PREDICTED BY IDOCK:   -5.51 KCAL/MOL
REMARK 922        TOTAL FREE ENERGY PREDICTED BY IDOCK:   -9.66 KCAL/MOL
REMARK 923 INTER-LIGAND FREE ENERGY PREDICTED BY IDOCK:   -8.57 KCAL/MOL
REMARK 924 INTRA-LIGAND FREE ENERGY PREDICTED BY IDOCK:   -1.09 KCAL/MOL
REMARK 927      BINDING AFFINITY PREDICTED BY RF-SCORE:    0.00 PKD
ROOT
HETATM    1  C   UNL     1      -7.679   4.229  71.671  1.00  0.00    -0.074 C  
HETATM    2  N   UNL     1      -8.925   5.084  71.756  1.00  0.00    -0.132 N  
HETATM    3  C   UNL     1      -9.844   4.801  70.580  1.00  0.00    -0.230 C  
HETATM    4  C   UNL     1      -9.681   4.732  73.049  1.00  0.00    -0.140 C  
ENDROOT
BRANCH   2   5
HETATM    5  C   UNL     1      -8.478   6.566  71.767  1.00  0.00    -0.123 C  
BRANCH   5   6
HETATM    6  C   UNL     1      -9.167   7.431  72.807  1.00  0.00    -0.149 C  
BRANCH   6   7
HETATM    7  O   UNL     1      -9.219   8.767  72.347  1.00  0.00    -0.361 OA 
BRANCH   7   8
HETATM    8  P   UNL     1     -10.105   8.845  70.862  1.00  0.00    -0.291 P  
HETATM    9  O   UNL     1      -8.986   9.706  70.289  1.00  0.00    -0.231 OA 
HETATM   10  O   UNL     1     -11.251   9.506  71.637  1.00  0.00    -0.378 OA 
BRANCH   8  11
HETATM   11  O   UNL     1     -10.990   8.921  69.377  1.00  0.00    -0.173 OA 
BRANCH  11  12
HETATM   12  P   UNL     1     -10.634  10.409  68.571  1.00  0.00    -0.244 P  
HETATM   13  O   UNL     1     -10.420   9.559  67.176  1.00  0.00    -0.254 OA 
HETATM   14  O   UNL     1     -12.145  10.720  68.559  1.00  0.00    -0.493 OA 
BRANCH  12  15
HETATM   15  O   UNL     1     -10.277  11.897  67.763  1.00  0.00    -0.193 OA 
BRANCH  15  16
HETATM   16  C   UNL     1     -11.252  12.945  67.932  1.00  0.00    -0.269 C  
BRANCH  16  17
HETATM   17  C   UNL     1     -10.859  13.973  68.982  1.00  0.00    -0.243 C  
HETATM   18  O   UNL     1     -10.045  14.988  68.390  1.00  0.00    -0.216 OA 
HETATM   19  C   UNL     1     -10.145  16.138  69.231  1.00  0.00    -0.260 C  
HETATM   20  H   UNL     1     -13.160  14.404  71.254  1.00  0.00     0.000 HD 
HETATM   21  C   UNL     1     -11.528  16.079  69.913  1.00  0.00    -0.326 C  
HETATM   22  H   UNL     1     -12.323  16.312  71.743  1.00  0.00     0.000 HD 
HETATM   23  C   UNL     1     -12.034  14.663  69.649  1.00  0.00    -0.323 C  
HETATM   24  O   UNL     1     -11.471  16.348  71.323  1.00  0.00    -0.396 OA 
HETATM   25  O   UNL     1     -12.424  13.972  70.836  1.00  0.00    -0.326 OA 
BRANCH  19  26
HETATM   26  N   UNL     1      -9.890  17.358  68.462  1.00  0.00    -0.303 N  
HETATM   27  C   UNL     1     -10.902  18.007  67.792  1.00  0.00    -0.228 C  
HETATM   28  C   UNL     1     -10.651  19.051  67.011  1.00  0.00    -0.543 C  
HETATM   29  C   UNL     1      -9.235  19.449  66.906  1.00  0.00    -0.322 C  
HETATM   30  N   UNL     1      -8.273  18.847  67.534  1.00  0.00    -0.266 N  
HETATM   31  N   UNL     1      -8.893  20.499  66.097  1.00  0.00    -0.545 NA 
HETATM   32  H   UNL     1      -7.312  19.175  67.434  1.00  0.00     0.000 HD 
HETATM   33  C   UNL     1      -8.556  17.763  68.337  1.00  0.00    -0.292 C  
HETATM   34  H1  UNL     1      -7.915  20.774  66.025  1.00  0.00     0.000 HD 
HETATM   35  H2  UNL     1      -9.610  21.000  65.573  1.00  0.00     0.000 HD 
HETATM   36  O   UNL     1      -7.657  17.161  68.930  1.00  0.00    -0.247 OA 
ENDBRANCH  19  26
ENDBRANCH  16  17
ENDBRANCH  15  16
ENDBRANCH  12  15
ENDBRANCH  11  12
ENDBRANCH   8  11
ENDBRANCH   7   8
ENDBRANCH   6   7
ENDBRANCH   5   6
ENDBRANCH   2   5
TORSDOF 10
ENDMDL
MODEL       83
REMARK 921   NORMALIZED FREE ENERGY PREDICTED BY IDOCK:   -5.49 KCAL/MOL
REMARK 922        TOTAL FREE ENERGY PREDICTED BY IDOCK:   -9.64 KCAL/MOL
REMARK 923 INTER-LIGAND FREE ENERGY PREDICTED BY IDOCK:   -8.47 KCAL/MOL
REMARK 924 INTRA-LIGAND FREE ENERGY PREDICTED BY IDOCK:   -1.17 KCAL/MOL
REMARK 927      BINDING AFFINITY PREDICTED BY RF-SCORE:    0.00 PKD
ROOT
HETATM    1  C   UNL     1      -8.384  18.026  67.762  1.00  0.00    -0.249 C  
HETATM    2  N   UNL     1      -9.751  17.620  67.253  1.00  0.00    -0.277 N  
HETATM    3  C   UNL     1     -10.501  16.834  68.315  1.00  0.00    -0.341 C  
HETATM    4  C   UNL     1     -10.560  18.888  66.934  1.00  0.00    -0.421 C  
ENDROOT
BRANCH   2   5
HETATM    5  C   UNL     1      -9.542  16.766  65.977  1.00  0.00    -0.234 C  
BRANCH   5   6
HETATM    6  C   UNL     1      -9.539  15.266  66.209  1.00  0.00    -0.303 C  
BRANCH   6   7
HETATM    7  O   UNL     1     -10.325  14.636  65.217  1.00  0.00    -0.349 OA 
BRANCH   7   8
HETATM    8  P   UNL     1     -11.145  13.271  65.894  1.00  0.00    -0.293 P  
HETATM    9  O   UNL     1     -11.088  12.610  64.523  1.00  0.00    -0.298 OA 
HETATM   10  O   UNL     1     -12.311  14.205  66.238  1.00  0.00    -0.456 OA 
BRANCH   8  11
HETATM   11  O   UNL     1     -11.966  11.907  66.572  1.00  0.00    -0.588 OA 
BRANCH  11  12
HETATM   12  P   UNL     1     -11.096  11.341  67.956  1.00  0.00    -0.315 P  
HETATM   13  O   UNL     1     -12.535  11.140  68.732  1.00  0.00    -0.468 OA 
HETATM   14  O   UNL     1     -10.901   9.992  67.234  1.00  0.00    -0.270 OA 
BRANCH  12  15
HETATM   15  O   UNL     1     -10.228  10.776  69.342  1.00  0.00    -0.217 OA 
BRANCH  15  16
HETATM   16  C   UNL     1     -11.036  10.214  70.394  1.00  0.00    -0.319 C  
BRANCH  16  17
HETATM   17  C   UNL     1     -10.608   8.813  70.804  1.00  0.00    -0.220 C  
HETATM   18  O   UNL     1     -11.034   7.866  69.821  1.00  0.00    -0.233 OA 
HETATM   19  C   UNL     1     -10.196   6.718  69.967  1.00  0.00    -0.191 C  
HETATM   20  H   UNL     1      -7.789   8.780  72.445  1.00  0.00     0.000 HD 
HETATM   21  C   UNL     1      -8.845   7.214  70.522  1.00  0.00    -0.154 C  
HETATM   22  H   UNL     1      -7.522   6.716  71.950  1.00  0.00     0.000 HD 
HETATM   23  C   UNL     1      -9.111   8.645  70.980  1.00  0.00    -0.199 C  
HETATM   24  O   UNL     1      -8.354   6.410  71.608  1.00  0.00    -0.123 OA 
HETATM   25  O   UNL     1      -8.727   8.886  72.334  1.00  0.00    -0.400 OA 
BRANCH  19  26
HETATM   26  N   UNL     1     -10.110   5.984  68.702  1.00  0.00    -0.155 N  
HETATM   27  C   UNL     1     -10.293   6.615  67.494  1.00  0.00    -0.208 C  
HETATM   28  C   UNL     1     -10.319   5.930  66.356  1.00  0.00    -0.170 C  
HETATM   29  C   UNL     1     -10.152   4.471  66.482  1.00  0.00    -0.228 C  
HETATM   30  N   UNL     1      -9.977   3.864  67.615  1.00  0.00    -0.081 N  
HETATM   31  N   UNL     1     -10.196   3.693  65.357  1.00  0.00    -0.415 NA 
HETATM   32  H   UNL     1      -9.854   2.852  67.641  1.00  0.00     0.000 HD 
HETATM   33  C   UNL     1      -9.957   4.594  68.783  1.00  0.00    -0.083 C  
HETATM   34  H1  UNL     1     -10.081   2.684  65.444  1.00  0.00     0.000 HD 
HETATM   35  H2  UNL     1     -10.343   4.119  64.441  1.00  0.00     0.000 HD 
HETATM   36  O   UNL     1      -9.811   4.041  69.876  1.00  0.00    -0.209 OA 
ENDBRANCH  19  26
ENDBRANCH  16  17
ENDBRANCH  15  16
ENDBRANCH  12  15
ENDBRANCH  11  12
ENDBRANCH   8  11
ENDBRANCH   7   8
ENDBRANCH   6   7
ENDBRANCH   5   6
ENDBRANCH   2   5
TORSDOF 10
ENDMDL
MODEL       84
REMARK 921   NORMALIZED FREE ENERGY PREDICTED BY IDOCK:   -5.49 KCAL/MOL
REMARK 922        TOTAL FREE ENERGY PREDICTED BY IDOCK:   -9.63 KCAL/MOL
REMARK 923 INTER-LIGAND FREE ENERGY PREDICTED BY IDOCK:   -7.97 KCAL/MOL
REMARK 924 INTRA-LIGAND FREE ENERGY PREDICTED BY IDOCK:   -1.66 KCAL/MOL
REMARK 927      BINDING AFFINITY PREDICTED BY RF-SCORE:    0.00 PKD
ROOT
HETATM    1  C   UNL     1      -9.507  14.772  69.193  1.00  0.00    -0.113 C  
HETATM    2  N   UNL     1     -10.451  15.311  68.140  1.00  0.00    -0.242 N  
HETATM    3  C   UNL     1     -10.635  16.809  68.310  1.00  0.00    -0.352 C  
HETATM    4  C   UNL     1      -9.842  15.058  66.750  1.00  0.00    -0.243 C  
ENDROOT
BRANCH   2   5
HETATM    5  C   UNL     1     -11.800  14.566  68.293  1.00  0.00    -0.312 C  
BRANCH   5   6
HETATM    6  C   UNL     1     -11.851  13.571  69.439  1.00  0.00    -0.335 C  
BRANCH   6   7
HETATM    7  O   UNL     1     -12.107  12.279  68.927  1.00  0.00    -0.265 OA 
BRANCH   7   8
HETATM    8  P   UNL     1     -12.156  11.131  70.221  1.00  0.00    -0.385 P  
HETATM    9  O   UNL     1     -12.324  12.295  71.190  1.00  0.00    -0.305 OA 
HETATM   10  O   UNL     1     -10.749  10.682  69.810  1.00  0.00    -0.256 OA 
BRANCH   8  11
HETATM   11  O   UNL     1     -12.206   9.983  71.515  1.00  0.00    -0.373 OA 
BRANCH  11  12
HETATM   12  P   UNL     1     -11.554   8.476  70.973  1.00  0.00    -0.242 P  
HETATM   13  O   UNL     1     -10.614   8.439  72.326  1.00  0.00    -0.297 OA 
HETATM   14  O   UNL     1     -12.856   7.790  71.436  1.00  0.00    -0.328 OA 
BRANCH  12  15
HETATM   15  O   UNL     1     -10.900   6.968  70.432  1.00  0.00    -0.236 OA 
BRANCH  15  16
HETATM   16  C   UNL     1     -11.311   6.550  69.115  1.00  0.00    -0.261 C  
BRANCH  16  17
HETATM   17  C   UNL     1     -10.205   6.649  68.076  1.00  0.00    -0.167 C  
HETATM   18  O   UNL     1     -10.571   7.589  67.062  1.00  0.00    -0.319 OA 
HETATM   19  C   UNL     1      -9.358   8.021  66.445  1.00  0.00    -0.200 C  
HETATM   20  H   UNL     1      -7.231   6.218  69.346  1.00  0.00     0.000 HD 
HETATM   21  C   UNL     1      -8.246   7.910  67.509  1.00  0.00    -0.124 C  
HETATM   22  H   UNL     1      -6.366   7.221  67.666  1.00  0.00     0.000 HD 
HETATM   23  C   UNL     1      -8.862   7.081  68.633  1.00  0.00    -0.128 C  
HETATM   24  O   UNL     1      -7.050   7.290  67.010  1.00  0.00    -0.081 OA 
HETATM   25  O   UNL     1      -8.073   5.948  68.997  1.00  0.00    -0.101 OA 
BRANCH  19  26
HETATM   26  N   UNL     1      -9.526   9.357  65.867  1.00  0.00    -0.232 N  
HETATM   27  C   UNL     1     -10.359  10.287  66.445  1.00  0.00    -0.195 C  
HETATM   28  C   UNL     1     -10.591  11.458  65.863  1.00  0.00    -0.317 C  
HETATM   29  C   UNL     1      -9.913  11.680  64.573  1.00  0.00    -0.253 C  
HETATM   30  N   UNL     1      -9.123  10.812  64.020  1.00  0.00    -0.234 N  
HETATM   31  N   UNL     1     -10.124  12.852  63.899  1.00  0.00    -0.705 NA 
HETATM   32  H   UNL     1      -8.670  11.025  63.132  1.00  0.00     0.000 HD 
HETATM   33  C   UNL     1      -8.900   9.601  64.639  1.00  0.00    -0.219 C  
HETATM   34  H1  UNL     1      -9.655  13.005  63.007  1.00  0.00     0.000 HD 
HETATM   35  H2  UNL     1     -10.744  13.564  64.285  1.00  0.00     0.000 HD 
HETATM   36  O   UNL     1      -8.169   8.751  64.126  1.00  0.00    -0.156 OA 
ENDBRANCH  19  26
ENDBRANCH  16  17
ENDBRANCH  15  16
ENDBRANCH  12  15
ENDBRANCH  11  12
ENDBRANCH   8  11
ENDBRANCH   7   8
ENDBRANCH   6   7
ENDBRANCH   5   6
ENDBRANCH   2   5
TORSDOF 10
ENDMDL
MODEL       85
REMARK 921   NORMALIZED FREE ENERGY PREDICTED BY IDOCK:   -5.49 KCAL/MOL
REMARK 922        TOTAL FREE ENERGY PREDICTED BY IDOCK:   -9.62 KCAL/MOL
REMARK 923 INTER-LIGAND FREE ENERGY PREDICTED BY IDOCK:   -8.85 KCAL/MOL
REMARK 924 INTRA-LIGAND FREE ENERGY PREDICTED BY IDOCK:   -0.77 KCAL/MOL
REMARK 927      BINDING AFFINITY PREDICTED BY RF-SCORE:    0.00 PKD
ROOT
HETATM    1  C   UNL     1      -8.925  18.478  68.410  1.00  0.00    -0.322 C  
HETATM    2  N   UNL     1      -8.207  18.790  67.115  1.00  0.00    -0.261 N  
HETATM    3  C   UNL     1      -8.991  19.809  66.306  1.00  0.00    -0.376 C  
HETATM    4  C   UNL     1      -6.831  19.394  67.442  1.00  0.00    -0.205 C  
ENDROOT
BRANCH   2   5
HETATM    5  C   UNL     1      -8.052  17.462  66.332  1.00  0.00    -0.280 C  
BRANCH   5   6
HETATM    6  C   UNL     1      -9.250  16.533  66.412  1.00  0.00    -0.295 C  
BRANCH   6   7
HETATM    7  O   UNL     1     -10.237  16.960  65.494  1.00  0.00    -0.580 OA 
BRANCH   7   8
HETATM    8  P   UNL     1     -11.121  15.595  64.903  1.00  0.00    -0.228 P  
HETATM    9  O   UNL     1      -9.791  14.895  64.654  1.00  0.00    -0.042 OA 
HETATM   10  O   UNL     1     -11.712  16.508  63.822  1.00  0.00    -1.086 OA 
BRANCH   8  11
HETATM   11  O   UNL     1     -12.006  14.231  64.312  1.00  0.00    -0.446 OA 
BRANCH  11  12
HETATM   12  P   UNL     1     -11.991  12.976  65.502  1.00  0.00    -0.470 P  
HETATM   13  O   UNL     1     -12.577  14.058  66.597  1.00  0.00    -0.358 OA 
HETATM   14  O   UNL     1     -13.273  12.405  64.860  1.00  0.00    -0.714 OA 
BRANCH  12  15
HETATM   15  O   UNL     1     -11.976  11.721  66.693  1.00  0.00    -0.561 OA 
BRANCH  15  16
HETATM   16  C   UNL     1     -10.743  10.984  66.803  1.00  0.00    -0.266 C  
BRANCH  16  17
HETATM   17  C   UNL     1     -10.866   9.719  67.639  1.00  0.00    -0.239 C  
HETATM   18  O   UNL     1     -10.467   8.583  66.868  1.00  0.00    -0.308 OA 
HETATM   19  C   UNL     1     -10.107   7.561  67.797  1.00  0.00    -0.185 C  
HETATM   20  H   UNL     1     -10.261  10.231  70.804  1.00  0.00     0.000 HD 
HETATM   21  C   UNL     1      -9.607   8.269  69.075  1.00  0.00    -0.156 C  
HETATM   22  H   UNL     1      -9.852   8.147  71.065  1.00  0.00     0.000 HD 
HETATM   23  C   UNL     1     -10.031   9.726  68.905  1.00  0.00    -0.176 C  
HETATM   24  O   UNL     1     -10.159   7.711  70.279  1.00  0.00    -0.195 OA 
HETATM   25  O   UNL     1     -10.784  10.227  70.010  1.00  0.00    -0.272 OA 
BRANCH  19  26
HETATM   26  N   UNL     1      -9.147   6.634  67.192  1.00  0.00    -0.126 N  
HETATM   27  C   UNL     1      -8.267   7.049  66.219  1.00  0.00    -0.120 C  
HETATM   28  C   UNL     1      -7.471   6.186  65.598  1.00  0.00    -0.082 C  
HETATM   29  C   UNL     1      -7.605   4.778  66.011  1.00  0.00    -0.090 C  
HETATM   30  N   UNL     1      -8.428   4.374  66.929  1.00  0.00    -0.105 N  
HETATM   31  N   UNL     1      -6.838   3.825  65.397  1.00  0.00    -0.051 NA 
HETATM   32  H   UNL     1      -8.469   3.388  67.183  1.00  0.00     0.000 HD 
HETATM   33  C   UNL     1      -9.248   5.286  67.557  1.00  0.00    -0.114 C  
HETATM   34  H1  UNL     1      -6.931   2.850  65.682  1.00  0.00     0.000 HD 
HETATM   35  H2  UNL     1      -6.182   4.087  64.661  1.00  0.00     0.000 HD 
HETATM   36  O   UNL     1     -10.053   4.927  68.420  1.00  0.00    -0.145 OA 
ENDBRANCH  19  26
ENDBRANCH  16  17
ENDBRANCH  15  16
ENDBRANCH  12  15
ENDBRANCH  11  12
ENDBRANCH   8  11
ENDBRANCH   7   8
ENDBRANCH   6   7
ENDBRANCH   5   6
ENDBRANCH   2   5
TORSDOF 10
ENDMDL
MODEL       86
REMARK 921   NORMALIZED FREE ENERGY PREDICTED BY IDOCK:   -5.47 KCAL/MOL
REMARK 922        TOTAL FREE ENERGY PREDICTED BY IDOCK:   -9.61 KCAL/MOL
REMARK 923 INTER-LIGAND FREE ENERGY PREDICTED BY IDOCK:   -7.86 KCAL/MOL
REMARK 924 INTRA-LIGAND FREE ENERGY PREDICTED BY IDOCK:   -1.74 KCAL/MOL
REMARK 927      BINDING AFFINITY PREDICTED BY RF-SCORE:    0.00 PKD
ROOT
HETATM    1  C   UNL     1      -9.840  13.871  68.404  1.00  0.00    -0.229 C  
HETATM    2  N   UNL     1     -11.299  14.256  68.525  1.00  0.00    -0.266 N  
HETATM    3  C   UNL     1     -11.449  15.768  68.542  1.00  0.00    -0.379 C  
HETATM    4  C   UNL     1     -12.060  13.713  67.304  1.00  0.00    -0.345 C  
ENDROOT
BRANCH   2   5
HETATM    5  C   UNL     1     -11.843  13.631  69.834  1.00  0.00    -0.320 C  
BRANCH   5   6
HETATM    6  C   UNL     1     -11.895  12.114  69.840  1.00  0.00    -0.319 C  
BRANCH   6   7
HETATM    7  O   UNL     1     -12.447  11.668  71.063  1.00  0.00    -0.379 OA 
BRANCH   7   8
HETATM    8  P   UNL     1     -12.257   9.955  71.206  1.00  0.00    -0.431 P  
HETATM    9  O   UNL     1     -11.418   9.984  69.935  1.00  0.00    -0.244 OA 
HETATM   10  O   UNL     1     -13.782   9.827  71.107  1.00  0.00    -0.294 OA 
BRANCH   8  11
HETATM   11  O   UNL     1     -12.067   8.241  71.350  1.00  0.00    -0.291 OA 
BRANCH  11  12
HETATM   12  P   UNL     1     -10.829   7.706  70.267  1.00  0.00    -0.226 P  
HETATM   13  O   UNL     1      -9.941   7.236  71.572  1.00  0.00    -0.182 OA 
HETATM   14  O   UNL     1     -11.686   6.459  69.965  1.00  0.00    -0.429 OA 
BRANCH  12  15
HETATM   15  O   UNL     1      -9.590   7.171  69.184  1.00  0.00    -0.154 OA 
BRANCH  15  16
HETATM   16  C   UNL     1      -8.238   7.340  69.655  1.00  0.00    -0.131 C  
BRANCH  16  17
HETATM   17  C   UNL     1      -7.542   8.558  69.069  1.00  0.00    -0.094 C  
HETATM   18  O   UNL     1      -7.874   8.692  67.685  1.00  0.00    -0.101 OA 
HETATM   19  C   UNL     1      -7.648  10.059  67.337  1.00  0.00    -0.091 C  
HETATM   20  H   UNL     1      -7.193  10.979  71.228  1.00  0.00     0.000 HD 
HETATM   21  C   UNL     1      -7.865  10.891  68.618  1.00  0.00    -0.126 C  
HETATM   22  H   UNL     1      -6.965  12.379  69.625  1.00  0.00     0.000 HD 
HETATM   23  C   UNL     1      -7.894   9.867  69.750  1.00  0.00    -0.163 C  
HETATM   24  O   UNL     1      -6.832  11.866  68.836  1.00  0.00    -0.090 OA 
HETATM   25  O   UNL     1      -6.972  10.159  70.801  1.00  0.00    -0.329 OA 
BRANCH  19  26
HETATM   26  N   UNL     1      -8.492  10.444  66.203  1.00  0.00    -0.142 N  
HETATM   27  C   UNL     1      -9.849  10.614  66.345  1.00  0.00    -0.211 C  
HETATM   28  C   UNL     1     -10.626  10.860  65.296  1.00  0.00    -0.259 C  
HETATM   29  C   UNL     1      -9.941  10.926  63.992  1.00  0.00    -0.344 C  
HETATM   30  N   UNL     1      -8.662  10.769  63.845  1.00  0.00    -0.325 N  
HETATM   31  N   UNL     1     -10.678  11.147  62.861  1.00  0.00    -0.804 NA 
HETATM   32  H   UNL     1      -8.240  10.838  62.920  1.00  0.00     0.000 HD 
HETATM   33  C   UNL     1      -7.876  10.511  64.947  1.00  0.00    -0.037 C  
HETATM   34  H1  UNL     1     -10.205  11.192  61.959  1.00  0.00     0.000 HD 
HETATM   35  H2  UNL     1     -11.689  11.266  62.919  1.00  0.00     0.000 HD 
HETATM   36  O   UNL     1      -6.660  10.340  64.834  1.00  0.00    -0.127 OA 
ENDBRANCH  19  26
ENDBRANCH  16  17
ENDBRANCH  15  16
ENDBRANCH  12  15
ENDBRANCH  11  12
ENDBRANCH   8  11
ENDBRANCH   7   8
ENDBRANCH   6   7
ENDBRANCH   5   6
ENDBRANCH   2   5
TORSDOF 10
ENDMDL
MODEL       87
REMARK 921   NORMALIZED FREE ENERGY PREDICTED BY IDOCK:   -5.46 KCAL/MOL
REMARK 922        TOTAL FREE ENERGY PREDICTED BY IDOCK:   -9.59 KCAL/MOL
REMARK 923 INTER-LIGAND FREE ENERGY PREDICTED BY IDOCK:   -8.80 KCAL/MOL
REMARK 924 INTRA-LIGAND FREE ENERGY PREDICTED BY IDOCK:   -0.79 KCAL/MOL
REMARK 927      BINDING AFFINITY PREDICTED BY RF-SCORE:    0.00 PKD
ROOT
HETATM    1  C   UNL     1      -8.951   5.829  69.409  1.00  0.00    -0.116 C  
HETATM    2  N   UNL     1      -9.969   6.878  69.017  1.00  0.00    -0.155 N  
HETATM    3  C   UNL     1     -11.031   6.273  68.114  1.00  0.00    -0.323 C  
HETATM    4  C   UNL     1     -10.661   7.399  70.288  1.00  0.00    -0.237 C  
ENDROOT
BRANCH   2   5
HETATM    5  C   UNL     1      -9.213   8.020  68.295  1.00  0.00    -0.134 C  
BRANCH   5   6
HETATM    6  C   UNL     1      -9.598   8.218  66.840  1.00  0.00    -0.207 C  
BRANCH   6   7
HETATM    7  O   UNL     1      -8.646   9.055  66.213  1.00  0.00    -0.120 OA 
BRANCH   7   8
HETATM    8  P   UNL     1      -9.413   9.999  64.982  1.00  0.00    -0.289 P  
HETATM    9  O   UNL     1      -8.226   9.702  64.074  1.00  0.00    -0.137 OA 
HETATM   10  O   UNL     1      -9.358  11.198  65.936  1.00  0.00    -0.199 OA 
BRANCH   8  11
HETATM   11  O   UNL     1     -10.180  10.943  63.751  1.00  0.00    -0.331 OA 
BRANCH  11  12
HETATM   12  P   UNL     1     -11.255  12.081  64.484  1.00  0.00    -0.327 P  
HETATM   13  O   UNL     1     -10.295  13.296  63.921  1.00  0.00    -0.326 OA 
HETATM   14  O   UNL     1     -12.238  11.847  63.317  1.00  0.00    -0.506 OA 
BRANCH  12  15
HETATM   15  O   UNL     1     -12.331  13.222  65.218  1.00  0.00    -0.423 OA 
BRANCH  15  16
HETATM   16  C   UNL     1     -11.825  14.566  65.335  1.00  0.00    -0.344 C  
BRANCH  16  17
HETATM   17  C   UNL     1     -11.457  14.953  66.759  1.00  0.00    -0.301 C  
HETATM   18  O   UNL     1     -12.347  14.320  67.682  1.00  0.00    -0.265 OA 
HETATM   19  C   UNL     1     -11.674  14.281  68.941  1.00  0.00    -0.328 C  
HETATM   20  H   UNL     1      -8.252  15.420  67.156  1.00  0.00     0.000 HD 
HETATM   21  C   UNL     1     -10.161  14.230  68.643  1.00  0.00    -0.246 C  
HETATM   22  H   UNL     1      -8.466  15.113  69.263  1.00  0.00     0.000 HD 
HETATM   23  C   UNL     1     -10.043  14.579  67.161  1.00  0.00    -0.252 C  
HETATM   24  O   UNL     1      -9.398  15.145  69.447  1.00  0.00    -0.218 OA 
HETATM   25  O   UNL     1      -9.138  15.654  66.904  1.00  0.00    -0.208 OA 
BRANCH  19  26
HETATM   26  N   UNL     1     -12.178  13.174  69.757  1.00  0.00    -0.249 N  
HETATM   27  C   UNL     1     -12.635  13.377  71.038  1.00  0.00    -0.343 C  
HETATM   28  C   UNL     1     -12.992  12.359  71.811  1.00  0.00    -0.422 C  
HETATM   29  C   UNL     1     -12.856  11.019  71.212  1.00  0.00    -0.425 C  
HETATM   30  N   UNL     1     -12.429  10.814  70.004  1.00  0.00    -0.416 N  
HETATM   31  N   UNL     1     -13.177   9.917  71.956  1.00  0.00    -0.451 NA 
HETATM   32  H   UNL     1     -12.367   9.865  69.637  1.00  0.00     0.000 HD 
HETATM   33  C   UNL     1     -12.060  11.886  69.221  1.00  0.00    -0.210 C  
HETATM   34  H1  UNL     1     -13.083   8.990  71.542  1.00  0.00     0.000 HD 
HETATM   35  H2  UNL     1     -13.508  10.021  72.916  1.00  0.00     0.000 HD 
HETATM   36  O   UNL     1     -11.632  11.718  68.076  1.00  0.00    -0.296 OA 
ENDBRANCH  19  26
ENDBRANCH  16  17
ENDBRANCH  15  16
ENDBRANCH  12  15
ENDBRANCH  11  12
ENDBRANCH   8  11
ENDBRANCH   7   8
ENDBRANCH   6   7
ENDBRANCH   5   6
ENDBRANCH   2   5
TORSDOF 10
ENDMDL
MODEL       88
REMARK 921   NORMALIZED FREE ENERGY PREDICTED BY IDOCK:   -5.46 KCAL/MOL
REMARK 922        TOTAL FREE ENERGY PREDICTED BY IDOCK:   -9.58 KCAL/MOL
REMARK 923 INTER-LIGAND FREE ENERGY PREDICTED BY IDOCK:   -8.39 KCAL/MOL
REMARK 924 INTRA-LIGAND FREE ENERGY PREDICTED BY IDOCK:   -1.19 KCAL/MOL
REMARK 927      BINDING AFFINITY PREDICTED BY RF-SCORE:    0.00 PKD
ROOT
HETATM    1  C   UNL     1     -12.464  14.775  73.365  1.00  0.00    -0.393 C  
HETATM    2  N   UNL     1     -13.061  14.249  72.077  1.00  0.00    -0.348 N  
HETATM    3  C   UNL     1     -13.509  12.808  72.251  1.00  0.00    -0.490 C  
HETATM    4  C   UNL     1     -14.295  15.095  71.720  1.00  0.00    -0.597 C  
ENDROOT
BRANCH   2   5
HETATM    5  C   UNL     1     -11.978  14.364  70.976  1.00  0.00    -0.323 C  
BRANCH   5   6
HETATM    6  C   UNL     1     -12.101  13.349  69.855  1.00  0.00    -0.322 C  
BRANCH   6   7
HETATM    7  O   UNL     1     -11.219  13.699  68.806  1.00  0.00    -0.252 OA 
BRANCH   7   8
HETATM    8  P   UNL     1     -11.318  12.527  67.537  1.00  0.00    -0.353 P  
HETATM    9  O   UNL     1     -12.023  13.574  66.683  1.00  0.00    -0.376 OA 
HETATM   10  O   UNL     1     -12.137  11.642  68.484  1.00  0.00    -0.491 OA 
BRANCH   8  11
HETATM   11  O   UNL     1     -11.416  11.355  66.268  1.00  0.00    -0.311 OA 
BRANCH  11  12
HETATM   12  P   UNL     1      -9.966  10.415  66.239  1.00  0.00    -0.233 P  
HETATM   13  O   UNL     1     -10.095  10.332  64.599  1.00  0.00    -0.345 OA 
HETATM   14  O   UNL     1      -9.164  11.715  66.458  1.00  0.00    -0.187 OA 
BRANCH  12  15
HETATM   15  O   UNL     1      -8.514   9.473  66.209  1.00  0.00    -0.114 OA 
BRANCH  15  16
HETATM   16  C   UNL     1      -8.595   8.230  65.484  1.00  0.00    -0.159 C  
BRANCH  16  17
HETATM   17  C   UNL     1      -8.405   7.004  66.362  1.00  0.00    -0.125 C  
HETATM   18  O   UNL     1      -8.677   7.333  67.727  1.00  0.00    -0.126 OA 
HETATM   19  C   UNL     1      -8.991   6.108  68.391  1.00  0.00    -0.115 C  
HETATM   20  H   UNL     1      -9.180   4.224  64.841  1.00  0.00     0.000 HD 
HETATM   21  C   UNL     1      -9.599   5.165  67.332  1.00  0.00    -0.139 C  
HETATM   22  H   UNL     1      -9.428   3.255  66.732  1.00  0.00     0.000 HD 
HETATM   23  C   UNL     1      -9.289   5.828  65.993  1.00  0.00    -0.117 C  
HETATM   24  O   UNL     1      -9.054   3.836  67.384  1.00  0.00    -0.135 OA 
HETATM   25  O   UNL     1      -8.626   4.960  65.073  1.00  0.00    -0.135 OA 
BRANCH  19  26
HETATM   26  N   UNL     1      -9.847   6.362  69.553  1.00  0.00    -0.152 N  
HETATM   27  C   UNL     1     -11.218   6.306  69.458  1.00  0.00    -0.430 C  
HETATM   28  C   UNL     1     -11.993   6.639  70.484  1.00  0.00    -0.377 C  
HETATM   29  C   UNL     1     -11.290   7.074  71.705  1.00  0.00    -0.257 C  
HETATM   30  N   UNL     1      -9.998   7.128  71.807  1.00  0.00    -0.176 N  
HETATM   31  N   UNL     1     -12.020   7.460  72.796  1.00  0.00    -0.556 NA 
HETATM   32  H   UNL     1      -9.565   7.425  72.682  1.00  0.00     0.000 HD 
HETATM   33  C   UNL     1      -9.213   6.782  70.728  1.00  0.00    -0.158 C  
HETATM   34  H1  UNL     1     -11.534   7.761  73.640  1.00  0.00     0.000 HD 
HETATM   35  H2  UNL     1     -13.040   7.446  72.765  1.00  0.00     0.000 HD 
HETATM   36  O   UNL     1      -7.983   6.843  70.793  1.00  0.00    -0.103 OA 
ENDBRANCH  19  26
ENDBRANCH  16  17
ENDBRANCH  15  16
ENDBRANCH  12  15
ENDBRANCH  11  12
ENDBRANCH   8  11
ENDBRANCH   7   8
ENDBRANCH   6   7
ENDBRANCH   5   6
ENDBRANCH   2   5
TORSDOF 10
ENDMDL
MODEL       89
REMARK 921   NORMALIZED FREE ENERGY PREDICTED BY IDOCK:   -5.45 KCAL/MOL
REMARK 922        TOTAL FREE ENERGY PREDICTED BY IDOCK:   -9.57 KCAL/MOL
REMARK 923 INTER-LIGAND FREE ENERGY PREDICTED BY IDOCK:   -7.77 KCAL/MOL
REMARK 924 INTRA-LIGAND FREE ENERGY PREDICTED BY IDOCK:   -1.80 KCAL/MOL
REMARK 927      BINDING AFFINITY PREDICTED BY RF-SCORE:    0.00 PKD
ROOT
HETATM    1  C   UNL     1     -10.163  13.212  65.049  1.00  0.00    -0.278 C  
HETATM    2  N   UNL     1     -11.298  14.169  65.346  1.00  0.00    -0.313 N  
HETATM    3  C   UNL     1     -12.263  14.226  64.174  1.00  0.00    -0.378 C  
HETATM    4  C   UNL     1     -12.067  13.661  66.577  1.00  0.00    -0.423 C  
ENDROOT
BRANCH   2   5
HETATM    5  C   UNL     1     -10.678  15.561  65.621  1.00  0.00    -0.366 C  
BRANCH   5   6
HETATM    6  C   UNL     1      -9.283  15.530  66.220  1.00  0.00    -0.329 C  
BRANCH   6   7
HETATM    7  O   UNL     1      -9.355  15.857  67.593  1.00  0.00    -0.214 OA 
BRANCH   7   8
HETATM    8  P   UNL     1      -8.018  15.154  68.437  1.00  0.00    -0.154 P  
HETATM    9  O   UNL     1      -7.117  15.592  67.289  1.00  0.00    -0.195 OA 
HETATM   10  O   UNL     1      -8.742  13.805  68.362  1.00  0.00    -0.175 OA 
BRANCH   8  11
HETATM   11  O   UNL     1      -6.681  14.452  69.282  1.00  0.00    -0.112 OA 
BRANCH  11  12
HETATM   12  P   UNL     1      -6.589  12.765  68.914  1.00  0.00    -0.093 P  
HETATM   13  O   UNL     1      -5.180  13.055  68.110  1.00  0.00    -0.073 OA 
HETATM   14  O   UNL     1      -6.116  12.514  70.361  1.00  0.00    -0.142 OA 
BRANCH  12  15
HETATM   15  O   UNL     1      -6.495  11.077  68.544  1.00  0.00    -0.053 OA 
BRANCH  15  16
HETATM   16  C   UNL     1      -7.021  10.191  69.552  1.00  0.00    -0.086 C  
BRANCH  16  17
HETATM   17  C   UNL     1      -8.377   9.603  69.194  1.00  0.00    -0.130 C  
HETATM   18  O   UNL     1      -9.327   9.910  70.217  1.00  0.00    -0.225 OA 
HETATM   19  C   UNL     1     -10.621   9.811  69.619  1.00  0.00    -0.239 C  
HETATM   20  H   UNL     1      -8.926   9.555  65.979  1.00  0.00     0.000 HD 
HETATM   21  C   UNL     1     -10.452  10.144  68.122  1.00  0.00    -0.206 C  
HETATM   22  H   UNL     1     -11.032   9.425  66.338  1.00  0.00     0.000 HD 
HETATM   23  C   UNL     1      -8.945  10.102  67.879  1.00  0.00    -0.128 C  
HETATM   24  O   UNL     1     -11.136   9.220  67.260  1.00  0.00    -0.054 OA 
HETATM   25  O   UNL     1      -8.570   9.243  66.802  1.00  0.00    -0.125 OA 
BRANCH  19  26
HETATM   26  N   UNL     1     -11.580  10.658  70.333  1.00  0.00    -0.330 N  
HETATM   27  C   UNL     1     -11.687  12.002  70.064  1.00  0.00    -0.267 C  
HETATM   28  C   UNL     1     -12.481  12.787  70.784  1.00  0.00    -0.357 C  
HETATM   29  C   UNL     1     -13.216  12.127  71.878  1.00  0.00    -0.369 C  
HETATM   30  N   UNL     1     -13.125  10.859  72.141  1.00  0.00    -0.536 N  
HETATM   31  N   UNL     1     -14.032  12.874  72.683  1.00  0.00    -0.699 NA 
HETATM   32  H   UNL     1     -13.667  10.454  72.903  1.00  0.00     0.000 HD 
HETATM   33  C   UNL     1     -12.292  10.065  71.383  1.00  0.00    -0.415 C  
HETATM   34  H1  UNL     1     -14.540  12.418  73.440  1.00  0.00     0.000 HD 
HETATM   35  H2  UNL     1     -14.131  13.878  72.527  1.00  0.00     0.000 HD 
HETATM   36  O   UNL     1     -12.172   8.861  71.623  1.00  0.00    -0.304 OA 
ENDBRANCH  19  26
ENDBRANCH  16  17
ENDBRANCH  15  16
ENDBRANCH  12  15
ENDBRANCH  11  12
ENDBRANCH   8  11
ENDBRANCH   7   8
ENDBRANCH   6   7
ENDBRANCH   5   6
ENDBRANCH   2   5
TORSDOF 10
ENDMDL
MODEL       90
REMARK 921   NORMALIZED FREE ENERGY PREDICTED BY IDOCK:   -5.45 KCAL/MOL
REMARK 922        TOTAL FREE ENERGY PREDICTED BY IDOCK:   -9.56 KCAL/MOL
REMARK 923 INTER-LIGAND FREE ENERGY PREDICTED BY IDOCK:   -8.43 KCAL/MOL
REMARK 924 INTRA-LIGAND FREE ENERGY PREDICTED BY IDOCK:   -1.13 KCAL/MOL
REMARK 927      BINDING AFFINITY PREDICTED BY RF-SCORE:    0.00 PKD
ROOT
HETATM    1  C   UNL     1      -8.035  18.190  66.175  1.00  0.00    -0.187 C  
HETATM    2  N   UNL     1      -8.433  18.795  67.504  1.00  0.00    -0.268 N  
HETATM    3  C   UNL     1      -7.586  18.215  68.624  1.00  0.00    -0.295 C  
HETATM    4  C   UNL     1      -8.186  20.312  67.454  1.00  0.00    -0.338 C  
ENDROOT
BRANCH   2   5
HETATM    5  C   UNL     1      -9.934  18.489  67.730  1.00  0.00    -0.343 C  
BRANCH   5   6
HETATM    6  C   UNL     1     -10.413  17.179  67.131  1.00  0.00    -0.291 C  
BRANCH   6   7
HETATM    7  O   UNL     1     -10.032  16.110  67.974  1.00  0.00    -0.232 OA 
BRANCH   7   8
HETATM    8  P   UNL     1     -10.964  16.147  69.431  1.00  0.00    -0.349 P  
HETATM    9  O   UNL     1      -9.800  15.469  70.143  1.00  0.00    -0.239 OA 
HETATM   10  O   UNL     1     -12.020  15.293  68.719  1.00  0.00    -0.321 OA 
BRANCH   8  11
HETATM   11  O   UNL     1     -11.897  16.185  70.888  1.00  0.00    -0.384 OA 
BRANCH  11  12
HETATM   12  P   UNL     1     -12.831  14.735  71.012  1.00  0.00    -0.397 P  
HETATM   13  O   UNL     1     -12.311  14.576  72.567  1.00  0.00    -0.282 OA 
HETATM   14  O   UNL     1     -14.095  15.607  71.157  1.00  0.00    -0.539 OA 
BRANCH  12  15
HETATM   15  O   UNL     1     -13.765  13.283  71.137  1.00  0.00     0.089 OA 
BRANCH  15  16
HETATM   16  C   UNL     1     -13.217  12.265  71.997  1.00  0.00    -0.403 C  
BRANCH  16  17
HETATM   17  C   UNL     1     -13.126  10.899  71.335  1.00  0.00    -0.356 C  
HETATM   18  O   UNL     1     -12.039  10.878  70.407  1.00  0.00    -0.301 OA 
HETATM   19  C   UNL     1     -11.680   9.507  70.224  1.00  0.00    -0.117 C  
HETATM   20  H   UNL     1     -14.042   8.471  73.312  1.00  0.00     0.000 HD 
HETATM   21  C   UNL     1     -12.041   8.769  71.530  1.00  0.00    -0.329 C  
HETATM   22  H   UNL     1     -12.956   7.076  72.106  1.00  0.00     0.000 HD 
HETATM   23  C   UNL     1     -12.919   9.749  72.304  1.00  0.00    -0.333 C  
HETATM   24  O   UNL     1     -12.733   7.530  71.302  1.00  0.00    -0.335 OA 
HETATM   25  O   UNL     1     -14.171   9.191  72.706  1.00  0.00    -0.552 OA 
BRANCH  19  26
HETATM   26  N   UNL     1     -10.275   9.396  69.822  1.00  0.00    -0.206 N  
HETATM   27  C   UNL     1      -9.269   9.306  70.756  1.00  0.00    -0.253 C  
HETATM   28  C   UNL     1      -7.991   9.311  70.393  1.00  0.00    -0.171 C  
HETATM   29  C   UNL     1      -7.736   9.429  68.946  1.00  0.00    -0.076 C  
HETATM   30  N   UNL     1      -8.676   9.512  68.056  1.00  0.00    -0.120 N  
HETATM   31  N   UNL     1      -6.444   9.470  68.496  1.00  0.00    -0.052 NA 
HETATM   32  H   UNL     1      -8.440   9.579  67.066  1.00  0.00     0.000 HD 
HETATM   33  C   UNL     1      -9.995   9.509  68.456  1.00  0.00    -0.167 C  
HETATM   34  H1  UNL     1      -6.267   9.551  67.495  1.00  0.00     0.000 HD 
HETATM   35  H2  UNL     1      -5.667   9.419  69.155  1.00  0.00     0.000 HD 
HETATM   36  O   UNL     1     -10.908   9.606  67.632  1.00  0.00    -0.282 OA 
ENDBRANCH  19  26
ENDBRANCH  16  17
ENDBRANCH  15  16
ENDBRANCH  12  15
ENDBRANCH  11  12
ENDBRANCH   8  11
ENDBRANCH   7   8
ENDBRANCH   6   7
ENDBRANCH   5   6
ENDBRANCH   2   5
TORSDOF 10
ENDMDL
MODEL       91
REMARK 921   NORMALIZED FREE ENERGY PREDICTED BY IDOCK:   -5.41 KCAL/MOL
REMARK 922        TOTAL FREE ENERGY PREDICTED BY IDOCK:   -9.51 KCAL/MOL
REMARK 923 INTER-LIGAND FREE ENERGY PREDICTED BY IDOCK:   -8.01 KCAL/MOL
REMARK 924 INTRA-LIGAND FREE ENERGY PREDICTED BY IDOCK:   -1.50 KCAL/MOL
REMARK 927      BINDING AFFINITY PREDICTED BY RF-SCORE:    0.00 PKD
ROOT
HETATM    1  C   UNL     1      -9.994   7.244  68.955  1.00  0.00    -0.177 C  
HETATM    2  N   UNL     1      -8.903   7.889  69.782  1.00  0.00    -0.141 N  
HETATM    3  C   UNL     1      -9.486   8.504  71.043  1.00  0.00    -0.186 C  
HETATM    4  C   UNL     1      -7.892   6.807  70.201  1.00  0.00    -0.107 C  
ENDROOT
BRANCH   2   5
HETATM    5  C   UNL     1      -8.222   8.967  68.903  1.00  0.00    -0.117 C  
BRANCH   5   6
HETATM    6  C   UNL     1      -7.969  10.291  69.602  1.00  0.00    -0.154 C  
BRANCH   6   7
HETATM    7  O   UNL     1      -6.588  10.423  69.871  1.00  0.00    -0.090 OA 
BRANCH   7   8
HETATM    8  P   UNL     1      -6.048  12.005  69.425  1.00  0.00    -0.119 P  
HETATM    9  O   UNL     1      -5.681  12.245  70.884  1.00  0.00    -0.303 OA 
HETATM   10  O   UNL     1      -7.473  12.301  68.942  1.00  0.00    -0.095 OA 
BRANCH   8  11
HETATM   11  O   UNL     1      -5.508  13.587  68.978  1.00  0.00    -0.072 OA 
BRANCH  11  12
HETATM   12  P   UNL     1      -6.877  14.587  68.633  1.00  0.00    -0.113 P  
HETATM   13  O   UNL     1      -6.394  15.601  69.838  1.00  0.00    -0.165 OA 
HETATM   14  O   UNL     1      -6.122  15.128  67.401  1.00  0.00    -0.325 OA 
BRANCH  12  15
HETATM   15  O   UNL     1      -8.246  15.587  68.289  1.00  0.00    -0.137 OA 
BRANCH  15  16
HETATM   16  C   UNL     1      -8.621  15.670  66.900  1.00  0.00    -0.248 C  
BRANCH  16  17
HETATM   17  C   UNL     1      -9.712  14.685  66.508  1.00  0.00    -0.280 C  
HETATM   18  O   UNL     1      -9.947  13.766  67.578  1.00  0.00    -0.228 OA 
HETATM   19  C   UNL     1     -11.261  13.240  67.387  1.00  0.00    -0.289 C  
HETATM   20  H   UNL     1     -11.961  16.003  64.546  1.00  0.00     0.000 HD 
HETATM   21  C   UNL     1     -12.078  14.324  66.653  1.00  0.00    -0.420 C  
HETATM   22  H   UNL     1     -13.347  14.470  65.103  1.00  0.00     0.000 HD 
HETATM   23  C   UNL     1     -11.040  15.331  66.163  1.00  0.00    -0.280 C  
HETATM   24  O   UNL     1     -12.844  13.803  65.555  1.00  0.00    -0.596 OA 
HETATM   25  O   UNL     1     -11.129  15.598  64.763  1.00  0.00    -0.441 OA 
BRANCH  19  26
HETATM   26  N   UNL     1     -11.828  12.804  68.666  1.00  0.00    -0.315 N  
HETATM   27  C   UNL     1     -12.090  13.700  69.676  1.00  0.00    -0.321 C  
HETATM   28  C   UNL     1     -12.504  13.289  70.869  1.00  0.00    -0.424 C  
HETATM   29  C   UNL     1     -12.648  11.832  71.033  1.00  0.00    -0.310 C  
HETATM   30  N   UNL     1     -12.406  10.977  70.087  1.00  0.00    -0.317 N  
HETATM   31  N   UNL     1     -13.043  11.330  72.243  1.00  0.00    -0.430 NA 
HETATM   32  H   UNL     1     -12.535   9.979  70.253  1.00  0.00     0.000 HD 
HETATM   33  C   UNL     1     -11.973  11.424  68.858  1.00  0.00    -0.304 C  
HETATM   34  H1  UNL     1     -13.143  10.322  72.356  1.00  0.00     0.000 HD 
HETATM   35  H2  UNL     1     -13.236  11.958  73.023  1.00  0.00     0.000 HD 
HETATM   36  O   UNL     1     -11.718  10.632  67.948  1.00  0.00    -0.506 OA 
ENDBRANCH  19  26
ENDBRANCH  16  17
ENDBRANCH  15  16
ENDBRANCH  12  15
ENDBRANCH  11  12
ENDBRANCH   8  11
ENDBRANCH   7   8
ENDBRANCH   6   7
ENDBRANCH   5   6
ENDBRANCH   2   5
TORSDOF 10
ENDMDL
MODEL       92
REMARK 921   NORMALIZED FREE ENERGY PREDICTED BY IDOCK:   -5.35 KCAL/MOL
REMARK 922        TOTAL FREE ENERGY PREDICTED BY IDOCK:   -9.40 KCAL/MOL
REMARK 923 INTER-LIGAND FREE ENERGY PREDICTED BY IDOCK:   -8.08 KCAL/MOL
REMARK 924 INTRA-LIGAND FREE ENERGY PREDICTED BY IDOCK:   -1.32 KCAL/MOL
REMARK 927      BINDING AFFINITY PREDICTED BY RF-SCORE:    0.00 PKD
ROOT
HETATM    1  C   UNL     1     -11.755   6.686  70.455  1.00  0.00    -0.394 C  
HETATM    2  N   UNL     1     -11.182   7.867  71.208  1.00  0.00    -0.251 N  
HETATM    3  C   UNL     1     -12.148   8.330  72.285  1.00  0.00    -0.379 C  
HETATM    4  C   UNL     1      -9.874   7.433  71.892  1.00  0.00    -0.162 C  
ENDROOT
BRANCH   2   5
HETATM    5  C   UNL     1     -10.916   8.995  70.180  1.00  0.00    -0.233 C  
BRANCH   5   6
HETATM    6  C   UNL     1      -9.536   9.622  70.266  1.00  0.00    -0.254 C  
BRANCH   6   7
HETATM    7  O   UNL     1      -8.879   9.482  69.022  1.00  0.00    -0.134 OA 
BRANCH   7   8
HETATM    8  P   UNL     1      -7.457  10.468  68.993  1.00  0.00    -0.134 P  
HETATM    9  O   UNL     1      -6.760   9.363  68.208  1.00  0.00    -0.058 OA 
HETATM   10  O   UNL     1      -7.456  10.427  70.525  1.00  0.00    -0.188 OA 
BRANCH   8  11
HETATM   11  O   UNL     1      -6.036  11.454  68.962  1.00  0.00    -0.047 OA 
BRANCH  11  12
HETATM   12  P   UNL     1      -6.365  12.912  68.093  1.00  0.00    -0.132 P  
HETATM   13  O   UNL     1      -5.697  12.221  66.755  1.00  0.00    -0.307 OA 
HETATM   14  O   UNL     1      -7.844  12.479  68.004  1.00  0.00    -0.124 OA 
BRANCH  12  15
HETATM   15  O   UNL     1      -6.693  14.371  67.222  1.00  0.00    -0.269 OA 
BRANCH  15  16
HETATM   16  C   UNL     1      -7.027  15.515  68.031  1.00  0.00    -0.132 C  
BRANCH  16  17
HETATM   17  C   UNL     1      -8.403  16.088  67.730  1.00  0.00    -0.150 C  
HETATM   18  O   UNL     1      -9.410  15.309  68.381  1.00  0.00    -0.186 OA 
HETATM   19  C   UNL     1     -10.561  16.145  68.506  1.00  0.00    -0.284 C  
HETATM   20  H   UNL     1      -8.375  19.333  67.387  1.00  0.00     0.000 HD 
HETATM   21  C   UNL     1     -10.054  17.600  68.590  1.00  0.00    -0.377 C  
HETATM   22  H   UNL     1     -10.475  19.396  67.794  1.00  0.00     0.000 HD 
HETATM   23  C   UNL     1      -8.588  17.529  68.169  1.00  0.00    -0.258 C  
HETATM   24  O   UNL     1     -10.787  18.500  67.743  1.00  0.00    -0.388 OA 
HETATM   25  O   UNL     1      -8.259  18.430  67.112  1.00  0.00    -0.237 OA 
BRANCH  19  26
HETATM   26  N   UNL     1     -11.386  15.714  69.637  1.00  0.00    -0.302 N  
HETATM   27  C   UNL     1     -11.293  16.327  70.866  1.00  0.00    -0.285 C  
HETATM   28  C   UNL     1     -11.963  15.868  71.916  1.00  0.00    -0.588 C  
HETATM   29  C   UNL     1     -12.789  14.671  71.678  1.00  0.00    -0.332 C  
HETATM   30  N   UNL     1     -12.887  14.085  70.524  1.00  0.00    -0.275 N  
HETATM   31  N   UNL     1     -13.487  14.122  72.718  1.00  0.00    -0.640 NA 
HETATM   32  H   UNL     1     -13.484  13.267  70.414  1.00  0.00     0.000 HD 
HETATM   33  C   UNL     1     -12.179  14.577  69.448  1.00  0.00    -0.247 C  
HETATM   34  H1  UNL     1     -14.058  13.294  72.554  1.00  0.00     0.000 HD 
HETATM   35  H2  UNL     1     -13.436  14.537  73.649  1.00  0.00     0.000 HD 
HETATM   36  O   UNL     1     -12.240  14.028  68.345  1.00  0.00    -0.332 OA 
ENDBRANCH  19  26
ENDBRANCH  16  17
ENDBRANCH  15  16
ENDBRANCH  12  15
ENDBRANCH  11  12
ENDBRANCH   8  11
ENDBRANCH   7   8
ENDBRANCH   6   7
ENDBRANCH   5   6
ENDBRANCH   2   5
TORSDOF 10
ENDMDL
MODEL       93
REMARK 921   NORMALIZED FREE ENERGY PREDICTED BY IDOCK:   -5.34 KCAL/MOL
REMARK 922        TOTAL FREE ENERGY PREDICTED BY IDOCK:   -9.40 KCAL/MOL
REMARK 923 INTER-LIGAND FREE ENERGY PREDICTED BY IDOCK:   -7.91 KCAL/MOL
REMARK 924 INTRA-LIGAND FREE ENERGY PREDICTED BY IDOCK:   -1.49 KCAL/MOL
REMARK 927      BINDING AFFINITY PREDICTED BY RF-SCORE:    0.00 PKD
ROOT
HETATM    1  C   UNL     1      -9.550  10.291  64.302  1.00  0.00    -0.313 C  
HETATM    2  N   UNL     1      -8.435   9.273  64.402  1.00  0.00    -0.178 N  
HETATM    3  C   UNL     1      -8.217   8.592  63.062  1.00  0.00    -0.179 C  
HETATM    4  C   UNL     1      -7.134   9.996  64.790  1.00  0.00    -0.137 C  
ENDROOT
BRANCH   2   5
HETATM    5  C   UNL     1      -8.836   8.243  65.488  1.00  0.00    -0.110 C  
BRANCH   5   6
HETATM    6  C   UNL     1      -8.036   6.953  65.467  1.00  0.00    -0.126 C  
BRANCH   6   7
HETATM    7  O   UNL     1      -8.910   5.862  65.255  1.00  0.00    -0.124 OA 
BRANCH   7   8
HETATM    8  P   UNL     1      -9.362   5.166  66.773  1.00  0.00    -0.156 P  
HETATM    9  O   UNL     1      -7.924   4.692  66.936  1.00  0.00    -0.101 OA 
HETATM   10  O   UNL     1     -10.369   4.292  66.017  1.00  0.00    -0.209 OA 
BRANCH   8  11
HETATM   11  O   UNL     1      -9.815   4.471  68.292  1.00  0.00    -0.147 OA 
BRANCH  11  12
HETATM   12  P   UNL     1     -10.377   5.718  69.351  1.00  0.00    -0.310 P  
HETATM   13  O   UNL     1      -8.838   5.878  69.918  1.00  0.00    -0.127 OA 
HETATM   14  O   UNL     1     -10.403   6.679  68.144  1.00  0.00    -0.161 OA 
BRANCH  12  15
HETATM   15  O   UNL     1     -10.937   6.965  70.412  1.00  0.00    -0.247 OA 
BRANCH  15  16
HETATM   16  C   UNL     1     -10.012   8.045  70.643  1.00  0.00    -0.189 C  
BRANCH  16  17
HETATM   17  C   UNL     1     -10.687   9.337  71.078  1.00  0.00    -0.316 C  
HETATM   18  O   UNL     1     -10.450  10.362  70.110  1.00  0.00    -0.252 OA 
HETATM   19  C   UNL     1     -11.482  11.334  70.279  1.00  0.00    -0.193 C  
HETATM   20  H   UNL     1     -13.453   8.825  72.732  1.00  0.00     0.000 HD 
HETATM   21  C   UNL     1     -12.716  10.590  70.831  1.00  0.00    -0.402 C  
HETATM   22  H   UNL     1     -14.097  10.814  72.273  1.00  0.00     0.000 HD 
HETATM   23  C   UNL     1     -12.189   9.224  71.264  1.00  0.00    -0.334 C  
HETATM   24  O   UNL     1     -13.338  11.272  71.933  1.00  0.00    -0.429 OA 
HETATM   25  O   UNL     1     -12.512   8.896  72.615  1.00  0.00    -0.331 OA 
BRANCH  19  26
HETATM   26  N   UNL     1     -11.711  12.060  69.027  1.00  0.00    -0.306 N  
HETATM   27  C   UNL     1     -11.629  11.429  67.808  1.00  0.00    -0.251 C  
HETATM   28  C   UNL     1     -11.733  12.109  66.672  1.00  0.00    -0.385 C  
HETATM   29  C   UNL     1     -11.926  13.564  66.811  1.00  0.00    -0.404 C  
HETATM   30  N   UNL     1     -12.006  14.171  67.955  1.00  0.00    -0.477 N  
HETATM   31  N   UNL     1     -12.013  14.338  65.686  1.00  0.00    -0.379 NA 
HETATM   32  H   UNL     1     -12.153  15.179  67.990  1.00  0.00     0.000 HD 
HETATM   33  C   UNL     1     -11.892  13.445  69.121  1.00  0.00    -0.336 C  
HETATM   34  H1  UNL     1     -12.146  15.344  65.781  1.00  0.00     0.000 HD 
HETATM   35  H2  UNL     1     -11.944  13.912  64.761  1.00  0.00     0.000 HD 
HETATM   36  O   UNL     1     -11.947  14.000  70.221  1.00  0.00    -0.305 OA 
ENDBRANCH  19  26
ENDBRANCH  16  17
ENDBRANCH  15  16
ENDBRANCH  12  15
ENDBRANCH  11  12
ENDBRANCH   8  11
ENDBRANCH   7   8
ENDBRANCH   6   7
ENDBRANCH   5   6
ENDBRANCH   2   5
TORSDOF 10
ENDMDL
MODEL       94
REMARK 921   NORMALIZED FREE ENERGY PREDICTED BY IDOCK:   -5.34 KCAL/MOL
REMARK 922        TOTAL FREE ENERGY PREDICTED BY IDOCK:   -9.39 KCAL/MOL
REMARK 923 INTER-LIGAND FREE ENERGY PREDICTED BY IDOCK:   -8.09 KCAL/MOL
REMARK 924 INTRA-LIGAND FREE ENERGY PREDICTED BY IDOCK:   -1.30 KCAL/MOL
REMARK 927      BINDING AFFINITY PREDICTED BY RF-SCORE:    0.00 PKD
ROOT
HETATM    1  C   UNL     1     -12.886   6.795  71.542  1.00  0.00    -0.257 C  
HETATM    2  N   UNL     1     -12.035   7.981  71.945  1.00  0.00    -0.297 N  
HETATM    3  C   UNL     1     -12.899   9.071  72.555  1.00  0.00    -0.338 C  
HETATM    4  C   UNL     1     -11.019   7.525  73.006  1.00  0.00    -0.390 C  
ENDROOT
BRANCH   2   5
HETATM    5  C   UNL     1     -11.311   8.492  70.675  1.00  0.00    -0.241 C  
BRANCH   5   6
HETATM    6  C   UNL     1      -9.909   9.024  70.913  1.00  0.00    -0.264 C  
BRANCH   6   7
HETATM    7  O   UNL     1      -8.994   8.314  70.103  1.00  0.00    -0.139 OA 
BRANCH   7   8
HETATM    8  P   UNL     1      -7.616   9.304  69.763  1.00  0.00    -0.109 P  
HETATM    9  O   UNL     1      -6.944   8.084  69.146  1.00  0.00    -0.054 OA 
HETATM   10  O   UNL     1      -7.490   9.560  71.270  1.00  0.00    -0.332 OA 
BRANCH   8  11
HETATM   11  O   UNL     1      -6.238  10.295  69.423  1.00  0.00    -0.043 OA 
BRANCH  11  12
HETATM   12  P   UNL     1      -6.672  11.506  68.268  1.00  0.00    -0.073 P  
HETATM   13  O   UNL     1      -5.484  10.937  67.280  1.00  0.00    -0.040 OA 
HETATM   14  O   UNL     1      -7.890  10.644  67.877  1.00  0.00    -0.102 OA 
BRANCH  12  15
HETATM   15  O   UNL     1      -7.104  12.719  67.111  1.00  0.00    -0.116 OA 
BRANCH  15  16
HETATM   16  C   UNL     1      -7.968  13.763  67.600  1.00  0.00    -0.174 C  
BRANCH  16  17
HETATM   17  C   UNL     1      -9.446  13.481  67.376  1.00  0.00    -0.225 C  
HETATM   18  O   UNL     1     -10.106  13.309  68.632  1.00  0.00    -0.221 OA 
HETATM   19  C   UNL     1     -11.493  13.568  68.407  1.00  0.00    -0.311 C  
HETATM   20  H   UNL     1     -10.638  14.993  64.742  1.00  0.00     0.000 HD 
HETATM   21  C   UNL     1     -11.580  14.564  67.231  1.00  0.00    -0.385 C  
HETATM   22  H   UNL     1     -12.619  14.806  65.529  1.00  0.00     0.000 HD 
HETATM   23  C   UNL     1     -10.181  14.571  66.620  1.00  0.00    -0.275 C  
HETATM   24  O   UNL     1     -12.565  14.193  66.253  1.00  0.00    -0.449 OA 
HETATM   25  O   UNL     1     -10.177  14.310  65.216  1.00  0.00    -0.353 OA 
BRANCH  19  26
HETATM   26  N   UNL     1     -12.137  14.018  69.644  1.00  0.00    -0.340 N  
HETATM   27  C   UNL     1     -12.195  15.351  69.977  1.00  0.00    -0.361 C  
HETATM   28  C   UNL     1     -12.684  15.748  71.146  1.00  0.00    -0.488 C  
HETATM   29  C   UNL     1     -13.141  14.675  72.047  1.00  0.00    -0.337 C  
HETATM   30  N   UNL     1     -13.094  13.414  71.744  1.00  0.00    -0.389 N  
HETATM   31  N   UNL     1     -13.633  15.002  73.282  1.00  0.00    -0.594 NA 
HETATM   32  H   UNL     1     -13.436  12.716  72.403  1.00  0.00     0.000 HD 
HETATM   33  C   UNL     1     -12.578  13.025  70.527  1.00  0.00    -0.147 C  
HETATM   34  H1  UNL     1     -13.949  14.261  73.906  1.00  0.00     0.000 HD 
HETATM   35  H2  UNL     1     -13.682  15.979  73.575  1.00  0.00     0.000 HD 
HETATM   36  O   UNL     1     -12.504  11.833  70.221  1.00  0.00    -0.242 OA 
ENDBRANCH  19  26
ENDBRANCH  16  17
ENDBRANCH  15  16
ENDBRANCH  12  15
ENDBRANCH  11  12
ENDBRANCH   8  11
ENDBRANCH   7   8
ENDBRANCH   6   7
ENDBRANCH   5   6
ENDBRANCH   2   5
TORSDOF 10
ENDMDL
MODEL       95
REMARK 921   NORMALIZED FREE ENERGY PREDICTED BY IDOCK:   -5.33 KCAL/MOL
REMARK 922        TOTAL FREE ENERGY PREDICTED BY IDOCK:   -9.38 KCAL/MOL
REMARK 923 INTER-LIGAND FREE ENERGY PREDICTED BY IDOCK:   -8.57 KCAL/MOL
REMARK 924 INTRA-LIGAND FREE ENERGY PREDICTED BY IDOCK:   -0.82 KCAL/MOL
REMARK 927      BINDING AFFINITY PREDICTED BY RF-SCORE:    0.00 PKD
ROOT
HETATM    1  C   UNL     1      -8.980   2.476  63.977  1.00  0.00    -0.102 C  
HETATM    2  N   UNL     1      -8.697   3.160  65.297  1.00  0.00    -0.112 N  
HETATM    3  C   UNL     1      -8.560   2.133  66.408  1.00  0.00    -0.112 C  
HETATM    4  C   UNL     1      -7.367   3.925  65.186  1.00  0.00    -0.068 C  
ENDROOT
BRANCH   2   5
HETATM    5  C   UNL     1      -9.868   4.133  65.583  1.00  0.00    -0.205 C  
BRANCH   5   6
HETATM    6  C   UNL     1      -9.802   4.829  66.931  1.00  0.00    -0.205 C  
BRANCH   6   7
HETATM    7  O   UNL     1     -11.006   5.537  67.152  1.00  0.00    -0.170 OA 
BRANCH   7   8
HETATM    8  P   UNL     1     -10.730   6.838  68.259  1.00  0.00    -0.205 P  
HETATM    9  O   UNL     1      -9.235   6.679  68.006  1.00  0.00    -0.116 OA 
HETATM   10  O   UNL     1     -11.410   5.995  69.344  1.00  0.00    -0.398 OA 
BRANCH   8  11
HETATM   11  O   UNL     1     -10.453   8.140  69.365  1.00  0.00    -0.220 OA 
BRANCH  11  12
HETATM   12  P   UNL     1     -10.406   9.634  68.496  1.00  0.00    -0.217 P  
HETATM   13  O   UNL     1     -11.485  10.254  69.575  1.00  0.00    -0.242 OA 
HETATM   14  O   UNL     1      -9.044   9.931  69.158  1.00  0.00    -0.151 OA 
BRANCH  12  15
HETATM   15  O   UNL     1     -10.360  11.129  67.626  1.00  0.00    -0.182 OA 
BRANCH  15  16
HETATM   16  C   UNL     1     -11.011  11.121  66.341  1.00  0.00    -0.186 C  
BRANCH  16  17
HETATM   17  C   UNL     1     -11.716  12.427  66.011  1.00  0.00    -0.410 C  
HETATM   18  O   UNL     1     -11.221  13.474  66.850  1.00  0.00    -0.297 OA 
HETATM   19  C   UNL     1     -11.501  14.705  66.181  1.00  0.00    -0.339 C  
HETATM   20  H   UNL     1     -12.511  12.674  62.856  1.00  0.00     0.000 HD 
HETATM   21  C   UNL     1     -11.510  14.402  64.667  1.00  0.00    -0.387 C  
HETATM   22  H   UNL     1     -12.637  14.801  63.052  1.00  0.00     0.000 HD 
HETATM   23  C   UNL     1     -11.549  12.879  64.572  1.00  0.00    -0.350 C  
HETATM   24  O   UNL     1     -12.631  14.987  63.984  1.00  0.00    -0.817 OA 
HETATM   25  O   UNL     1     -12.615  12.391  63.757  1.00  0.00    -0.633 OA 
BRANCH  19  26
HETATM   26  N   UNL     1     -10.552  15.740  66.596  1.00  0.00    -0.310 N  
HETATM   27  C   UNL     1      -9.434  16.028  65.848  1.00  0.00    -0.316 C  
HETATM   28  C   UNL     1      -8.521  16.891  66.279  1.00  0.00    -0.322 C  
HETATM   29  C   UNL     1      -8.784  17.498  67.596  1.00  0.00    -0.223 C  
HETATM   30  N   UNL     1      -9.835  17.237  68.310  1.00  0.00    -0.289 N  
HETATM   31  N   UNL     1      -7.875  18.377  68.121  1.00  0.00    -0.280 NA 
HETATM   32  H   UNL     1      -9.971  17.697  69.209  1.00  0.00     0.000 HD 
HETATM   33  C   UNL     1     -10.767  16.335  67.845  1.00  0.00    -0.329 C  
HETATM   34  H1  UNL     1      -8.056  18.797  69.032  1.00  0.00     0.000 HD 
HETATM   35  H2  UNL     1      -7.025  18.609  67.606  1.00  0.00     0.000 HD 
HETATM   36  O   UNL     1     -11.766  16.054  68.511  1.00  0.00    -0.375 OA 
ENDBRANCH  19  26
ENDBRANCH  16  17
ENDBRANCH  15  16
ENDBRANCH  12  15
ENDBRANCH  11  12
ENDBRANCH   8  11
ENDBRANCH   7   8
ENDBRANCH   6   7
ENDBRANCH   5   6
ENDBRANCH   2   5
TORSDOF 10
ENDMDL
MODEL       96
REMARK 921   NORMALIZED FREE ENERGY PREDICTED BY IDOCK:   -5.30 KCAL/MOL
REMARK 922        TOTAL FREE ENERGY PREDICTED BY IDOCK:   -9.33 KCAL/MOL
REMARK 923 INTER-LIGAND FREE ENERGY PREDICTED BY IDOCK:   -7.93 KCAL/MOL
REMARK 924 INTRA-LIGAND FREE ENERGY PREDICTED BY IDOCK:   -1.39 KCAL/MOL
REMARK 927      BINDING AFFINITY PREDICTED BY RF-SCORE:    0.00 PKD
ROOT
HETATM    1  C   UNL     1     -10.236  13.039  64.528  1.00  0.00    -0.308 C  
HETATM    2  N   UNL     1     -11.537  13.612  65.049  1.00  0.00    -0.321 N  
HETATM    3  C   UNL     1     -12.675  13.301  64.091  1.00  0.00    -0.035 C  
HETATM    4  C   UNL     1     -11.860  12.959  66.404  1.00  0.00    -0.415 C  
ENDROOT
BRANCH   2   5
HETATM    5  C   UNL     1     -11.347  15.141  65.206  1.00  0.00    -0.318 C  
BRANCH   5   6
HETATM    6  C   UNL     1      -9.948  15.570  65.611  1.00  0.00    -0.360 C  
BRANCH   6   7
HETATM    7  O   UNL     1      -9.942  15.914  66.982  1.00  0.00    -0.239 OA 
BRANCH   7   8
HETATM    8  P   UNL     1      -8.399  15.549  67.675  1.00  0.00    -0.175 P  
HETATM    9  O   UNL     1      -7.748  16.140  66.430  1.00  0.00    -0.241 OA 
HETATM   10  O   UNL     1      -8.809  14.072  67.688  1.00  0.00    -0.170 OA 
BRANCH   8  11
HETATM   11  O   UNL     1      -6.856  15.184  68.368  1.00  0.00    -0.101 OA 
BRANCH  11  12
HETATM   12  P   UNL     1      -6.684  13.470  68.520  1.00  0.00    -0.121 P  
HETATM   13  O   UNL     1      -5.491  13.525  67.385  1.00  0.00    -0.349 OA 
HETATM   14  O   UNL     1      -5.918  13.703  69.839  1.00  0.00    -0.115 OA 
BRANCH  12  15
HETATM   15  O   UNL     1      -6.511  11.755  68.672  1.00  0.00    -0.053 OA 
BRANCH  15  16
HETATM   16  C   UNL     1      -6.782  11.217  69.981  1.00  0.00    -0.055 C  
BRANCH  16  17
HETATM   17  C   UNL     1      -7.312   9.791  69.952  1.00  0.00    -0.134 C  
HETATM   18  O   UNL     1      -8.304   9.619  70.967  1.00  0.00    -0.253 OA 
HETATM   19  C   UNL     1      -9.104   8.503  70.575  1.00  0.00    -0.156 C  
HETATM   20  H   UNL     1      -7.361   8.520  66.948  1.00  0.00     0.000 HD 
HETATM   21  C   UNL     1      -9.068   8.442  69.033  1.00  0.00    -0.147 C  
HETATM   22  H   UNL     1      -8.813   7.080  67.578  1.00  0.00     0.000 HD 
HETATM   23  C   UNL     1      -7.937   9.385  68.631  1.00  0.00    -0.092 C  
HETATM   24  O   UNL     1      -8.835   7.117  68.528  1.00  0.00    -0.126 OA 
HETATM   25  O   UNL     1      -6.970   8.775  67.775  1.00  0.00    -0.073 OA 
BRANCH  19  26
HETATM   26  N   UNL     1     -10.445   8.605  71.155  1.00  0.00    -0.212 N  
HETATM   27  C   UNL     1     -11.290   9.641  70.828  1.00  0.00    -0.340 C  
HETATM   28  C   UNL     1     -12.462   9.790  71.433  1.00  0.00    -0.482 C  
HETATM   29  C   UNL     1     -12.781   8.792  72.470  1.00  0.00    -0.311 C  
HETATM   30  N   UNL     1     -11.994   7.810  72.787  1.00  0.00    -0.608 N  
HETATM   31  N   UNL     1     -13.959   8.895  73.159  1.00  0.00    -1.215 NA 
HETATM   32  H   UNL     1     -12.272   7.141  73.504  1.00  0.00     0.000 HD 
HETATM   33  C   UNL     1     -10.780   7.677  72.148  1.00  0.00    -0.241 C  
HETATM   34  H1  UNL     1     -14.179   8.205  73.876  1.00  0.00     0.000 HD 
HETATM   35  H2  UNL     1     -14.609   9.655  72.957  1.00  0.00     0.000 HD 
HETATM   36  O   UNL     1     -10.005   6.764  72.443  1.00  0.00    -0.169 OA 
ENDBRANCH  19  26
ENDBRANCH  16  17
ENDBRANCH  15  16
ENDBRANCH  12  15
ENDBRANCH  11  12
ENDBRANCH   8  11
ENDBRANCH   7   8
ENDBRANCH   6   7
ENDBRANCH   5   6
ENDBRANCH   2   5
TORSDOF 10
ENDMDL
MODEL       97
REMARK 921   NORMALIZED FREE ENERGY PREDICTED BY IDOCK:   -5.28 KCAL/MOL
REMARK 922        TOTAL FREE ENERGY PREDICTED BY IDOCK:   -9.30 KCAL/MOL
REMARK 923 INTER-LIGAND FREE ENERGY PREDICTED BY IDOCK:   -7.54 KCAL/MOL
REMARK 924 INTRA-LIGAND FREE ENERGY PREDICTED BY IDOCK:   -1.76 KCAL/MOL
REMARK 927      BINDING AFFINITY PREDICTED BY RF-SCORE:    0.00 PKD
ROOT
HETATM    1  C   UNL     1     -10.030   9.530  65.734  1.00  0.00    -0.245 C  
HETATM    2  N   UNL     1      -9.140  10.434  64.906  1.00  0.00    -0.192 N  
HETATM    3  C   UNL     1      -7.886  10.798  65.682  1.00  0.00    -0.076 C  
HETATM    4  C   UNL     1      -8.715   9.682  63.634  1.00  0.00    -0.224 C  
ENDROOT
BRANCH   2   5
HETATM    5  C   UNL     1      -9.959  11.699  64.549  1.00  0.00    -0.253 C  
BRANCH   5   6
HETATM    6  C   UNL     1     -11.462  11.492  64.502  1.00  0.00    -0.131 C  
BRANCH   6   7
HETATM    7  O   UNL     1     -12.102  12.537  65.207  1.00  0.00    -0.426 OA 
BRANCH   7   8
HETATM    8  P   UNL     1     -11.495  14.067  64.673  1.00  0.00    -0.371 P  
HETATM    9  O   UNL     1     -11.866  14.641  66.035  1.00  0.00    -0.352 OA 
HETATM   10  O   UNL     1     -12.540  14.036  63.552  1.00  0.00    -0.842 OA 
BRANCH   8  11
HETATM   11  O   UNL     1     -10.886  15.596  64.140  1.00  0.00    -0.082 OA 
BRANCH  11  12
HETATM   12  P   UNL     1     -10.878  16.707  65.465  1.00  0.00     0.084 P  
HETATM   13  O   UNL     1      -9.233  16.738  65.380  1.00  0.00    -0.281 OA 
HETATM   14  O   UNL     1     -11.296  17.822  64.483  1.00  0.00    -0.531 OA 
BRANCH  12  15
HETATM   15  O   UNL     1     -10.868  17.818  66.791  1.00  0.00    -0.197 OA 
BRANCH  15  16
HETATM   16  C   UNL     1      -9.567  18.149  67.315  1.00  0.00    -0.281 C  
BRANCH  16  17
HETATM   17  C   UNL     1      -9.186  17.341  68.546  1.00  0.00    -0.273 C  
HETATM   18  O   UNL     1     -10.176  16.340  68.798  1.00  0.00    -0.225 OA 
HETATM   19  C   UNL     1      -9.547  15.328  69.585  1.00  0.00    -0.180 C  
HETATM   20  H   UNL     1      -5.959  17.018  68.900  1.00  0.00     0.000 HD 
HETATM   21  C   UNL     1      -8.047  15.342  69.222  1.00  0.00    -0.246 C  
HETATM   22  H   UNL     1      -6.265  15.308  70.150  1.00  0.00     0.000 HD 
HETATM   23  C   UNL     1      -7.845  16.639  68.441  1.00  0.00    -0.202 C  
HETATM   24  O   UNL     1      -7.189  15.299  70.374  1.00  0.00     0.116 OA 
HETATM   25  O   UNL     1      -6.799  17.457  68.966  1.00  0.00    -0.227 OA 
BRANCH  19  26
HETATM   26  N   UNL     1     -10.215  14.039  69.390  1.00  0.00     0.092 N  
HETATM   27  C   UNL     1      -9.792  13.152  68.428  1.00  0.00    -0.206 C  
HETATM   28  C   UNL     1     -10.462  12.032  68.182  1.00  0.00    -0.218 C  
HETATM   29  C   UNL     1     -11.675  11.819  68.992  1.00  0.00    -0.328 C  
HETATM   30  N   UNL     1     -12.083  12.647  69.904  1.00  0.00    -0.287 N  
HETATM   31  N   UNL     1     -12.435  10.702  68.778  1.00  0.00    -0.690 NA 
HETATM   32  H   UNL     1     -12.924  12.442  70.443  1.00  0.00     0.000 HD 
HETATM   33  C   UNL     1     -11.374  13.805  70.139  1.00  0.00     0.040 C  
HETATM   34  H1  UNL     1     -13.275  10.555  69.338  1.00  0.00     0.000 HD 
HETATM   35  H2  UNL     1     -12.165  10.024  68.065  1.00  0.00     0.000 HD 
HETATM   36  O   UNL     1     -11.750  14.618  70.987  1.00  0.00    -0.308 OA 
ENDBRANCH  19  26
ENDBRANCH  16  17
ENDBRANCH  15  16
ENDBRANCH  12  15
ENDBRANCH  11  12
ENDBRANCH   8  11
ENDBRANCH   7   8
ENDBRANCH   6   7
ENDBRANCH   5   6
ENDBRANCH   2   5
TORSDOF 10
ENDMDL
MODEL       98
REMARK 921   NORMALIZED FREE ENERGY PREDICTED BY IDOCK:   -5.28 KCAL/MOL
REMARK 922        TOTAL FREE ENERGY PREDICTED BY IDOCK:   -9.30 KCAL/MOL
REMARK 923 INTER-LIGAND FREE ENERGY PREDICTED BY IDOCK:   -8.96 KCAL/MOL
REMARK 924 INTRA-LIGAND FREE ENERGY PREDICTED BY IDOCK:   -0.34 KCAL/MOL
REMARK 927      BINDING AFFINITY PREDICTED BY RF-SCORE:    0.00 PKD
ROOT
HETATM    1  C   UNL     1      -6.431  18.133  66.938  1.00  0.00    -0.179 C  
HETATM    2  N   UNL     1      -7.573  18.354  67.906  1.00  0.00    -0.241 N  
HETATM    3  C   UNL     1      -8.006  17.036  68.525  1.00  0.00    -0.249 C  
HETATM    4  C   UNL     1      -7.094  19.280  69.037  1.00  0.00    -0.356 C  
ENDROOT
BRANCH   2   5
HETATM    5  C   UNL     1      -8.737  19.005  67.119  1.00  0.00    -0.288 C  
BRANCH   5   6
HETATM    6  C   UNL     1     -10.004  18.171  67.050  1.00  0.00    -0.338 C  
BRANCH   6   7
HETATM    7  O   UNL     1     -10.418  18.057  65.703  1.00  0.00    -0.619 OA 
BRANCH   7   8
HETATM    8  P   UNL     1     -10.492  16.389  65.249  1.00  0.00     0.009 P  
HETATM    9  O   UNL     1     -11.468  16.777  64.145  1.00  0.00    -1.171 OA 
HETATM   10  O   UNL     1     -11.020  16.080  66.654  1.00  0.00    -0.234 OA 
BRANCH   8  11
HETATM   11  O   UNL     1     -10.566  14.721  64.794  1.00  0.00    -0.413 OA 
BRANCH  11  12
HETATM   12  P   UNL     1     -11.456  13.838  65.985  1.00  0.00    -0.352 P  
HETATM   13  O   UNL     1     -12.701  13.718  64.913  1.00  0.00    -0.637 OA 
HETATM   14  O   UNL     1     -10.595  12.601  65.656  1.00  0.00    -0.264 OA 
BRANCH  12  15
HETATM   15  O   UNL     1     -12.348  12.955  67.176  1.00  0.00    -0.339 OA 
BRANCH  15  16
HETATM   16  C   UNL     1     -11.598  12.546  68.336  1.00  0.00    -0.322 C  
BRANCH  16  17
HETATM   17  C   UNL     1     -11.744  11.067  68.662  1.00  0.00    -0.296 C  
HETATM   18  O   UNL     1     -11.022  10.284  67.708  1.00  0.00    -0.278 OA 
HETATM   19  C   UNL     1     -10.760   9.023  68.326  1.00  0.00    -0.103 C  
HETATM   20  H   UNL     1     -11.989  10.494  71.864  1.00  0.00     0.000 HD 
HETATM   21  C   UNL     1     -10.681   9.274  69.846  1.00  0.00    -0.234 C  
HETATM   22  H   UNL     1     -11.375   8.468  71.550  1.00  0.00     0.000 HD 
HETATM   23  C   UNL     1     -11.245  10.679  70.041  1.00  0.00    -0.309 C  
HETATM   24  O   UNL     1     -11.424   8.313  70.614  1.00  0.00    -0.274 OA 
HETATM   25  O   UNL     1     -12.301  10.737  71.000  1.00  0.00    -0.344 OA 
BRANCH  19  26
HETATM   26  N   UNL     1      -9.566   8.406  67.741  1.00  0.00    -0.152 N  
HETATM   27  C   UNL     1      -8.682   7.687  68.512  1.00  0.00    -0.128 C  
HETATM   28  C   UNL     1      -7.548   7.219  68.002  1.00  0.00    -0.115 C  
HETATM   29  C   UNL     1      -7.307   7.529  66.581  1.00  0.00    -0.091 C  
HETATM   30  N   UNL     1      -8.134   8.204  65.844  1.00  0.00    -0.108 N  
HETATM   31  N   UNL     1      -6.147   7.105  65.992  1.00  0.00    -0.036 NA 
HETATM   32  H   UNL     1      -7.920   8.378  64.862  1.00  0.00     0.000 HD 
HETATM   33  C   UNL     1      -9.302   8.684  66.395  1.00  0.00    -0.211 C  
HETATM   34  H1  UNL     1      -5.980   7.320  65.009  1.00  0.00     0.000 HD 
HETATM   35  H2  UNL     1      -5.457   6.580  66.529  1.00  0.00     0.000 HD 
HETATM   36  O   UNL     1     -10.097   9.345  65.722  1.00  0.00    -0.288 OA 
ENDBRANCH  19  26
ENDBRANCH  16  17
ENDBRANCH  15  16
ENDBRANCH  12  15
ENDBRANCH  11  12
ENDBRANCH   8  11
ENDBRANCH   7   8
ENDBRANCH   6   7
ENDBRANCH   5   6
ENDBRANCH   2   5
TORSDOF 10
ENDMDL
MODEL       99
REMARK 921   NORMALIZED FREE ENERGY PREDICTED BY IDOCK:   -5.28 KCAL/MOL
REMARK 922        TOTAL FREE ENERGY PREDICTED BY IDOCK:   -9.30 KCAL/MOL
REMARK 923 INTER-LIGAND FREE ENERGY PREDICTED BY IDOCK:   -8.33 KCAL/MOL
REMARK 924 INTRA-LIGAND FREE ENERGY PREDICTED BY IDOCK:   -0.96 KCAL/MOL
REMARK 927      BINDING AFFINITY PREDICTED BY RF-SCORE:    0.00 PKD
ROOT
HETATM    1  C   UNL     1      -5.874  19.151  65.731  1.00  0.00    -0.168 C  
HETATM    2  N   UNL     1      -6.669  18.889  66.993  1.00  0.00    -0.197 N  
HETATM    3  C   UNL     1      -6.053  17.745  67.779  1.00  0.00    -0.156 C  
HETATM    4  C   UNL     1      -6.632  20.150  67.873  1.00  0.00    -0.263 C  
ENDROOT
BRANCH   2   5
HETATM    5  C   UNL     1      -8.121  18.555  66.573  1.00  0.00    -0.280 C  
BRANCH   5   6
HETATM    6  C   UNL     1      -8.587  17.160  66.950  1.00  0.00    -0.232 C  
BRANCH   6   7
HETATM    7  O   UNL     1      -8.884  16.431  65.775  1.00  0.00    -0.446 OA 
BRANCH   7   8
HETATM    8  P   UNL     1     -10.412  15.637  65.945  1.00  0.00    -0.374 P  
HETATM    9  O   UNL     1     -10.845  16.282  64.634  1.00  0.00    -0.687 OA 
HETATM   10  O   UNL     1     -10.604  16.395  67.264  1.00  0.00    -0.314 OA 
BRANCH   8  11
HETATM   11  O   UNL     1     -11.940  14.842  66.115  1.00  0.00    -0.281 OA 
BRANCH  11  12
HETATM   12  P   UNL     1     -11.683  13.155  66.394  1.00  0.00    -0.406 P  
HETATM   13  O   UNL     1     -10.096  13.370  66.008  1.00  0.00    -0.293 OA 
HETATM   14  O   UNL     1     -11.712  13.441  67.911  1.00  0.00    -0.320 OA 
BRANCH  12  15
HETATM   15  O   UNL     1     -11.424  11.467  66.674  1.00  0.00    -0.408 OA 
BRANCH  15  16
HETATM   16  C   UNL     1     -10.343  10.872  65.929  1.00  0.00    -0.250 C  
BRANCH  16  17
HETATM   17  C   UNL     1      -9.324  10.161  66.805  1.00  0.00    -0.160 C  
HETATM   18  O   UNL     1      -9.878   9.920  68.101  1.00  0.00    -0.143 OA 
HETATM   19  C   UNL     1      -9.133   8.844  68.673  1.00  0.00    -0.137 C  
HETATM   20  H   UNL     1      -7.382   8.157  65.115  1.00  0.00     0.000 HD 
HETATM   21  C   UNL     1      -8.622   7.977  67.503  1.00  0.00    -0.126 C  
HETATM   22  H   UNL     1      -6.922   7.086  66.910  1.00  0.00     0.000 HD 
HETATM   23  C   UNL     1      -8.852   8.828  66.256  1.00  0.00    -0.157 C  
HETATM   24  O   UNL     1      -7.236   7.620  67.631  1.00  0.00    -0.082 OA 
HETATM   25  O   UNL     1      -7.678   8.991  65.459  1.00  0.00    -0.088 OA 
BRANCH  19  26
HETATM   26  N   UNL     1      -9.944   8.128  69.660  1.00  0.00    -0.189 N  
HETATM   27  C   UNL     1     -10.760   7.082  69.295  1.00  0.00    -0.225 C  
HETATM   28  C   UNL     1     -11.572   6.504  70.171  1.00  0.00    -0.466 C  
HETATM   29  C   UNL     1     -11.546   7.061  71.536  1.00  0.00    -0.287 C  
HETATM   30  N   UNL     1     -10.779   8.045  71.894  1.00  0.00    -0.237 N  
HETATM   31  N   UNL     1     -12.376   6.537  72.489  1.00  0.00    -0.513 NA 
HETATM   32  H   UNL     1     -10.794   8.382  72.856  1.00  0.00     0.000 HD 
HETATM   33  C   UNL     1      -9.947   8.633  70.966  1.00  0.00    -0.215 C  
HETATM   34  H1  UNL     1     -12.358   6.922  73.433  1.00  0.00     0.000 HD 
HETATM   35  H2  UNL     1     -13.006   5.769  72.257  1.00  0.00     0.000 HD 
HETATM   36  O   UNL     1      -9.222   9.582  71.275  1.00  0.00    -0.237 OA 
ENDBRANCH  19  26
ENDBRANCH  16  17
ENDBRANCH  15  16
ENDBRANCH  12  15
ENDBRANCH  11  12
ENDBRANCH   8  11
ENDBRANCH   7   8
ENDBRANCH   6   7
ENDBRANCH   5   6
ENDBRANCH   2   5
TORSDOF 10
ENDMDL
MODEL      100
REMARK 921   NORMALIZED FREE ENERGY PREDICTED BY IDOCK:   -5.27 KCAL/MOL
REMARK 922        TOTAL FREE ENERGY PREDICTED BY IDOCK:   -9.28 KCAL/MOL
REMARK 923 INTER-LIGAND FREE ENERGY PREDICTED BY IDOCK:   -8.19 KCAL/MOL
REMARK 924 INTRA-LIGAND FREE ENERGY PREDICTED BY IDOCK:   -1.09 KCAL/MOL
REMARK 927      BINDING AFFINITY PREDICTED BY RF-SCORE:    0.00 PKD
ROOT
HETATM    1  C   UNL     1      -8.311  15.253  69.617  1.00  0.00    -0.108 C  
HETATM    2  N   UNL     1      -8.198  15.120  68.114  1.00  0.00    -0.141 N  
HETATM    3  C   UNL     1      -6.871  15.680  67.631  1.00  0.00    -0.176 C  
HETATM    4  C   UNL     1      -8.252  13.628  67.742  1.00  0.00    -0.179 C  
ENDROOT
BRANCH   2   5
HETATM    5  C   UNL     1      -9.386  15.887  67.483  1.00  0.00    -0.217 C  
BRANCH   5   6
HETATM    6  C   UNL     1      -9.256  16.148  65.993  1.00  0.00    -0.328 C  
BRANCH   6   7
HETATM    7  O   UNL     1     -10.470  16.679  65.502  1.00  0.00    -0.509 OA 
BRANCH   7   8
HETATM    8  P   UNL     1     -11.434  15.413  64.821  1.00  0.00    -0.166 P  
HETATM    9  O   UNL     1     -10.152  14.623  64.585  1.00  0.00    -0.238 OA 
HETATM   10  O   UNL     1     -11.914  16.413  63.764  1.00  0.00    -0.964 OA 
BRANCH   8  11
HETATM   11  O   UNL     1     -12.397  14.147  64.141  1.00  0.00    -0.628 OA 
BRANCH  11  12
HETATM   12  P   UNL     1     -12.116  12.679  65.010  1.00  0.00    -0.432 P  
HETATM   13  O   UNL     1     -12.733  13.400  66.356  1.00  0.00    -0.232 OA 
HETATM   14  O   UNL     1     -13.368  12.082  64.332  1.00  0.00    -0.657 OA 
BRANCH  12  15
HETATM   15  O   UNL     1     -11.834  11.210  65.881  1.00  0.00     0.134 OA 
BRANCH  15  16
HETATM   16  C   UNL     1     -11.276  11.368  67.200  1.00  0.00    -0.296 C  
BRANCH  16  17
HETATM   17  C   UNL     1     -10.113  10.429  67.481  1.00  0.00    -0.192 C  
HETATM   18  O   UNL     1      -9.952  10.260  68.892  1.00  0.00    -0.181 OA 
HETATM   19  C   UNL     1      -9.247   9.033  69.082  1.00  0.00    -0.144 C  
HETATM   20  H   UNL     1      -9.762   8.129  65.195  1.00  0.00     0.000 HD 
HETATM   21  C   UNL     1      -9.596   8.123  67.886  1.00  0.00    -0.155 C  
HETATM   22  H   UNL     1      -8.661   6.920  66.576  1.00  0.00     0.000 HD 
HETATM   23  C   UNL     1     -10.265   9.048  66.872  1.00  0.00    -0.269 C  
HETATM   24  O   UNL     1      -8.446   7.481  67.312  1.00  0.00    -0.117 OA 
HETATM   25  O   UNL     1      -9.667   8.993  65.577  1.00  0.00    -0.203 OA 
BRANCH  19  26
HETATM   26  N   UNL     1      -9.553   8.465  70.397  1.00  0.00    -0.167 N  
HETATM   27  C   UNL     1     -10.769   8.677  71.003  1.00  0.00    -0.228 C  
HETATM   28  C   UNL     1     -11.006   8.251  72.238  1.00  0.00    -0.418 C  
HETATM   29  C   UNL     1      -9.889   7.558  72.904  1.00  0.00    -0.219 C  
HETATM   30  N   UNL     1      -8.738   7.349  72.342  1.00  0.00    -0.118 N  
HETATM   31  N   UNL     1     -10.046   7.114  74.189  1.00  0.00    -0.442 NA 
HETATM   32  H   UNL     1      -8.004   6.852  72.846  1.00  0.00     0.000 HD 
HETATM   33  C   UNL     1      -8.512   7.804  71.061  1.00  0.00    -0.122 C  
HETATM   34  H1  UNL     1      -9.274   6.635  74.649  1.00  0.00     0.000 HD 
HETATM   35  H2  UNL     1     -10.928   7.262  74.680  1.00  0.00     0.000 HD 
HETATM   36  O   UNL     1      -7.421   7.636  70.511  1.00  0.00    -0.076 OA 
ENDBRANCH  19  26
ENDBRANCH  16  17
ENDBRANCH  15  16
ENDBRANCH  12  15
ENDBRANCH  11  12
ENDBRANCH   8  11
ENDBRANCH   7   8
ENDBRANCH   6   7
ENDBRANCH   5   6
ENDBRANCH   2   5
TORSDOF 10
ENDMDL
MODEL      101
REMARK 921   NORMALIZED FREE ENERGY PREDICTED BY IDOCK:   -5.25 KCAL/MOL
REMARK 922        TOTAL FREE ENERGY PREDICTED BY IDOCK:   -9.26 KCAL/MOL
REMARK 923 INTER-LIGAND FREE ENERGY PREDICTED BY IDOCK:   -7.71 KCAL/MOL
REMARK 924 INTRA-LIGAND FREE ENERGY PREDICTED BY IDOCK:   -1.55 KCAL/MOL
REMARK 927      BINDING AFFINITY PREDICTED BY RF-SCORE:    0.00 PKD
ROOT
HETATM    1  C   UNL     1     -12.203  15.406  64.084  1.00  0.00    -0.057 C  
HETATM    2  N   UNL     1     -11.605  14.238  64.838  1.00  0.00    -0.365 N  
HETATM    3  C   UNL     1     -10.209  14.582  65.329  1.00  0.00    -0.402 C  
HETATM    4  C   UNL     1     -12.483  13.937  66.064  1.00  0.00    -0.461 C  
ENDROOT
BRANCH   2   5
HETATM    5  C   UNL     1     -11.570  13.025  63.875  1.00  0.00    -0.449 C  
BRANCH   5   6
HETATM    6  C   UNL     1     -10.366  12.116  64.041  1.00  0.00    -0.385 C  
BRANCH   6   7
HETATM    7  O   UNL     1     -10.780  10.886  64.602  1.00  0.00    -0.308 OA 
BRANCH   7   8
HETATM    8  P   UNL     1      -9.940  10.603  66.088  1.00  0.00    -0.243 P  
HETATM    9  O   UNL     1      -9.665   9.182  65.612  1.00  0.00    -0.270 OA 
HETATM   10  O   UNL     1     -11.245  10.917  66.828  1.00  0.00    -0.244 OA 
BRANCH   8  11
HETATM   11  O   UNL     1      -9.100  10.321  67.573  1.00  0.00    -0.137 OA 
BRANCH  11  12
HETATM   12  P   UNL     1      -8.330  11.783  68.086  1.00  0.00    -0.164 P  
HETATM   13  O   UNL     1      -7.471  10.903  69.182  1.00  0.00    -0.114 OA 
HETATM   14  O   UNL     1      -7.447  11.716  66.821  1.00  0.00    -0.142 OA 
BRANCH  12  15
HETATM   15  O   UNL     1      -7.559  13.244  68.599  1.00  0.00    -0.126 OA 
BRANCH  15  16
HETATM   16  C   UNL     1      -6.479  13.704  67.763  1.00  0.00    -0.171 C  
BRANCH  16  17
HETATM   17  C   UNL     1      -6.040  15.127  68.069  1.00  0.00    -0.148 C  
HETATM   18  O   UNL     1      -6.664  16.037  67.159  1.00  0.00    -0.189 OA 
HETATM   19  C   UNL     1      -6.648  17.321  67.785  1.00  0.00    -0.156 C  
HETATM   20  H   UNL     1      -5.487  15.626  71.245  1.00  0.00     0.000 HD 
HETATM   21  C   UNL     1      -6.673  17.079  69.309  1.00  0.00    -0.234 C  
HETATM   22  H   UNL     1      -5.732  17.732  70.959  1.00  0.00     0.000 HD 
HETATM   23  C   UNL     1      -6.368  15.592  69.475  1.00  0.00    -0.166 C  
HETATM   24  O   UNL     1      -5.717  17.881  70.021  1.00  0.00    -0.235 OA 
HETATM   25  O   UNL     1      -5.281  15.334  70.364  1.00  0.00    -0.113 OA 
BRANCH  19  26
HETATM   26  N   UNL     1      -7.741  18.152  67.275  1.00  0.00    -0.215 N  
HETATM   27  C   UNL     1      -8.963  17.609  66.952  1.00  0.00    -0.246 C  
HETATM   28  C   UNL     1      -9.916  18.344  66.392  1.00  0.00    -0.399 C  
HETATM   29  C   UNL     1      -9.572  19.755  66.137  1.00  0.00    -0.398 C  
HETATM   30  N   UNL     1      -8.425  20.279  66.439  1.00  0.00    -0.532 N  
HETATM   31  N   UNL     1     -10.493  20.570  65.536  1.00  0.00    -0.225 NA 
HETATM   32  H   UNL     1      -8.247  21.265  66.251  1.00  0.00     0.000 HD 
HETATM   33  C   UNL     1      -7.449  19.496  67.016  1.00  0.00    -0.228 C  
HETATM   34  H1  UNL     1     -10.256  21.545  65.360  1.00  0.00     0.000 HD 
HETATM   35  H2  UNL     1     -11.408  20.205  65.268  1.00  0.00     0.000 HD 
HETATM   36  O   UNL     1      -6.343  19.965  67.296  1.00  0.00    -0.188 OA 
ENDBRANCH  19  26
ENDBRANCH  16  17
ENDBRANCH  15  16
ENDBRANCH  12  15
ENDBRANCH  11  12
ENDBRANCH   8  11
ENDBRANCH   7   8
ENDBRANCH   6   7
ENDBRANCH   5   6
ENDBRANCH   2   5
TORSDOF 10
ENDMDL
MODEL      102
REMARK 921   NORMALIZED FREE ENERGY PREDICTED BY IDOCK:   -5.25 KCAL/MOL
REMARK 922        TOTAL FREE ENERGY PREDICTED BY IDOCK:   -9.25 KCAL/MOL
REMARK 923 INTER-LIGAND FREE ENERGY PREDICTED BY IDOCK:   -8.10 KCAL/MOL
REMARK 924 INTRA-LIGAND FREE ENERGY PREDICTED BY IDOCK:   -1.15 KCAL/MOL
REMARK 927      BINDING AFFINITY PREDICTED BY RF-SCORE:    0.00 PKD
ROOT
HETATM    1  C   UNL     1      -7.160   6.715  66.127  1.00  0.00    -0.063 C  
HETATM    2  N   UNL     1      -7.582   8.056  65.564  1.00  0.00    -0.081 N  
HETATM    3  C   UNL     1      -6.551   9.120  65.900  1.00  0.00    -0.071 C  
HETATM    4  C   UNL     1      -7.674   7.944  64.033  1.00  0.00    -0.133 C  
ENDROOT
BRANCH   2   5
HETATM    5  C   UNL     1      -8.961   8.408  66.174  1.00  0.00    -0.177 C  
BRANCH   5   6
HETATM    6  C   UNL     1      -9.060   8.217  67.677  1.00  0.00    -0.131 C  
BRANCH   6   7
HETATM    7  O   UNL     1      -9.717   6.996  67.952  1.00  0.00    -0.124 OA 
BRANCH   7   8
HETATM    8  P   UNL     1     -10.361   7.023  69.558  1.00  0.00    -0.227 P  
HETATM    9  O   UNL     1      -9.041   6.445  70.052  1.00  0.00    -0.148 OA 
HETATM   10  O   UNL     1     -11.471   6.081  69.076  1.00  0.00    -0.275 OA 
BRANCH   8  11
HETATM   11  O   UNL     1     -11.006   7.051  71.164  1.00  0.00    -0.238 OA 
BRANCH  11  12
HETATM   12  P   UNL     1     -11.669   8.614  71.491  1.00  0.00    -0.353 P  
HETATM   13  O   UNL     1     -12.112   8.074  72.982  1.00  0.00    -0.200 OA 
HETATM   14  O   UNL     1     -10.234   9.133  71.722  1.00  0.00    -0.338 OA 
BRANCH  12  15
HETATM   15  O   UNL     1     -12.334  10.178  71.819  1.00  0.00    -0.388 OA 
BRANCH  15  16
HETATM   16  C   UNL     1     -12.785  10.915  70.666  1.00  0.00    -0.309 C  
BRANCH  16  17
HETATM   17  C   UNL     1     -11.854  12.052  70.272  1.00  0.00    -0.270 C  
HETATM   18  O   UNL     1     -11.322  11.817  68.966  1.00  0.00    -0.234 OA 
HETATM   19  C   UNL     1     -10.911  13.085  68.455  1.00  0.00    -0.258 C  
HETATM   20  H   UNL     1     -12.773  14.927  71.510  1.00  0.00     0.000 HD 
HETATM   21  C   UNL     1     -11.813  14.150  69.113  1.00  0.00    -0.341 C  
HETATM   22  H   UNL     1     -11.634  15.940  70.008  1.00  0.00     0.000 HD 
HETATM   23  C   UNL     1     -12.511  13.419  70.257  1.00  0.00    -0.215 C  
HETATM   24  O   UNL     1     -11.079  15.284  69.603  1.00  0.00    -0.243 OA 
HETATM   25  O   UNL     1     -12.362  14.071  71.519  1.00  0.00    -0.340 OA 
BRANCH  19  26
HETATM   26  N   UNL     1     -10.935  13.079  66.990  1.00  0.00    -0.261 N  
HETATM   27  C   UNL     1     -12.121  13.113  66.293  1.00  0.00    -0.397 C  
HETATM   28  C   UNL     1     -12.145  13.001  64.970  1.00  0.00    -0.470 C  
HETATM   29  C   UNL     1     -10.835  12.829  64.316  1.00  0.00    -0.390 C  
HETATM   30  N   UNL     1      -9.710  12.798  64.962  1.00  0.00    -0.495 N  
HETATM   31  N   UNL     1     -10.780  12.679  62.958  1.00  0.00    -0.471 NA 
HETATM   32  H   UNL     1      -8.832  12.690  64.456  1.00  0.00     0.000 HD 
HETATM   33  C   UNL     1      -9.709  12.912  66.335  1.00  0.00    -0.263 C  
HETATM   34  H1  UNL     1      -9.875  12.560  62.505  1.00  0.00     0.000 HD 
HETATM   35  H2  UNL     1     -11.637  12.685  62.403  1.00  0.00     0.000 HD 
HETATM   36  O   UNL     1      -8.656  12.867  66.975  1.00  0.00    -0.200 OA 
ENDBRANCH  19  26
ENDBRANCH  16  17
ENDBRANCH  15  16
ENDBRANCH  12  15
ENDBRANCH  11  12
ENDBRANCH   8  11
ENDBRANCH   7   8
ENDBRANCH   6   7
ENDBRANCH   5   6
ENDBRANCH   2   5
TORSDOF 10
ENDMDL
MODEL      103
REMARK 921   NORMALIZED FREE ENERGY PREDICTED BY IDOCK:   -5.23 KCAL/MOL
REMARK 922        TOTAL FREE ENERGY PREDICTED BY IDOCK:   -9.23 KCAL/MOL
REMARK 923 INTER-LIGAND FREE ENERGY PREDICTED BY IDOCK:   -8.20 KCAL/MOL
REMARK 924 INTRA-LIGAND FREE ENERGY PREDICTED BY IDOCK:   -1.03 KCAL/MOL
REMARK 927      BINDING AFFINITY PREDICTED BY RF-SCORE:    0.00 PKD
ROOT
HETATM    1  C   UNL     1      -5.877  17.918  69.759  1.00  0.00    -0.243 C  
HETATM    2  N   UNL     1      -6.766  17.467  68.619  1.00  0.00    -0.202 N  
HETATM    3  C   UNL     1      -5.937  16.816  67.526  1.00  0.00    -0.152 C  
HETATM    4  C   UNL     1      -7.764  16.424  69.151  1.00  0.00    -0.220 C  
ENDROOT
BRANCH   2   5
HETATM    5  C   UNL     1      -7.510  18.715  68.082  1.00  0.00    -0.268 C  
BRANCH   5   6
HETATM    6  C   UNL     1      -8.917  18.448  67.576  1.00  0.00    -0.264 C  
BRANCH   6   7
HETATM    7  O   UNL     1      -8.864  18.085  66.211  1.00  0.00    -0.402 OA 
BRANCH   7   8
HETATM    8  P   UNL     1     -10.135  16.970  65.848  1.00  0.00    -0.131 P  
HETATM    9  O   UNL     1     -10.642  17.148  67.273  1.00  0.00    -0.325 OA 
HETATM   10  O   UNL     1      -9.061  15.918  65.549  1.00  0.00    -0.286 OA 
BRANCH   8  11
HETATM   11  O   UNL     1     -11.407  15.855  65.484  1.00  0.00    -0.100 OA 
BRANCH  11  12
HETATM   12  P   UNL     1     -10.806  14.238  65.598  1.00  0.00    -0.346 P  
HETATM   13  O   UNL     1     -11.967  13.924  66.723  1.00  0.00    -0.396 OA 
HETATM   14  O   UNL     1     -11.519  13.919  64.267  1.00  0.00    -0.371 OA 
BRANCH  12  15
HETATM   15  O   UNL     1     -10.205  12.619  65.713  1.00  0.00    -0.264 OA 
BRANCH  15  16
HETATM   16  C   UNL     1     -10.921  11.753  66.615  1.00  0.00    -0.294 C  
BRANCH  16  17
HETATM   17  C   UNL     1     -10.205  11.532  67.938  1.00  0.00    -0.184 C  
HETATM   18  O   UNL     1     -11.112  10.985  68.899  1.00  0.00    -0.200 OA 
HETATM   19  C   UNL     1     -10.317  10.333  69.891  1.00  0.00    -0.233 C  
HETATM   20  H   UNL     1      -7.063  10.739  67.559  1.00  0.00     0.000 HD 
HETATM   21  C   UNL     1      -9.021   9.868  69.195  1.00  0.00    -0.169 C  
HETATM   22  H   UNL     1      -7.038   9.887  69.522  1.00  0.00     0.000 HD 
HETATM   23  C   UNL     1      -9.013  10.596  67.853  1.00  0.00    -0.138 C  
HETATM   24  O   UNL     1      -7.837  10.173  69.950  1.00  0.00    -0.167 OA 
HETATM   25  O   UNL     1      -7.809  11.325  67.613  1.00  0.00    -0.110 OA 
BRANCH  19  26
HETATM   26  N   UNL     1     -11.083   9.267  70.541  1.00  0.00    -0.252 N  
HETATM   27  C   UNL     1     -10.798   7.941  70.315  1.00  0.00    -0.241 C  
HETATM   28  C   UNL     1     -11.560   6.977  70.821  1.00  0.00    -0.381 C  
HETATM   29  C   UNL     1     -12.716   7.425  71.618  1.00  0.00    -0.365 C  
HETATM   30  N   UNL     1     -12.994   8.673  71.840  1.00  0.00    -0.352 N  
HETATM   31  N   UNL     1     -13.564   6.492  72.149  1.00  0.00    -0.419 NA 
HETATM   32  H   UNL     1     -13.801   8.924  72.410  1.00  0.00     0.000 HD 
HETATM   33  C   UNL     1     -12.193   9.656  71.301  1.00  0.00    -0.363 C  
HETATM   34  H1  UNL     1     -14.364   6.801  72.700  1.00  0.00     0.000 HD 
HETATM   35  H2  UNL     1     -13.398   5.497  71.995  1.00  0.00     0.000 HD 
HETATM   36  O   UNL     1     -12.445  10.850  71.481  1.00  0.00    -0.358 OA 
ENDBRANCH  19  26
ENDBRANCH  16  17
ENDBRANCH  15  16
ENDBRANCH  12  15
ENDBRANCH  11  12
ENDBRANCH   8  11
ENDBRANCH   7   8
ENDBRANCH   6   7
ENDBRANCH   5   6
ENDBRANCH   2   5
TORSDOF 10
ENDMDL
MODEL      104
REMARK 921   NORMALIZED FREE ENERGY PREDICTED BY IDOCK:   -5.23 KCAL/MOL
REMARK 922        TOTAL FREE ENERGY PREDICTED BY IDOCK:   -9.22 KCAL/MOL
REMARK 923 INTER-LIGAND FREE ENERGY PREDICTED BY IDOCK:   -7.64 KCAL/MOL
REMARK 924 INTRA-LIGAND FREE ENERGY PREDICTED BY IDOCK:   -1.59 KCAL/MOL
REMARK 927      BINDING AFFINITY PREDICTED BY RF-SCORE:    0.00 PKD
ROOT
HETATM    1  C   UNL     1      -9.198   4.203  65.539  1.00  0.00    -0.149 C  
HETATM    2  N   UNL     1      -8.528   4.053  66.887  1.00  0.00    -0.100 N  
HETATM    3  C   UNL     1      -9.304   3.080  67.759  1.00  0.00    -0.202 C  
HETATM    4  C   UNL     1      -7.113   3.486  66.679  1.00  0.00    -0.059 C  
ENDROOT
BRANCH   2   5
HETATM    5  C   UNL     1      -8.467   5.456  67.541  1.00  0.00    -0.106 C  
BRANCH   5   6
HETATM    6  C   UNL     1      -9.539   5.719  68.583  1.00  0.00    -0.127 C  
BRANCH   6   7
HETATM    7  O   UNL     1     -10.180   6.946  68.297  1.00  0.00    -0.163 OA 
BRANCH   7   8
HETATM    8  P   UNL     1      -9.229   7.861  67.178  1.00  0.00    -0.161 P  
HETATM    9  O   UNL     1      -8.514   8.491  68.366  1.00  0.00    -0.135 OA 
HETATM   10  O   UNL     1     -10.530   8.484  66.657  1.00  0.00    -0.289 OA 
BRANCH   8  11
HETATM   11  O   UNL     1      -8.278   8.775  66.058  1.00  0.00    -0.110 OA 
BRANCH  11  12
HETATM   12  P   UNL     1      -8.970  10.348  65.864  1.00  0.00    -0.179 P  
HETATM   13  O   UNL     1      -7.531  10.999  66.331  1.00  0.00    -0.143 OA 
HETATM   14  O   UNL     1      -8.801  10.192  64.338  1.00  0.00    -0.177 OA 
BRANCH  12  15
HETATM   15  O   UNL     1      -9.662  11.922  65.670  1.00  0.00    -0.232 OA 
BRANCH  15  16
HETATM   16  C   UNL     1     -11.098  11.985  65.762  1.00  0.00    -0.324 C  
BRANCH  16  17
HETATM   17  C   UNL     1     -11.596  12.650  67.035  1.00  0.00    -0.365 C  
HETATM   18  O   UNL     1     -12.137  11.666  67.921  1.00  0.00    -0.613 OA 
HETATM   19  C   UNL     1     -12.097  12.228  69.234  1.00  0.00    -0.166 C  
HETATM   20  H   UNL     1      -9.826  15.259  67.875  1.00  0.00     0.000 HD 
HETATM   21  C   UNL     1     -10.917  13.221  69.263  1.00  0.00    -0.089 C  
HETATM   22  H   UNL     1     -10.528  15.090  69.890  1.00  0.00     0.000 HD 
HETATM   23  C   UNL     1     -10.529  13.412  67.799  1.00  0.00    -0.243 C  
HETATM   24  O   UNL     1     -11.255  14.478  69.871  1.00  0.00    -0.248 OA 
HETATM   25  O   UNL     1     -10.494  14.782  67.397  1.00  0.00    -0.252 OA 
BRANCH  19  26
HETATM   26  N   UNL     1     -12.034  11.167  70.242  1.00  0.00    -0.344 N  
HETATM   27  C   UNL     1     -11.361   9.991  70.003  1.00  0.00    -0.275 C  
HETATM   28  C   UNL     1     -11.393   8.990  70.875  1.00  0.00    -0.351 C  
HETATM   29  C   UNL     1     -12.196   9.222  72.089  1.00  0.00    -0.307 C  
HETATM   30  N   UNL     1     -12.833  10.327  72.327  1.00  0.00    -0.368 N  
HETATM   31  N   UNL     1     -12.301   8.227  73.022  1.00  0.00    -0.610 NA 
HETATM   32  H   UNL     1     -13.363  10.437  73.191  1.00  0.00     0.000 HD 
HETATM   33  C   UNL     1     -12.789  11.351  71.406  1.00  0.00    -0.397 C  
HETATM   34  H1  UNL     1     -12.856   8.387  73.862  1.00  0.00     0.000 HD 
HETATM   35  H2  UNL     1     -11.828   7.334  72.879  1.00  0.00     0.000 HD 
HETATM   36  O   UNL     1     -13.401  12.404  71.598  1.00  0.00    -0.351 OA 
ENDBRANCH  19  26
ENDBRANCH  16  17
ENDBRANCH  15  16
ENDBRANCH  12  15
ENDBRANCH  11  12
ENDBRANCH   8  11
ENDBRANCH   7   8
ENDBRANCH   6   7
ENDBRANCH   5   6
ENDBRANCH   2   5
TORSDOF 10
ENDMDL
MODEL      105
REMARK 921   NORMALIZED FREE ENERGY PREDICTED BY IDOCK:   -5.23 KCAL/MOL
REMARK 922        TOTAL FREE ENERGY PREDICTED BY IDOCK:   -9.22 KCAL/MOL
REMARK 923 INTER-LIGAND FREE ENERGY PREDICTED BY IDOCK:   -8.07 KCAL/MOL
REMARK 924 INTRA-LIGAND FREE ENERGY PREDICTED BY IDOCK:   -1.15 KCAL/MOL
REMARK 927      BINDING AFFINITY PREDICTED BY RF-SCORE:    0.00 PKD
ROOT
HETATM    1  C   UNL     1      -9.745   4.712  72.484  1.00  0.00    -0.153 C  
HETATM    2  N   UNL     1     -10.205   6.148  72.346  1.00  0.00    -0.186 N  
HETATM    3  C   UNL     1     -11.473   6.220  71.512  1.00  0.00    -0.293 C  
HETATM    4  C   UNL     1     -10.520   6.705  73.745  1.00  0.00    -0.333 C  
ENDROOT
BRANCH   2   5
HETATM    5  C   UNL     1      -9.058   6.948  71.681  1.00  0.00    -0.139 C  
BRANCH   5   6
HETATM    6  C   UNL     1      -8.705   8.250  72.377  1.00  0.00    -0.213 C  
BRANCH   6   7
HETATM    7  O   UNL     1      -9.006   9.335  71.522  1.00  0.00    -0.316 OA 
BRANCH   7   8
HETATM    8  P   UNL     1      -8.087   9.208  70.061  1.00  0.00    -0.166 P  
HETATM    9  O   UNL     1      -7.045  10.126  70.688  1.00  0.00    -0.312 OA 
HETATM   10  O   UNL     1      -9.281   9.814  69.315  1.00  0.00    -0.168 OA 
BRANCH   8  11
HETATM   11  O   UNL     1      -7.168   9.080  68.601  1.00  0.00    -0.070 OA 
BRANCH  11  12
HETATM   12  P   UNL     1      -7.767  10.215  67.442  1.00  0.00    -0.094 P  
HETATM   13  O   UNL     1      -6.239  10.809  67.287  1.00  0.00    -0.056 OA 
HETATM   14  O   UNL     1      -7.802   9.075  66.402  1.00  0.00    -0.098 OA 
BRANCH  12  15
HETATM   15  O   UNL     1      -8.366  11.350  66.282  1.00  0.00    -0.168 OA 
BRANCH  15  16
HETATM   16  C   UNL     1      -9.290  10.819  65.312  1.00  0.00    -0.210 C  
BRANCH  16  17
HETATM   17  C   UNL     1     -10.563  11.639  65.176  1.00  0.00    -0.290 C  
HETATM   18  O   UNL     1     -10.696  12.523  66.292  1.00  0.00    -0.253 OA 
HETATM   19  C   UNL     1     -11.561  13.582  65.878  1.00  0.00    -0.335 C  
HETATM   20  H   UNL     1     -11.320  12.297  62.072  1.00  0.00     0.000 HD 
HETATM   21  C   UNL     1     -11.387  13.734  64.352  1.00  0.00    -0.360 C  
HETATM   22  H   UNL     1     -12.531  13.941  62.713  1.00  0.00     0.000 HD 
HETATM   23  C   UNL     1     -10.631  12.482  63.917  1.00  0.00    -0.440 C  
HETATM   24  O   UNL     1     -12.638  13.847  63.652  1.00  0.00    -0.790 OA 
HETATM   25  O   UNL     1     -11.277  11.770  62.861  1.00  0.00    -0.047 OA 
BRANCH  19  26
HETATM   26  N   UNL     1     -11.291  14.796  66.652  1.00  0.00    -0.351 N  
HETATM   27  C   UNL     1     -10.497  15.802  66.153  1.00  0.00    -0.317 C  
HETATM   28  C   UNL     1     -10.168  16.852  66.896  1.00  0.00    -0.296 C  
HETATM   29  C   UNL     1     -10.697  16.855  68.272  1.00  0.00    -0.377 C  
HETATM   30  N   UNL     1     -11.449  15.914  68.754  1.00  0.00    -0.378 N  
HETATM   31  N   UNL     1     -10.379  17.890  69.109  1.00  0.00    -0.412 NA 
HETATM   32  H   UNL     1     -11.797  15.975  69.710  1.00  0.00     0.000 HD 
HETATM   33  C   UNL     1     -11.774  14.831  67.966  1.00  0.00    -0.333 C  
HETATM   34  H1  UNL     1     -10.744  17.892  70.061  1.00  0.00     0.000 HD 
HETATM   35  H2  UNL     1      -9.782  18.651  68.784  1.00  0.00     0.000 HD 
HETATM   36  O   UNL     1     -12.471  13.913  68.405  1.00  0.00    -0.114 OA 
ENDBRANCH  19  26
ENDBRANCH  16  17
ENDBRANCH  15  16
ENDBRANCH  12  15
ENDBRANCH  11  12
ENDBRANCH   8  11
ENDBRANCH   7   8
ENDBRANCH   6   7
ENDBRANCH   5   6
ENDBRANCH   2   5
TORSDOF 10
ENDMDL
MODEL      106
REMARK 921   NORMALIZED FREE ENERGY PREDICTED BY IDOCK:   -5.19 KCAL/MOL
REMARK 922        TOTAL FREE ENERGY PREDICTED BY IDOCK:   -9.16 KCAL/MOL
REMARK 923 INTER-LIGAND FREE ENERGY PREDICTED BY IDOCK:   -7.49 KCAL/MOL
REMARK 924 INTRA-LIGAND FREE ENERGY PREDICTED BY IDOCK:   -1.67 KCAL/MOL
REMARK 927      BINDING AFFINITY PREDICTED BY RF-SCORE:    0.00 PKD
ROOT
HETATM    1  C   UNL     1      -8.649   7.662  66.041  1.00  0.00    -0.151 C  
HETATM    2  N   UNL     1      -8.661   9.148  65.753  1.00  0.00    -0.144 N  
HETATM    3  C   UNL     1      -7.434   9.813  66.352  1.00  0.00    -0.099 C  
HETATM    4  C   UNL     1      -8.625   9.359  64.230  1.00  0.00    -0.196 C  
ENDROOT
BRANCH   2   5
HETATM    5  C   UNL     1      -9.960   9.733  66.359  1.00  0.00    -0.247 C  
BRANCH   5   6
HETATM    6  C   UNL     1     -10.579  10.867  65.561  1.00  0.00    -0.170 C  
BRANCH   6   7
HETATM    7  O   UNL     1     -10.043  12.099  66.002  1.00  0.00    -0.225 OA 
BRANCH   7   8
HETATM    8  P   UNL     1     -11.072  13.400  65.510  1.00  0.00    -0.293 P  
HETATM    9  O   UNL     1     -11.950  13.108  66.721  1.00  0.00    -0.384 OA 
HETATM   10  O   UNL     1     -11.314  12.646  64.197  1.00  0.00    -0.333 OA 
BRANCH   8  11
HETATM   11  O   UNL     1     -12.100  14.701  65.018  1.00  0.00    -0.386 OA 
BRANCH  11  12
HETATM   12  P   UNL     1     -11.276  16.204  65.245  1.00  0.00     0.125 P  
HETATM   13  O   UNL     1      -9.850  15.380  65.246  1.00  0.00    -0.302 OA 
HETATM   14  O   UNL     1     -11.499  16.509  63.749  1.00  0.00    -1.065 OA 
BRANCH  12  15
HETATM   15  O   UNL     1     -10.450  17.708  65.473  1.00  0.00    -0.636 OA 
BRANCH  15  16
HETATM   16  C   UNL     1     -10.599  18.307  66.775  1.00  0.00    -0.312 C  
BRANCH  16  17
HETATM   17  C   UNL     1      -9.295  18.400  67.552  1.00  0.00    -0.265 C  
HETATM   18  O   UNL     1      -9.144  17.253  68.392  1.00  0.00    -0.250 OA 
HETATM   19  C   UNL     1      -7.749  17.129  68.673  1.00  0.00    -0.260 C  
HETATM   20  H   UNL     1      -6.934  19.914  65.885  1.00  0.00     0.000 HD 
HETATM   21  C   UNL     1      -6.992  17.736  67.473  1.00  0.00    -0.177 C  
HETATM   22  H   UNL     1      -5.459  18.988  67.128  1.00  0.00     0.000 HD 
HETATM   23  C   UNL     1      -8.056  18.493  66.681  1.00  0.00    -0.264 C  
HETATM   24  O   UNL     1      -5.925  18.614  67.867  1.00  0.00    -0.187 OA 
HETATM   25  O   UNL     1      -7.710  19.855  66.430  1.00  0.00    -0.277 OA 
BRANCH  19  26
HETATM   26  N   UNL     1      -7.410  15.737  68.974  1.00  0.00    -0.163 N  
HETATM   27  C   UNL     1      -8.011  14.693  68.310  1.00  0.00    -0.133 C  
HETATM   28  C   UNL     1      -7.780  13.432  68.656  1.00  0.00    -0.088 C  
HETATM   29  C   UNL     1      -6.859  13.236  69.790  1.00  0.00     0.227 C  
HETATM   30  N   UNL     1      -6.284  14.212  70.424  1.00  0.00    -0.285 N  
HETATM   31  N   UNL     1      -6.593  11.967  70.225  1.00  0.00    -0.477 NA 
HETATM   32  H   UNL     1      -5.645  14.017  71.194  1.00  0.00     0.000 HD 
HETATM   33  C   UNL     1      -6.542  15.513  70.050  1.00  0.00    -0.079 C  
HETATM   34  H1  UNL     1      -5.956  11.831  71.009  1.00  0.00     0.000 HD 
HETATM   35  H2  UNL     1      -7.028  11.164  69.769  1.00  0.00     0.000 HD 
HETATM   36  O   UNL     1      -6.023  16.459  70.647  1.00  0.00     0.007 OA 
ENDBRANCH  19  26
ENDBRANCH  16  17
ENDBRANCH  15  16
ENDBRANCH  12  15
ENDBRANCH  11  12
ENDBRANCH   8  11
ENDBRANCH   7   8
ENDBRANCH   6   7
ENDBRANCH   5   6
ENDBRANCH   2   5
TORSDOF 10
ENDMDL
MODEL      107
REMARK 921   NORMALIZED FREE ENERGY PREDICTED BY IDOCK:   -5.19 KCAL/MOL
REMARK 922        TOTAL FREE ENERGY PREDICTED BY IDOCK:   -9.15 KCAL/MOL
REMARK 923 INTER-LIGAND FREE ENERGY PREDICTED BY IDOCK:   -8.99 KCAL/MOL
REMARK 924 INTRA-LIGAND FREE ENERGY PREDICTED BY IDOCK:   -0.17 KCAL/MOL
REMARK 927      BINDING AFFINITY PREDICTED BY RF-SCORE:    0.00 PKD
ROOT
HETATM    1  C   UNL     1     -12.319  12.468  63.777  1.00  0.00    -0.502 C  
HETATM    2  N   UNL     1     -11.124  12.162  64.655  1.00  0.00    -0.306 N  
HETATM    3  C   UNL     1     -11.578  11.792  66.057  1.00  0.00    -0.134 C  
HETATM    4  C   UNL     1     -10.368  10.961  64.063  1.00  0.00    -0.349 C  
ENDROOT
BRANCH   2   5
HETATM    5  C   UNL     1     -10.224  13.422  64.679  1.00  0.00    -0.315 C  
BRANCH   5   6
HETATM    6  C   UNL     1     -10.974  14.741  64.641  1.00  0.00    -0.316 C  
BRANCH   6   7
HETATM    7  O   UNL     1     -10.906  15.356  65.912  1.00  0.00    -0.321 OA 
BRANCH   7   8
HETATM    8  P   UNL     1     -10.611  17.051  65.732  1.00  0.00     0.030 P  
HETATM    9  O   UNL     1     -11.391  17.281  67.021  1.00  0.00     0.304 OA 
HETATM   10  O   UNL     1     -11.357  16.989  64.394  1.00  0.00    -1.140 OA 
BRANCH   8  11
HETATM   11  O   UNL     1     -10.316  18.746  65.551  1.00  0.00    -0.510 OA 
BRANCH  11  12
HETATM   12  P   UNL     1      -9.198  19.268  66.763  1.00  0.00    -0.355 P  
HETATM   13  O   UNL     1      -8.216  19.828  65.564  1.00  0.00    -0.333 OA 
HETATM   14  O   UNL     1     -10.122  20.472  67.043  1.00  0.00    -0.429 OA 
BRANCH  12  15
HETATM   15  O   UNL     1      -8.078  19.791  67.975  1.00  0.00    -0.303 OA 
BRANCH  15  16
HETATM   16  C   UNL     1      -6.728  19.310  67.821  1.00  0.00    -0.223 C  
BRANCH  16  17
HETATM   17  C   UNL     1      -6.572  17.831  68.138  1.00  0.00    -0.191 C  
HETATM   18  O   UNL     1      -7.675  17.383  68.931  1.00  0.00    -0.257 OA 
HETATM   19  C   UNL     1      -7.758  15.967  68.758  1.00  0.00    -0.187 C  
HETATM   20  H   UNL     1      -5.095  16.173  65.748  1.00  0.00     0.000 HD 
HETATM   21  C   UNL     1      -7.195  15.651  67.356  1.00  0.00    -0.208 C  
HETATM   22  H   UNL     1      -5.931  14.349  66.492  1.00  0.00     0.000 HD 
HETATM   23  C   UNL     1      -6.498  16.936  66.915  1.00  0.00    -0.213 C  
HETATM   24  O   UNL     1      -6.278  14.544  67.355  1.00  0.00    -0.333 OA 
HETATM   25  O   UNL     1      -5.142  16.734  66.513  1.00  0.00    -0.345 OA 
BRANCH  19  26
HETATM   26  N   UNL     1      -9.127  15.503  68.990  1.00  0.00    -0.218 N  
HETATM   27  C   UNL     1     -10.088  16.339  69.510  1.00  0.00    -0.221 C  
HETATM   28  C   UNL     1     -11.299  15.888  69.818  1.00  0.00    -0.347 C  
HETATM   29  C   UNL     1     -11.530  14.452  69.576  1.00  0.00    -0.288 C  
HETATM   30  N   UNL     1     -10.633  13.654  69.084  1.00  0.00    -0.429 N  
HETATM   31  N   UNL     1     -12.744  13.907  69.894  1.00  0.00    -0.291 NA 
HETATM   32  H   UNL     1     -10.853  12.672  68.926  1.00  0.00     0.000 HD 
HETATM   33  C   UNL     1      -9.382  14.143  68.776  1.00  0.00    -0.092 C  
HETATM   34  H1  UNL     1     -12.904  12.914  69.727  1.00  0.00     0.000 HD 
HETATM   35  H2  UNL     1     -13.481  14.488  70.294  1.00  0.00     0.000 HD 
HETATM   36  O   UNL     1      -8.505  13.403  68.324  1.00  0.00    -0.163 OA 
ENDBRANCH  19  26
ENDBRANCH  16  17
ENDBRANCH  15  16
ENDBRANCH  12  15
ENDBRANCH  11  12
ENDBRANCH   8  11
ENDBRANCH   7   8
ENDBRANCH   6   7
ENDBRANCH   5   6
ENDBRANCH   2   5
TORSDOF 10
ENDMDL
MODEL      108
REMARK 921   NORMALIZED FREE ENERGY PREDICTED BY IDOCK:   -5.18 KCAL/MOL
REMARK 922        TOTAL FREE ENERGY PREDICTED BY IDOCK:   -9.15 KCAL/MOL
REMARK 923 INTER-LIGAND FREE ENERGY PREDICTED BY IDOCK:   -7.80 KCAL/MOL
REMARK 924 INTRA-LIGAND FREE ENERGY PREDICTED BY IDOCK:   -1.34 KCAL/MOL
REMARK 927      BINDING AFFINITY PREDICTED BY RF-SCORE:    0.00 PKD
ROOT
HETATM    1  C   UNL     1      -9.385   3.490  67.476  1.00  0.00    -0.206 C  
HETATM    2  N   UNL     1      -9.113   4.798  68.187  1.00  0.00    -0.112 N  
HETATM    3  C   UNL     1      -8.038   5.585  67.457  1.00  0.00    -0.101 C  
HETATM    4  C   UNL     1     -10.402   5.638  68.193  1.00  0.00    -0.197 C  
ENDROOT
BRANCH   2   5
HETATM    5  C   UNL     1      -8.669   4.463  69.633  1.00  0.00    -0.077 C  
BRANCH   5   6
HETATM    6  C   UNL     1      -9.389   3.284  70.262  1.00  0.00    -0.172 C  
BRANCH   6   7
HETATM    7  O   UNL     1     -10.073   3.717  71.421  1.00  0.00    -0.145 OA 
BRANCH   7   8
HETATM    8  P   UNL     1      -9.308   5.129  72.065  1.00  0.00    -0.140 P  
HETATM    9  O   UNL     1      -8.729   4.258  73.173  1.00  0.00    -0.099 OA 
HETATM   10  O   UNL     1     -10.701   5.747  72.234  1.00  0.00    -0.215 OA 
BRANCH   8  11
HETATM   11  O   UNL     1      -8.542   6.541  72.708  1.00  0.00    -0.124 OA 
BRANCH  11  12
HETATM   12  P   UNL     1      -8.150   7.622  71.417  1.00  0.00    -0.101 P  
HETATM   13  O   UNL     1      -8.004   8.833  72.524  1.00  0.00    -0.373 OA 
HETATM   14  O   UNL     1      -6.733   7.010  71.386  1.00  0.00    -0.051 OA 
BRANCH  12  15
HETATM   15  O   UNL     1      -7.757   8.705  70.125  1.00  0.00    -0.073 OA 
BRANCH  15  16
HETATM   16  C   UNL     1      -8.833   8.997  69.212  1.00  0.00    -0.139 C  
BRANCH  16  17
HETATM   17  C   UNL     1      -9.581  10.278  69.547  1.00  0.00    -0.202 C  
HETATM   18  O   UNL     1      -9.630  11.129  68.399  1.00  0.00    -0.178 OA 
HETATM   19  C   UNL     1     -10.733  12.016  68.592  1.00  0.00    -0.236 C  
HETATM   20  H   UNL     1     -11.958   9.820  71.733  1.00  0.00     0.000 HD 
HETATM   21  C   UNL     1     -11.761  11.273  69.471  1.00  0.00    -0.345 C  
HETATM   22  H   UNL     1     -12.907  11.625  71.083  1.00  0.00     0.000 HD 
HETATM   23  C   UNL     1     -11.007  10.063  70.016  1.00  0.00    -0.300 C  
HETATM   24  O   UNL     1     -12.274  12.082  70.541  1.00  0.00    -0.364 OA 
HETATM   25  O   UNL     1     -11.065   9.955  71.439  1.00  0.00    -0.325 OA 
BRANCH  19  26
HETATM   26  N   UNL     1     -11.248  12.480  67.301  1.00  0.00    -0.278 N  
HETATM   27  C   UNL     1     -11.041  11.760  66.147  1.00  0.00    -0.307 C  
HETATM   28  C   UNL     1     -11.417  12.233  64.964  1.00  0.00    -0.386 C  
HETATM   29  C   UNL     1     -12.049  13.565  64.977  1.00  0.00    -0.397 C  
HETATM   30  N   UNL     1     -12.252  14.252  66.059  1.00  0.00    -0.421 N  
HETATM   31  N   UNL     1     -12.438  14.132  63.794  1.00  0.00    -1.009 NA 
HETATM   32  H   UNL     1     -12.705  15.164  66.009  1.00  0.00     0.000 HD 
HETATM   33  C   UNL     1     -11.850  13.744  67.275  1.00  0.00    -0.401 C  
HETATM   34  H1  UNL     1     -12.875  15.053  63.803  1.00  0.00     0.000 HD 
HETATM   35  H2  UNL     1     -12.292  13.639  62.913  1.00  0.00     0.000 HD 
HETATM   36  O   UNL     1     -12.013  14.384  68.316  1.00  0.00    -0.329 OA 
ENDBRANCH  19  26
ENDBRANCH  16  17
ENDBRANCH  15  16
ENDBRANCH  12  15
ENDBRANCH  11  12
ENDBRANCH   8  11
ENDBRANCH   7   8
ENDBRANCH   6   7
ENDBRANCH   5   6
ENDBRANCH   2   5
TORSDOF 10
ENDMDL
MODEL      109
REMARK 921   NORMALIZED FREE ENERGY PREDICTED BY IDOCK:   -5.18 KCAL/MOL
REMARK 922        TOTAL FREE ENERGY PREDICTED BY IDOCK:   -9.14 KCAL/MOL
REMARK 923 INTER-LIGAND FREE ENERGY PREDICTED BY IDOCK:   -8.19 KCAL/MOL
REMARK 924 INTRA-LIGAND FREE ENERGY PREDICTED BY IDOCK:   -0.95 KCAL/MOL
REMARK 927      BINDING AFFINITY PREDICTED BY RF-SCORE:    0.00 PKD
ROOT
HETATM    1  C   UNL     1     -11.231  15.713  67.396  1.00  0.00    -0.219 C  
HETATM    2  N   UNL     1     -11.085  14.547  66.441  1.00  0.00    -0.324 N  
HETATM    3  C   UNL     1     -12.439  13.922  66.157  1.00  0.00    -0.436 C  
HETATM    4  C   UNL     1     -10.507  15.063  65.113  1.00  0.00    -0.412 C  
ENDROOT
BRANCH   2   5
HETATM    5  C   UNL     1     -10.127  13.521  67.096  1.00  0.00    -0.245 C  
BRANCH   5   6
HETATM    6  C   UNL     1     -10.798  12.255  67.599  1.00  0.00    -0.225 C  
BRANCH   6   7
HETATM    7  O   UNL     1     -10.446  12.043  68.951  1.00  0.00    -0.202 OA 
BRANCH   7   8
HETATM    8  P   UNL     1     -11.783  11.355  69.807  1.00  0.00    -0.363 P  
HETATM    9  O   UNL     1     -12.425  11.037  68.463  1.00  0.00    -0.440 OA 
HETATM   10  O   UNL     1     -12.012  12.726  70.453  1.00  0.00    -0.335 OA 
BRANCH   8  11
HETATM   11  O   UNL     1     -13.119  10.666  70.664  1.00  0.00    -0.318 OA 
BRANCH  11  12
HETATM   12  P   UNL     1     -12.553   9.388  71.682  1.00  0.00    -0.423 P  
HETATM   13  O   UNL     1     -13.977   8.601  71.424  1.00  0.00    -0.352 OA 
HETATM   14  O   UNL     1     -11.671   8.899  70.514  1.00  0.00    -0.228 OA 
BRANCH  12  15
HETATM   15  O   UNL     1     -11.988   8.109  72.702  1.00  0.00    -0.381 OA 
BRANCH  15  16
HETATM   16  C   UNL     1     -10.559   7.930  72.738  1.00  0.00    -0.353 C  
BRANCH  16  17
HETATM   17  C   UNL     1     -10.117   6.518  72.385  1.00  0.00    -0.171 C  
HETATM   18  O   UNL     1     -10.671   6.134  71.124  1.00  0.00    -0.235 OA 
HETATM   19  C   UNL     1      -9.848   5.084  70.615  1.00  0.00    -0.212 C  
HETATM   20  H   UNL     1      -7.130   5.813  73.492  1.00  0.00     0.000 HD 
HETATM   21  C   UNL     1      -8.431   5.306  71.185  1.00  0.00    -0.123 C  
HETATM   22  H   UNL     1      -6.965   4.239  72.051  1.00  0.00     0.000 HD 
HETATM   23  C   UNL     1      -8.613   6.340  72.294  1.00  0.00    -0.118 C  
HETATM   24  O   UNL     1      -7.837   4.103  71.699  1.00  0.00    -0.067 OA 
HETATM   25  O   UNL     1      -8.072   5.924  73.548  1.00  0.00    -0.111 OA 
BRANCH  19  26
HETATM   26  N   UNL     1      -9.922   5.040  69.152  1.00  0.00    -0.195 N  
HETATM   27  C   UNL     1     -10.276   6.148  68.419  1.00  0.00    -0.175 C  
HETATM   28  C   UNL     1     -10.445   6.078  67.104  1.00  0.00    -0.327 C  
HETATM   29  C   UNL     1     -10.241   4.749  66.500  1.00  0.00    -0.259 C  
HETATM   30  N   UNL     1      -9.904   3.697  67.180  1.00  0.00    -0.306 N  
HETATM   31  N   UNL     1     -10.424   4.590  65.154  1.00  0.00    -0.470 NA 
HETATM   32  H   UNL     1      -9.764   2.804  66.708  1.00  0.00     0.000 HD 
HETATM   33  C   UNL     1      -9.738   3.792  68.545  1.00  0.00    -0.019 C  
HETATM   34  H1  UNL     1     -10.283   3.671  64.736  1.00  0.00     0.000 HD 
HETATM   35  H2  UNL     1     -10.699   5.383  64.574  1.00  0.00     0.000 HD 
HETATM   36  O   UNL     1      -9.437   2.803  69.218  1.00  0.00    -0.145 OA 
ENDBRANCH  19  26
ENDBRANCH  16  17
ENDBRANCH  15  16
ENDBRANCH  12  15
ENDBRANCH  11  12
ENDBRANCH   8  11
ENDBRANCH   7   8
ENDBRANCH   6   7
ENDBRANCH   5   6
ENDBRANCH   2   5
TORSDOF 10
ENDMDL
MODEL      110
REMARK 921   NORMALIZED FREE ENERGY PREDICTED BY IDOCK:   -5.16 KCAL/MOL
REMARK 922        TOTAL FREE ENERGY PREDICTED BY IDOCK:   -9.11 KCAL/MOL
REMARK 923 INTER-LIGAND FREE ENERGY PREDICTED BY IDOCK:   -7.42 KCAL/MOL
REMARK 924 INTRA-LIGAND FREE ENERGY PREDICTED BY IDOCK:   -1.70 KCAL/MOL
REMARK 927      BINDING AFFINITY PREDICTED BY RF-SCORE:    0.00 PKD
ROOT
HETATM    1  C   UNL     1     -11.117   7.534  70.305  1.00  0.00    -0.248 C  
HETATM    2  N   UNL     1      -9.733   7.621  70.913  1.00  0.00    -0.172 N  
HETATM    3  C   UNL     1      -9.737   8.558  72.108  1.00  0.00    -0.317 C  
HETATM    4  C   UNL     1      -9.317   6.223  71.401  1.00  0.00    -0.152 C  
ENDROOT
BRANCH   2   5
HETATM    5  C   UNL     1      -8.769   8.129  69.813  1.00  0.00    -0.135 C  
BRANCH   5   6
HETATM    6  C   UNL     1      -8.307   9.565  69.985  1.00  0.00    -0.179 C  
BRANCH   6   7
HETATM    7  O   UNL     1      -7.391   9.890  68.959  1.00  0.00    -0.073 OA 
BRANCH   7   8
HETATM    8  P   UNL     1      -7.282  11.608  68.788  1.00  0.00    -0.099 P  
HETATM    9  O   UNL     1      -8.801  11.651  68.683  1.00  0.00    -0.156 OA 
HETATM   10  O   UNL     1      -6.440  11.380  67.527  1.00  0.00    -0.062 OA 
BRANCH   8  11
HETATM   11  O   UNL     1      -7.172  13.327  68.618  1.00  0.00    -0.101 OA 
BRANCH  11  12
HETATM   12  P   UNL     1      -8.670  13.942  68.011  1.00  0.00    -0.201 P  
HETATM   13  O   UNL     1      -8.644  15.079  69.202  1.00  0.00    -0.196 OA 
HETATM   14  O   UNL     1      -7.884  14.619  66.868  1.00  0.00    -0.103 OA 
BRANCH  12  15
HETATM   15  O   UNL     1     -10.169  14.558  67.403  1.00  0.00    -0.239 OA 
BRANCH  15  16
HETATM   16  C   UNL     1     -10.149  14.998  66.031  1.00  0.00    -0.301 C  
BRANCH  16  17
HETATM   17  C   UNL     1     -10.856  14.046  65.080  1.00  0.00    -0.392 C  
HETATM   18  O   UNL     1      -9.987  12.964  64.736  1.00  0.00    -0.229 OA 
HETATM   19  C   UNL     1     -10.821  11.888  64.304  1.00  0.00    -0.344 C  
HETATM   20  H   UNL     1     -14.067  13.863  65.628  1.00  0.00     0.000 HD 
HETATM   21  C   UNL     1     -12.170  12.041  65.037  1.00  0.00    -0.050 C  
HETATM   22  H   UNL     1     -14.134  11.977  64.619  1.00  0.00     0.000 HD 
HETATM   23  C   UNL     1     -12.134  13.445  65.635  1.00  0.00    -0.434 C  
HETATM   24  O   UNL     1     -13.304  11.883  64.168  1.00  0.00    -0.652 OA 
HETATM   25  O   UNL     1     -13.267  14.239  65.280  1.00  0.00    -0.704 OA 
BRANCH  19  26
HETATM   26  N   UNL     1     -10.149  10.603  64.514  1.00  0.00    -0.342 N  
HETATM   27  C   UNL     1     -10.119  10.005  65.753  1.00  0.00    -0.250 C  
HETATM   28  C   UNL     1      -9.421   8.895  65.964  1.00  0.00    -0.320 C  
HETATM   29  C   UNL     1      -8.685   8.368  64.801  1.00  0.00     0.024 C  
HETATM   30  N   UNL     1      -8.707   8.922  63.627  1.00  0.00    -0.419 N  
HETATM   31  N   UNL     1      -7.920   7.243  64.947  1.00  0.00    -0.126 NA 
HETATM   32  H   UNL     1      -8.188   8.505  62.855  1.00  0.00     0.000 HD 
HETATM   33  C   UNL     1      -9.435  10.075  63.432  1.00  0.00    -0.188 C  
HETATM   34  H1  UNL     1      -7.411   6.879  64.142  1.00  0.00     0.000 HD 
HETATM   35  H2  UNL     1      -7.859   6.775  65.851  1.00  0.00     0.000 HD 
HETATM   36  O   UNL     1      -9.458  10.632  62.332  1.00  0.00    -0.257 OA 
ENDBRANCH  19  26
ENDBRANCH  16  17
ENDBRANCH  15  16
ENDBRANCH  12  15
ENDBRANCH  11  12
ENDBRANCH   8  11
ENDBRANCH   7   8
ENDBRANCH   6   7
ENDBRANCH   5   6
ENDBRANCH   2   5
TORSDOF 10
ENDMDL
MODEL      111
REMARK 921   NORMALIZED FREE ENERGY PREDICTED BY IDOCK:   -5.14 KCAL/MOL
REMARK 922        TOTAL FREE ENERGY PREDICTED BY IDOCK:   -9.08 KCAL/MOL
REMARK 923 INTER-LIGAND FREE ENERGY PREDICTED BY IDOCK:   -7.97 KCAL/MOL
REMARK 924 INTRA-LIGAND FREE ENERGY PREDICTED BY IDOCK:   -1.11 KCAL/MOL
REMARK 927      BINDING AFFINITY PREDICTED BY RF-SCORE:    0.00 PKD
ROOT
HETATM    1  C   UNL     1      -8.033  18.076  66.698  1.00  0.00    -0.251 C  
HETATM    2  N   UNL     1      -8.231  19.123  67.773  1.00  0.00    -0.280 N  
HETATM    3  C   UNL     1      -7.108  19.054  68.794  1.00  0.00    -0.318 C  
HETATM    4  C   UNL     1      -8.201  20.516  67.121  1.00  0.00    -0.290 C  
ENDROOT
BRANCH   2   5
HETATM    5  C   UNL     1      -9.604  18.858  68.440  1.00  0.00    -0.369 C  
BRANCH   5   6
HETATM    6  C   UNL     1     -10.403  17.726  67.821  1.00  0.00    -0.380 C  
BRANCH   6   7
HETATM    7  O   UNL     1     -10.340  16.591  68.663  1.00  0.00    -0.253 OA 
BRANCH   7   8
HETATM    8  P   UNL     1     -11.336  15.328  68.026  1.00  0.00    -0.304 P  
HETATM    9  O   UNL     1     -11.197  14.605  69.360  1.00  0.00    -0.257 OA 
HETATM   10  O   UNL     1     -10.283  15.115  66.933  1.00  0.00    -0.252 OA 
BRANCH   8  11
HETATM   11  O   UNL     1     -12.333  14.065  67.390  1.00  0.00    -0.322 OA 
BRANCH  11  12
HETATM   12  P   UNL     1     -11.708  13.553  65.861  1.00  0.00    -0.395 P  
HETATM   13  O   UNL     1     -12.149  12.012  66.239  1.00  0.00    -0.596 OA 
HETATM   14  O   UNL     1     -12.977  14.123  65.194  1.00  0.00    -0.729 OA 
BRANCH  12  15
HETATM   15  O   UNL     1     -11.082  13.039  64.332  1.00  0.00    -0.333 OA 
BRANCH  15  16
HETATM   16  C   UNL     1     -10.919  11.616  64.174  1.00  0.00    -0.376 C  
BRANCH  16  17
HETATM   17  C   UNL     1      -9.480  11.150  64.331  1.00  0.00    -0.220 C  
HETATM   18  O   UNL     1      -9.080  11.253  65.700  1.00  0.00    -0.209 OA 
HETATM   19  C   UNL     1      -7.981  10.358  65.876  1.00  0.00    -0.151 C  
HETATM   20  H   UNL     1      -8.687   8.769  62.247  1.00  0.00     0.000 HD 
HETATM   21  C   UNL     1      -8.162   9.216  64.853  1.00  0.00    -0.153 C  
HETATM   22  H   UNL     1      -7.063   8.195  63.517  1.00  0.00     0.000 HD 
HETATM   23  C   UNL     1      -9.237   9.718  63.892  1.00  0.00    -0.198 C  
HETATM   24  O   UNL     1      -6.952   8.897  64.147  1.00  0.00    -0.088 OA 
HETATM   25  O   UNL     1      -8.839   9.665  62.522  1.00  0.00    -0.212 OA 
BRANCH  19  26
HETATM   26  N   UNL     1      -7.894   9.924  67.272  1.00  0.00    -0.102 N  
HETATM   27  C   UNL     1      -8.609   8.844  67.733  1.00  0.00    -0.125 C  
HETATM   28  C   UNL     1      -8.610   8.517  69.020  1.00  0.00    -0.130 C  
HETATM   29  C   UNL     1      -7.813   9.387  69.904  1.00  0.00    -0.126 C  
HETATM   30  N   UNL     1      -7.132  10.407  69.481  1.00  0.00    -0.097 N  
HETATM   31  N   UNL     1      -7.787   9.132  71.248  1.00  0.00    -0.324 NA 
HETATM   32  H   UNL     1      -6.587  10.967  70.137  1.00  0.00     0.000 HD 
HETATM   33  C   UNL     1      -7.149  10.730  68.142  1.00  0.00    -0.078 C  
HETATM   34  H1  UNL     1      -7.236   9.733  71.859  1.00  0.00     0.000 HD 
HETATM   35  H2  UNL     1      -8.314   8.348  71.634  1.00  0.00     0.000 HD 
HETATM   36  O   UNL     1      -6.526  11.706  67.716  1.00  0.00    -0.058 OA 
ENDBRANCH  19  26
ENDBRANCH  16  17
ENDBRANCH  15  16
ENDBRANCH  12  15
ENDBRANCH  11  12
ENDBRANCH   8  11
ENDBRANCH   7   8
ENDBRANCH   6   7
ENDBRANCH   5   6
ENDBRANCH   2   5
TORSDOF 10
ENDMDL
MODEL      112
REMARK 921   NORMALIZED FREE ENERGY PREDICTED BY IDOCK:   -5.13 KCAL/MOL
REMARK 922        TOTAL FREE ENERGY PREDICTED BY IDOCK:   -9.06 KCAL/MOL
REMARK 923 INTER-LIGAND FREE ENERGY PREDICTED BY IDOCK:   -7.14 KCAL/MOL
REMARK 924 INTRA-LIGAND FREE ENERGY PREDICTED BY IDOCK:   -1.92 KCAL/MOL
REMARK 927      BINDING AFFINITY PREDICTED BY RF-SCORE:    0.00 PKD
ROOT
HETATM    1  C   UNL     1     -10.212  15.314  69.954  1.00  0.00    -0.217 C  
HETATM    2  N   UNL     1     -11.590  14.843  69.538  1.00  0.00    -0.285 N  
HETATM    3  C   UNL     1     -11.737  13.351  69.787  1.00  0.00    -0.286 C  
HETATM    4  C   UNL     1     -12.643  15.576  70.386  1.00  0.00    -0.378 C  
ENDROOT
BRANCH   2   5
HETATM    5  C   UNL     1     -11.766  15.174  68.035  1.00  0.00    -0.285 C  
BRANCH   5   6
HETATM    6  C   UNL     1     -12.158  13.993  67.166  1.00  0.00    -0.401 C  
BRANCH   6   7
HETATM    7  O   UNL     1     -11.430  14.039  65.955  1.00  0.00    -0.317 OA 
BRANCH   7   8
HETATM    8  P   UNL     1     -10.683  12.507  65.658  1.00  0.00    -0.286 P  
HETATM    9  O   UNL     1     -11.875  11.842  66.335  1.00  0.00    -0.561 OA 
HETATM   10  O   UNL     1      -9.494  12.977  66.503  1.00  0.00    -0.250 OA 
BRANCH   8  11
HETATM   11  O   UNL     1      -9.937  10.974  65.359  1.00  0.00    -0.232 OA 
BRANCH  11  12
HETATM   12  P   UNL     1      -8.504  10.836  66.317  1.00  0.00    -0.166 P  
HETATM   13  O   UNL     1      -9.272   9.706  67.237  1.00  0.00    -0.133 OA 
HETATM   14  O   UNL     1      -7.876   9.993  65.186  1.00  0.00    -0.125 OA 
BRANCH  12  15
HETATM   15  O   UNL     1      -7.070  10.697  67.276  1.00  0.00    -0.085 OA 
BRANCH  15  16
HETATM   16  C   UNL     1      -5.979  11.556  66.891  1.00  0.00    -0.136 C  
BRANCH  16  17
HETATM   17  C   UNL     1      -5.722  12.686  67.876  1.00  0.00    -0.110 C  
HETATM   18  O   UNL     1      -6.075  13.939  67.284  1.00  0.00    -0.314 OA 
HETATM   19  C   UNL     1      -6.313  14.849  68.358  1.00  0.00    -0.105 C  
HETATM   20  H   UNL     1      -6.204  11.796  70.977  1.00  0.00     0.000 HD 
HETATM   21  C   UNL     1      -6.798  14.011  69.560  1.00  0.00    -0.052 C  
HETATM   22  H   UNL     1      -6.446  13.849  71.531  1.00  0.00     0.000 HD 
HETATM   23  C   UNL     1      -6.491  12.565  69.178  1.00  0.00    -0.099 C  
HETATM   24  O   UNL     1      -6.147  14.365  70.791  1.00  0.00    -0.194 OA 
HETATM   25  O   UNL     1      -5.723  11.872  70.161  1.00  0.00    -0.115 OA 
BRANCH  19  26
HETATM   26  N   UNL     1      -7.231  15.910  67.937  1.00  0.00    -0.127 N  
HETATM   27  C   UNL     1      -8.040  15.760  66.834  1.00  0.00    -0.257 C  
HETATM   28  C   UNL     1      -8.793  16.761  66.393  1.00  0.00    -0.331 C  
HETATM   29  C   UNL     1      -8.694  18.022  67.149  1.00  0.00    -0.243 C  
HETATM   30  N   UNL     1      -7.937  18.175  68.192  1.00  0.00    -0.274 N  
HETATM   31  N   UNL     1      -9.419  19.107  66.739  1.00  0.00    -0.316 NA 
HETATM   32  H   UNL     1      -7.917  19.067  68.684  1.00  0.00     0.000 HD 
HETATM   33  C   UNL     1      -7.160  17.124  68.630  1.00  0.00    -0.217 C  
HETATM   34  H1  UNL     1      -9.350  19.980  67.262  1.00  0.00     0.000 HD 
HETATM   35  H2  UNL     1     -10.022  19.044  65.918  1.00  0.00     0.000 HD 
HETATM   36  O   UNL     1      -6.418  17.248  69.607  1.00  0.00    -0.243 OA 
ENDBRANCH  19  26
ENDBRANCH  16  17
ENDBRANCH  15  16
ENDBRANCH  12  15
ENDBRANCH  11  12
ENDBRANCH   8  11
ENDBRANCH   7   8
ENDBRANCH   6   7
ENDBRANCH   5   6
ENDBRANCH   2   5
TORSDOF 10
ENDMDL
MODEL      113
REMARK 921   NORMALIZED FREE ENERGY PREDICTED BY IDOCK:   -5.10 KCAL/MOL
REMARK 922        TOTAL FREE ENERGY PREDICTED BY IDOCK:   -9.01 KCAL/MOL
REMARK 923 INTER-LIGAND FREE ENERGY PREDICTED BY IDOCK:   -7.59 KCAL/MOL
REMARK 924 INTRA-LIGAND FREE ENERGY PREDICTED BY IDOCK:   -1.42 KCAL/MOL
REMARK 927      BINDING AFFINITY PREDICTED BY RF-SCORE:    0.00 PKD
ROOT
HETATM    1  C   UNL     1     -11.645   7.133  71.320  1.00  0.00    -0.294 C  
HETATM    2  N   UNL     1     -10.595   8.136  70.894  1.00  0.00    -0.207 N  
HETATM    3  C   UNL     1     -11.251   9.372  70.304  1.00  0.00    -0.246 C  
HETATM    4  C   UNL     1      -9.788   8.566  72.131  1.00  0.00    -0.318 C  
ENDROOT
BRANCH   2   5
HETATM    5  C   UNL     1      -9.679   7.444  69.854  1.00  0.00    -0.171 C  
BRANCH   5   6
HETATM    6  C   UNL     1      -9.607   8.141  68.507  1.00  0.00    -0.148 C  
BRANCH   6   7
HETATM    7  O   UNL     1      -8.291   8.047  68.000  1.00  0.00    -0.124 OA 
BRANCH   7   8
HETATM    8  P   UNL     1      -8.158   8.958  66.534  1.00  0.00    -0.109 P  
HETATM    9  O   UNL     1      -7.381   7.794  65.932  1.00  0.00    -0.071 OA 
HETATM   10  O   UNL     1      -7.413  10.037  67.330  1.00  0.00    -0.090 OA 
BRANCH   8  11
HETATM   11  O   UNL     1      -8.025   9.869  65.069  1.00  0.00    -0.125 OA 
BRANCH  11  12
HETATM   12  P   UNL     1      -9.505  10.716  64.782  1.00  0.00    -0.306 P  
HETATM   13  O   UNL     1      -9.490  10.144  63.238  1.00  0.00    -0.292 OA 
HETATM   14  O   UNL     1     -10.246   9.606  65.556  1.00  0.00    -0.228 OA 
BRANCH  12  15
HETATM   15  O   UNL     1     -10.985  11.565  64.494  1.00  0.00    -0.321 OA 
BRANCH  15  16
HETATM   16  C   UNL     1     -11.300  12.604  65.441  1.00  0.00    -0.313 C  
BRANCH  16  17
HETATM   17  C   UNL     1     -10.083  13.137  66.181  1.00  0.00    -0.291 C  
HETATM   18  O   UNL     1      -9.748  14.439  65.696  1.00  0.00    -0.300 OA 
HETATM   19  C   UNL     1      -8.987  15.078  66.722  1.00  0.00    -0.265 C  
HETATM   20  H   UNL     1      -9.939  12.119  69.278  1.00  0.00     0.000 HD 
HETATM   21  C   UNL     1      -9.450  14.477  68.066  1.00  0.00    -0.209 C  
HETATM   22  H   UNL     1      -8.642  13.752  69.757  1.00  0.00     0.000 HD 
HETATM   23  C   UNL     1     -10.264  13.244  67.684  1.00  0.00    -0.228 C  
HETATM   24  O   UNL     1      -8.357  14.122  68.929  1.00  0.00    -0.111 OA 
HETATM   25  O   UNL     1      -9.825  12.052  68.337  1.00  0.00    -0.207 OA 
BRANCH  19  26
HETATM   26  N   UNL     1      -9.114  16.534  66.622  1.00  0.00    -0.236 N  
HETATM   27  C   UNL     1     -10.345  17.140  66.525  1.00  0.00    -0.306 C  
HETATM   28  C   UNL     1     -10.454  18.449  66.329  1.00  0.00    -0.421 C  
HETATM   29  C   UNL     1      -9.185  19.189  66.215  1.00  0.00    -0.313 C  
HETATM   30  N   UNL     1      -8.018  18.629  66.307  1.00  0.00    -0.272 N  
HETATM   31  N   UNL     1      -9.214  20.537  65.984  1.00  0.00    -0.568 NA 
HETATM   32  H   UNL     1      -7.172  19.193  66.233  1.00  0.00     0.000 HD 
HETATM   33  C   UNL     1      -7.928  17.269  66.506  1.00  0.00    -0.283 C  
HETATM   34  H1  UNL     1      -8.337  21.049  65.904  1.00  0.00     0.000 HD 
HETATM   35  H2  UNL     1     -10.106  21.025  65.892  1.00  0.00     0.000 HD 
HETATM   36  O   UNL     1      -6.832  16.709  66.579  1.00  0.00    -0.215 OA 
ENDBRANCH  19  26
ENDBRANCH  16  17
ENDBRANCH  15  16
ENDBRANCH  12  15
ENDBRANCH  11  12
ENDBRANCH   8  11
ENDBRANCH   7   8
ENDBRANCH   6   7
ENDBRANCH   5   6
ENDBRANCH   2   5
TORSDOF 10
ENDMDL
MODEL      114
REMARK 921   NORMALIZED FREE ENERGY PREDICTED BY IDOCK:   -5.08 KCAL/MOL
REMARK 922        TOTAL FREE ENERGY PREDICTED BY IDOCK:   -8.98 KCAL/MOL
REMARK 923 INTER-LIGAND FREE ENERGY PREDICTED BY IDOCK:   -7.94 KCAL/MOL
REMARK 924 INTRA-LIGAND FREE ENERGY PREDICTED BY IDOCK:   -1.05 KCAL/MOL
REMARK 927      BINDING AFFINITY PREDICTED BY RF-SCORE:    0.00 PKD
ROOT
HETATM    1  C   UNL     1      -8.237  18.600  68.005  1.00  0.00    -0.272 C  
HETATM    2  N   UNL     1      -9.644  19.149  67.912  1.00  0.00    -0.313 N  
HETATM    3  C   UNL     1     -10.124  19.611  69.278  1.00  0.00    -0.230 C  
HETATM    4  C   UNL     1      -9.643  20.363  66.969  1.00  0.00    -0.431 C  
ENDROOT
BRANCH   2   5
HETATM    5  C   UNL     1     -10.552  18.023  67.358  1.00  0.00    -0.365 C  
BRANCH   5   6
HETATM    6  C   UNL     1     -10.870  18.133  65.877  1.00  0.00     0.034 C  
BRANCH   6   7
HETATM    7  O   UNL     1     -10.312  17.028  65.195  1.00  0.00    -0.632 OA 
BRANCH   7   8
HETATM    8  P   UNL     1     -11.427  15.705  65.204  1.00  0.00     0.062 P  
HETATM    9  O   UNL     1     -10.301  14.807  64.707  1.00  0.00    -0.382 OA 
HETATM   10  O   UNL     1     -12.282  16.481  64.196  1.00  0.00    -0.641 OA 
BRANCH   8  11
HETATM   11  O   UNL     1     -12.543  14.382  65.215  1.00  0.00    -0.424 OA 
BRANCH  11  12
HETATM   12  P   UNL     1     -11.687  12.905  64.941  1.00  0.00    -0.400 P  
HETATM   13  O   UNL     1     -12.098  12.427  66.463  1.00  0.00    -0.599 OA 
HETATM   14  O   UNL     1     -12.879  12.416  64.091  1.00  0.00    -0.705 OA 
BRANCH  12  15
HETATM   15  O   UNL     1     -10.831  11.426  64.669  1.00  0.00    -0.317 OA 
BRANCH  15  16
HETATM   16  C   UNL     1      -9.482  11.387  65.174  1.00  0.00    -0.199 C  
BRANCH  16  17
HETATM   17  C   UNL     1      -9.269  10.336  66.253  1.00  0.00    -0.159 C  
HETATM   18  O   UNL     1      -9.833   9.090  65.837  1.00  0.00    -0.276 OA 
HETATM   19  C   UNL     1      -9.178   8.070  66.593  1.00  0.00    -0.180 C  
HETATM   20  H   UNL     1      -6.487  10.760  67.902  1.00  0.00     0.000 HD 
HETATM   21  C   UNL     1      -7.766   8.595  66.930  1.00  0.00    -0.091 C  
HETATM   22  H   UNL     1      -6.533   8.709  68.512  1.00  0.00     0.000 HD 
HETATM   23  C   UNL     1      -7.814  10.085  66.600  1.00  0.00    -0.111 C  
HETATM   24  O   UNL     1      -7.402   8.386  68.304  1.00  0.00    -0.091 OA 
HETATM   25  O   UNL     1      -7.398  10.917  67.684  1.00  0.00    -0.091 OA 
BRANCH  19  26
HETATM   26  N   UNL     1      -9.203   6.798  65.866  1.00  0.00    -0.034 N  
HETATM   27  C   UNL     1      -8.379   6.573  64.787  1.00  0.00    -0.017 C  
HETATM   28  C   UNL     1      -8.478   5.463  64.066  1.00  0.00    -0.077 C  
HETATM   29  C   UNL     1      -9.522   4.512  64.490  1.00  0.00    -0.084 C  
HETATM   30  N   UNL     1     -10.303   4.712  65.506  1.00  0.00    -0.412 N  
HETATM   31  N   UNL     1      -9.704   3.357  63.779  1.00  0.00    -0.134 NA 
HETATM   32  H   UNL     1     -11.000   4.013  65.762  1.00  0.00     0.000 HD 
HETATM   33  C   UNL     1     -10.186   5.873  66.238  1.00  0.00    -0.030 C  
HETATM   34  H1  UNL     1     -10.425   2.700  64.072  1.00  0.00     0.000 HD 
HETATM   35  H2  UNL     1      -9.123   3.156  62.965  1.00  0.00     0.000 HD 
HETATM   36  O   UNL     1     -10.928   6.097  67.197  1.00  0.00    -0.335 OA 
ENDBRANCH  19  26
ENDBRANCH  16  17
ENDBRANCH  15  16
ENDBRANCH  12  15
ENDBRANCH  11  12
ENDBRANCH   8  11
ENDBRANCH   7   8
ENDBRANCH   6   7
ENDBRANCH   5   6
ENDBRANCH   2   5
TORSDOF 10
ENDMDL
MODEL      115
REMARK 921   NORMALIZED FREE ENERGY PREDICTED BY IDOCK:   -5.07 KCAL/MOL
REMARK 922        TOTAL FREE ENERGY PREDICTED BY IDOCK:   -8.97 KCAL/MOL
REMARK 923 INTER-LIGAND FREE ENERGY PREDICTED BY IDOCK:   -7.63 KCAL/MOL
REMARK 924 INTRA-LIGAND FREE ENERGY PREDICTED BY IDOCK:   -1.34 KCAL/MOL
REMARK 927      BINDING AFFINITY PREDICTED BY RF-SCORE:    0.00 PKD
ROOT
HETATM    1  C   UNL     1      -8.443   8.727  67.236  1.00  0.00    -0.111 C  
HETATM    2  N   UNL     1      -7.104   8.888  66.548  1.00  0.00    -0.083 N  
HETATM    3  C   UNL     1      -5.986   8.374  67.438  1.00  0.00    -0.047 C  
HETATM    4  C   UNL     1      -7.107   8.056  65.254  1.00  0.00    -0.063 C  
ENDROOT
BRANCH   2   5
HETATM    5  C   UNL     1      -6.915  10.393  66.233  1.00  0.00    -0.118 C  
BRANCH   5   6
HETATM    6  C   UNL     1      -5.925  11.111  67.132  1.00  0.00    -0.073 C  
BRANCH   6   7
HETATM    7  O   UNL     1      -6.598  11.595  68.278  1.00  0.00    -0.056 OA 
BRANCH   7   8
HETATM    8  P   UNL     1      -6.398  13.309  68.399  1.00  0.00    -0.116 P  
HETATM    9  O   UNL     1      -7.895  13.458  68.159  1.00  0.00    -0.123 OA 
HETATM   10  O   UNL     1      -5.441  13.233  67.204  1.00  0.00    -0.328 OA 
BRANCH   8  11
HETATM   11  O   UNL     1      -6.197  15.024  68.521  1.00  0.00    -0.086 OA 
BRANCH  11  12
HETATM   12  P   UNL     1      -7.623  15.813  67.943  1.00  0.00    -0.152 P  
HETATM   13  O   UNL     1      -7.375  16.999  69.059  1.00  0.00    -0.237 OA 
HETATM   14  O   UNL     1      -6.811  16.306  66.727  1.00  0.00    -0.199 OA 
BRANCH  12  15
HETATM   15  O   UNL     1      -9.050  16.603  67.366  1.00  0.00    -0.199 OA 
BRANCH  15  16
HETATM   16  C   UNL     1      -9.160  16.717  65.934  1.00  0.00    -0.084 C  
BRANCH  16  17
HETATM   17  C   UNL     1      -9.943  15.581  65.294  1.00  0.00    -0.238 C  
HETATM   18  O   UNL     1      -9.897  14.424  66.134  1.00  0.00    -0.293 OA 
HETATM   19  C   UNL     1     -11.018  13.613  65.778  1.00  0.00    -0.278 C  
HETATM   20  H   UNL     1     -12.499  16.624  63.556  1.00  0.00     0.000 HD 
HETATM   21  C   UNL     1     -12.114  14.565  65.253  1.00  0.00    -0.337 C  
HETATM   22  H   UNL     1     -13.399  14.689  63.713  1.00  0.00     0.000 HD 
HETATM   23  C   UNL     1     -11.403  15.898  65.034  1.00  0.00    -0.193 C  
HETATM   24  O   UNL     1     -12.724  14.103  64.036  1.00  0.00    -0.646 OA 
HETATM   25  O   UNL     1     -11.584  16.425  63.719  1.00  0.00    -1.055 OA 
BRANCH  19  26
HETATM   26  N   UNL     1     -11.422  12.774  66.908  1.00  0.00    -0.321 N  
HETATM   27  C   UNL     1     -11.838  13.326  68.098  1.00  0.00    -0.353 C  
HETATM   28  C   UNL     1     -12.102  12.566  69.154  1.00  0.00    -0.187 C  
HETATM   29  C   UNL     1     -11.910  11.117  68.966  1.00  0.00    -0.348 C  
HETATM   30  N   UNL     1     -11.521  10.583  67.849  1.00  0.00    -0.431 N  
HETATM   31  N   UNL     1     -12.135  10.270  70.017  1.00  0.00    -0.455 NA 
HETATM   32  H   UNL     1     -11.417   9.572  67.773  1.00  0.00     0.000 HD 
HETATM   33  C   UNL     1     -11.248  11.392  66.767  1.00  0.00    -0.252 C  
HETATM   34  H1  UNL     1     -12.002   9.268  69.888  1.00  0.00     0.000 HD 
HETATM   35  H2  UNL     1     -12.433  10.638  70.921  1.00  0.00     0.000 HD 
HETATM   36  O   UNL     1     -10.858  10.913  65.699  1.00  0.00    -0.165 OA 
ENDBRANCH  19  26
ENDBRANCH  16  17
ENDBRANCH  15  16
ENDBRANCH  12  15
ENDBRANCH  11  12
ENDBRANCH   8  11
ENDBRANCH   7   8
ENDBRANCH   6   7
ENDBRANCH   5   6
ENDBRANCH   2   5
TORSDOF 10
ENDMDL
MODEL      116
REMARK 921   NORMALIZED FREE ENERGY PREDICTED BY IDOCK:   -5.07 KCAL/MOL
REMARK 922        TOTAL FREE ENERGY PREDICTED BY IDOCK:   -8.97 KCAL/MOL
REMARK 923 INTER-LIGAND FREE ENERGY PREDICTED BY IDOCK:   -7.64 KCAL/MOL
REMARK 924 INTRA-LIGAND FREE ENERGY PREDICTED BY IDOCK:   -1.33 KCAL/MOL
REMARK 927      BINDING AFFINITY PREDICTED BY RF-SCORE:    0.00 PKD
ROOT
HETATM    1  C   UNL     1      -8.901   8.360  65.627  1.00  0.00    -0.156 C  
HETATM    2  N   UNL     1      -8.586   9.615  64.841  1.00  0.00    -0.158 N  
HETATM    3  C   UNL     1      -7.602  10.485  65.604  1.00  0.00    -0.134 C  
HETATM    4  C   UNL     1      -7.937   9.214  63.506  1.00  0.00    -0.145 C  
ENDROOT
BRANCH   2   5
HETATM    5  C   UNL     1      -9.919  10.366  64.601  1.00  0.00    -0.338 C  
BRANCH   5   6
HETATM    6  C   UNL     1      -9.951  11.220  63.346  1.00  0.00    -0.395 C  
BRANCH   6   7
HETATM    7  O   UNL     1     -11.188  11.900  63.272  1.00  0.00    -0.364 OA 
BRANCH   7   8
HETATM    8  P   UNL     1     -11.497  12.725  64.762  1.00  0.00    -0.360 P  
HETATM    9  O   UNL     1     -12.973  12.767  64.383  1.00  0.00    -0.723 OA 
HETATM   10  O   UNL     1     -10.559  13.838  64.283  1.00  0.00    -0.367 OA 
BRANCH   8  11
HETATM   11  O   UNL     1     -11.806  13.549  66.251  1.00  0.00    -0.353 OA 
BRANCH  11  12
HETATM   12  P   UNL     1     -11.882  12.399  67.541  1.00  0.00    -0.055 P  
HETATM   13  O   UNL     1     -10.237  12.328  67.525  1.00  0.00    -0.201 OA 
HETATM   14  O   UNL     1     -12.169  13.564  68.511  1.00  0.00    -0.320 OA 
BRANCH  12  15
HETATM   15  O   UNL     1     -11.957  11.248  68.831  1.00  0.00    -0.375 OA 
BRANCH  15  16
HETATM   16  C   UNL     1     -11.051  10.133  68.721  1.00  0.00    -0.203 C  
BRANCH  16  17
HETATM   17  C   UNL     1     -10.157   9.957  69.938  1.00  0.00    -0.257 C  
HETATM   18  O   UNL     1     -10.635   8.876  70.743  1.00  0.00    -0.202 OA 
HETATM   19  C   UNL     1      -9.530   8.430  71.532  1.00  0.00    -0.203 C  
HETATM   20  H   UNL     1      -7.039  10.704  69.337  1.00  0.00     0.000 HD 
HETATM   21  C   UNL     1      -8.250   8.737  70.727  1.00  0.00    -0.156 C  
HETATM   22  H   UNL     1      -6.431   9.537  71.024  1.00  0.00     0.000 HD 
HETATM   23  C   UNL     1      -8.704   9.672  69.609  1.00  0.00    -0.197 C  
HETATM   24  O   UNL     1      -7.220   9.349  71.520  1.00  0.00    -0.325 OA 
HETATM   25  O   UNL     1      -7.949  10.882  69.543  1.00  0.00    -0.076 OA 
BRANCH  19  26
HETATM   26  N   UNL     1      -9.701   7.024  71.904  1.00  0.00    -0.158 N  
HETATM   27  C   UNL     1      -9.401   6.009  71.025  1.00  0.00    -0.161 C  
HETATM   28  C   UNL     1      -9.656   4.741  71.326  1.00  0.00    -0.232 C  
HETATM   29  C   UNL     1     -10.282   4.506  72.639  1.00  0.00    -0.179 C  
HETATM   30  N   UNL     1     -10.569   5.454  73.477  1.00  0.00    -0.249 N  
HETATM   31  N   UNL     1     -10.601   3.228  73.009  1.00  0.00    -0.161 NA 
HETATM   32  H   UNL     1     -10.990   5.231  74.378  1.00  0.00     0.000 HD 
HETATM   33  C   UNL     1     -10.299   6.763  73.143  1.00  0.00    -0.247 C  
HETATM   34  H1  UNL     1     -11.035   3.065  73.917  1.00  0.00     0.000 HD 
HETATM   35  H2  UNL     1     -10.408   2.446  72.383  1.00  0.00     0.000 HD 
HETATM   36  O   UNL     1     -10.578   7.685  73.913  1.00  0.00    -0.195 OA 
ENDBRANCH  19  26
ENDBRANCH  16  17
ENDBRANCH  15  16
ENDBRANCH  12  15
ENDBRANCH  11  12
ENDBRANCH   8  11
ENDBRANCH   7   8
ENDBRANCH   6   7
ENDBRANCH   5   6
ENDBRANCH   2   5
TORSDOF 10
ENDMDL
MODEL      117
REMARK 921   NORMALIZED FREE ENERGY PREDICTED BY IDOCK:   -5.07 KCAL/MOL
REMARK 922        TOTAL FREE ENERGY PREDICTED BY IDOCK:   -8.97 KCAL/MOL
REMARK 923 INTER-LIGAND FREE ENERGY PREDICTED BY IDOCK:   -8.56 KCAL/MOL
REMARK 924 INTRA-LIGAND FREE ENERGY PREDICTED BY IDOCK:   -0.41 KCAL/MOL
REMARK 927      BINDING AFFINITY PREDICTED BY RF-SCORE:    0.00 PKD
ROOT
HETATM    1  C   UNL     1      -7.953  18.828  66.497  1.00  0.00    -0.279 C  
HETATM    2  N   UNL     1      -9.312  19.293  66.974  1.00  0.00    -0.308 N  
HETATM    3  C   UNL     1      -9.194  19.973  68.327  1.00  0.00    -0.185 C  
HETATM    4  C   UNL     1      -9.867  20.317  65.969  1.00  0.00    -0.257 C  
ENDROOT
BRANCH   2   5
HETATM    5  C   UNL     1     -10.232  18.050  67.056  1.00  0.00    -0.362 C  
BRANCH   5   6
HETATM    6  C   UNL     1     -11.109  17.825  65.838  1.00  0.00     0.493 C  
BRANCH   6   7
HETATM    7  O   UNL     1     -10.451  16.955  64.939  1.00  0.00    -0.600 OA 
BRANCH   7   8
HETATM    8  P   UNL     1     -11.283  15.439  64.871  1.00  0.00    -0.277 P  
HETATM    9  O   UNL     1      -9.984  14.795  64.403  1.00  0.00     0.137 OA 
HETATM   10  O   UNL     1     -12.234  16.064  63.843  1.00  0.00    -0.883 OA 
BRANCH   8  11
HETATM   11  O   UNL     1     -12.115  13.924  64.803  1.00  0.00    -0.380 OA 
BRANCH  11  12
HETATM   12  P   UNL     1     -11.103  12.681  65.453  1.00  0.00    -0.317 P  
HETATM   13  O   UNL     1     -12.348  12.231  66.434  1.00  0.00    -0.531 OA 
HETATM   14  O   UNL     1     -11.357  11.858  64.172  1.00  0.00    -0.348 OA 
BRANCH  12  15
HETATM   15  O   UNL     1     -10.091  11.438  66.103  1.00  0.00    -0.216 OA 
BRANCH  15  16
HETATM   16  C   UNL     1      -8.930  11.895  66.823  1.00  0.00    -0.196 C  
BRANCH  16  17
HETATM   17  C   UNL     1      -9.035  13.340  67.286  1.00  0.00    -0.217 C  
HETATM   18  O   UNL     1     -10.305  13.564  67.903  1.00  0.00    -0.238 OA 
HETATM   19  C   UNL     1     -10.157  14.707  68.747  1.00  0.00    -0.235 C  
HETATM   20  H   UNL     1      -6.168  14.579  68.229  1.00  0.00     0.000 HD 
HETATM   21  C   UNL     1      -8.680  14.749  69.194  1.00  0.00    -0.085 C  
HETATM   22  H   UNL     1      -7.188  16.083  69.360  1.00  0.00     0.000 HD 
HETATM   23  C   UNL     1      -7.967  13.757  68.279  1.00  0.00    -0.146 C  
HETATM   24  O   UNL     1      -8.097  16.057  69.085  1.00  0.00    -0.222 OA 
HETATM   25  O   UNL     1      -6.838  14.318  67.608  1.00  0.00    -0.170 OA 
BRANCH  19  26
HETATM   26  N   UNL     1     -11.130  14.664  69.842  1.00  0.00    -0.234 N  
HETATM   27  C   UNL     1     -11.751  13.491  70.202  1.00  0.00    -0.210 C  
HETATM   28  C   UNL     1     -12.708  13.474  71.123  1.00  0.00    -0.425 C  
HETATM   29  C   UNL     1     -13.058  14.780  71.710  1.00  0.00    -0.336 C  
HETATM   30  N   UNL     1     -12.478  15.893  71.380  1.00  0.00    -0.514 N  
HETATM   31  N   UNL     1     -14.054  14.849  72.645  1.00  0.00    -0.453 NA 
HETATM   32  H   UNL     1     -12.752  16.767  71.828  1.00  0.00     0.000 HD 
HETATM   33  C   UNL     1     -11.490  15.888  70.419  1.00  0.00    -0.378 C  
HETATM   34  H1  UNL     1     -14.296  15.752  73.051  1.00  0.00     0.000 HD 
HETATM   35  H2  UNL     1     -14.550  14.004  72.932  1.00  0.00     0.000 HD 
HETATM   36  O   UNL     1     -10.935  16.934  70.073  1.00  0.00    -0.189 OA 
ENDBRANCH  19  26
ENDBRANCH  16  17
ENDBRANCH  15  16
ENDBRANCH  12  15
ENDBRANCH  11  12
ENDBRANCH   8  11
ENDBRANCH   7   8
ENDBRANCH   6   7
ENDBRANCH   5   6
ENDBRANCH   2   5
TORSDOF 10
ENDMDL
MODEL      118
REMARK 921   NORMALIZED FREE ENERGY PREDICTED BY IDOCK:   -5.06 KCAL/MOL
REMARK 922        TOTAL FREE ENERGY PREDICTED BY IDOCK:   -8.95 KCAL/MOL
REMARK 923 INTER-LIGAND FREE ENERGY PREDICTED BY IDOCK:   -8.19 KCAL/MOL
REMARK 924 INTRA-LIGAND FREE ENERGY PREDICTED BY IDOCK:   -0.77 KCAL/MOL
REMARK 927      BINDING AFFINITY PREDICTED BY RF-SCORE:    0.00 PKD
ROOT
HETATM    1  C   UNL     1      -6.140  19.783  64.647  1.00  0.00    -0.272 C  
HETATM    2  N   UNL     1      -6.416  19.761  66.135  1.00  0.00    -0.191 N  
HETATM    3  C   UNL     1      -5.337  18.977  66.863  1.00  0.00    -0.155 C  
HETATM    4  C   UNL     1      -6.400  21.204  66.665  1.00  0.00    -0.298 C  
ENDROOT
BRANCH   2   5
HETATM    5  C   UNL     1      -7.807  19.114  66.346  1.00  0.00    -0.284 C  
BRANCH   5   6
HETATM    6  C   UNL     1      -7.773  17.667  66.805  1.00  0.00    -0.226 C  
BRANCH   6   7
HETATM    7  O   UNL     1      -8.356  16.846  65.813  1.00  0.00    -0.472 OA 
BRANCH   7   8
HETATM    8  P   UNL     1      -9.885  16.251  66.364  1.00  0.00    -0.333 P  
HETATM    9  O   UNL     1      -9.706  15.055  65.437  1.00  0.00    -0.316 OA 
HETATM   10  O   UNL     1     -10.523  17.538  65.827  1.00  0.00    -0.535 OA 
BRANCH   8  11
HETATM   11  O   UNL     1     -11.414  15.657  66.915  1.00  0.00    -0.115 OA 
BRANCH  11  12
HETATM   12  P   UNL     1     -11.167  14.573  68.239  1.00  0.00    -0.309 P  
HETATM   13  O   UNL     1      -9.742  15.338  68.552  1.00  0.00    -0.200 OA 
HETATM   14  O   UNL     1     -12.188  15.396  69.053  1.00  0.00    -0.257 OA 
BRANCH  12  15
HETATM   15  O   UNL     1     -10.918  13.488  69.564  1.00  0.00    -0.124 OA 
BRANCH  15  16
HETATM   16  C   UNL     1     -12.095  12.800  70.032  1.00  0.00    -0.285 C  
BRANCH  16  17
HETATM   17  C   UNL     1     -12.115  11.323  69.670  1.00  0.00    -0.322 C  
HETATM   18  O   UNL     1     -11.717  11.148  68.308  1.00  0.00    -0.440 OA 
HETATM   19  C   UNL     1     -11.260   9.800  68.183  1.00  0.00    -0.008 C  
HETATM   20  H   UNL     1     -11.344   9.393  72.186  1.00  0.00     0.000 HD 
HETATM   21  C   UNL     1     -10.715   9.379  69.564  1.00  0.00    -0.222 C  
HETATM   22  H   UNL     1     -10.834   7.821  70.827  1.00  0.00     0.000 HD 
HETATM   23  C   UNL     1     -11.207  10.459  70.525  1.00  0.00    -0.314 C  
HETATM   24  O   UNL     1     -11.170   8.080  69.976  1.00  0.00    -0.208 OA 
HETATM   25  O   UNL     1     -11.912   9.934  71.650  1.00  0.00    -0.393 OA 
BRANCH  19  26
HETATM   26  N   UNL     1     -10.300   9.686  67.082  1.00  0.00    -0.245 N  
HETATM   27  C   UNL     1      -9.626  10.785  66.603  1.00  0.00    -0.178 C  
HETATM   28  C   UNL     1      -8.838  10.698  65.538  1.00  0.00    -0.202 C  
HETATM   29  C   UNL     1      -8.748   9.366  64.912  1.00  0.00    -0.190 C  
HETATM   30  N   UNL     1      -9.376   8.322  65.356  1.00  0.00    -0.391 N  
HETATM   31  N   UNL     1      -7.977   9.203  63.794  1.00  0.00    -0.137 NA 
HETATM   32  H   UNL     1      -9.267   7.421  64.891  1.00  0.00     0.000 HD 
HETATM   33  C   UNL     1     -10.193   8.436  66.461  1.00  0.00    -0.207 C  
HETATM   34  H1  UNL     1      -7.915   8.282  63.361  1.00  0.00     0.000 HD 
HETATM   35  H2  UNL     1      -7.470   9.994  63.397  1.00  0.00     0.000 HD 
HETATM   36  O   UNL     1     -10.817   7.463  66.892  1.00  0.00    -0.357 OA 
ENDBRANCH  19  26
ENDBRANCH  16  17
ENDBRANCH  15  16
ENDBRANCH  12  15
ENDBRANCH  11  12
ENDBRANCH   8  11
ENDBRANCH   7   8
ENDBRANCH   6   7
ENDBRANCH   5   6
ENDBRANCH   2   5
TORSDOF 10
ENDMDL
MODEL      119
REMARK 921   NORMALIZED FREE ENERGY PREDICTED BY IDOCK:   -5.04 KCAL/MOL
REMARK 922        TOTAL FREE ENERGY PREDICTED BY IDOCK:   -8.91 KCAL/MOL
REMARK 923 INTER-LIGAND FREE ENERGY PREDICTED BY IDOCK:   -8.10 KCAL/MOL
REMARK 924 INTRA-LIGAND FREE ENERGY PREDICTED BY IDOCK:   -0.81 KCAL/MOL
REMARK 927      BINDING AFFINITY PREDICTED BY RF-SCORE:    0.00 PKD
ROOT
HETATM    1  C   UNL     1     -10.060  19.965  68.973  1.00  0.00    -0.297 C  
HETATM    2  N   UNL     1      -9.643  19.115  67.793  1.00  0.00    -0.304 N  
HETATM    3  C   UNL     1     -10.107  19.749  66.493  1.00  0.00    -0.476 C  
HETATM    4  C   UNL     1      -8.108  19.026  67.762  1.00  0.00    -0.268 C  
ENDROOT
BRANCH   2   5
HETATM    5  C   UNL     1     -10.271  17.712  67.979  1.00  0.00    -0.362 C  
BRANCH   5   6
HETATM    6  C   UNL     1     -10.296  16.854  66.727  1.00  0.00    -0.298 C  
BRANCH   6   7
HETATM    7  O   UNL     1     -10.794  15.570  67.047  1.00  0.00    -0.320 OA 
BRANCH   7   8
HETATM    8  P   UNL     1     -10.834  14.583  65.627  1.00  0.00    -0.368 P  
HETATM    9  O   UNL     1      -9.538  13.933  66.094  1.00  0.00    -0.281 OA 
HETATM   10  O   UNL     1     -10.782  15.867  64.791  1.00  0.00    -0.559 OA 
BRANCH   8  11
HETATM   11  O   UNL     1     -10.875  13.595  64.207  1.00  0.00    -0.388 OA 
BRANCH  11  12
HETATM   12  P   UNL     1     -10.521  11.957  64.634  1.00  0.00    -0.333 P  
HETATM   13  O   UNL     1     -12.074  11.797  65.159  1.00  0.00    -0.247 OA 
HETATM   14  O   UNL     1     -10.621  11.586  63.140  1.00  0.00    -0.335 OA 
BRANCH  12  15
HETATM   15  O   UNL     1     -10.168  10.318  65.063  1.00  0.00    -0.320 OA 
BRANCH  15  16
HETATM   16  C   UNL     1     -10.469   9.953  66.424  1.00  0.00    -0.127 C  
BRANCH  16  17
HETATM   17  C   UNL     1      -9.459   8.993  67.031  1.00  0.00    -0.163 C  
HETATM   18  O   UNL     1      -9.711   8.840  68.431  1.00  0.00    -0.155 OA 
HETATM   19  C   UNL     1      -9.120   7.600  68.822  1.00  0.00    -0.139 C  
HETATM   20  H   UNL     1      -8.530   6.653  64.956  1.00  0.00     0.000 HD 
HETATM   21  C   UNL     1      -9.138   6.681  67.582  1.00  0.00    -0.112 C  
HETATM   22  H   UNL     1      -7.899   5.440  66.602  1.00  0.00     0.000 HD 
HETATM   23  C   UNL     1      -9.466   7.607  66.414  1.00  0.00    -0.161 C  
HETATM   24  O   UNL     1      -7.888   6.006  67.365  1.00  0.00    -0.100 OA 
HETATM   25  O   UNL     1      -8.526   7.521  65.343  1.00  0.00    -0.140 OA 
BRANCH  19  26
HETATM   26  N   UNL     1      -9.802   7.058  70.000  1.00  0.00    -0.177 N  
HETATM   27  C   UNL     1     -11.113   7.370  70.275  1.00  0.00    -0.258 C  
HETATM   28  C   UNL     1     -11.697   6.963  71.396  1.00  0.00    -0.358 C  
HETATM   29  C   UNL     1     -10.850   6.178  72.312  1.00  0.00    -0.244 C  
HETATM   30  N   UNL     1      -9.613   5.875  72.063  1.00  0.00    -0.150 N  
HETATM   31  N   UNL     1     -11.372   5.746  73.501  1.00  0.00    -0.411 NA 
HETATM   32  H   UNL     1      -9.078   5.317  72.728  1.00  0.00     0.000 HD 
HETATM   33  C   UNL     1      -9.027   6.311  70.895  1.00  0.00    -0.147 C  
HETATM   34  H1  UNL     1     -10.786   5.203  74.135  1.00  0.00     0.000 HD 
HETATM   35  H2  UNL     1     -12.336   5.966  73.751  1.00  0.00     0.000 HD 
HETATM   36  O   UNL     1      -7.847   6.053  70.642  1.00  0.00    -0.101 OA 
ENDBRANCH  19  26
ENDBRANCH  16  17
ENDBRANCH  15  16
ENDBRANCH  12  15
ENDBRANCH  11  12
ENDBRANCH   8  11
ENDBRANCH   7   8
ENDBRANCH   6   7
ENDBRANCH   5   6
ENDBRANCH   2   5
TORSDOF 10
ENDMDL
MODEL      120
REMARK 921   NORMALIZED FREE ENERGY PREDICTED BY IDOCK:   -5.02 KCAL/MOL
REMARK 922        TOTAL FREE ENERGY PREDICTED BY IDOCK:   -8.89 KCAL/MOL
REMARK 923 INTER-LIGAND FREE ENERGY PREDICTED BY IDOCK:   -7.89 KCAL/MOL
REMARK 924 INTRA-LIGAND FREE ENERGY PREDICTED BY IDOCK:   -1.01 KCAL/MOL
REMARK 927      BINDING AFFINITY PREDICTED BY RF-SCORE:    0.00 PKD
ROOT
HETATM    1  C   UNL     1      -9.610  20.567  66.630  1.00  0.00    -0.255 C  
HETATM    2  N   UNL     1      -9.510  19.150  67.152  1.00  0.00    -0.308 N  
HETATM    3  C   UNL     1      -8.054  18.744  67.309  1.00  0.00    -0.244 C  
HETATM    4  C   UNL     1     -10.179  19.081  68.535  1.00  0.00    -0.351 C  
ENDROOT
BRANCH   2   5
HETATM    5  C   UNL     1     -10.237  18.225  66.144  1.00  0.00    -0.381 C  
BRANCH   5   6
HETATM    6  C   UNL     1     -10.485  16.812  66.641  1.00  0.00    -0.258 C  
BRANCH   6   7
HETATM    7  O   UNL     1     -10.600  15.940  65.534  1.00  0.00    -0.363 OA 
BRANCH   7   8
HETATM    8  P   UNL     1     -10.374  14.303  66.049  1.00  0.00    -0.336 P  
HETATM    9  O   UNL     1     -10.429  13.881  64.586  1.00  0.00    -0.425 OA 
HETATM   10  O   UNL     1     -11.673  14.428  66.852  1.00  0.00    -0.372 OA 
BRANCH   8  11
HETATM   11  O   UNL     1     -10.147  12.667  66.563  1.00  0.00    -0.238 OA 
BRANCH  11  12
HETATM   12  P   UNL     1     -11.252  12.307  67.844  1.00  0.00    -0.321 P  
HETATM   13  O   UNL     1     -11.420  10.791  67.224  1.00  0.00    -0.436 OA 
HETATM   14  O   UNL     1     -10.043  12.160  68.793  1.00  0.00    -0.184 OA 
BRANCH  12  15
HETATM   15  O   UNL     1     -12.357  11.947  69.125  1.00  0.00    -0.157 OA 
BRANCH  15  16
HETATM   16  C   UNL     1     -11.769  11.377  70.311  1.00  0.00    -0.306 C  
BRANCH  16  17
HETATM   17  C   UNL     1     -12.042   9.890  70.468  1.00  0.00    -0.207 C  
HETATM   18  O   UNL     1     -10.811   9.183  70.642  1.00  0.00    -0.230 OA 
HETATM   19  C   UNL     1     -11.133   7.948  71.283  1.00  0.00    -0.250 C  
HETATM   20  H   UNL     1     -14.869   9.274  71.977  1.00  0.00     0.000 HD 
HETATM   21  C   UNL     1     -12.402   8.195  72.126  1.00  0.00    -0.338 C  
HETATM   22  H   UNL     1     -14.172   7.316  72.487  1.00  0.00     0.000 HD 
HETATM   23  C   UNL     1     -12.938   9.540  71.642  1.00  0.00    -0.396 C  
HETATM   24  O   UNL     1     -13.391   7.164  71.968  1.00  0.00    -0.229 OA 
HETATM   25  O   UNL     1     -14.308   9.493  71.242  1.00  0.00     0.018 OA 
BRANCH  19  26
HETATM   26  N   UNL     1      -9.981   7.448  72.038  1.00  0.00    -0.165 N  
HETATM   27  C   UNL     1      -9.155   8.302  72.732  1.00  0.00    -0.262 C  
HETATM   28  C   UNL     1      -8.053   7.860  73.327  1.00  0.00    -0.218 C  
HETATM   29  C   UNL     1      -7.780   6.419  73.184  1.00  0.00    -0.098 C  
HETATM   30  N   UNL     1      -8.552   5.603  72.535  1.00  0.00    -0.124 N  
HETATM   31  N   UNL     1      -6.648   5.893  73.746  1.00  0.00    -0.074 NA 
HETATM   32  H   UNL     1      -8.320   4.612  72.479  1.00  0.00     0.000 HD 
HETATM   33  C   UNL     1      -9.689   6.084  71.921  1.00  0.00    -0.153 C  
HETATM   34  H1  UNL     1      -6.459   4.896  73.647  1.00  0.00     0.000 HD 
HETATM   35  H2  UNL     1      -6.001   6.493  74.259  1.00  0.00     0.000 HD 
HETATM   36  O   UNL     1     -10.430   5.334  71.282  1.00  0.00    -0.226 OA 
ENDBRANCH  19  26
ENDBRANCH  16  17
ENDBRANCH  15  16
ENDBRANCH  12  15
ENDBRANCH  11  12
ENDBRANCH   8  11
ENDBRANCH   7   8
ENDBRANCH   6   7
ENDBRANCH   5   6
ENDBRANCH   2   5
TORSDOF 10
ENDMDL
MODEL      121
REMARK 921   NORMALIZED FREE ENERGY PREDICTED BY IDOCK:   -5.02 KCAL/MOL
REMARK 922        TOTAL FREE ENERGY PREDICTED BY IDOCK:   -8.89 KCAL/MOL
REMARK 923 INTER-LIGAND FREE ENERGY PREDICTED BY IDOCK:   -7.94 KCAL/MOL
REMARK 924 INTRA-LIGAND FREE ENERGY PREDICTED BY IDOCK:   -0.95 KCAL/MOL
REMARK 927      BINDING AFFINITY PREDICTED BY RF-SCORE:    0.00 PKD
ROOT
HETATM    1  C   UNL     1      -9.534  19.179  68.526  1.00  0.00    -0.389 C  
HETATM    2  N   UNL     1      -9.744  18.532  67.173  1.00  0.00    -0.295 N  
HETATM    3  C   UNL     1     -10.426  19.501  66.223  1.00  0.00    -0.512 C  
HETATM    4  C   UNL     1      -8.373  18.164  66.581  1.00  0.00    -0.263 C  
ENDROOT
BRANCH   2   5
HETATM    5  C   UNL     1     -10.608  17.265  67.388  1.00  0.00    -0.303 C  
BRANCH   5   6
HETATM    6  C   UNL     1     -10.260  16.097  66.482  1.00  0.00    -0.297 C  
BRANCH   6   7
HETATM    7  O   UNL     1     -11.430  15.354  66.203  1.00  0.00    -0.178 OA 
BRANCH   7   8
HETATM    8  P   UNL     1     -11.022  13.698  65.915  1.00  0.00    -0.288 P  
HETATM    9  O   UNL     1      -9.846  13.866  66.868  1.00  0.00    -0.253 OA 
HETATM   10  O   UNL     1     -10.855  14.048  64.432  1.00  0.00    -0.374 OA 
BRANCH   8  11
HETATM   11  O   UNL     1     -10.615  12.041  65.628  1.00  0.00    -0.248 OA 
BRANCH  11  12
HETATM   12  P   UNL     1     -10.327  11.248  67.137  1.00  0.00    -0.229 P  
HETATM   13  O   UNL     1     -11.933  11.390  67.476  1.00  0.00    -0.626 OA 
HETATM   14  O   UNL     1     -10.251   9.908  66.376  1.00  0.00    -0.242 OA 
BRANCH  12  15
HETATM   15  O   UNL     1     -10.040  10.455  68.649  1.00  0.00    -0.162 OA 
BRANCH  15  16
HETATM   16  C   UNL     1     -10.288   9.036  68.662  1.00  0.00    -0.209 C  
BRANCH  16  17
HETATM   17  C   UNL     1     -11.141   8.581  69.835  1.00  0.00    -0.112 C  
HETATM   18  O   UNL     1     -10.622   7.363  70.374  1.00  0.00    -0.218 OA 
HETATM   19  C   UNL     1     -11.099   7.270  71.717  1.00  0.00    -0.235 C  
HETATM   20  H   UNL     1     -12.402  11.072  71.523  1.00  0.00     0.000 HD 
HETATM   21  C   UNL     1     -11.301   8.713  72.224  1.00  0.00    -0.340 C  
HETATM   22  H   UNL     1     -12.679   9.790  73.214  1.00  0.00     0.000 HD 
HETATM   23  C   UNL     1     -11.223   9.583  70.972  1.00  0.00    -0.362 C  
HETATM   24  O   UNL     1     -12.554   8.901  72.901  1.00  0.00    -0.269 OA 
HETATM   25  O   UNL     1     -12.351  10.445  70.812  1.00  0.00    -0.311 OA 
BRANCH  19  26
HETATM   26  N   UNL     1     -10.192   6.454  72.527  1.00  0.00    -0.181 N  
HETATM   27  C   UNL     1      -8.844   6.723  72.583  1.00  0.00    -0.122 C  
HETATM   28  C   UNL     1      -8.008   5.921  73.232  1.00  0.00    -0.109 C  
HETATM   29  C   UNL     1      -8.617   4.738  73.867  1.00  0.00    -0.103 C  
HETATM   30  N   UNL     1      -9.887   4.475  73.824  1.00  0.00    -0.138 N  
HETATM   31  N   UNL     1      -7.817   3.849  74.532  1.00  0.00    -0.084 NA 
HETATM   32  H   UNL     1     -10.255   3.648  74.293  1.00  0.00     0.000 HD 
HETATM   33  C   UNL     1     -10.735   5.319  73.141  1.00  0.00    -0.266 C  
HETATM   34  H1  UNL     1      -8.237   3.031  74.971  1.00  0.00     0.000 HD 
HETATM   35  H2  UNL     1      -6.810   4.003  74.587  1.00  0.00     0.000 HD 
HETATM   36  O   UNL     1     -11.943   5.082  73.068  1.00  0.00    -0.226 OA 
ENDBRANCH  19  26
ENDBRANCH  16  17
ENDBRANCH  15  16
ENDBRANCH  12  15
ENDBRANCH  11  12
ENDBRANCH   8  11
ENDBRANCH   7   8
ENDBRANCH   6   7
ENDBRANCH   5   6
ENDBRANCH   2   5
TORSDOF 10
ENDMDL
MODEL      122
REMARK 921   NORMALIZED FREE ENERGY PREDICTED BY IDOCK:   -5.02 KCAL/MOL
REMARK 922        TOTAL FREE ENERGY PREDICTED BY IDOCK:   -8.89 KCAL/MOL
REMARK 923 INTER-LIGAND FREE ENERGY PREDICTED BY IDOCK:   -7.72 KCAL/MOL
REMARK 924 INTRA-LIGAND FREE ENERGY PREDICTED BY IDOCK:   -1.16 KCAL/MOL
REMARK 927      BINDING AFFINITY PREDICTED BY RF-SCORE:    0.00 PKD
ROOT
HETATM    1  C   UNL     1      -9.578   4.165  69.083  1.00  0.00    -0.172 C  
HETATM    2  N   UNL     1      -9.445   5.575  68.548  1.00  0.00    -0.117 N  
HETATM    3  C   UNL     1      -8.245   5.679  67.623  1.00  0.00    -0.101 C  
HETATM    4  C   UNL     1     -10.706   5.920  67.738  1.00  0.00    -0.265 C  
ENDROOT
BRANCH   2   5
HETATM    5  C   UNL     1      -9.294   6.525  69.761  1.00  0.00    -0.147 C  
BRANCH   5   6
HETATM    6  C   UNL     1     -10.480   7.441  70.004  1.00  0.00    -0.226 C  
BRANCH   6   7
HETATM    7  O   UNL     1     -10.049   8.595  70.697  1.00  0.00    -0.186 OA 
BRANCH   7   8
HETATM    8  P   UNL     1      -8.682   9.288  69.894  1.00  0.00    -0.217 P  
HETATM    9  O   UNL     1      -7.963   9.321  71.237  1.00  0.00    -0.322 OA 
HETATM   10  O   UNL     1      -9.580  10.461  69.485  1.00  0.00    -0.215 OA 
BRANCH   8  11
HETATM   11  O   UNL     1      -7.315   9.981  69.090  1.00  0.00    -0.075 OA 
BRANCH  11  12
HETATM   12  P   UNL     1      -7.816  10.650  67.576  1.00  0.00    -0.108 P  
HETATM   13  O   UNL     1      -6.419  11.522  67.542  1.00  0.00    -0.065 OA 
HETATM   14  O   UNL     1      -7.412   9.323  66.900  1.00  0.00    -0.090 OA 
BRANCH  12  15
HETATM   15  O   UNL     1      -8.316  11.320  66.061  1.00  0.00    -0.153 OA 
BRANCH  15  16
HETATM   16  C   UNL     1      -9.702  11.703  65.979  1.00  0.00    -0.232 C  
BRANCH  16  17
HETATM   17  C   UNL     1     -10.176  12.522  67.170  1.00  0.00    -0.217 C  
HETATM   18  O   UNL     1      -9.703  13.866  67.057  1.00  0.00    -0.236 OA 
HETATM   19  C   UNL     1     -10.564  14.674  67.860  1.00  0.00    -0.244 C  
HETATM   20  H   UNL     1     -13.094  11.573  68.278  1.00  0.00     0.000 HD 
HETATM   21  C   UNL     1     -11.941  13.978  67.885  1.00  0.00    -0.351 C  
HETATM   22  H   UNL     1     -13.359  13.477  69.217  1.00  0.00     0.000 HD 
HETATM   23  C   UNL     1     -11.684  12.581  67.326  1.00  0.00    -0.362 C  
HETATM   24  O   UNL     1     -12.511  13.906  69.202  1.00  0.00    -0.231 OA 
HETATM   25  O   UNL     1     -12.150  11.536  68.180  1.00  0.00    -0.604 OA 
BRANCH  19  26
HETATM   26  N   UNL     1     -10.581  16.053  67.365  1.00  0.00    -0.313 N  
HETATM   27  C   UNL     1     -10.441  16.335  66.026  1.00  0.00    -0.331 C  
HETATM   28  C   UNL     1     -10.350  17.587  65.592  1.00  0.00    -0.145 C  
HETATM   29  C   UNL     1     -10.399  18.631  66.631  1.00  0.00    -0.415 C  
HETATM   30  N   UNL     1     -10.533  18.379  67.897  1.00  0.00    -0.399 N  
HETATM   31  N   UNL     1     -10.283  19.945  66.265  1.00  0.00    -0.482 NA 
HETATM   32  H   UNL     1     -10.573  19.143  68.570  1.00  0.00     0.000 HD 
HETATM   33  C   UNL     1     -10.620  17.072  68.325  1.00  0.00    -0.372 C  
HETATM   34  H1  UNL     1     -10.316  20.667  66.983  1.00  0.00     0.000 HD 
HETATM   35  H2  UNL     1     -10.165  20.198  65.284  1.00  0.00     0.000 HD 
HETATM   36  O   UNL     1     -10.729  16.803  69.524  1.00  0.00    -0.330 OA 
ENDBRANCH  19  26
ENDBRANCH  16  17
ENDBRANCH  15  16
ENDBRANCH  12  15
ENDBRANCH  11  12
ENDBRANCH   8  11
ENDBRANCH   7   8
ENDBRANCH   6   7
ENDBRANCH   5   6
ENDBRANCH   2   5
TORSDOF 10
ENDMDL
MODEL      123
REMARK 921   NORMALIZED FREE ENERGY PREDICTED BY IDOCK:   -5.01 KCAL/MOL
REMARK 922        TOTAL FREE ENERGY PREDICTED BY IDOCK:   -8.87 KCAL/MOL
REMARK 923 INTER-LIGAND FREE ENERGY PREDICTED BY IDOCK:   -7.38 KCAL/MOL
REMARK 924 INTRA-LIGAND FREE ENERGY PREDICTED BY IDOCK:   -1.49 KCAL/MOL
REMARK 927      BINDING AFFINITY PREDICTED BY RF-SCORE:    0.00 PKD
ROOT
HETATM    1  C   UNL     1      -5.159   6.977  70.496  1.00  0.00    -0.022 C  
HETATM    2  N   UNL     1      -6.372   7.281  69.644  1.00  0.00    -0.034 N  
HETATM    3  C   UNL     1      -7.090   8.515  70.164  1.00  0.00    -0.043 C  
HETATM    4  C   UNL     1      -5.910   7.567  68.205  1.00  0.00    -0.031 C  
ENDROOT
BRANCH   2   5
HETATM    5  C   UNL     1      -7.300   6.042  69.687  1.00  0.00    -0.079 C  
BRANCH   5   6
HETATM    6  C   UNL     1      -7.912   5.658  68.352  1.00  0.00    -0.100 C  
BRANCH   6   7
HETATM    7  O   UNL     1      -9.289   5.979  68.357  1.00  0.00    -0.120 OA 
BRANCH   7   8
HETATM    8  P   UNL     1      -9.608   7.226  67.200  1.00  0.00    -0.185 P  
HETATM    9  O   UNL     1     -11.089   6.884  67.303  1.00  0.00    -0.339 OA 
HETATM   10  O   UNL     1      -8.720   6.465  66.208  1.00  0.00    -0.133 OA 
BRANCH   8  11
HETATM   11  O   UNL     1      -9.926   8.473  66.044  1.00  0.00    -0.191 OA 
BRANCH  11  12
HETATM   12  P   UNL     1      -9.933  10.008  66.840  1.00  0.00    -0.232 P  
HETATM   13  O   UNL     1      -8.287   9.997  66.796  1.00  0.00    -0.124 OA 
HETATM   14  O   UNL     1     -10.312  10.661  65.494  1.00  0.00    -0.266 OA 
BRANCH  12  15
HETATM   15  O   UNL     1      -9.940  11.544  67.637  1.00  0.00    -0.180 OA 
BRANCH  15  16
HETATM   16  C   UNL     1     -11.122  12.342  67.437  1.00  0.00    -0.272 C  
BRANCH  16  17
HETATM   17  C   UNL     1     -12.118  12.247  68.582  1.00  0.00    -0.088 C  
HETATM   18  O   UNL     1     -12.109  10.925  69.128  1.00  0.00    -0.362 OA 
HETATM   19  C   UNL     1     -12.626  11.025  70.456  1.00  0.00    -0.304 C  
HETATM   20  H   UNL     1     -12.401  15.037  70.249  1.00  0.00     0.000 HD 
HETATM   21  C   UNL     1     -12.286  12.441  70.966  1.00  0.00    -0.210 C  
HETATM   22  H   UNL     1     -13.188  13.960  71.923  1.00  0.00     0.000 HD 
HETATM   23  C   UNL     1     -11.852  13.212  69.722  1.00  0.00    -0.316 C  
HETATM   24  O   UNL     1     -13.397  13.088  71.608  1.00  0.00    -0.372 OA 
HETATM   25  O   UNL     1     -12.568  14.433  69.535  1.00  0.00    -0.217 OA 
BRANCH  19  26
HETATM   26  N   UNL     1     -12.115   9.932  71.287  1.00  0.00    -0.365 N  
HETATM   27  C   UNL     1     -10.808   9.512  71.193  1.00  0.00    -0.355 C  
HETATM   28  C   UNL     1     -10.375   8.454  71.869  1.00  0.00    -0.353 C  
HETATM   29  C   UNL     1     -11.380   7.770  72.703  1.00  0.00    -0.393 C  
HETATM   30  N   UNL     1     -12.614   8.157  72.801  1.00  0.00    -0.606 N  
HETATM   31  N   UNL     1     -11.017   6.655  73.408  1.00  0.00    -0.484 NA 
HETATM   32  H   UNL     1     -13.264   7.652  73.403  1.00  0.00     0.000 HD 
HETATM   33  C   UNL     1     -13.043   9.255  72.087  1.00  0.00    -0.443 C  
HETATM   34  H1  UNL     1     -11.712   6.181  73.984  1.00  0.00     0.000 HD 
HETATM   35  H2  UNL     1     -10.061   6.301  73.357  1.00  0.00     0.000 HD 
HETATM   36  O   UNL     1     -14.215   9.633  72.147  1.00  0.00    -0.159 OA 
ENDBRANCH  19  26
ENDBRANCH  16  17
ENDBRANCH  15  16
ENDBRANCH  12  15
ENDBRANCH  11  12
ENDBRANCH   8  11
ENDBRANCH   7   8
ENDBRANCH   6   7
ENDBRANCH   5   6
ENDBRANCH   2   5
TORSDOF 10
ENDMDL
MODEL      124
REMARK 921   NORMALIZED FREE ENERGY PREDICTED BY IDOCK:   -5.00 KCAL/MOL
REMARK 922        TOTAL FREE ENERGY PREDICTED BY IDOCK:   -8.85 KCAL/MOL
REMARK 923 INTER-LIGAND FREE ENERGY PREDICTED BY IDOCK:   -7.38 KCAL/MOL
REMARK 924 INTRA-LIGAND FREE ENERGY PREDICTED BY IDOCK:   -1.47 KCAL/MOL
REMARK 927      BINDING AFFINITY PREDICTED BY RF-SCORE:    0.00 PKD
ROOT
HETATM    1  C   UNL     1      -5.936  14.935  70.641  1.00  0.00    -0.106 C  
HETATM    2  N   UNL     1      -6.458  15.528  69.350  1.00  0.00    -0.141 N  
HETATM    3  C   UNL     1      -5.823  14.837  68.155  1.00  0.00    -0.138 C  
HETATM    4  C   UNL     1      -7.978  15.306  69.280  1.00  0.00    -0.223 C  
ENDROOT
BRANCH   2   5
HETATM    5  C   UNL     1      -6.123  17.040  69.358  1.00  0.00    -0.225 C  
BRANCH   5   6
HETATM    6  C   UNL     1      -7.253  17.944  68.898  1.00  0.00    -0.256 C  
BRANCH   6   7
HETATM    7  O   UNL     1      -7.018  18.347  67.564  1.00  0.00    -0.201 OA 
BRANCH   7   8
HETATM    8  P   UNL     1      -8.451  18.126  66.620  1.00  0.00    -0.249 P  
HETATM    9  O   UNL     1      -9.266  18.297  67.896  1.00  0.00    -0.267 OA 
HETATM   10  O   UNL     1      -7.925  16.739  66.235  1.00  0.00    -0.294 OA 
BRANCH   8  11
HETATM   11  O   UNL     1      -9.885  17.906  65.676  1.00  0.00    -0.512 OA 
BRANCH  11  12
HETATM   12  P   UNL     1     -10.212  16.216  65.512  1.00  0.00    -0.180 P  
HETATM   13  O   UNL     1     -11.103  16.291  66.895  1.00  0.00    -0.131 OA 
HETATM   14  O   UNL     1     -11.243  16.562  64.417  1.00  0.00    -0.919 OA 
BRANCH  12  15
HETATM   15  O   UNL     1     -10.540  14.525  65.348  1.00  0.00    -0.322 OA 
BRANCH  15  16
HETATM   16  C   UNL     1     -11.826  14.092  65.834  1.00  0.00    -0.384 C  
BRANCH  16  17
HETATM   17  C   UNL     1     -11.749  12.888  66.759  1.00  0.00    -0.383 C  
HETATM   18  O   UNL     1     -10.846  11.917  66.223  1.00  0.00    -0.260 OA 
HETATM   19  C   UNL     1     -10.422  11.102  67.317  1.00  0.00    -0.226 C  
HETATM   20  H   UNL     1     -12.109  13.683  69.903  1.00  0.00     0.000 HD 
HETATM   21  C   UNL     1     -10.487  11.980  68.585  1.00  0.00    -0.218 C  
HETATM   22  H   UNL     1     -11.152  11.857  70.477  1.00  0.00     0.000 HD 
HETATM   23  C   UNL     1     -11.286  13.212  68.167  1.00  0.00    -0.271 C  
HETATM   24  O   UNL     1     -11.111  11.317  69.696  1.00  0.00    -0.249 OA 
HETATM   25  O   UNL     1     -12.399  13.480  69.021  1.00  0.00    -0.252 OA 
BRANCH  19  26
HETATM   26  N   UNL     1      -9.107  10.519  67.040  1.00  0.00    -0.143 N  
HETATM   27  C   UNL     1      -7.946  11.167  67.395  1.00  0.00    -0.125 C  
HETATM   28  C   UNL     1      -6.757  10.687  67.050  1.00  0.00    -0.086 C  
HETATM   29  C   UNL     1      -6.771   9.441  66.263  1.00  0.00    -0.075 C  
HETATM   30  N   UNL     1      -7.858   8.819  65.924  1.00  0.00    -0.100 N  
HETATM   31  N   UNL     1      -5.586   8.900  65.845  1.00  0.00    -0.045 NA 
HETATM   32  H   UNL     1      -7.807   7.953  65.389  1.00  0.00     0.000 HD 
HETATM   33  C   UNL     1      -9.082   9.337  66.289  1.00  0.00    -0.171 C  
HETATM   34  H1  UNL     1      -5.595   8.038  65.301  1.00  0.00     0.000 HD 
HETATM   35  H2  UNL     1      -4.702   9.355  66.076  1.00  0.00     0.000 HD 
HETATM   36  O   UNL     1     -10.131   8.777  65.964  1.00  0.00    -0.228 OA 
ENDBRANCH  19  26
ENDBRANCH  16  17
ENDBRANCH  15  16
ENDBRANCH  12  15
ENDBRANCH  11  12
ENDBRANCH   8  11
ENDBRANCH   7   8
ENDBRANCH   6   7
ENDBRANCH   5   6
ENDBRANCH   2   5
TORSDOF 10
ENDMDL
MODEL      125
REMARK 921   NORMALIZED FREE ENERGY PREDICTED BY IDOCK:   -4.98 KCAL/MOL
REMARK 922        TOTAL FREE ENERGY PREDICTED BY IDOCK:   -8.82 KCAL/MOL
REMARK 923 INTER-LIGAND FREE ENERGY PREDICTED BY IDOCK:   -7.83 KCAL/MOL
REMARK 924 INTRA-LIGAND FREE ENERGY PREDICTED BY IDOCK:   -0.99 KCAL/MOL
REMARK 927      BINDING AFFINITY PREDICTED BY RF-SCORE:    0.00 PKD
ROOT
HETATM    1  C   UNL     1      -7.952   3.354  67.092  1.00  0.00    -0.079 C  
HETATM    2  N   UNL     1      -8.055   3.904  65.686  1.00  0.00    -0.097 N  
HETATM    3  C   UNL     1      -7.013   3.260  64.788  1.00  0.00    -0.056 C  
HETATM    4  C   UNL     1      -9.446   3.569  65.122  1.00  0.00    -0.158 C  
ENDROOT
BRANCH   2   5
HETATM    5  C   UNL     1      -7.848   5.437  65.765  1.00  0.00    -0.100 C  
BRANCH   5   6
HETATM    6  C   UNL     1      -9.058   6.218  66.243  1.00  0.00    -0.153 C  
BRANCH   6   7
HETATM    7  O   UNL     1      -8.656   7.149  67.228  1.00  0.00    -0.120 OA 
BRANCH   7   8
HETATM    8  P   UNL     1      -9.780   8.464  67.290  1.00  0.00    -0.226 P  
HETATM    9  O   UNL     1      -9.397   8.667  68.751  1.00  0.00    -0.142 OA 
HETATM   10  O   UNL     1     -10.888   7.469  66.927  1.00  0.00    -0.345 OA 
BRANCH   8  11
HETATM   11  O   UNL     1     -10.903   9.779  67.352  1.00  0.00    -0.274 OA 
BRANCH  11  12
HETATM   12  P   UNL     1     -10.353  11.054  66.321  1.00  0.00    -0.234 P  
HETATM   13  O   UNL     1      -9.080  11.280  67.341  1.00  0.00    -0.149 OA 
HETATM   14  O   UNL     1      -9.827   9.984  65.342  1.00  0.00    -0.281 OA 
BRANCH  12  15
HETATM   15  O   UNL     1      -9.803  12.330  65.291  1.00  0.00    -0.250 OA 
BRANCH  15  16
HETATM   16  C   UNL     1     -10.774  13.354  64.996  1.00  0.00    -0.343 C  
BRANCH  16  17
HETATM   17  C   UNL     1     -10.922  14.384  66.105  1.00  0.00    -0.320 C  
HETATM   18  O   UNL     1     -11.839  13.909  67.094  1.00  0.00    -0.367 OA 
HETATM   19  C   UNL     1     -11.551  14.621  68.298  1.00  0.00    -0.326 C  
HETATM   20  H   UNL     1      -8.179  16.067  66.643  1.00  0.00     0.000 HD 
HETATM   21  C   UNL     1     -10.053  14.990  68.256  1.00  0.00    -0.222 C  
HETATM   22  H   UNL     1      -8.877  16.583  68.599  1.00  0.00     0.000 HD 
HETATM   23  C   UNL     1      -9.626  14.729  66.814  1.00  0.00    -0.254 C  
HETATM   24  O   UNL     1      -9.800  16.356  68.625  1.00  0.00    -0.217 OA 
HETATM   25  O   UNL     1      -8.991  15.851  66.200  1.00  0.00    -0.317 OA 
BRANCH  19  26
HETATM   26  N   UNL     1     -11.959  13.837  69.466  1.00  0.00    -0.328 N  
HETATM   27  C   UNL     1     -11.888  12.463  69.467  1.00  0.00    -0.303 C  
HETATM   28  C   UNL     1     -12.356  11.751  70.485  1.00  0.00    -0.387 C  
HETATM   29  C   UNL     1     -12.955  12.524  71.588  1.00  0.00    -0.302 C  
HETATM   30  N   UNL     1     -13.026  13.819  71.600  1.00  0.00    -0.352 N  
HETATM   31  N   UNL     1     -13.485  11.859  72.660  1.00  0.00    -0.353 NA 
HETATM   32  H   UNL     1     -13.440  14.302  72.396  1.00  0.00     0.000 HD 
HETATM   33  C   UNL     1     -12.537  14.538  70.531  1.00  0.00    -0.351 C  
HETATM   34  H1  UNL     1     -13.899  12.393  73.423  1.00  0.00     0.000 HD 
HETATM   35  H2  UNL     1     -13.465  10.839  72.696  1.00  0.00     0.000 HD 
HETATM   36  O   UNL     1     -12.609  15.769  70.508  1.00  0.00    -0.421 OA 
ENDBRANCH  19  26
ENDBRANCH  16  17
ENDBRANCH  15  16
ENDBRANCH  12  15
ENDBRANCH  11  12
ENDBRANCH   8  11
ENDBRANCH   7   8
ENDBRANCH   6   7
ENDBRANCH   5   6
ENDBRANCH   2   5
TORSDOF 10
ENDMDL
MODEL      126
REMARK 921   NORMALIZED FREE ENERGY PREDICTED BY IDOCK:   -4.96 KCAL/MOL
REMARK 922        TOTAL FREE ENERGY PREDICTED BY IDOCK:   -8.79 KCAL/MOL
REMARK 923 INTER-LIGAND FREE ENERGY PREDICTED BY IDOCK:   -7.21 KCAL/MOL
REMARK 924 INTRA-LIGAND FREE ENERGY PREDICTED BY IDOCK:   -1.58 KCAL/MOL
REMARK 927      BINDING AFFINITY PREDICTED BY RF-SCORE:    0.00 PKD
ROOT
HETATM    1  C   UNL     1     -10.483   6.395  69.589  1.00  0.00    -0.227 C  
HETATM    2  N   UNL     1      -9.897   7.152  70.762  1.00  0.00    -0.179 N  
HETATM    3  C   UNL     1     -10.835   8.264  71.197  1.00  0.00    -0.233 C  
HETATM    4  C   UNL     1      -9.724   6.181  71.943  1.00  0.00    -0.152 C  
ENDROOT
BRANCH   2   5
HETATM    5  C   UNL     1      -8.529   7.723  70.316  1.00  0.00    -0.133 C  
BRANCH   5   6
HETATM    6  C   UNL     1      -8.425   9.237  70.365  1.00  0.00    -0.206 C  
BRANCH   6   7
HETATM    7  O   UNL     1      -7.195   9.604  70.958  1.00  0.00    -0.309 OA 
BRANCH   7   8
HETATM    8  P   UNL     1      -6.416  10.815  69.998  1.00  0.00    -0.117 P  
HETATM    9  O   UNL     1      -5.928  11.463  71.288  1.00  0.00    -0.346 OA 
HETATM   10  O   UNL     1      -7.793  11.185  69.436  1.00  0.00    -0.063 OA 
BRANCH   8  11
HETATM   11  O   UNL     1      -5.637  12.025  69.038  1.00  0.00    -0.051 OA 
BRANCH  11  12
HETATM   12  P   UNL     1      -6.678  13.396  68.882  1.00  0.00    -0.100 P  
HETATM   13  O   UNL     1      -5.687  14.219  69.908  1.00  0.00    -0.098 OA 
HETATM   14  O   UNL     1      -6.049  13.669  67.500  1.00  0.00    -0.294 OA 
BRANCH  12  15
HETATM   15  O   UNL     1      -7.720  14.769  68.728  1.00  0.00    -0.122 OA 
BRANCH  15  16
HETATM   16  C   UNL     1      -7.894  15.269  67.387  1.00  0.00    -0.194 C  
BRANCH  16  17
HETATM   17  C   UNL     1      -9.204  14.838  66.746  1.00  0.00    -0.260 C  
HETATM   18  O   UNL     1      -9.074  13.520  66.208  1.00  0.00    -0.125 OA 
HETATM   19  C   UNL     1     -10.395  12.985  66.106  1.00  0.00    -0.278 C  
HETATM   20  H   UNL     1     -11.819  16.074  68.256  1.00  0.00     0.000 HD 
HETATM   21  C   UNL     1     -11.240  13.659  67.207  1.00  0.00    -0.309 C  
HETATM   22  H   UNL     1     -13.039  14.532  67.412  1.00  0.00     0.000 HD 
HETATM   23  C   UNL     1     -10.389  14.829  67.694  1.00  0.00    -0.237 C  
HETATM   24  O   UNL     1     -12.518  14.117  66.734  1.00  0.00    -0.396 OA 
HETATM   25  O   UNL     1     -11.077  16.080  67.663  1.00  0.00    -0.317 OA 
BRANCH  19  26
HETATM   26  N   UNL     1     -10.361  11.522  66.165  1.00  0.00    -0.237 N  
HETATM   27  C   UNL     1     -10.634  10.846  67.331  1.00  0.00    -0.243 C  
HETATM   28  C   UNL     1     -10.499   9.527  67.410  1.00  0.00    -0.336 C  
HETATM   29  C   UNL     1     -10.034   8.855  66.183  1.00  0.00    -0.220 C  
HETATM   30  N   UNL     1      -9.776   9.481  65.077  1.00  0.00    -0.447 N  
HETATM   31  N   UNL     1      -9.844   7.500  66.194  1.00  0.00    -0.445 NA 
HETATM   32  H   UNL     1      -9.469   8.962  64.254  1.00  0.00     0.000 HD 
HETATM   33  C   UNL     1      -9.918  10.850  65.019  1.00  0.00    -0.298 C  
HETATM   34  H1  UNL     1      -9.523   7.035  65.346  1.00  0.00     0.000 HD 
HETATM   35  H2  UNL     1     -10.023   6.961  67.041  1.00  0.00     0.000 HD 
HETATM   36  O   UNL     1      -9.661  11.472  63.985  1.00  0.00    -0.242 OA 
ENDBRANCH  19  26
ENDBRANCH  16  17
ENDBRANCH  15  16
ENDBRANCH  12  15
ENDBRANCH  11  12
ENDBRANCH   8  11
ENDBRANCH   7   8
ENDBRANCH   6   7
ENDBRANCH   5   6
ENDBRANCH   2   5
TORSDOF 10
ENDMDL
MODEL      127
REMARK 921   NORMALIZED FREE ENERGY PREDICTED BY IDOCK:   -4.95 KCAL/MOL
REMARK 922        TOTAL FREE ENERGY PREDICTED BY IDOCK:   -8.78 KCAL/MOL
REMARK 923 INTER-LIGAND FREE ENERGY PREDICTED BY IDOCK:   -7.53 KCAL/MOL
REMARK 924 INTRA-LIGAND FREE ENERGY PREDICTED BY IDOCK:   -1.25 KCAL/MOL
REMARK 927      BINDING AFFINITY PREDICTED BY RF-SCORE:    0.00 PKD
ROOT
HETATM    1  C   UNL     1      -5.201  17.381  68.171  1.00  0.00    -0.129 C  
HETATM    2  N   UNL     1      -6.506  16.682  67.853  1.00  0.00    -0.130 N  
HETATM    3  C   UNL     1      -6.285  15.186  67.713  1.00  0.00    -0.152 C  
HETATM    4  C   UNL     1      -7.489  16.915  69.012  1.00  0.00    -0.220 C  
ENDROOT
BRANCH   2   5
HETATM    5  C   UNL     1      -7.054  17.287  66.537  1.00  0.00    -0.265 C  
BRANCH   5   6
HETATM    6  C   UNL     1      -8.565  17.419  66.478  1.00  0.00    -0.261 C  
BRANCH   6   7
HETATM    7  O   UNL     1      -9.089  16.436  65.607  1.00  0.00    -0.446 OA 
BRANCH   7   8
HETATM    8  P   UNL     1     -10.456  15.668  66.338  1.00  0.00    -0.308 P  
HETATM    9  O   UNL     1      -9.511  14.611  66.895  1.00  0.00    -0.226 OA 
HETATM   10  O   UNL     1     -11.047  15.495  64.934  1.00  0.00    -0.409 OA 
BRANCH   8  11
HETATM   11  O   UNL     1     -11.824  14.901  67.069  1.00  0.00    -0.327 OA 
BRANCH  11  12
HETATM   12  P   UNL     1     -11.311  13.467  67.888  1.00  0.00    -0.329 P  
HETATM   13  O   UNL     1     -12.343  13.843  69.115  1.00  0.00    -0.314 OA 
HETATM   14  O   UNL     1     -12.198  12.648  66.928  1.00  0.00    -0.489 OA 
BRANCH  12  15
HETATM   15  O   UNL     1     -10.797  12.033  68.708  1.00  0.00    -0.219 OA 
BRANCH  15  16
HETATM   16  C   UNL     1      -9.887  11.190  67.975  1.00  0.00    -0.174 C  
BRANCH  16  17
HETATM   17  C   UNL     1      -8.899  10.449  68.862  1.00  0.00    -0.161 C  
HETATM   18  O   UNL     1      -9.588   9.843  69.959  1.00  0.00    -0.234 OA 
HETATM   19  C   UNL     1      -8.757   8.781  70.430  1.00  0.00    -0.166 C  
HETATM   20  H   UNL     1      -6.402   9.179  67.192  1.00  0.00     0.000 HD 
HETATM   21  C   UNL     1      -7.932   8.285  69.224  1.00  0.00    -0.114 C  
HETATM   22  H   UNL     1      -6.031   7.803  68.788  1.00  0.00     0.000 HD 
HETATM   23  C   UNL     1      -8.121   9.357  68.153  1.00  0.00    -0.110 C  
HETATM   24  O   UNL     1      -6.539   8.108  69.531  1.00  0.00    -0.037 OA 
HETATM   25  O   UNL     1      -6.889   9.863  67.636  1.00  0.00    -0.082 OA 
BRANCH  19  26
HETATM   26  N   UNL     1      -9.566   7.751  71.086  1.00  0.00    -0.158 N  
HETATM   27  C   UNL     1     -10.343   6.879  70.359  1.00  0.00    -0.202 C  
HETATM   28  C   UNL     1     -11.155   6.017  70.959  1.00  0.00    -0.348 C  
HETATM   29  C   UNL     1     -11.172   6.069  72.432  1.00  0.00    -0.292 C  
HETATM   30  N   UNL     1     -10.442   6.884  73.130  1.00  0.00    -0.259 N  
HETATM   31  N   UNL     1     -12.004   5.230  73.122  1.00  0.00    -0.493 NA 
HETATM   32  H   UNL     1     -10.485   6.867  74.148  1.00  0.00     0.000 HD 
HETATM   33  C   UNL     1      -9.609   7.773  72.486  1.00  0.00    -0.192 C  
HETATM   34  H1  UNL     1     -12.016   5.266  74.141  1.00  0.00     0.000 HD 
HETATM   35  H2  UNL     1     -12.607   4.576  72.622  1.00  0.00     0.000 HD 
HETATM   36  O   UNL     1      -8.919   8.572  73.123  1.00  0.00    -0.288 OA 
ENDBRANCH  19  26
ENDBRANCH  16  17
ENDBRANCH  15  16
ENDBRANCH  12  15
ENDBRANCH  11  12
ENDBRANCH   8  11
ENDBRANCH   7   8
ENDBRANCH   6   7
ENDBRANCH   5   6
ENDBRANCH   2   5
TORSDOF 10
ENDMDL
MODEL      128
REMARK 921   NORMALIZED FREE ENERGY PREDICTED BY IDOCK:   -4.95 KCAL/MOL
REMARK 922        TOTAL FREE ENERGY PREDICTED BY IDOCK:   -8.77 KCAL/MOL
REMARK 923 INTER-LIGAND FREE ENERGY PREDICTED BY IDOCK:   -7.48 KCAL/MOL
REMARK 924 INTRA-LIGAND FREE ENERGY PREDICTED BY IDOCK:   -1.30 KCAL/MOL
REMARK 927      BINDING AFFINITY PREDICTED BY RF-SCORE:    0.00 PKD
ROOT
HETATM    1  C   UNL     1      -9.300   1.837  64.960  1.00  0.00    -0.056 C  
HETATM    2  N   UNL     1      -8.761   2.915  64.044  1.00  0.00    -0.089 N  
HETATM    3  C   UNL     1      -8.011   2.294  62.878  1.00  0.00    -0.068 C  
HETATM    4  C   UNL     1      -9.941   3.723  63.479  1.00  0.00    -0.177 C  
ENDROOT
BRANCH   2   5
HETATM    5  C   UNL     1      -7.827   3.821  64.884  1.00  0.00    -0.085 C  
BRANCH   5   6
HETATM    6  C   UNL     1      -8.511   4.564  66.017  1.00  0.00    -0.114 C  
BRANCH   6   7
HETATM    7  O   UNL     1      -7.960   5.862  66.128  1.00  0.00    -0.102 OA 
BRANCH   7   8
HETATM    8  P   UNL     1      -9.166   6.968  66.689  1.00  0.00    -0.151 P  
HETATM    9  O   UNL     1      -8.498   6.936  68.058  1.00  0.00    -0.123 OA 
HETATM   10  O   UNL     1     -10.225   5.917  66.336  1.00  0.00    -0.167 OA 
BRANCH   8  11
HETATM   11  O   UNL     1     -10.372   8.076  67.249  1.00  0.00    -0.245 OA 
BRANCH  11  12
HETATM   12  P   UNL     1     -10.104   9.628  66.537  1.00  0.00    -0.203 P  
HETATM   13  O   UNL     1      -9.191  10.031  67.848  1.00  0.00    -0.137 OA 
HETATM   14  O   UNL     1      -9.077   8.973  65.589  1.00  0.00    -0.201 OA 
BRANCH  12  15
HETATM   15  O   UNL     1      -9.834  11.182  65.826  1.00  0.00    -0.214 OA 
BRANCH  15  16
HETATM   16  C   UNL     1     -11.012  11.991  65.636  1.00  0.00    -0.297 C  
BRANCH  16  17
HETATM   17  C   UNL     1     -11.362  12.844  66.845  1.00  0.00    -0.312 C  
HETATM   18  O   UNL     1     -12.159  12.089  67.761  1.00  0.00    -0.537 OA 
HETATM   19  C   UNL     1     -12.017  12.711  69.039  1.00  0.00    -0.236 C  
HETATM   20  H   UNL     1      -9.015  14.978  67.610  1.00  0.00     0.000 HD 
HETATM   21  C   UNL     1     -10.625  13.377  69.064  1.00  0.00    -0.077 C  
HETATM   22  H   UNL     1      -9.795  15.128  69.597  1.00  0.00     0.000 HD 
HETATM   23  C   UNL     1     -10.159  13.365  67.610  1.00  0.00    -0.229 C  
HETATM   24  O   UNL     1     -10.652  14.717  69.582  1.00  0.00    -0.220 OA 
HETATM   25  O   UNL     1      -9.768  14.652  67.131  1.00  0.00    -0.227 OA 
BRANCH  19  26
HETATM   26  N   UNL     1     -12.252  11.739  70.109  1.00  0.00    -0.288 N  
HETATM   27  C   UNL     1     -11.900  10.417  69.966  1.00  0.00    -0.273 C  
HETATM   28  C   UNL     1     -12.209   9.518  70.894  1.00  0.00    -0.332 C  
HETATM   29  C   UNL     1     -12.953  10.028  72.059  1.00  0.00    -0.416 C  
HETATM   30  N   UNL     1     -13.289  11.272  72.207  1.00  0.00    -0.538 N  
HETATM   31  N   UNL     1     -13.333   9.157  73.044  1.00  0.00    -0.834 NA 
HETATM   32  H   UNL     1     -13.793  11.572  73.041  1.00  0.00     0.000 HD 
HETATM   33  C   UNL     1     -12.962  12.187  71.230  1.00  0.00    -0.207 C  
HETATM   34  H1  UNL     1     -13.848   9.510  73.851  1.00  0.00     0.000 HD 
HETATM   35  H2  UNL     1     -13.103   8.166  72.973  1.00  0.00     0.000 HD 
HETATM   36  O   UNL     1     -13.286  13.373  71.336  1.00  0.00    -0.324 OA 
ENDBRANCH  19  26
ENDBRANCH  16  17
ENDBRANCH  15  16
ENDBRANCH  12  15
ENDBRANCH  11  12
ENDBRANCH   8  11
ENDBRANCH   7   8
ENDBRANCH   6   7
ENDBRANCH   5   6
ENDBRANCH   2   5
TORSDOF 10
ENDMDL
MODEL      129
REMARK 921   NORMALIZED FREE ENERGY PREDICTED BY IDOCK:   -4.92 KCAL/MOL
REMARK 922        TOTAL FREE ENERGY PREDICTED BY IDOCK:   -8.73 KCAL/MOL
REMARK 923 INTER-LIGAND FREE ENERGY PREDICTED BY IDOCK:   -7.20 KCAL/MOL
REMARK 924 INTRA-LIGAND FREE ENERGY PREDICTED BY IDOCK:   -1.53 KCAL/MOL
REMARK 927      BINDING AFFINITY PREDICTED BY RF-SCORE:    0.00 PKD
ROOT
HETATM    1  C   UNL     1     -12.905  14.163  65.210  1.00  0.00    -0.344 C  
HETATM    2  N   UNL     1     -11.519  13.630  65.505  1.00  0.00    -0.302 N  
HETATM    3  C   UNL     1     -10.462  14.535  64.895  1.00  0.00    -0.409 C  
HETATM    4  C   UNL     1     -11.309  13.608  67.029  1.00  0.00    -0.324 C  
ENDROOT
BRANCH   2   5
HETATM    5  C   UNL     1     -11.430  12.200  64.918  1.00  0.00    -0.325 C  
BRANCH   5   6
HETATM    6  C   UNL     1     -10.123  11.478  65.195  1.00  0.00    -0.268 C  
BRANCH   6   7
HETATM    7  O   UNL     1     -10.352  10.432  66.118  1.00  0.00    -0.242 OA 
BRANCH   7   8
HETATM    8  P   UNL     1      -9.133   9.216  65.943  1.00  0.00    -0.233 P  
HETATM    9  O   UNL     1      -8.226  10.057  66.833  1.00  0.00    -0.120 OA 
HETATM   10  O   UNL     1      -9.163   9.472  64.432  1.00  0.00    -0.231 OA 
BRANCH   8  11
HETATM   11  O   UNL     1      -7.915   7.999  65.769  1.00  0.00    -0.099 OA 
BRANCH  11  12
HETATM   12  P   UNL     1      -8.139   6.783  66.978  1.00  0.00    -0.111 P  
HETATM   13  O   UNL     1      -9.747   7.138  66.985  1.00  0.00    -0.150 OA 
HETATM   14  O   UNL     1      -8.025   5.715  65.870  1.00  0.00    -0.102 OA 
BRANCH  12  15
HETATM   15  O   UNL     1      -8.364   5.567  68.188  1.00  0.00    -0.099 OA 
BRANCH  15  16
HETATM   16  C   UNL     1      -7.795   5.863  69.479  1.00  0.00    -0.098 C  
BRANCH  16  17
HETATM   17  C   UNL     1      -8.838   6.112  70.557  1.00  0.00    -0.146 C  
HETATM   18  O   UNL     1      -9.100   7.514  70.668  1.00  0.00    -0.154 OA 
HETATM   19  C   UNL     1     -10.389   7.645  71.270  1.00  0.00    -0.198 C  
HETATM   20  H   UNL     1     -11.023   3.701  70.787  1.00  0.00     0.000 HD 
HETATM   21  C   UNL     1     -11.197   6.389  70.881  1.00  0.00    -0.326 C  
HETATM   22  H   UNL     1     -12.393   5.031  71.754  1.00  0.00     0.000 HD 
HETATM   23  C   UNL     1     -10.165   5.419  70.314  1.00  0.00    -0.267 C  
HETATM   24  O   UNL     1     -11.895   5.804  71.993  1.00  0.00    -0.210 OA 
HETATM   25  O   UNL     1     -10.192   4.136  70.939  1.00  0.00    -0.115 OA 
BRANCH  19  26
HETATM   26  N   UNL     1     -11.005   8.917  70.886  1.00  0.00    -0.250 N  
HETATM   27  C   UNL     1     -10.537   9.646  69.818  1.00  0.00    -0.242 C  
HETATM   28  C   UNL     1     -11.028  10.848  69.536  1.00  0.00    -0.306 C  
HETATM   29  C   UNL     1     -12.084  11.338  70.441  1.00  0.00    -0.384 C  
HETATM   30  N   UNL     1     -12.535  10.659  71.451  1.00  0.00    -0.387 N  
HETATM   31  N   UNL     1     -12.620  12.579  70.233  1.00  0.00    -0.036 NA 
HETATM   32  H   UNL     1     -13.276  11.043  72.036  1.00  0.00     0.000 HD 
HETATM   33  C   UNL     1     -12.008   9.416  71.727  1.00  0.00    -0.382 C  
HETATM   34  H1  UNL     1     -13.349  12.919  70.859  1.00  0.00     0.000 HD 
HETATM   35  H2  UNL     1     -12.293  13.159  69.460  1.00  0.00     0.000 HD 
HETATM   36  O   UNL     1     -12.405   8.758  72.691  1.00  0.00    -0.346 OA 
ENDBRANCH  19  26
ENDBRANCH  16  17
ENDBRANCH  15  16
ENDBRANCH  12  15
ENDBRANCH  11  12
ENDBRANCH   8  11
ENDBRANCH   7   8
ENDBRANCH   6   7
ENDBRANCH   5   6
ENDBRANCH   2   5
TORSDOF 10
ENDMDL
MODEL      130
REMARK 921   NORMALIZED FREE ENERGY PREDICTED BY IDOCK:   -4.92 KCAL/MOL
REMARK 922        TOTAL FREE ENERGY PREDICTED BY IDOCK:   -8.72 KCAL/MOL
REMARK 923 INTER-LIGAND FREE ENERGY PREDICTED BY IDOCK:   -8.23 KCAL/MOL
REMARK 924 INTRA-LIGAND FREE ENERGY PREDICTED BY IDOCK:   -0.49 KCAL/MOL
REMARK 927      BINDING AFFINITY PREDICTED BY RF-SCORE:    0.00 PKD
ROOT
HETATM    1  C   UNL     1      -8.147  19.059  68.219  1.00  0.00    -0.324 C  
HETATM    2  N   UNL     1      -8.374  19.029  66.722  1.00  0.00    -0.278 N  
HETATM    3  C   UNL     1      -9.789  19.474  66.392  1.00  0.00    -0.418 C  
HETATM    4  C   UNL     1      -7.395  20.006  66.051  1.00  0.00    -0.306 C  
ENDROOT
BRANCH   2   5
HETATM    5  C   UNL     1      -8.123  17.579  66.238  1.00  0.00    -0.254 C  
BRANCH   5   6
HETATM    6  C   UNL     1      -9.380  16.765  65.989  1.00  0.00    -0.210 C  
BRANCH   6   7
HETATM    7  O   UNL     1      -9.823  16.201  67.207  1.00  0.00    -0.235 OA 
BRANCH   7   8
HETATM    8  P   UNL     1     -10.121  14.510  67.000  1.00  0.00    -0.262 P  
HETATM    9  O   UNL     1     -10.101  14.734  65.493  1.00  0.00    -0.337 OA 
HETATM   10  O   UNL     1     -11.429  14.694  67.778  1.00  0.00    -0.310 OA 
BRANCH   8  11
HETATM   11  O   UNL     1     -10.417  12.817  66.794  1.00  0.00    -0.240 OA 
BRANCH  11  12
HETATM   12  P   UNL     1     -10.745  12.098  68.332  1.00  0.00    -0.245 P  
HETATM   13  O   UNL     1     -11.979  11.259  67.636  1.00  0.00    -0.634 OA 
HETATM   14  O   UNL     1      -9.530  11.171  68.114  1.00  0.00    -0.167 OA 
BRANCH  12  15
HETATM   15  O   UNL     1     -11.073  11.378  69.871  1.00  0.00    -0.193 OA 
BRANCH  15  16
HETATM   16  C   UNL     1     -10.363  10.155  70.148  1.00  0.00    -0.224 C  
BRANCH  16  17
HETATM   17  C   UNL     1     -11.275   8.950  70.315  1.00  0.00    -0.197 C  
HETATM   18  O   UNL     1     -10.936   7.945  69.355  1.00  0.00    -0.156 OA 
HETATM   19  C   UNL     1     -11.425   6.705  69.869  1.00  0.00    -0.354 C  
HETATM   20  H   UNL     1     -12.171   8.458  73.413  1.00  0.00     0.000 HD 
HETATM   21  C   UNL     1     -11.420   6.821  71.407  1.00  0.00    -0.292 C  
HETATM   22  H   UNL     1     -12.632   6.418  72.959  1.00  0.00     0.000 HD 
HETATM   23  C   UNL     1     -11.216   8.307  71.688  1.00  0.00    -0.270 C  
HETATM   24  O   UNL     1     -12.635   6.347  72.011  1.00  0.00    -0.310 OA 
HETATM   25  O   UNL     1     -12.208   8.860  72.553  1.00  0.00    -0.337 OA 
BRANCH  19  26
HETATM   26  N   UNL     1     -10.645   5.587  69.333  1.00  0.00    -0.292 N  
HETATM   27  C   UNL     1      -9.993   4.705  70.164  1.00  0.00    -0.233 C  
HETATM   28  C   UNL     1      -9.202   3.757  69.676  1.00  0.00    -0.222 C  
HETATM   29  C   UNL     1      -9.067   3.726  68.208  1.00  0.00    -0.143 C  
HETATM   30  N   UNL     1      -9.678   4.550  67.414  1.00  0.00    -0.181 N  
HETATM   31  N   UNL     1      -8.246   2.795  67.632  1.00  0.00    -0.078 NA 
HETATM   32  H   UNL     1      -9.557   4.473  66.405  1.00  0.00     0.000 HD 
HETATM   33  C   UNL     1     -10.491   5.529  67.943  1.00  0.00    -0.178 C  
HETATM   34  H1  UNL     1      -8.152   2.773  66.617  1.00  0.00     0.000 HD 
HETATM   35  H2  UNL     1      -7.734   2.129  68.212  1.00  0.00     0.000 HD 
HETATM   36  O   UNL     1     -11.068   6.337  67.211  1.00  0.00    -0.353 OA 
ENDBRANCH  19  26
ENDBRANCH  16  17
ENDBRANCH  15  16
ENDBRANCH  12  15
ENDBRANCH  11  12
ENDBRANCH   8  11
ENDBRANCH   7   8
ENDBRANCH   6   7
ENDBRANCH   5   6
ENDBRANCH   2   5
TORSDOF 10
ENDMDL
MODEL      131
REMARK 921   NORMALIZED FREE ENERGY PREDICTED BY IDOCK:   -4.91 KCAL/MOL
REMARK 922        TOTAL FREE ENERGY PREDICTED BY IDOCK:   -8.71 KCAL/MOL
REMARK 923 INTER-LIGAND FREE ENERGY PREDICTED BY IDOCK:   -7.95 KCAL/MOL
REMARK 924 INTRA-LIGAND FREE ENERGY PREDICTED BY IDOCK:   -0.77 KCAL/MOL
REMARK 927      BINDING AFFINITY PREDICTED BY RF-SCORE:    0.00 PKD
ROOT
HETATM    1  C   UNL     1     -10.159   3.435  72.532  1.00  0.00    -0.162 C  
HETATM    2  N   UNL     1      -9.713   4.864  72.305  1.00  0.00    -0.155 N  
HETATM    3  C   UNL     1      -9.621   5.606  73.627  1.00  0.00    -0.141 C  
HETATM    4  C   UNL     1      -8.315   4.852  71.665  1.00  0.00    -0.114 C  
ENDROOT
BRANCH   2   5
HETATM    5  C   UNL     1     -10.744   5.534  71.363  1.00  0.00    -0.221 C  
BRANCH   5   6
HETATM    6  C   UNL     1     -10.406   5.446  69.886  1.00  0.00    -0.307 C  
BRANCH   6   7
HETATM    7  O   UNL     1     -11.368   6.166  69.141  1.00  0.00    -0.399 OA 
BRANCH   7   8
HETATM    8  P   UNL     1     -10.579   7.186  67.988  1.00  0.00    -0.147 P  
HETATM    9  O   UNL     1     -11.279   6.407  66.882  1.00  0.00    -0.368 OA 
HETATM   10  O   UNL     1      -9.238   6.687  68.538  1.00  0.00    -0.129 OA 
BRANCH   8  11
HETATM   11  O   UNL     1      -9.790   8.207  66.836  1.00  0.00    -0.200 OA 
BRANCH  11  12
HETATM   12  P   UNL     1     -10.399   9.819  66.981  1.00  0.00    -0.205 P  
HETATM   13  O   UNL     1      -8.949  10.271  67.619  1.00  0.00    -0.134 OA 
HETATM   14  O   UNL     1     -10.180   9.998  65.464  1.00  0.00    -0.280 OA 
BRANCH  12  15
HETATM   15  O   UNL     1     -11.008  11.432  67.128  1.00  0.00    -0.255 OA 
BRANCH  15  16
HETATM   16  C   UNL     1     -10.025  12.480  67.016  1.00  0.00    -0.214 C  
BRANCH  16  17
HETATM   17  C   UNL     1     -10.115  13.516  68.125  1.00  0.00    -0.250 C  
HETATM   18  O   UNL     1      -9.324  14.659  67.790  1.00  0.00    -0.191 OA 
HETATM   19  C   UNL     1      -9.837  15.752  68.554  1.00  0.00    -0.209 C  
HETATM   20  H   UNL     1     -13.019  13.528  69.612  1.00  0.00     0.000 HD 
HETATM   21  C   UNL     1     -11.334  15.469  68.797  1.00  0.00    -0.334 C  
HETATM   22  H   UNL     1     -12.657  15.519  70.308  1.00  0.00     0.000 HD 
HETATM   23  C   UNL     1     -11.523  14.004  68.408  1.00  0.00    -0.306 C  
HETATM   24  O   UNL     1     -11.735  15.694  70.158  1.00  0.00    -0.307 OA 
HETATM   25  O   UNL     1     -12.137  13.223  69.434  1.00  0.00    -0.300 OA 
BRANCH  19  26
HETATM   26  N   UNL     1      -9.552  17.023  67.882  1.00  0.00    -0.245 N  
HETATM   27  C   UNL     1     -10.407  17.541  66.937  1.00  0.00    -0.315 C  
HETATM   28  C   UNL     1     -10.096  18.637  66.255  1.00  0.00    -0.431 C  
HETATM   29  C   UNL     1      -8.789  19.240  66.570  1.00  0.00    -0.346 C  
HETATM   30  N   UNL     1      -7.975  18.763  67.461  1.00  0.00    -0.243 N  
HETATM   31  N   UNL     1      -8.385  20.356  65.889  1.00  0.00    -0.534 NA 
HETATM   32  H   UNL     1      -7.088  19.229  67.647  1.00  0.00     0.000 HD 
HETATM   33  C   UNL     1      -8.316  17.622  68.154  1.00  0.00    -0.259 C  
HETATM   34  H1  UNL     1      -7.481  20.773  66.107  1.00  0.00     0.000 HD 
HETATM   35  H2  UNL     1      -8.983  20.766  65.171  1.00  0.00     0.000 HD 
HETATM   36  O   UNL     1      -7.553  17.136  68.992  1.00  0.00    -0.244 OA 
ENDBRANCH  19  26
ENDBRANCH  16  17
ENDBRANCH  15  16
ENDBRANCH  12  15
ENDBRANCH  11  12
ENDBRANCH   8  11
ENDBRANCH   7   8
ENDBRANCH   6   7
ENDBRANCH   5   6
ENDBRANCH   2   5
TORSDOF 10
ENDMDL
MODEL      132
REMARK 921   NORMALIZED FREE ENERGY PREDICTED BY IDOCK:   -4.90 KCAL/MOL
REMARK 922        TOTAL FREE ENERGY PREDICTED BY IDOCK:   -8.70 KCAL/MOL
REMARK 923 INTER-LIGAND FREE ENERGY PREDICTED BY IDOCK:   -7.67 KCAL/MOL
REMARK 924 INTRA-LIGAND FREE ENERGY PREDICTED BY IDOCK:   -1.03 KCAL/MOL
REMARK 927      BINDING AFFINITY PREDICTED BY RF-SCORE:    0.00 PKD
ROOT
HETATM    1  C   UNL     1      -9.945   3.331  63.535  1.00  0.00    -0.155 C  
HETATM    2  N   UNL     1      -8.487   3.720  63.647  1.00  0.00    -0.091 N  
HETATM    3  C   UNL     1      -7.743   3.358  62.373  1.00  0.00    -0.058 C  
HETATM    4  C   UNL     1      -8.392   5.243  63.841  1.00  0.00    -0.122 C  
ENDROOT
BRANCH   2   5
HETATM    5  C   UNL     1      -7.893   2.972  64.867  1.00  0.00    -0.082 C  
BRANCH   5   6
HETATM    6  C   UNL     1      -8.767   2.986  66.108  1.00  0.00    -0.132 C  
BRANCH   6   7
HETATM    7  O   UNL     1      -8.139   3.753  67.116  1.00  0.00    -0.090 OA 
BRANCH   7   8
HETATM    8  P   UNL     1      -9.288   4.821  67.846  1.00  0.00    -0.147 P  
HETATM    9  O   UNL     1      -9.041   4.111  69.172  1.00  0.00    -0.108 OA 
HETATM   10  O   UNL     1     -10.340   4.273  66.876  1.00  0.00    -0.065 OA 
BRANCH   8  11
HETATM   11  O   UNL     1     -10.436   5.889  68.577  1.00  0.00    -0.192 OA 
BRANCH  11  12
HETATM   12  P   UNL     1     -10.149   7.504  68.030  1.00  0.00    -0.200 P  
HETATM   13  O   UNL     1      -8.712   6.997  67.403  1.00  0.00    -0.120 OA 
HETATM   14  O   UNL     1     -11.140   7.248  66.875  1.00  0.00    -0.287 OA 
BRANCH  12  15
HETATM   15  O   UNL     1      -9.860   9.120  67.482  1.00  0.00    -0.159 OA 
BRANCH  15  16
HETATM   16  C   UNL     1      -8.951   9.895  68.288  1.00  0.00    -0.119 C  
BRANCH  16  17
HETATM   17  C   UNL     1      -9.582  11.146  68.880  1.00  0.00    -0.142 C  
HETATM   18  O   UNL     1      -9.453  12.238  67.965  1.00  0.00    -0.193 OA 
HETATM   19  C   UNL     1     -10.467  13.184  68.309  1.00  0.00    -0.250 C  
HETATM   20  H   UNL     1     -12.155  10.489  70.775  1.00  0.00     0.000 HD 
HETATM   21  C   UNL     1     -11.632  12.388  68.934  1.00  0.00    -0.316 C  
HETATM   22  H   UNL     1     -12.855  12.496  70.525  1.00  0.00     0.000 HD 
HETATM   23  C   UNL     1     -11.055  11.003  69.214  1.00  0.00    -0.254 C  
HETATM   24  O   UNL     1     -12.137  12.986  70.140  1.00  0.00    -0.336 OA 
HETATM   25  O   UNL     1     -11.233  10.579  70.566  1.00  0.00    -0.314 OA 
BRANCH  19  26
HETATM   26  N   UNL     1     -10.830  13.991  67.141  1.00  0.00    -0.283 N  
HETATM   27  C   UNL     1     -11.353  13.415  66.007  1.00  0.00    -0.309 C  
HETATM   28  C   UNL     1     -11.583  14.133  64.914  1.00  0.00    -0.379 C  
HETATM   29  C   UNL     1     -11.231  15.562  64.999  1.00  0.00    -0.358 C  
HETATM   30  N   UNL     1     -10.739  16.117  66.063  1.00  0.00    -0.282 N  
HETATM   31  N   UNL     1     -11.412  16.361  63.903  1.00  0.00    -1.618 NA 
HETATM   32  H   UNL     1     -10.526  17.114  66.069  1.00  0.00     0.000 HD 
HETATM   33  C   UNL     1     -10.505  15.352  67.185  1.00  0.00    -0.290 C  
HETATM   34  H1  UNL     1     -11.169  17.350  63.962  1.00  0.00     0.000 HD 
HETATM   35  H2  UNL     1     -11.786  15.973  63.037  1.00  0.00     0.000 HD 
HETATM   36  O   UNL     1     -10.021  15.851  68.203  1.00  0.00    -0.219 OA 
ENDBRANCH  19  26
ENDBRANCH  16  17
ENDBRANCH  15  16
ENDBRANCH  12  15
ENDBRANCH  11  12
ENDBRANCH   8  11
ENDBRANCH   7   8
ENDBRANCH   6   7
ENDBRANCH   5   6
ENDBRANCH   2   5
TORSDOF 10
ENDMDL
MODEL      133
REMARK 921   NORMALIZED FREE ENERGY PREDICTED BY IDOCK:   -4.87 KCAL/MOL
REMARK 922        TOTAL FREE ENERGY PREDICTED BY IDOCK:   -8.65 KCAL/MOL
REMARK 923 INTER-LIGAND FREE ENERGY PREDICTED BY IDOCK:   -7.28 KCAL/MOL
REMARK 924 INTRA-LIGAND FREE ENERGY PREDICTED BY IDOCK:   -1.37 KCAL/MOL
REMARK 927      BINDING AFFINITY PREDICTED BY RF-SCORE:    0.00 PKD
ROOT
HETATM    1  C   UNL     1     -12.068  13.062  63.358  1.00  0.00    -0.515 C  
HETATM    2  N   UNL     1     -11.253  13.071  64.634  1.00  0.00    -0.311 N  
HETATM    3  C   UNL     1     -10.147  12.032  64.563  1.00  0.00    -0.265 C  
HETATM    4  C   UNL     1     -10.601  14.455  64.797  1.00  0.00    -0.393 C  
ENDROOT
BRANCH   2   5
HETATM    5  C   UNL     1     -12.216  12.775  65.810  1.00  0.00    -0.408 C  
BRANCH   5   6
HETATM    6  C   UNL     1     -11.533  12.444  67.124  1.00  0.00    -0.357 C  
BRANCH   6   7
HETATM    7  O   UNL     1     -11.773  11.090  67.450  1.00  0.00    -0.539 OA 
BRANCH   7   8
HETATM    8  P   UNL     1     -11.431  10.816  69.124  1.00  0.00    -0.298 P  
HETATM    9  O   UNL     1     -12.910  11.035  69.418  1.00  0.00    -0.190 OA 
HETATM   10  O   UNL     1     -10.481  12.018  69.075  1.00  0.00    -0.166 OA 
BRANCH   8  11
HETATM   11  O   UNL     1     -11.088  10.542  70.798  1.00  0.00    -0.250 OA 
BRANCH  11  12
HETATM   12  P   UNL     1     -10.941   8.843  71.085  1.00  0.00    -0.347 P  
HETATM   13  O   UNL     1     -10.624   8.637  69.481  1.00  0.00    -0.223 OA 
HETATM   14  O   UNL     1      -9.543   9.104  71.684  1.00  0.00    -0.277 OA 
BRANCH  12  15
HETATM   15  O   UNL     1     -10.794   7.143  71.370  1.00  0.00    -0.229 OA 
BRANCH  15  16
HETATM   16  C   UNL     1     -11.456   6.293  70.413  1.00  0.00    -0.344 C  
BRANCH  16  17
HETATM   17  C   UNL     1     -10.500   5.415  69.621  1.00  0.00    -0.291 C  
HETATM   18  O   UNL     1     -10.489   5.818  68.249  1.00  0.00    -0.197 OA 
HETATM   19  C   UNL     1      -9.259   5.352  67.693  1.00  0.00    -0.112 C  
HETATM   20  H   UNL     1      -7.933   4.432  71.379  1.00  0.00     0.000 HD 
HETATM   21  C   UNL     1      -8.234   5.303  68.845  1.00  0.00    -0.089 C  
HETATM   22  H   UNL     1      -6.841   4.053  69.578  1.00  0.00     0.000 HD 
HETATM   23  C   UNL     1      -9.066   5.449  70.116  1.00  0.00    -0.135 C  
HETATM   24  O   UNL     1      -7.473   4.084  68.868  1.00  0.00    -0.054 OA 
HETATM   25  O   UNL     1      -8.831   4.411  71.068  1.00  0.00    -0.101 OA 
BRANCH  19  26
HETATM   26  N   UNL     1      -8.865   6.185  66.554  1.00  0.00    -0.128 N  
HETATM   27  C   UNL     1      -8.787   7.555  66.661  1.00  0.00    -0.146 C  
HETATM   28  C   UNL     1      -8.533   8.314  65.602  1.00  0.00    -0.173 C  
HETATM   29  C   UNL     1      -8.354   7.598  64.326  1.00  0.00     0.082 C  
HETATM   30  N   UNL     1      -8.423   6.308  64.212  1.00  0.00    -0.344 N  
HETATM   31  N   UNL     1      -8.117   8.315  63.185  1.00  0.00    -0.226 NA 
HETATM   32  H   UNL     1      -8.279   5.865  63.306  1.00  0.00     0.000 HD 
HETATM   33  C   UNL     1      -8.692   5.539  65.324  1.00  0.00    -0.136 C  
HETATM   34  H1  UNL     1      -7.994   7.820  62.302  1.00  0.00     0.000 HD 
HETATM   35  H2  UNL     1      -8.064   9.333  63.217  1.00  0.00     0.000 HD 
HETATM   36  O   UNL     1      -8.782   4.312  65.240  1.00  0.00    -0.118 OA 
ENDBRANCH  19  26
ENDBRANCH  16  17
ENDBRANCH  15  16
ENDBRANCH  12  15
ENDBRANCH  11  12
ENDBRANCH   8  11
ENDBRANCH   7   8
ENDBRANCH   6   7
ENDBRANCH   5   6
ENDBRANCH   2   5
TORSDOF 10
ENDMDL
MODEL      134
REMARK 921   NORMALIZED FREE ENERGY PREDICTED BY IDOCK:   -4.86 KCAL/MOL
REMARK 922        TOTAL FREE ENERGY PREDICTED BY IDOCK:   -8.63 KCAL/MOL
REMARK 923 INTER-LIGAND FREE ENERGY PREDICTED BY IDOCK:   -7.99 KCAL/MOL
REMARK 924 INTRA-LIGAND FREE ENERGY PREDICTED BY IDOCK:   -0.65 KCAL/MOL
REMARK 927      BINDING AFFINITY PREDICTED BY RF-SCORE:    0.00 PKD
ROOT
HETATM    1  C   UNL     1      -5.687   6.853  64.379  1.00  0.00    -0.032 C  
HETATM    2  N   UNL     1      -6.298   8.179  64.779  1.00  0.00    -0.049 N  
HETATM    3  C   UNL     1      -5.349   9.320  64.453  1.00  0.00    -0.055 C  
HETATM    4  C   UNL     1      -7.594   8.391  63.978  1.00  0.00    -0.126 C  
ENDROOT
BRANCH   2   5
HETATM    5  C   UNL     1      -6.594   8.121  66.298  1.00  0.00    -0.047 C  
BRANCH   5   6
HETATM    6  C   UNL     1      -6.075   9.306  67.093  1.00  0.00    -0.057 C  
BRANCH   6   7
HETATM    7  O   UNL     1      -5.368   8.839  68.225  1.00  0.00    -0.034 OA 
BRANCH   7   8
HETATM    8  P   UNL     1      -6.454   8.636  69.556  1.00  0.00    -0.041 P  
HETATM    9  O   UNL     1      -6.677   7.199  69.102  1.00  0.00    -0.046 OA 
HETATM   10  O   UNL     1      -7.311   9.761  68.965  1.00  0.00    -0.073 OA 
BRANCH   8  11
HETATM   11  O   UNL     1      -7.539   8.434  70.889  1.00  0.00    -0.066 OA 
BRANCH  11  12
HETATM   12  P   UNL     1      -9.136   8.890  70.406  1.00  0.00    -0.228 P  
HETATM   13  O   UNL     1      -9.476   7.298  70.157  1.00  0.00    -0.165 OA 
HETATM   14  O   UNL     1      -9.487   9.091  71.895  1.00  0.00    -0.313 OA 
BRANCH  12  15
HETATM   15  O   UNL     1     -10.733   9.346  69.922  1.00  0.00    -0.216 OA 
BRANCH  15  16
HETATM   16  C   UNL     1     -10.847  10.636  69.291  1.00  0.00    -0.239 C  
BRANCH  16  17
HETATM   17  C   UNL     1     -11.096  10.558  67.793  1.00  0.00    -0.317 C  
HETATM   18  O   UNL     1     -11.585  11.812  67.313  1.00  0.00    -0.461 OA 
HETATM   19  C   UNL     1     -11.308  11.854  65.912  1.00  0.00    -0.308 C  
HETATM   20  H   UNL     1      -9.006   8.572  66.265  1.00  0.00     0.000 HD 
HETATM   21  C   UNL     1     -10.055  10.985  65.675  1.00  0.00    -0.256 C  
HETATM   22  H   UNL     1      -9.422   9.557  64.411  1.00  0.00     0.000 HD 
HETATM   23  C   UNL     1      -9.868  10.205  66.974  1.00  0.00    -0.191 C  
HETATM   24  O   UNL     1     -10.193  10.092  64.557  1.00  0.00    -0.256 OA 
HETATM   25  O   UNL     1      -9.775   8.793  66.777  1.00  0.00    -0.180 OA 
BRANCH  19  26
HETATM   26  N   UNL     1     -11.190  13.240  65.455  1.00  0.00    -0.286 N  
HETATM   27  C   UNL     1     -10.241  14.088  65.976  1.00  0.00    -0.304 C  
HETATM   28  C   UNL     1     -10.204  15.372  65.637  1.00  0.00    -0.403 C  
HETATM   29  C   UNL     1     -11.242  15.815  64.689  1.00  0.00    -0.363 C  
HETATM   30  N   UNL     1     -12.141  15.025  64.189  1.00  0.00    -0.854 N  
HETATM   31  N   UNL     1     -11.287  17.130  64.313  1.00  0.00    -0.947 NA 
HETATM   32  H   UNL     1     -12.828  15.385  63.527  1.00  0.00     0.000 HD 
HETATM   33  C   UNL     1     -12.163  13.698  64.558  1.00  0.00    -0.401 C  
HETATM   34  H1  UNL     1     -12.004  17.438  63.658  1.00  0.00     0.000 HD 
HETATM   35  H2  UNL     1     -10.609  17.796  64.685  1.00  0.00     0.000 HD 
HETATM   36  O   UNL     1     -13.019  12.930  64.112  1.00  0.00    -0.673 OA 
ENDBRANCH  19  26
ENDBRANCH  16  17
ENDBRANCH  15  16
ENDBRANCH  12  15
ENDBRANCH  11  12
ENDBRANCH   8  11
ENDBRANCH   7   8
ENDBRANCH   6   7
ENDBRANCH   5   6
ENDBRANCH   2   5
TORSDOF 10
ENDMDL
MODEL      135
REMARK 921   NORMALIZED FREE ENERGY PREDICTED BY IDOCK:   -4.85 KCAL/MOL
REMARK 922        TOTAL FREE ENERGY PREDICTED BY IDOCK:   -8.61 KCAL/MOL
REMARK 923 INTER-LIGAND FREE ENERGY PREDICTED BY IDOCK:   -7.89 KCAL/MOL
REMARK 924 INTRA-LIGAND FREE ENERGY PREDICTED BY IDOCK:   -0.72 KCAL/MOL
REMARK 927      BINDING AFFINITY PREDICTED BY RF-SCORE:    0.00 PKD
ROOT
HETATM    1  C   UNL     1      -9.986   2.712  72.160  1.00  0.00    -0.166 C  
HETATM    2  N   UNL     1      -9.124   3.944  72.337  1.00  0.00    -0.108 N  
HETATM    3  C   UNL     1      -9.352   4.558  73.708  1.00  0.00    -0.117 C  
HETATM    4  C   UNL     1      -7.645   3.533  72.236  1.00  0.00    -0.058 C  
ENDROOT
BRANCH   2   5
HETATM    5  C   UNL     1      -9.494   4.943  71.213  1.00  0.00    -0.156 C  
BRANCH   5   6
HETATM    6  C   UNL     1     -10.671   5.849  71.530  1.00  0.00    -0.256 C  
BRANCH   6   7
HETATM    7  O   UNL     1     -10.201   7.160  71.771  1.00  0.00    -0.195 OA 
BRANCH   7   8
HETATM    8  P   UNL     1     -11.411   8.312  71.320  1.00  0.00    -0.291 P  
HETATM    9  O   UNL     1     -11.888   8.315  72.767  1.00  0.00    -0.388 OA 
HETATM   10  O   UNL     1     -11.966   7.271  70.340  1.00  0.00    -0.201 OA 
BRANCH   8  11
HETATM   11  O   UNL     1     -12.621   9.464  70.868  1.00  0.00    -0.249 OA 
BRANCH  11  12
HETATM   12  P   UNL     1     -11.858  10.886  70.248  1.00  0.00    -0.398 P  
HETATM   13  O   UNL     1     -12.678  10.666  68.836  1.00  0.00    -0.070 OA 
HETATM   14  O   UNL     1     -12.837  11.732  71.089  1.00  0.00    -0.350 OA 
BRANCH  12  15
HETATM   15  O   UNL     1     -11.095  12.310  69.626  1.00  0.00    -0.111 OA 
BRANCH  15  16
HETATM   16  C   UNL     1     -11.952  13.458  69.475  1.00  0.00    -0.319 C  
BRANCH  16  17
HETATM   17  C   UNL     1     -11.856  14.110  68.105  1.00  0.00    -0.352 C  
HETATM   18  O   UNL     1     -11.069  15.300  68.184  1.00  0.00    -0.282 OA 
HETATM   19  C   UNL     1     -10.587  15.565  66.866  1.00  0.00    -0.307 C  
HETATM   20  H   UNL     1     -11.859  11.939  65.669  1.00  0.00     0.000 HD 
HETATM   21  C   UNL     1     -10.476  14.204  66.146  1.00  0.00    -0.296 C  
HETATM   22  H   UNL     1     -10.958  13.387  64.375  1.00  0.00     0.000 HD 
HETATM   23  C   UNL     1     -11.238  13.226  67.036  1.00  0.00    -0.292 C  
HETATM   24  O   UNL     1     -11.027  14.224  64.818  1.00  0.00    -0.378 OA 
HETATM   25  O   UNL     1     -12.245  12.492  66.338  1.00  0.00    -0.584 OA 
BRANCH  19  26
HETATM   26  N   UNL     1      -9.343  16.335  66.920  1.00  0.00    -0.216 N  
HETATM   27  C   UNL     1      -8.122  15.741  66.700  1.00  0.00    -0.247 C  
HETATM   28  C   UNL     1      -6.989  16.417  66.853  1.00  0.00    -0.247 C  
HETATM   29  C   UNL     1      -7.133  17.821  67.280  1.00  0.00    -0.181 C  
HETATM   30  N   UNL     1      -8.278  18.393  67.489  1.00  0.00    -0.247 N  
HETATM   31  N   UNL     1      -6.010  18.575  67.487  1.00  0.00    -0.170 NA 
HETATM   32  H   UNL     1      -8.317  19.372  67.771  1.00  0.00     0.000 HD 
HETATM   33  C   UNL     1      -9.440  17.671  67.327  1.00  0.00    -0.257 C  
HETATM   34  H1  UNL     1      -6.109  19.546  67.782  1.00  0.00     0.000 HD 
HETATM   35  H2  UNL     1      -5.084  18.170  67.347  1.00  0.00     0.000 HD 
HETATM   36  O   UNL     1     -10.541  18.186  67.538  1.00  0.00    -0.402 OA 
ENDBRANCH  19  26
ENDBRANCH  16  17
ENDBRANCH  15  16
ENDBRANCH  12  15
ENDBRANCH  11  12
ENDBRANCH   8  11
ENDBRANCH   7   8
ENDBRANCH   6   7
ENDBRANCH   5   6
ENDBRANCH   2   5
TORSDOF 10
ENDMDL
MODEL      136
REMARK 921   NORMALIZED FREE ENERGY PREDICTED BY IDOCK:   -4.83 KCAL/MOL
REMARK 922        TOTAL FREE ENERGY PREDICTED BY IDOCK:   -8.58 KCAL/MOL
REMARK 923 INTER-LIGAND FREE ENERGY PREDICTED BY IDOCK:   -7.31 KCAL/MOL
REMARK 924 INTRA-LIGAND FREE ENERGY PREDICTED BY IDOCK:   -1.27 KCAL/MOL
REMARK 927      BINDING AFFINITY PREDICTED BY RF-SCORE:    0.00 PKD
ROOT
HETATM    1  C   UNL     1      -5.243  14.799  70.992  1.00  0.00    -0.135 C  
HETATM    2  N   UNL     1      -5.835  15.416  69.743  1.00  0.00    -0.128 N  
HETATM    3  C   UNL     1      -5.475  14.588  68.521  1.00  0.00    -0.099 C  
HETATM    4  C   UNL     1      -7.367  15.435  69.875  1.00  0.00    -0.041 C  
ENDROOT
BRANCH   2   5
HETATM    5  C   UNL     1      -5.277  16.856  69.621  1.00  0.00    -0.157 C  
BRANCH   5   6
HETATM    6  C   UNL     1      -6.303  17.906  69.235  1.00  0.00    -0.244 C  
BRANCH   6   7
HETATM    7  O   UNL     1      -6.109  18.278  67.885  1.00  0.00    -0.172 OA 
BRANCH   7   8
HETATM    8  P   UNL     1      -7.581  18.069  66.999  1.00  0.00    -0.234 P  
HETATM    9  O   UNL     1      -8.345  18.282  68.300  1.00  0.00    -0.285 OA 
HETATM   10  O   UNL     1      -7.097  16.663  66.623  1.00  0.00    -0.218 OA 
BRANCH   8  11
HETATM   11  O   UNL     1      -9.052  17.860  66.112  1.00  0.00    -0.462 OA 
BRANCH  11  12
HETATM   12  P   UNL     1      -9.723  16.306  66.467  1.00  0.00    -0.304 P  
HETATM   13  O   UNL     1     -10.829  17.046  67.437  1.00  0.00    -0.281 OA 
HETATM   14  O   UNL     1     -10.407  16.329  65.083  1.00  0.00    -0.587 OA 
BRANCH  12  15
HETATM   15  O   UNL     1     -10.395  14.752  66.823  1.00  0.00    -0.262 OA 
BRANCH  15  16
HETATM   16  C   UNL     1     -11.834  14.684  66.824  1.00  0.00    -0.317 C  
BRANCH  16  17
HETATM   17  C   UNL     1     -12.406  13.996  68.054  1.00  0.00     0.024 C  
HETATM   18  O   UNL     1     -12.057  12.610  68.045  1.00  0.00    -0.305 OA 
HETATM   19  C   UNL     1     -12.146  12.154  69.396  1.00  0.00    -0.190 C  
HETATM   20  H   UNL     1     -12.523  15.955  70.660  1.00  0.00     0.000 HD 
HETATM   21  C   UNL     1     -11.854  13.369  70.302  1.00  0.00    -0.245 C  
HETATM   22  H   UNL     1     -12.607  14.246  71.945  1.00  0.00     0.000 HD 
HETATM   23  C   UNL     1     -11.929  14.577  69.372  1.00  0.00    -0.322 C  
HETATM   24  O   UNL     1     -12.787  13.498  71.387  1.00  0.00    -0.350 OA 
HETATM   25  O   UNL     1     -12.822  15.591  69.835  1.00  0.00    -0.172 OA 
BRANCH  19  26
HETATM   26  N   UNL     1     -11.265  11.003  69.607  1.00  0.00    -0.266 N  
HETATM   27  C   UNL     1     -10.077  10.876  68.924  1.00  0.00    -0.198 C  
HETATM   28  C   UNL     1      -9.332   9.782  69.038  1.00  0.00    -0.161 C  
HETATM   29  C   UNL     1      -9.865   8.731  69.923  1.00  0.00    -0.184 C  
HETATM   30  N   UNL     1     -10.983   8.840  70.574  1.00  0.00    -0.235 N  
HETATM   31  N   UNL     1      -9.168   7.563  70.070  1.00  0.00    -0.151 NA 
HETATM   32  H   UNL     1     -11.297   8.085  71.183  1.00  0.00     0.000 HD 
HETATM   33  C   UNL     1     -11.742   9.982  70.438  1.00  0.00    -0.286 C  
HETATM   34  H1  UNL     1      -9.537   6.836  70.682  1.00  0.00     0.000 HD 
HETATM   35  H2  UNL     1      -8.289   7.421  69.573  1.00  0.00     0.000 HD 
HETATM   36  O   UNL     1     -12.817  10.103  71.030  1.00  0.00    -0.346 OA 
ENDBRANCH  19  26
ENDBRANCH  16  17
ENDBRANCH  15  16
ENDBRANCH  12  15
ENDBRANCH  11  12
ENDBRANCH   8  11
ENDBRANCH   7   8
ENDBRANCH   6   7
ENDBRANCH   5   6
ENDBRANCH   2   5
TORSDOF 10
ENDMDL
MODEL      137
REMARK 921   NORMALIZED FREE ENERGY PREDICTED BY IDOCK:   -4.81 KCAL/MOL
REMARK 922        TOTAL FREE ENERGY PREDICTED BY IDOCK:   -8.56 KCAL/MOL
REMARK 923 INTER-LIGAND FREE ENERGY PREDICTED BY IDOCK:   -7.53 KCAL/MOL
REMARK 924 INTRA-LIGAND FREE ENERGY PREDICTED BY IDOCK:   -1.04 KCAL/MOL
REMARK 927      BINDING AFFINITY PREDICTED BY RF-SCORE:    0.00 PKD
ROOT
HETATM    1  C   UNL     1      -8.770   5.880  65.818  1.00  0.00    -0.151 C  
HETATM    2  N   UNL     1      -7.650   6.426  66.676  1.00  0.00    -0.093 N  
HETATM    3  C   UNL     1      -6.921   5.293  67.380  1.00  0.00    -0.065 C  
HETATM    4  C   UNL     1      -6.642   7.155  65.772  1.00  0.00    -0.052 C  
ENDROOT
BRANCH   2   5
HETATM    5  C   UNL     1      -8.276   7.403  67.701  1.00  0.00    -0.118 C  
BRANCH   5   6
HETATM    6  C   UNL     1      -8.162   8.871  67.333  1.00  0.00    -0.108 C  
BRANCH   6   7
HETATM    7  O   UNL     1      -9.174   9.602  67.998  1.00  0.00    -0.126 OA 
BRANCH   7   8
HETATM    8  P   UNL     1     -10.283  10.256  66.843  1.00  0.00    -0.230 P  
HETATM    9  O   UNL     1     -11.419   9.897  67.793  1.00  0.00    -0.121 OA 
HETATM   10  O   UNL     1      -9.776   9.216  65.838  1.00  0.00    -0.270 OA 
BRANCH   8  11
HETATM   11  O   UNL     1     -11.393  10.912  65.688  1.00  0.00     0.142 OA 
BRANCH  11  12
HETATM   12  P   UNL     1     -10.906  12.518  65.270  1.00  0.00    -0.310 P  
HETATM   13  O   UNL     1     -10.310  11.929  63.852  1.00  0.00    -0.317 OA 
HETATM   14  O   UNL     1     -12.377  12.831  64.922  1.00  0.00    -0.441 OA 
BRANCH  12  15
HETATM   15  O   UNL     1     -10.419  14.124  64.850  1.00  0.00    -0.404 OA 
BRANCH  15  16
HETATM   16  C   UNL     1     -11.257  15.180  65.360  1.00  0.00    -0.338 C  
BRANCH  16  17
HETATM   17  C   UNL     1     -10.857  15.652  66.750  1.00  0.00    -0.277 C  
HETATM   18  O   UNL     1     -11.778  15.147  67.720  1.00  0.00    -0.331 OA 
HETATM   19  C   UNL     1     -11.102  15.164  68.978  1.00  0.00    -0.255 C  
HETATM   20  H   UNL     1      -7.628  15.953  67.105  1.00  0.00     0.000 HD 
HETATM   21  C   UNL     1      -9.596  14.999  68.681  1.00  0.00    -0.219 C  
HETATM   22  H   UNL     1      -7.847  15.822  69.229  1.00  0.00     0.000 HD 
HETATM   23  C   UNL     1      -9.466  15.225  67.177  1.00  0.00    -0.214 C  
HETATM   24  O   UNL     1      -8.774  15.924  69.412  1.00  0.00    -0.253 OA 
HETATM   25  O   UNL     1      -8.500  16.220  66.837  1.00  0.00    -0.184 OA 
BRANCH  19  26
HETATM   26  N   UNL     1     -11.667  14.155  69.876  1.00  0.00    -0.295 N  
HETATM   27  C   UNL     1     -11.423  12.814  69.690  1.00  0.00    -0.185 C  
HETATM   28  C   UNL     1     -12.020  11.896  70.441  1.00  0.00    -0.400 C  
HETATM   29  C   UNL     1     -12.953  12.408  71.461  1.00  0.00    -0.285 C  
HETATM   30  N   UNL     1     -13.189  13.670  71.648  1.00  0.00    -0.366 N  
HETATM   31  N   UNL     1     -13.629  11.521  72.255  1.00  0.00    -0.453 NA 
HETATM   32  H   UNL     1     -13.836  13.967  72.378  1.00  0.00     0.000 HD 
HETATM   33  C   UNL     1     -12.562  14.605  70.854  1.00  0.00    -0.342 C  
HETATM   34  H1  UNL     1     -14.274  11.875  72.960  1.00  0.00     0.000 HD 
HETATM   35  H2  UNL     1     -13.488  10.517  72.142  1.00  0.00     0.000 HD 
HETATM   36  O   UNL     1     -12.782  15.810  70.998  1.00  0.00    -0.463 OA 
ENDBRANCH  19  26
ENDBRANCH  16  17
ENDBRANCH  15  16
ENDBRANCH  12  15
ENDBRANCH  11  12
ENDBRANCH   8  11
ENDBRANCH   7   8
ENDBRANCH   6   7
ENDBRANCH   5   6
ENDBRANCH   2   5
TORSDOF 10
ENDMDL
MODEL      138
REMARK 921   NORMALIZED FREE ENERGY PREDICTED BY IDOCK:   -4.81 KCAL/MOL
REMARK 922        TOTAL FREE ENERGY PREDICTED BY IDOCK:   -8.56 KCAL/MOL
REMARK 923 INTER-LIGAND FREE ENERGY PREDICTED BY IDOCK:   -7.47 KCAL/MOL
REMARK 924 INTRA-LIGAND FREE ENERGY PREDICTED BY IDOCK:   -1.08 KCAL/MOL
REMARK 927      BINDING AFFINITY PREDICTED BY RF-SCORE:    0.00 PKD
ROOT
HETATM    1  C   UNL     1     -12.656  15.191  73.485  1.00  0.00    -0.554 C  
HETATM    2  N   UNL     1     -13.173  14.550  72.215  1.00  0.00    -0.358 N  
HETATM    3  C   UNL     1     -13.638  13.130  72.490  1.00  0.00    -0.491 C  
HETATM    4  C   UNL     1     -14.378  15.358  71.706  1.00  0.00    -0.531 C  
ENDROOT
BRANCH   2   5
HETATM    5  C   UNL     1     -12.022  14.566  71.178  1.00  0.00    -0.339 C  
BRANCH   5   6
HETATM    6  C   UNL     1     -12.281  13.744  69.928  1.00  0.00    -0.321 C  
BRANCH   6   7
HETATM    7  O   UNL     1     -11.351  14.108  68.927  1.00  0.00    -0.246 OA 
BRANCH   7   8
HETATM    8  P   UNL     1     -11.473  13.020  67.587  1.00  0.00    -0.363 P  
HETATM    9  O   UNL     1     -12.354  14.048  66.888  1.00  0.00    -0.418 OA 
HETATM   10  O   UNL     1     -12.107  11.998  68.537  1.00  0.00    -0.367 OA 
BRANCH   8  11
HETATM   11  O   UNL     1     -11.594  11.933  66.246  1.00  0.00    -0.445 OA 
BRANCH  11  12
HETATM   12  P   UNL     1     -10.204  10.905  66.211  1.00  0.00    -0.243 P  
HETATM   13  O   UNL     1     -10.204  11.022  64.568  1.00  0.00    -0.295 OA 
HETATM   14  O   UNL     1      -9.347  12.114  66.644  1.00  0.00    -0.214 OA 
BRANCH  12  15
HETATM   15  O   UNL     1      -8.812   9.877  66.175  1.00  0.00    -0.139 OA 
BRANCH  15  16
HETATM   16  C   UNL     1      -9.045   8.535  65.704  1.00  0.00    -0.132 C  
BRANCH  16  17
HETATM   17  C   UNL     1      -8.969   7.487  66.803  1.00  0.00    -0.144 C  
HETATM   18  O   UNL     1      -7.897   7.794  67.698  1.00  0.00    -0.118 OA 
HETATM   19  C   UNL     1      -8.187   7.132  68.930  1.00  0.00    -0.125 C  
HETATM   20  H   UNL     1     -11.893   6.286  67.611  1.00  0.00     0.000 HD 
HETATM   21  C   UNL     1      -9.722   7.021  69.031  1.00  0.00    -0.145 C  
HETATM   22  H   UNL     1     -11.112   5.647  69.498  1.00  0.00     0.000 HD 
HETATM   23  C   UNL     1     -10.233   7.361  67.633  1.00  0.00    -0.201 C  
HETATM   24  O   UNL     1     -10.166   5.715  69.436  1.00  0.00    -0.199 OA 
HETATM   25  O   UNL     1     -11.101   6.365  67.091  1.00  0.00    -0.377 OA 
BRANCH  19  26
HETATM   26  N   UNL     1      -7.545   7.829  70.048  1.00  0.00    -0.084 N  
HETATM   27  C   UNL     1      -7.244   9.169  69.978  1.00  0.00    -0.066 C  
HETATM   28  C   UNL     1      -6.569   9.774  70.949  1.00  0.00    -0.048 C  
HETATM   29  C   UNL     1      -6.164   8.918  72.079  1.00  0.00    -0.062 C  
HETATM   30  N   UNL     1      -6.444   7.654  72.157  1.00  0.00    -0.049 N  
HETATM   31  N   UNL     1      -5.440   9.463  73.105  1.00  0.00    -0.248 NA 
HETATM   32  H   UNL     1      -6.148   7.113  72.969  1.00  0.00     0.000 HD 
HETATM   33  C   UNL     1      -7.142   7.046  71.136  1.00  0.00    -0.074 C  
HETATM   34  H1  UNL     1      -5.160   8.871  73.886  1.00  0.00     0.000 HD 
HETATM   35  H2  UNL     1      -5.184  10.450  73.088  1.00  0.00     0.000 HD 
HETATM   36  O   UNL     1      -7.404   5.842  71.177  1.00  0.00    -0.077 OA 
ENDBRANCH  19  26
ENDBRANCH  16  17
ENDBRANCH  15  16
ENDBRANCH  12  15
ENDBRANCH  11  12
ENDBRANCH   8  11
ENDBRANCH   7   8
ENDBRANCH   6   7
ENDBRANCH   5   6
ENDBRANCH   2   5
TORSDOF 10
ENDMDL
MODEL      139
REMARK 921   NORMALIZED FREE ENERGY PREDICTED BY IDOCK:   -4.79 KCAL/MOL
REMARK 922        TOTAL FREE ENERGY PREDICTED BY IDOCK:   -8.53 KCAL/MOL
REMARK 923 INTER-LIGAND FREE ENERGY PREDICTED BY IDOCK:   -8.01 KCAL/MOL
REMARK 924 INTRA-LIGAND FREE ENERGY PREDICTED BY IDOCK:   -0.52 KCAL/MOL
REMARK 927      BINDING AFFINITY PREDICTED BY RF-SCORE:    0.00 PKD
ROOT
HETATM    1  C   UNL     1      -8.560   5.670  66.789  1.00  0.00    -0.111 C  
HETATM    2  N   UNL     1      -8.494   5.448  68.285  1.00  0.00    -0.097 N  
HETATM    3  C   UNL     1      -9.453   4.346  68.700  1.00  0.00    -0.155 C  
HETATM    4  C   UNL     1      -7.068   5.010  68.660  1.00  0.00    -0.057 C  
ENDROOT
BRANCH   2   5
HETATM    5  C   UNL     1      -8.857   6.787  68.975  1.00  0.00    -0.129 C  
BRANCH   5   6
HETATM    6  C   UNL     1     -10.176   6.778  69.726  1.00  0.00    -0.187 C  
BRANCH   6   7
HETATM    7  O   UNL     1     -10.889   7.965  69.437  1.00  0.00    -0.205 OA 
BRANCH   7   8
HETATM    8  P   UNL     1      -9.846   9.103  68.656  1.00  0.00    -0.174 P  
HETATM    9  O   UNL     1      -9.930   9.972  69.904  1.00  0.00    -0.237 OA 
HETATM   10  O   UNL     1     -10.905   9.246  67.557  1.00  0.00    -0.259 OA 
BRANCH   8  11
HETATM   11  O   UNL     1      -8.802  10.240  67.875  1.00  0.00    -0.122 OA 
BRANCH  11  12
HETATM   12  P   UNL     1      -9.507  11.817  67.954  1.00  0.00    -0.202 P  
HETATM   13  O   UNL     1      -8.096  12.376  68.596  1.00  0.00    -0.114 OA 
HETATM   14  O   UNL     1      -9.273  11.956  66.434  1.00  0.00    -0.210 OA 
BRANCH  12  15
HETATM   15  O   UNL     1     -10.211  13.396  68.033  1.00  0.00    -0.230 OA 
BRANCH  15  16
HETATM   16  C   UNL     1     -11.568  13.495  67.560  1.00  0.00    -0.350 C  
BRANCH  16  17
HETATM   17  C   UNL     1     -11.808  14.694  66.655  1.00  0.00    -0.310 C  
HETATM   18  O   UNL     1     -11.111  15.835  67.162  1.00  0.00    -0.286 OA 
HETATM   19  C   UNL     1     -10.936  16.731  66.064  1.00  0.00     0.117 C  
HETATM   20  H   UNL     1     -12.161  13.864  63.520  1.00  0.00     0.000 HD 
HETATM   21  C   UNL     1     -10.879  15.871  64.784  1.00  0.00    -0.324 C  
HETATM   22  H   UNL     1     -11.659  15.860  62.933  1.00  0.00     0.000 HD 
HETATM   23  C   UNL     1     -11.365  14.490  65.219  1.00  0.00    -0.353 C  
HETATM   24  O   UNL     1     -11.694  16.389  63.721  1.00  0.00    -1.049 OA 
HETATM   25  O   UNL     1     -12.438  13.991  64.420  1.00  0.00    -0.623 OA 
BRANCH  19  26
HETATM   26  N   UNL     1      -9.768  17.587  66.283  1.00  0.00    -0.277 N  
HETATM   27  C   UNL     1      -9.882  18.957  66.335  1.00  0.00    -0.375 C  
HETATM   28  C   UNL     1      -8.810  19.734  66.428  1.00  0.00    -0.428 C  
HETATM   29  C   UNL     1      -7.512  19.036  66.460  1.00  0.00    -0.246 C  
HETATM   30  N   UNL     1      -7.391  17.745  66.414  1.00  0.00    -0.249 N  
HETATM   31  N   UNL     1      -6.359  19.769  66.527  1.00  0.00    -0.179 NA 
HETATM   32  H   UNL     1      -6.467  17.315  66.453  1.00  0.00     0.000 HD 
HETATM   33  C   UNL     1      -8.517  16.958  66.313  1.00  0.00    -0.287 C  
HETATM   34  H1  UNL     1      -5.461  19.287  66.549  1.00  0.00     0.000 HD 
HETATM   35  H2  UNL     1      -6.397  20.789  66.554  1.00  0.00     0.000 HD 
HETATM   36  O   UNL     1      -8.429  15.729  66.249  1.00  0.00    -0.298 OA 
ENDBRANCH  19  26
ENDBRANCH  16  17
ENDBRANCH  15  16
ENDBRANCH  12  15
ENDBRANCH  11  12
ENDBRANCH   8  11
ENDBRANCH   7   8
ENDBRANCH   6   7
ENDBRANCH   5   6
ENDBRANCH   2   5
TORSDOF 10
ENDMDL
MODEL      140
REMARK 921   NORMALIZED FREE ENERGY PREDICTED BY IDOCK:   -4.79 KCAL/MOL
REMARK 922        TOTAL FREE ENERGY PREDICTED BY IDOCK:   -8.52 KCAL/MOL
REMARK 923 INTER-LIGAND FREE ENERGY PREDICTED BY IDOCK:   -7.17 KCAL/MOL
REMARK 924 INTRA-LIGAND FREE ENERGY PREDICTED BY IDOCK:   -1.35 KCAL/MOL
REMARK 927      BINDING AFFINITY PREDICTED BY RF-SCORE:    0.00 PKD
ROOT
HETATM    1  C   UNL     1      -9.383   8.644  65.712  1.00  0.00    -0.158 C  
HETATM    2  N   UNL     1      -8.999   9.770  64.777  1.00  0.00    -0.209 N  
HETATM    3  C   UNL     1      -7.945  10.655  65.419  1.00  0.00    -0.086 C  
HETATM    4  C   UNL     1      -8.404   9.169  63.493  1.00  0.00    -0.188 C  
ENDROOT
BRANCH   2   5
HETATM    5  C   UNL     1     -10.283  10.578  64.462  1.00  0.00    -0.285 C  
BRANCH   5   6
HETATM    6  C   UNL     1     -10.059  11.831  63.634  1.00  0.00    -0.418 C  
BRANCH   6   7
HETATM    7  O   UNL     1     -11.284  12.521  63.488  1.00  0.00    -0.446 OA 
BRANCH   7   8
HETATM    8  P   UNL     1     -11.959  12.860  65.045  1.00  0.00    -0.459 P  
HETATM    9  O   UNL     1     -13.277  12.274  64.554  1.00  0.00    -0.799 OA 
HETATM   10  O   UNL     1     -11.650  14.341  64.803  1.00  0.00    -0.363 OA 
BRANCH   8  11
HETATM   11  O   UNL     1     -12.633  13.197  66.603  1.00  0.00    -0.263 OA 
BRANCH  11  12
HETATM   12  P   UNL     1     -11.762  12.319  67.810  1.00  0.00    -0.199 P  
HETATM   13  O   UNL     1     -10.360  12.901  67.170  1.00  0.00    -0.236 OA 
HETATM   14  O   UNL     1     -12.155  13.407  68.831  1.00  0.00    -0.331 OA 
BRANCH  12  15
HETATM   15  O   UNL     1     -10.888  11.439  69.018  1.00  0.00    -0.205 OA 
BRANCH  15  16
HETATM   16  C   UNL     1      -9.730  10.722  68.548  1.00  0.00    -0.182 C  
BRANCH  16  17
HETATM   17  C   UNL     1      -9.133   9.789  69.589  1.00  0.00    -0.220 C  
HETATM   18  O   UNL     1      -9.688   8.479  69.446  1.00  0.00    -0.172 OA 
HETATM   19  C   UNL     1      -8.763   7.572  70.048  1.00  0.00    -0.140 C  
HETATM   20  H   UNL     1      -6.039  10.521  70.320  1.00  0.00     0.000 HD 
HETATM   21  C   UNL     1      -7.362   8.206  69.920  1.00  0.00    -0.065 C  
HETATM   22  H   UNL     1      -5.741   8.535  71.061  1.00  0.00     0.000 HD 
HETATM   23  C   UNL     1      -7.624   9.654  69.514  1.00  0.00    -0.104 C  
HETATM   24  O   UNL     1      -6.604   8.145  71.139  1.00  0.00    -0.040 OA 
HETATM   25  O   UNL     1      -6.984  10.605  70.367  1.00  0.00    -0.276 OA 
BRANCH  19  26
HETATM   26  N   UNL     1      -8.892   6.240  69.452  1.00  0.00    -0.127 N  
HETATM   27  C   UNL     1      -8.477   5.988  68.165  1.00  0.00    -0.115 C  
HETATM   28  C   UNL     1      -8.690   4.809  67.592  1.00  0.00    -0.106 C  
HETATM   29  C   UNL     1      -9.401   3.814  68.415  1.00  0.00    -0.166 C  
HETATM   30  N   UNL     1      -9.795   4.038  69.631  1.00  0.00    -0.172 N  
HETATM   31  N   UNL     1      -9.683   2.585  67.884  1.00  0.00    -0.292 NA 
HETATM   32  H   UNL     1     -10.271   3.308  70.158  1.00  0.00     0.000 HD 
HETATM   33  C   UNL     1      -9.566   5.270  70.204  1.00  0.00    -0.178 C  
HETATM   34  H1  UNL     1     -10.174   1.896  68.453  1.00  0.00     0.000 HD 
HETATM   35  H2  UNL     1      -9.404   2.360  66.928  1.00  0.00     0.000 HD 
HETATM   36  O   UNL     1      -9.947   5.517  71.351  1.00  0.00    -0.173 OA 
ENDBRANCH  19  26
ENDBRANCH  16  17
ENDBRANCH  15  16
ENDBRANCH  12  15
ENDBRANCH  11  12
ENDBRANCH   8  11
ENDBRANCH   7   8
ENDBRANCH   6   7
ENDBRANCH   5   6
ENDBRANCH   2   5
TORSDOF 10
ENDMDL
MODEL      141
REMARK 921   NORMALIZED FREE ENERGY PREDICTED BY IDOCK:   -4.79 KCAL/MOL
REMARK 922        TOTAL FREE ENERGY PREDICTED BY IDOCK:   -8.52 KCAL/MOL
REMARK 923 INTER-LIGAND FREE ENERGY PREDICTED BY IDOCK:   -7.50 KCAL/MOL
REMARK 924 INTRA-LIGAND FREE ENERGY PREDICTED BY IDOCK:   -1.02 KCAL/MOL
REMARK 927      BINDING AFFINITY PREDICTED BY RF-SCORE:    0.00 PKD
ROOT
HETATM    1  C   UNL     1      -9.910  13.485  66.070  1.00  0.00    -0.265 C  
HETATM    2  N   UNL     1     -11.038  12.750  65.379  1.00  0.00    -0.279 N  
HETATM    3  C   UNL     1     -12.349  13.496  65.563  1.00  0.00    -0.481 C  
HETATM    4  C   UNL     1     -10.735  12.678  63.873  1.00  0.00    -0.431 C  
ENDROOT
BRANCH   2   5
HETATM    5  C   UNL     1     -11.118  11.330  65.992  1.00  0.00    -0.116 C  
BRANCH   5   6
HETATM    6  C   UNL     1      -9.790  10.763  66.459  1.00  0.00    -0.203 C  
BRANCH   6   7
HETATM    7  O   UNL     1      -9.123  10.166  65.364  1.00  0.00    -0.164 OA 
BRANCH   7   8
HETATM    8  P   UNL     1      -8.997   8.458  65.611  1.00  0.00    -0.018 P  
HETATM    9  O   UNL     1      -9.469   8.673  67.043  1.00  0.00    -0.153 OA 
HETATM   10  O   UNL     1      -7.504   8.570  65.278  1.00  0.00    -0.082 OA 
BRANCH   8  11
HETATM   11  O   UNL     1      -8.870   6.750  65.857  1.00  0.00    -0.156 OA 
BRANCH  11  12
HETATM   12  P   UNL     1      -9.882   6.283  67.179  1.00  0.00    -0.170 P  
HETATM   13  O   UNL     1     -10.714   5.304  66.149  1.00  0.00    -0.266 OA 
HETATM   14  O   UNL     1      -8.742   5.370  67.679  1.00  0.00    -0.108 OA 
BRANCH  12  15
HETATM   15  O   UNL     1     -10.895   5.814  68.502  1.00  0.00    -0.247 OA 
BRANCH  15  16
HETATM   16  C   UNL     1     -10.222   5.171  69.602  1.00  0.00    -0.267 C  
BRANCH  16  17
HETATM   17  C   UNL     1     -10.026   6.079  70.806  1.00  0.00    -0.191 C  
HETATM   18  O   UNL     1      -9.923   7.440  70.379  1.00  0.00    -0.187 OA 
HETATM   19  C   UNL     1     -10.261   8.250  71.506  1.00  0.00    -0.214 C  
HETATM   20  H   UNL     1     -11.548   4.986  73.476  1.00  0.00     0.000 HD 
HETATM   21  C   UNL     1     -11.234   7.428  72.377  1.00  0.00    -0.293 C  
HETATM   22  H   UNL     1     -11.502   6.956  74.311  1.00  0.00     0.000 HD 
HETATM   23  C   UNL     1     -11.142   6.006  71.831  1.00  0.00    -0.277 C  
HETATM   24  O   UNL     1     -10.903   7.463  73.775  1.00  0.00    -0.321 OA 
HETATM   25  O   UNL     1     -10.850   5.033  72.834  1.00  0.00    -0.225 OA 
BRANCH  19  26
HETATM   26  N   UNL     1     -10.777   9.549  71.065  1.00  0.00    -0.324 N  
HETATM   27  C   UNL     1     -12.046   9.965  71.396  1.00  0.00    -0.413 C  
HETATM   28  C   UNL     1     -12.549  11.093  70.908  1.00  0.00    -0.483 C  
HETATM   29  C   UNL     1     -11.670  11.847  69.996  1.00  0.00    -0.286 C  
HETATM   30  N   UNL     1     -10.471  11.466  69.678  1.00  0.00    -0.431 N  
HETATM   31  N   UNL     1     -12.129  13.005  69.431  1.00  0.00    -0.255 NA 
HETATM   32  H   UNL     1      -9.903  12.035  69.052  1.00  0.00     0.000 HD 
HETATM   33  C   UNL     1      -9.971  10.290  70.193  1.00  0.00     0.006 C  
HETATM   34  H1  UNL     1     -11.521  13.527  68.800  1.00  0.00     0.000 HD 
HETATM   35  H2  UNL     1     -13.068  13.344  69.639  1.00  0.00     0.000 HD 
HETATM   36  O   UNL     1      -8.842   9.895  69.892  1.00  0.00    -0.203 OA 
ENDBRANCH  19  26
ENDBRANCH  16  17
ENDBRANCH  15  16
ENDBRANCH  12  15
ENDBRANCH  11  12
ENDBRANCH   8  11
ENDBRANCH   7   8
ENDBRANCH   6   7
ENDBRANCH   5   6
ENDBRANCH   2   5
TORSDOF 10
ENDMDL
MODEL      142
REMARK 921   NORMALIZED FREE ENERGY PREDICTED BY IDOCK:   -4.77 KCAL/MOL
REMARK 922        TOTAL FREE ENERGY PREDICTED BY IDOCK:   -8.49 KCAL/MOL
REMARK 923 INTER-LIGAND FREE ENERGY PREDICTED BY IDOCK:   -8.57 KCAL/MOL
REMARK 924 INTRA-LIGAND FREE ENERGY PREDICTED BY IDOCK:    0.08 KCAL/MOL
REMARK 927      BINDING AFFINITY PREDICTED BY RF-SCORE:    0.00 PKD
ROOT
HETATM    1  C   UNL     1      -7.874  18.369  68.056  1.00  0.00    -0.274 C  
HETATM    2  N   UNL     1      -9.246  18.878  67.667  1.00  0.00    -0.284 N  
HETATM    3  C   UNL     1     -10.001  19.356  68.895  1.00  0.00    -0.445 C  
HETATM    4  C   UNL     1      -9.080  20.072  66.712  1.00  0.00    -0.363 C  
ENDROOT
BRANCH   2   5
HETATM    5  C   UNL     1      -9.998  17.717  66.971  1.00  0.00    -0.322 C  
BRANCH   5   6
HETATM    6  C   UNL     1      -9.792  16.354  67.606  1.00  0.00    -0.243 C  
BRANCH   6   7
HETATM    7  O   UNL     1     -10.462  15.373  66.840  1.00  0.00    -0.283 OA 
BRANCH   7   8
HETATM    8  P   UNL     1     -11.422  14.372  67.874  1.00  0.00    -0.354 P  
HETATM    9  O   UNL     1     -12.205  13.926  66.645  1.00  0.00    -0.437 OA 
HETATM   10  O   UNL     1     -11.846  15.639  68.626  1.00  0.00    -0.372 OA 
BRANCH   8  11
HETATM   11  O   UNL     1     -12.382  13.370  68.908  1.00  0.00    -0.212 OA 
BRANCH  11  12
HETATM   12  P   UNL     1     -11.471  11.971  69.362  1.00  0.00    -0.258 P  
HETATM   13  O   UNL     1     -12.326  11.915  70.768  1.00  0.00    -0.374 OA 
HETATM   14  O   UNL     1     -12.340  11.140  68.395  1.00  0.00    -0.556 OA 
BRANCH  12  15
HETATM   15  O   UNL     1     -10.561  10.572  69.816  1.00  0.00    -0.247 OA 
BRANCH  15  16
HETATM   16  C   UNL     1     -10.784   9.397  69.012  1.00  0.00    -0.187 C  
BRANCH  16  17
HETATM   17  C   UNL     1      -9.628   9.074  68.078  1.00  0.00    -0.148 C  
HETATM   18  O   UNL     1      -9.544   7.661  67.876  1.00  0.00    -0.141 OA 
HETATM   19  C   UNL     1      -8.836   7.462  66.651  1.00  0.00    -0.143 C  
HETATM   20  H   UNL     1      -9.124  11.393  65.839  1.00  0.00     0.000 HD 
HETATM   21  C   UNL     1      -9.109   8.697  65.768  1.00  0.00    -0.187 C  
HETATM   22  H   UNL     1      -8.088   9.982  64.608  1.00  0.00     0.000 HD 
HETATM   23  C   UNL     1      -9.730   9.724  66.711  1.00  0.00    -0.194 C  
HETATM   24  O   UNL     1      -7.920   9.221  65.152  1.00  0.00    -0.109 OA 
HETATM   25  O   UNL     1      -9.060  10.985  66.695  1.00  0.00    -0.159 OA 
BRANCH  19  26
HETATM   26  N   UNL     1      -9.209   6.180  66.048  1.00  0.00    -0.135 N  
HETATM   27  C   UNL     1      -8.352   5.508  65.208  1.00  0.00    -0.144 C  
HETATM   28  C   UNL     1      -8.731   4.401  64.580  1.00  0.00    -0.142 C  
HETATM   29  C   UNL     1     -10.114   3.960  64.836  1.00  0.00    -0.182 C  
HETATM   30  N   UNL     1     -10.931   4.583  65.627  1.00  0.00    -0.805 N  
HETATM   31  N   UNL     1     -10.588   2.843  64.203  1.00  0.00    -0.432 NA 
HETATM   32  H   UNL     1     -11.874   4.225  65.776  1.00  0.00     0.000 HD 
HETATM   33  C   UNL     1     -10.518   5.733  66.265  1.00  0.00    -0.071 C  
HETATM   34  H1  UNL     1     -11.544   2.537  64.379  1.00  0.00     0.000 HD 
HETATM   35  H2  UNL     1      -9.990   2.321  63.561  1.00  0.00     0.000 HD 
HETATM   36  O   UNL     1     -11.280   6.355  67.008  1.00  0.00    -0.373 OA 
ENDBRANCH  19  26
ENDBRANCH  16  17
ENDBRANCH  15  16
ENDBRANCH  12  15
ENDBRANCH  11  12
ENDBRANCH   8  11
ENDBRANCH   7   8
ENDBRANCH   6   7
ENDBRANCH   5   6
ENDBRANCH   2   5
TORSDOF 10
ENDMDL
MODEL      143
REMARK 921   NORMALIZED FREE ENERGY PREDICTED BY IDOCK:   -4.77 KCAL/MOL
REMARK 922        TOTAL FREE ENERGY PREDICTED BY IDOCK:   -8.48 KCAL/MOL
REMARK 923 INTER-LIGAND FREE ENERGY PREDICTED BY IDOCK:   -7.48 KCAL/MOL
REMARK 924 INTRA-LIGAND FREE ENERGY PREDICTED BY IDOCK:   -1.00 KCAL/MOL
REMARK 927      BINDING AFFINITY PREDICTED BY RF-SCORE:    0.00 PKD
ROOT
HETATM    1  C   UNL     1     -11.972  15.686  64.400  1.00  0.00    -0.136 C  
HETATM    2  N   UNL     1     -11.476  14.373  64.967  1.00  0.00    -0.355 N  
HETATM    3  C   UNL     1     -12.277  13.993  66.201  1.00  0.00    -0.465 C  
HETATM    4  C   UNL     1     -11.670  13.271  63.912  1.00  0.00    -0.431 C  
ENDROOT
BRANCH   2   5
HETATM    5  C   UNL     1      -9.976  14.546  65.312  1.00  0.00    -0.287 C  
BRANCH   5   6
HETATM    6  C   UNL     1      -9.703  15.240  66.635  1.00  0.00    -0.252 C  
BRANCH   6   7
HETATM    7  O   UNL     1      -8.502  15.980  66.538  1.00  0.00    -0.257 OA 
BRANCH   7   8
HETATM    8  P   UNL     1      -7.319  15.327  67.618  1.00  0.00    -0.207 P  
HETATM    9  O   UNL     1      -8.042  16.025  68.764  1.00  0.00    -0.184 OA 
HETATM   10  O   UNL     1      -6.248  16.082  66.824  1.00  0.00    -0.279 OA 
BRANCH   8  11
HETATM   11  O   UNL     1      -6.137  14.673  68.699  1.00  0.00    -0.082 OA 
BRANCH  11  12
HETATM   12  P   UNL     1      -6.593  13.067  69.149  1.00  0.00    -0.048 P  
HETATM   13  O   UNL     1      -5.528  12.491  68.033  1.00  0.00    -0.065 OA 
HETATM   14  O   UNL     1      -5.721  13.216  70.414  1.00  0.00    -0.146 OA 
BRANCH  12  15
HETATM   15  O   UNL     1      -7.049  11.460  69.599  1.00  0.00    -0.080 OA 
BRANCH  15  16
HETATM   16  C   UNL     1      -7.212  10.533  68.508  1.00  0.00    -0.085 C  
BRANCH  16  17
HETATM   17  C   UNL     1      -8.662  10.160  68.242  1.00  0.00    -0.120 C  
HETATM   18  O   UNL     1      -8.975   8.924  68.889  1.00  0.00    -0.136 OA 
HETATM   19  C   UNL     1     -10.394   8.893  69.051  1.00  0.00    -0.212 C  
HETATM   20  H   UNL     1     -10.609  12.763  67.972  1.00  0.00     0.000 HD 
HETATM   21  C   UNL     1     -10.868  10.357  69.161  1.00  0.00    -0.236 C  
HETATM   22  H   UNL     1     -12.309  11.541  68.414  1.00  0.00     0.000 HD 
HETATM   23  C   UNL     1      -9.668  11.191  68.717  1.00  0.00    -0.185 C  
HETATM   24  O   UNL     1     -12.017  10.639  68.346  1.00  0.00    -0.448 OA 
HETATM   25  O   UNL     1      -9.979  12.117  67.675  1.00  0.00    -0.191 OA 
BRANCH  19  26
HETATM   26  N   UNL     1     -10.761   8.041  70.185  1.00  0.00    -0.242 N  
HETATM   27  C   UNL     1     -10.649   8.487  71.482  1.00  0.00    -0.263 C  
HETATM   28  C   UNL     1     -10.881   7.679  72.510  1.00  0.00    -0.367 C  
HETATM   29  C   UNL     1     -11.249   6.294  72.167  1.00  0.00    -0.282 C  
HETATM   30  N   UNL     1     -11.360   5.861  70.949  1.00  0.00    -0.226 N  
HETATM   31  N   UNL     1     -11.476   5.394  73.173  1.00  0.00    -0.502 NA 
HETATM   32  H   UNL     1     -11.630   4.895  70.771  1.00  0.00     0.000 HD 
HETATM   33  C   UNL     1     -11.110   6.716  69.897  1.00  0.00    -0.348 C  
HETATM   34  H1  UNL     1     -11.730   4.435  72.936  1.00  0.00     0.000 HD 
HETATM   35  H2  UNL     1     -11.392   5.679  74.149  1.00  0.00     0.000 HD 
HETATM   36  O   UNL     1     -11.190   6.326  68.730  1.00  0.00    -0.363 OA 
ENDBRANCH  19  26
ENDBRANCH  16  17
ENDBRANCH  15  16
ENDBRANCH  12  15
ENDBRANCH  11  12
ENDBRANCH   8  11
ENDBRANCH   7   8
ENDBRANCH   6   7
ENDBRANCH   5   6
ENDBRANCH   2   5
TORSDOF 10
ENDMDL
MODEL      144
REMARK 921   NORMALIZED FREE ENERGY PREDICTED BY IDOCK:   -4.76 KCAL/MOL
REMARK 922        TOTAL FREE ENERGY PREDICTED BY IDOCK:   -8.48 KCAL/MOL
REMARK 923 INTER-LIGAND FREE ENERGY PREDICTED BY IDOCK:   -8.57 KCAL/MOL
REMARK 924 INTRA-LIGAND FREE ENERGY PREDICTED BY IDOCK:    0.09 KCAL/MOL
REMARK 927      BINDING AFFINITY PREDICTED BY RF-SCORE:    0.00 PKD
ROOT
HETATM    1  C   UNL     1      -8.186   2.482  71.368  1.00  0.00    -0.058 C  
HETATM    2  N   UNL     1      -8.898   3.797  71.137  1.00  0.00    -0.081 N  
HETATM    3  C   UNL     1      -9.428   3.870  69.715  1.00  0.00    -0.193 C  
HETATM    4  C   UNL     1     -10.094   3.891  72.099  1.00  0.00    -0.155 C  
ENDROOT
BRANCH   2   5
HETATM    5  C   UNL     1      -7.884   4.936  71.409  1.00  0.00    -0.104 C  
BRANCH   5   6
HETATM    6  C   UNL     1      -8.145   5.731  72.676  1.00  0.00    -0.105 C  
BRANCH   6   7
HETATM    7  O   UNL     1      -8.231   7.105  72.358  1.00  0.00    -0.104 OA 
BRANCH   7   8
HETATM    8  P   UNL     1      -9.848   7.668  72.610  1.00  0.00    -0.257 P  
HETATM    9  O   UNL     1      -9.382   9.060  72.203  1.00  0.00    -0.356 OA 
HETATM   10  O   UNL     1      -9.723   7.222  74.071  1.00  0.00    -0.280 OA 
BRANCH   8  11
HETATM   11  O   UNL     1     -11.466   8.229  72.861  1.00  0.00    -0.347 OA 
BRANCH  11  12
HETATM   12  P   UNL     1     -11.853   9.421  71.669  1.00  0.00    -0.353 P  
HETATM   13  O   UNL     1     -12.283   8.204  70.645  1.00  0.00    -0.089 OA 
HETATM   14  O   UNL     1     -13.162   9.706  72.436  1.00  0.00    -0.422 OA 
BRANCH  12  15
HETATM   15  O   UNL     1     -12.241  10.612  70.475  1.00  0.00    -0.300 OA 
BRANCH  15  16
HETATM   16  C   UNL     1     -12.584  11.915  70.987  1.00  0.00    -0.283 C  
BRANCH  16  17
HETATM   17  C   UNL     1     -11.717  13.032  70.428  1.00  0.00    -0.035 C  
HETATM   18  O   UNL     1     -11.290  12.702  69.103  1.00  0.00    -0.267 OA 
HETATM   19  C   UNL     1     -10.953  13.933  68.461  1.00  0.00    -0.257 C  
HETATM   20  H   UNL     1     -12.600  15.981  71.510  1.00  0.00     0.000 HD 
HETATM   21  C   UNL     1     -11.823  15.031  69.108  1.00  0.00    -0.308 C  
HETATM   22  H   UNL     1     -11.614  16.890  69.842  1.00  0.00     0.000 HD 
HETATM   23  C   UNL     1     -12.406  14.382  70.361  1.00  0.00    -0.342 C  
HETATM   24  O   UNL     1     -11.078  16.214  69.444  1.00  0.00    -0.296 OA 
HETATM   25  O   UNL     1     -12.168  15.135  71.551  1.00  0.00    -0.293 OA 
BRANCH  19  26
HETATM   26  N   UNL     1     -11.099  13.809  67.009  1.00  0.00    -0.297 N  
HETATM   27  C   UNL     1     -10.591  14.760  66.154  1.00  0.00    -0.311 C  
HETATM   28  C   UNL     1     -10.815  14.700  64.847  1.00  0.00    -0.436 C  
HETATM   29  C   UNL     1     -11.641  13.568  64.388  1.00  0.00    -0.396 C  
HETATM   30  N   UNL     1     -12.124  12.664  65.184  1.00  0.00    -0.433 N  
HETATM   31  N   UNL     1     -11.940  13.454  63.058  1.00  0.00    -0.741 NA 
HETATM   32  H   UNL     1     -12.680  11.896  64.809  1.00  0.00     0.000 HD 
HETATM   33  C   UNL     1     -11.883  12.749  66.538  1.00  0.00    -0.405 C  
HETATM   34  H1  UNL     1     -12.512  12.672  62.741  1.00  0.00     0.000 HD 
HETATM   35  H2  UNL     1     -11.594  14.144  62.391  1.00  0.00     0.000 HD 
HETATM   36  O   UNL     1     -12.346  11.914  67.318  1.00  0.00    -0.270 OA 
ENDBRANCH  19  26
ENDBRANCH  16  17
ENDBRANCH  15  16
ENDBRANCH  12  15
ENDBRANCH  11  12
ENDBRANCH   8  11
ENDBRANCH   7   8
ENDBRANCH   6   7
ENDBRANCH   5   6
ENDBRANCH   2   5
TORSDOF 10
ENDMDL
MODEL      145
REMARK 921   NORMALIZED FREE ENERGY PREDICTED BY IDOCK:   -4.75 KCAL/MOL
REMARK 922        TOTAL FREE ENERGY PREDICTED BY IDOCK:   -8.46 KCAL/MOL
REMARK 923 INTER-LIGAND FREE ENERGY PREDICTED BY IDOCK:   -7.18 KCAL/MOL
REMARK 924 INTRA-LIGAND FREE ENERGY PREDICTED BY IDOCK:   -1.28 KCAL/MOL
REMARK 927      BINDING AFFINITY PREDICTED BY RF-SCORE:    0.00 PKD
ROOT
HETATM    1  C   UNL     1     -10.481  18.852  66.428  1.00  0.00    -0.439 C  
HETATM    2  N   UNL     1      -9.295  18.393  67.250  1.00  0.00    -0.267 N  
HETATM    3  C   UNL     1      -8.096  18.139  66.353  1.00  0.00    -0.261 C  
HETATM    4  C   UNL     1      -8.922  19.504  68.246  1.00  0.00    -0.335 C  
ENDROOT
BRANCH   2   5
HETATM    5  C   UNL     1      -9.712  17.102  67.996  1.00  0.00    -0.274 C  
BRANCH   5   6
HETATM    6  C   UNL     1      -8.622  16.481  68.850  1.00  0.00    -0.241 C  
BRANCH   6   7
HETATM    7  O   UNL     1      -8.806  15.080  68.901  1.00  0.00    -0.185 OA 
BRANCH   7   8
HETATM    8  P   UNL     1      -9.450  14.516  67.397  1.00  0.00    -0.214 P  
HETATM    9  O   UNL     1     -10.248  13.478  68.177  1.00  0.00    -0.235 OA 
HETATM   10  O   UNL     1      -8.016  14.199  66.958  1.00  0.00    -0.129 OA 
BRANCH   8  11
HETATM   11  O   UNL     1     -10.095  13.952  65.894  1.00  0.00    -0.300 OA 
BRANCH  11  12
HETATM   12  P   UNL     1     -10.538  12.288  66.044  1.00  0.00    -0.276 P  
HETATM   13  O   UNL     1     -12.061  12.687  65.560  1.00  0.00    -0.436 OA 
HETATM   14  O   UNL     1      -9.811  12.014  64.710  1.00  0.00    -0.239 OA 
BRANCH  12  15
HETATM   15  O   UNL     1     -10.982  10.622  66.195  1.00  0.00    -0.076 OA 
BRANCH  15  16
HETATM   16  C   UNL     1      -9.971   9.672  65.804  1.00  0.00    -0.272 C  
BRANCH  16  17
HETATM   17  C   UNL     1      -8.979   9.354  66.912  1.00  0.00    -0.131 C  
HETATM   18  O   UNL     1      -9.671   9.175  68.150  1.00  0.00    -0.149 OA 
HETATM   19  C   UNL     1      -8.816   8.398  68.991  1.00  0.00    -0.146 C  
HETATM   20  H   UNL     1      -6.408   7.645  65.856  1.00  0.00     0.000 HD 
HETATM   21  C   UNL     1      -7.951   7.519  68.063  1.00  0.00    -0.123 C  
HETATM   22  H   UNL     1      -6.027   6.979  67.854  1.00  0.00     0.000 HD 
HETATM   23  C   UNL     1      -8.152   8.105  66.668  1.00  0.00    -0.103 C  
HETATM   24  O   UNL     1      -6.560   7.520  68.425  1.00  0.00    -0.047 OA 
HETATM   25  O   UNL     1      -6.926   8.426  66.009  1.00  0.00    -0.064 OA 
BRANCH  19  26
HETATM   26  N   UNL     1      -9.606   7.658  69.978  1.00  0.00    -0.165 N  
HETATM   27  C   UNL     1     -10.403   6.599  69.611  1.00  0.00    -0.194 C  
HETATM   28  C   UNL     1     -11.197   5.998  70.489  1.00  0.00    -0.363 C  
HETATM   29  C   UNL     1     -11.171   6.546  71.858  1.00  0.00    -0.272 C  
HETATM   30  N   UNL     1     -10.422   7.542  72.217  1.00  0.00    -0.218 N  
HETATM   31  N   UNL     1     -11.983   5.998  72.813  1.00  0.00    -0.529 NA 
HETATM   32  H   UNL     1     -10.436   7.871  73.182  1.00  0.00     0.000 HD 
HETATM   33  C   UNL     1      -9.609   8.153  71.288  1.00  0.00    -0.162 C  
HETATM   34  H1  UNL     1     -11.966   6.376  73.759  1.00  0.00     0.000 HD 
HETATM   35  H2  UNL     1     -12.600   5.219  72.580  1.00  0.00     0.000 HD 
HETATM   36  O   UNL     1      -8.901   9.114  71.599  1.00  0.00    -0.339 OA 
ENDBRANCH  19  26
ENDBRANCH  16  17
ENDBRANCH  15  16
ENDBRANCH  12  15
ENDBRANCH  11  12
ENDBRANCH   8  11
ENDBRANCH   7   8
ENDBRANCH   6   7
ENDBRANCH   5   6
ENDBRANCH   2   5
TORSDOF 10
ENDMDL
MODEL      146
REMARK 921   NORMALIZED FREE ENERGY PREDICTED BY IDOCK:   -4.75 KCAL/MOL
REMARK 922        TOTAL FREE ENERGY PREDICTED BY IDOCK:   -8.45 KCAL/MOL
REMARK 923 INTER-LIGAND FREE ENERGY PREDICTED BY IDOCK:   -7.36 KCAL/MOL
REMARK 924 INTRA-LIGAND FREE ENERGY PREDICTED BY IDOCK:   -1.09 KCAL/MOL
REMARK 927      BINDING AFFINITY PREDICTED BY RF-SCORE:    0.00 PKD
ROOT
HETATM    1  C   UNL     1      -7.060   6.816  70.121  1.00  0.00    -0.071 C  
HETATM    2  N   UNL     1      -6.803   5.989  68.879  1.00  0.00    -0.064 N  
HETATM    3  C   UNL     1      -6.654   6.889  67.665  1.00  0.00    -0.055 C  
HETATM    4  C   UNL     1      -5.489   5.211  69.064  1.00  0.00    -0.008 C  
ENDROOT
BRANCH   2   5
HETATM    5  C   UNL     1      -7.998   5.018  68.706  1.00  0.00    -0.081 C  
BRANCH   5   6
HETATM    6  C   UNL     1      -8.959   4.976  69.881  1.00  0.00    -0.106 C  
BRANCH   6   7
HETATM    7  O   UNL     1     -10.269   5.245  69.424  1.00  0.00    -0.223 OA 
BRANCH   7   8
HETATM    8  P   UNL     1     -11.001   6.461  70.414  1.00  0.00    -0.363 P  
HETATM    9  O   UNL     1     -10.663   7.483  69.336  1.00  0.00    -0.229 OA 
HETATM   10  O   UNL     1      -9.968   6.131  71.498  1.00  0.00    -0.180 OA 
BRANCH   8  11
HETATM   11  O   UNL     1     -11.733   7.676  71.405  1.00  0.00    -0.269 OA 
BRANCH  11  12
HETATM   12  P   UNL     1     -11.263   9.241  70.838  1.00  0.00    -0.362 P  
HETATM   13  O   UNL     1     -12.459   9.895  71.762  1.00  0.00    -0.382 OA 
HETATM   14  O   UNL     1     -10.064   9.190  71.810  1.00  0.00    -0.329 OA 
BRANCH  12  15
HETATM   15  O   UNL     1     -10.793  10.807  70.272  1.00  0.00    -0.199 OA 
BRANCH  15  16
HETATM   16  C   UNL     1     -11.866  11.644  69.800  1.00  0.00    -0.357 C  
BRANCH  16  17
HETATM   17  C   UNL     1     -11.766  11.980  68.320  1.00  0.00    -0.334 C  
HETATM   18  O   UNL     1     -11.697  13.397  68.144  1.00  0.00    -0.320 OA 
HETATM   19  C   UNL     1     -11.099  13.625  66.867  1.00  0.00    -0.304 C  
HETATM   20  H   UNL     1     -10.129   9.728  66.620  1.00  0.00     0.000 HD 
HETATM   21  C   UNL     1     -10.174  12.423  66.582  1.00  0.00    -0.224 C  
HETATM   22  H   UNL     1      -9.754  11.162  65.076  1.00  0.00     0.000 HD 
HETATM   23  C   UNL     1     -10.561  11.376  67.624  1.00  0.00    -0.202 C  
HETATM   24  O   UNL     1     -10.323  11.902  65.252  1.00  0.00    -0.255 OA 
HETATM   25  O   UNL     1     -10.883  10.106  67.055  1.00  0.00    -0.230 OA 
BRANCH  19  26
HETATM   26  N   UNL     1     -10.436  14.932  66.839  1.00  0.00    -0.275 N  
HETATM   27  C   UNL     1      -9.873  15.474  67.971  1.00  0.00    -0.212 C  
HETATM   28  C   UNL     1      -9.367  16.702  67.968  1.00  0.00    -0.227 C  
HETATM   29  C   UNL     1      -9.461  17.431  66.690  1.00  0.00    -0.274 C  
HETATM   30  N   UNL     1      -9.987  16.930  65.615  1.00  0.00    -0.169 N  
HETATM   31  N   UNL     1      -8.986  18.712  66.615  1.00  0.00    -0.298 NA 
HETATM   32  H   UNL     1     -10.013  17.476  64.755  1.00  0.00     0.000 HD 
HETATM   33  C   UNL     1     -10.510  15.655  65.643  1.00  0.00    -0.382 C  
HETATM   34  H1  UNL     1      -9.051  19.217  65.731  1.00  0.00     0.000 HD 
HETATM   35  H2  UNL     1      -8.573  19.158  67.434  1.00  0.00     0.000 HD 
HETATM   36  O   UNL     1     -11.032  15.162  64.641  1.00  0.00    -0.377 OA 
ENDBRANCH  19  26
ENDBRANCH  16  17
ENDBRANCH  15  16
ENDBRANCH  12  15
ENDBRANCH  11  12
ENDBRANCH   8  11
ENDBRANCH   7   8
ENDBRANCH   6   7
ENDBRANCH   5   6
ENDBRANCH   2   5
TORSDOF 10
ENDMDL
MODEL      147
REMARK 921   NORMALIZED FREE ENERGY PREDICTED BY IDOCK:   -4.74 KCAL/MOL
REMARK 922        TOTAL FREE ENERGY PREDICTED BY IDOCK:   -8.45 KCAL/MOL
REMARK 923 INTER-LIGAND FREE ENERGY PREDICTED BY IDOCK:   -7.51 KCAL/MOL
REMARK 924 INTRA-LIGAND FREE ENERGY PREDICTED BY IDOCK:   -0.94 KCAL/MOL
REMARK 927      BINDING AFFINITY PREDICTED BY RF-SCORE:    0.00 PKD
ROOT
HETATM    1  C   UNL     1      -5.453   6.773  68.151  1.00  0.00    -0.012 C  
HETATM    2  N   UNL     1      -6.484   5.743  68.559  1.00  0.00    -0.041 N  
HETATM    3  C   UNL     1      -6.792   4.812  67.398  1.00  0.00    -0.056 C  
HETATM    4  C   UNL     1      -5.913   4.898  69.711  1.00  0.00    -0.021 C  
ENDROOT
BRANCH   2   5
HETATM    5  C   UNL     1      -7.755   6.503  69.013  1.00  0.00    -0.109 C  
BRANCH   5   6
HETATM    6  C   UNL     1      -8.594   5.778  70.050  1.00  0.00    -0.128 C  
BRANCH   6   7
HETATM    7  O   UNL     1      -9.613   6.640  70.515  1.00  0.00    -0.168 OA 
BRANCH   7   8
HETATM    8  P   UNL     1     -10.255   7.559  69.196  1.00  0.00    -0.205 P  
HETATM    9  O   UNL     1     -10.381   8.747  70.141  1.00  0.00    -0.196 OA 
HETATM   10  O   UNL     1     -11.395   6.538  69.104  1.00  0.00    -0.320 OA 
BRANCH   8  11
HETATM   11  O   UNL     1     -10.896   8.477  67.878  1.00  0.00    -0.125 OA 
BRANCH  11  12
HETATM   12  P   UNL     1     -10.254  10.082  67.928  1.00  0.00    -0.217 P  
HETATM   13  O   UNL     1      -9.890   9.947  66.327  1.00  0.00    -0.212 OA 
HETATM   14  O   UNL     1     -11.701  10.620  67.910  1.00  0.00    -0.506 OA 
BRANCH  12  15
HETATM   15  O   UNL     1      -9.611  11.688  67.977  1.00  0.00    -0.172 OA 
BRANCH  15  16
HETATM   16  C   UNL     1     -10.576  12.748  67.825  1.00  0.00    -0.221 C  
BRANCH  16  17
HETATM   17  C   UNL     1     -10.434  13.848  68.865  1.00  0.00    -0.187 C  
HETATM   18  O   UNL     1      -9.623  14.906  68.349  1.00  0.00    -0.197 OA 
HETATM   19  C   UNL     1      -9.943  16.077  69.102  1.00  0.00    -0.246 C  
HETATM   20  H   UNL     1     -13.086  14.168  70.739  1.00  0.00     0.000 HD 
HETATM   21  C   UNL     1     -11.406  15.924  69.570  1.00  0.00    -0.335 C  
HETATM   22  H   UNL     1     -12.491  16.161  71.245  1.00  0.00     0.000 HD 
HETATM   23  C   UNL     1     -11.750  14.459  69.310  1.00  0.00    -0.317 C  
HETATM   24  O   UNL     1     -11.590  16.255  70.956  1.00  0.00    -0.410 OA 
HETATM   25  O   UNL     1     -12.262  13.786  70.460  1.00  0.00    -0.332 OA 
BRANCH  19  26
HETATM   26  N   UNL     1      -9.672  17.282  68.315  1.00  0.00    -0.282 N  
HETATM   27  C   UNL     1     -10.644  17.859  67.531  1.00  0.00    -0.376 C  
HETATM   28  C   UNL     1     -10.367  18.888  66.738  1.00  0.00    -0.477 C  
HETATM   29  C   UNL     1      -8.967  19.350  66.751  1.00  0.00    -0.331 C  
HETATM   30  N   UNL     1      -8.042  18.816  67.488  1.00  0.00    -0.254 N  
HETATM   31  N   UNL     1      -8.597  20.388  65.939  1.00  0.00    -0.534 NA 
HETATM   32  H   UNL     1      -7.092  19.185  67.466  1.00  0.00     0.000 HD 
HETATM   33  C   UNL     1      -8.351  17.746  68.300  1.00  0.00    -0.276 C  
HETATM   34  H1  UNL     1      -7.630  20.707  65.948  1.00  0.00     0.000 HD 
HETATM   35  H2  UNL     1      -9.283  20.837  65.332  1.00  0.00     0.000 HD 
HETATM   36  O   UNL     1      -7.487  17.208  68.996  1.00  0.00    -0.245 OA 
ENDBRANCH  19  26
ENDBRANCH  16  17
ENDBRANCH  15  16
ENDBRANCH  12  15
ENDBRANCH  11  12
ENDBRANCH   8  11
ENDBRANCH   7   8
ENDBRANCH   6   7
ENDBRANCH   5   6
ENDBRANCH   2   5
TORSDOF 10
ENDMDL
MODEL      148
REMARK 921   NORMALIZED FREE ENERGY PREDICTED BY IDOCK:   -4.74 KCAL/MOL
REMARK 922        TOTAL FREE ENERGY PREDICTED BY IDOCK:   -8.45 KCAL/MOL
REMARK 923 INTER-LIGAND FREE ENERGY PREDICTED BY IDOCK:   -8.16 KCAL/MOL
REMARK 924 INTRA-LIGAND FREE ENERGY PREDICTED BY IDOCK:   -0.28 KCAL/MOL
REMARK 927      BINDING AFFINITY PREDICTED BY RF-SCORE:    0.00 PKD
ROOT
HETATM    1  C   UNL     1      -7.667  18.145  67.576  1.00  0.00    -0.218 C  
HETATM    2  N   UNL     1      -8.924  18.974  67.738  1.00  0.00    -0.289 N  
HETATM    3  C   UNL     1      -9.077  19.426  69.180  1.00  0.00    -0.153 C  
HETATM    4  C   UNL     1      -8.811  20.226  66.852  1.00  0.00    -0.299 C  
ENDROOT
BRANCH   2   5
HETATM    5  C   UNL     1     -10.124  18.098  67.302  1.00  0.00    -0.347 C  
BRANCH   5   6
HETATM    6  C   UNL     1     -10.298  17.961  65.800  1.00  0.00    -0.180 C  
BRANCH   6   7
HETATM    7  O   UNL     1      -9.743  16.733  65.373  1.00  0.00    -0.510 OA 
BRANCH   7   8
HETATM    8  P   UNL     1     -11.007  15.633  64.941  1.00  0.00    -0.225 P  
HETATM    9  O   UNL     1      -9.936  14.607  64.592  1.00  0.00    -0.174 OA 
HETATM   10  O   UNL     1     -11.461  16.646  63.884  1.00  0.00    -1.186 OA 
BRANCH   8  11
HETATM   11  O   UNL     1     -12.271  14.533  64.511  1.00  0.00    -0.462 OA 
BRANCH  11  12
HETATM   12  P   UNL     1     -11.612  12.946  64.315  1.00  0.00    -0.444 P  
HETATM   13  O   UNL     1     -12.597  12.427  65.528  1.00  0.00    -0.616 OA 
HETATM   14  O   UNL     1     -12.492  12.777  63.058  1.00  0.00    -0.496 OA 
BRANCH  12  15
HETATM   15  O   UNL     1     -10.952  11.358  64.120  1.00  0.00    -0.357 OA 
BRANCH  15  16
HETATM   16  C   UNL     1      -9.700  11.119  64.792  1.00  0.00    -0.257 C  
BRANCH  16  17
HETATM   17  C   UNL     1      -9.865  10.651  66.229  1.00  0.00    -0.214 C  
HETATM   18  O   UNL     1      -9.834   9.222  66.284  1.00  0.00    -0.251 OA 
HETATM   19  C   UNL     1      -9.472   8.869  67.620  1.00  0.00    -0.138 C  
HETATM   20  H   UNL     1      -8.545  12.709  68.389  1.00  0.00     0.000 HD 
HETATM   21  C   UNL     1      -8.608  10.022  68.172  1.00  0.00    -0.118 C  
HETATM   22  H   UNL     1      -8.456  11.136  69.837  1.00  0.00     0.000 HD 
HETATM   23  C   UNL     1      -8.799  11.166  67.179  1.00  0.00    -0.143 C  
HETATM   24  O   UNL     1      -8.988  10.426  69.497  1.00  0.00    -0.182 OA 
HETATM   25  O   UNL     1      -9.212  12.386  67.795  1.00  0.00    -0.178 OA 
BRANCH  19  26
HETATM   26  N   UNL     1      -8.831   7.553  67.645  1.00  0.00    -0.128 N  
HETATM   27  C   UNL     1      -9.249   6.569  68.510  1.00  0.00    -0.125 C  
HETATM   28  C   UNL     1      -8.599   5.414  68.605  1.00  0.00    -0.095 C  
HETATM   29  C   UNL     1      -7.414   5.271  67.741  1.00  0.00    -0.076 C  
HETATM   30  N   UNL     1      -7.011   6.191  66.919  1.00  0.00    -0.069 N  
HETATM   31  N   UNL     1      -6.676   4.121  67.802  1.00  0.00    -0.049 NA 
HETATM   32  H   UNL     1      -6.190   6.032  66.335  1.00  0.00     0.000 HD 
HETATM   33  C   UNL     1      -7.698   7.383  66.840  1.00  0.00    -0.110 C  
HETATM   34  H1  UNL     1      -5.856   4.022  67.205  1.00  0.00     0.000 HD 
HETATM   35  H2  UNL     1      -6.943   3.370  68.440  1.00  0.00     0.000 HD 
HETATM   36  O   UNL     1      -7.325   8.281  66.081  1.00  0.00    -0.075 OA 
ENDBRANCH  19  26
ENDBRANCH  16  17
ENDBRANCH  15  16
ENDBRANCH  12  15
ENDBRANCH  11  12
ENDBRANCH   8  11
ENDBRANCH   7   8
ENDBRANCH   6   7
ENDBRANCH   5   6
ENDBRANCH   2   5
TORSDOF 10
ENDMDL
MODEL      149
REMARK 921   NORMALIZED FREE ENERGY PREDICTED BY IDOCK:   -4.69 KCAL/MOL
REMARK 922        TOTAL FREE ENERGY PREDICTED BY IDOCK:   -8.36 KCAL/MOL
REMARK 923 INTER-LIGAND FREE ENERGY PREDICTED BY IDOCK:   -7.09 KCAL/MOL
REMARK 924 INTRA-LIGAND FREE ENERGY PREDICTED BY IDOCK:   -1.27 KCAL/MOL
REMARK 927      BINDING AFFINITY PREDICTED BY RF-SCORE:    0.00 PKD
ROOT
HETATM    1  C   UNL     1      -8.938   7.316  72.135  1.00  0.00    -0.131 C  
HETATM    2  N   UNL     1      -9.387   6.036  72.806  1.00  0.00    -0.145 N  
HETATM    3  C   UNL     1      -8.234   5.404  73.568  1.00  0.00    -0.113 C  
HETATM    4  C   UNL     1     -10.502   6.368  73.813  1.00  0.00    -0.303 C  
ENDROOT
BRANCH   2   5
HETATM    5  C   UNL     1      -9.909   5.084  71.702  1.00  0.00    -0.180 C  
BRANCH   5   6
HETATM    6  C   UNL     1      -9.617   5.536  70.282  1.00  0.00    -0.174 C  
BRANCH   6   7
HETATM    7  O   UNL     1      -9.764   4.440  69.401  1.00  0.00    -0.186 OA 
BRANCH   7   8
HETATM    8  P   UNL     1      -8.901   4.745  67.933  1.00  0.00    -0.111 P  
HETATM    9  O   UNL     1      -8.029   3.535  68.244  1.00  0.00    -0.070 OA 
HETATM   10  O   UNL     1      -8.522   6.119  68.498  1.00  0.00    -0.113 OA 
BRANCH   8  11
HETATM   11  O   UNL     1      -8.038   5.050  66.464  1.00  0.00    -0.107 OA 
BRANCH  11  12
HETATM   12  P   UNL     1      -7.562   6.711  66.410  1.00  0.00    -0.093 P  
HETATM   13  O   UNL     1      -6.038   6.223  66.017  1.00  0.00    -0.031 OA 
HETATM   14  O   UNL     1      -8.254   6.825  65.035  1.00  0.00    -0.131 OA 
BRANCH  12  15
HETATM   15  O   UNL     1      -7.084   8.373  66.355  1.00  0.00    -0.069 OA 
BRANCH  15  16
HETATM   16  C   UNL     1      -8.008   9.264  65.700  1.00  0.00    -0.103 C  
BRANCH  16  17
HETATM   17  C   UNL     1      -8.840  10.091  66.668  1.00  0.00    -0.132 C  
HETATM   18  O   UNL     1      -8.939  11.438  66.198  1.00  0.00    -0.198 OA 
HETATM   19  C   UNL     1     -10.099  12.003  66.811  1.00  0.00    -0.203 C  
HETATM   20  H   UNL     1     -11.194   8.357  68.116  1.00  0.00     0.000 HD 
HETATM   21  C   UNL     1     -11.080  10.842  67.075  1.00  0.00    -0.174 C  
HETATM   22  H   UNL     1     -12.256  10.162  68.557  1.00  0.00     0.000 HD 
HETATM   23  C   UNL     1     -10.252   9.576  66.875  1.00  0.00    -0.249 C  
HETATM   24  O   UNL     1     -11.651  10.877  68.394  1.00  0.00    -0.339 OA 
HETATM   25  O   UNL     1     -10.310   8.680  67.986  1.00  0.00    -0.214 OA 
BRANCH  19  26
HETATM   26  N   UNL     1     -10.637  13.088  65.987  1.00  0.00    -0.275 N  
HETATM   27  C   UNL     1     -11.216  12.838  64.764  1.00  0.00    -0.305 C  
HETATM   28  C   UNL     1     -11.607  13.830  63.973  1.00  0.00    -0.307 C  
HETATM   29  C   UNL     1     -11.369  15.192  64.484  1.00  0.00    -0.290 C  
HETATM   30  N   UNL     1     -10.826  15.440  65.636  1.00  0.00    -0.344 N  
HETATM   31  N   UNL     1     -11.719  16.267  63.714  1.00  0.00    -1.488 NA 
HETATM   32  H   UNL     1     -10.697  16.403  65.945  1.00  0.00     0.000 HD 
HETATM   33  C   UNL     1     -10.424  14.395  66.439  1.00  0.00    -0.295 C  
HETATM   34  H1  UNL     1     -11.555  17.209  64.067  1.00  0.00     0.000 HD 
HETATM   35  H2  UNL     1     -12.141  16.127  62.795  1.00  0.00     0.000 HD 
HETATM   36  O   UNL     1      -9.888  14.604  67.530  1.00  0.00    -0.217 OA 
ENDBRANCH  19  26
ENDBRANCH  16  17
ENDBRANCH  15  16
ENDBRANCH  12  15
ENDBRANCH  11  12
ENDBRANCH   8  11
ENDBRANCH   7   8
ENDBRANCH   6   7
ENDBRANCH   5   6
ENDBRANCH   2   5
TORSDOF 10
ENDMDL
MODEL      150
REMARK 921   NORMALIZED FREE ENERGY PREDICTED BY IDOCK:   -4.69 KCAL/MOL
REMARK 922        TOTAL FREE ENERGY PREDICTED BY IDOCK:   -8.36 KCAL/MOL
REMARK 923 INTER-LIGAND FREE ENERGY PREDICTED BY IDOCK:   -7.61 KCAL/MOL
REMARK 924 INTRA-LIGAND FREE ENERGY PREDICTED BY IDOCK:   -0.75 KCAL/MOL
REMARK 927      BINDING AFFINITY PREDICTED BY RF-SCORE:    0.00 PKD
ROOT
HETATM    1  C   UNL     1     -10.091  19.741  67.390  1.00  0.00    -0.422 C  
HETATM    2  N   UNL     1      -9.747  18.268  67.327  1.00  0.00    -0.290 N  
HETATM    3  C   UNL     1      -8.242  18.078  67.254  1.00  0.00    -0.218 C  
HETATM    4  C   UNL     1     -10.255  17.584  68.608  1.00  0.00    -0.373 C  
ENDROOT
BRANCH   2   5
HETATM    5  C   UNL     1     -10.442  17.676  66.076  1.00  0.00    -0.278 C  
BRANCH   5   6
HETATM    6  C   UNL     1     -10.200  16.194  65.855  1.00  0.00    -0.360 C  
BRANCH   6   7
HETATM    7  O   UNL     1     -11.049  15.728  64.825  1.00  0.00    -0.446 OA 
BRANCH   7   8
HETATM    8  P   UNL     1     -11.438  14.063  65.090  1.00  0.00    -0.366 P  
HETATM    9  O   UNL     1     -11.958  14.001  63.659  1.00  0.00    -0.300 OA 
HETATM   10  O   UNL     1     -12.374  14.512  66.218  1.00  0.00    -0.339 OA 
BRANCH   8  11
HETATM   11  O   UNL     1     -11.827  12.398  65.355  1.00  0.00    -0.387 OA 
BRANCH  11  12
HETATM   12  P   UNL     1     -11.139  11.878  66.854  1.00  0.00    -0.329 P  
HETATM   13  O   UNL     1     -10.893  10.393  66.183  1.00  0.00    -0.073 OA 
HETATM   14  O   UNL     1      -9.850  12.642  66.483  1.00  0.00    -0.243 OA 
BRANCH  12  15
HETATM   15  O   UNL     1     -10.450  11.356  68.353  1.00  0.00    -0.185 OA 
BRANCH  15  16
HETATM   16  C   UNL     1      -9.011  11.371  68.414  1.00  0.00    -0.172 C  
BRANCH  16  17
HETATM   17  C   UNL     1      -8.411  10.058  68.893  1.00  0.00    -0.132 C  
HETATM   18  O   UNL     1      -9.293   8.977  68.584  1.00  0.00    -0.137 OA 
HETATM   19  C   UNL     1      -8.499   7.789  68.566  1.00  0.00    -0.129 C  
HETATM   20  H   UNL     1      -5.153  10.019  68.728  1.00  0.00     0.000 HD 
HETATM   21  C   UNL     1      -7.070   8.210  68.163  1.00  0.00    -0.082 C  
HETATM   22  H   UNL     1      -5.175   7.879  68.744  1.00  0.00     0.000 HD 
HETATM   23  C   UNL     1      -7.060   9.731  68.287  1.00  0.00    -0.077 C  
HETATM   24  O   UNL     1      -6.055   7.621  68.993  1.00  0.00    -0.033 OA 
HETATM   25  O   UNL     1      -6.000  10.224  69.107  1.00  0.00    -0.038 OA 
BRANCH  19  26
HETATM   26  N   UNL     1      -9.110   6.778  67.702  1.00  0.00    -0.118 N  
HETATM   27  C   UNL     1      -8.473   6.322  66.571  1.00  0.00    -0.121 C  
HETATM   28  C   UNL     1      -9.073   5.485  65.733  1.00  0.00    -0.152 C  
HETATM   29  C   UNL     1     -10.448   5.095  66.090  1.00  0.00    -0.250 C  
HETATM   30  N   UNL     1     -11.060   5.515  67.154  1.00  0.00    -0.279 N  
HETATM   31  N   UNL     1     -11.143   4.256  65.261  1.00  0.00    -0.817 NA 
HETATM   32  H   UNL     1     -12.008   5.202  67.358  1.00  0.00     0.000 HD 
HETATM   33  C   UNL     1     -10.419   6.387  68.008  1.00  0.00    -0.220 C  
HETATM   34  H1  UNL     1     -12.094   3.986  65.508  1.00  0.00     0.000 HD 
HETATM   35  H2  UNL     1     -10.713   3.905  64.405  1.00  0.00     0.000 HD 
HETATM   36  O   UNL     1     -10.984   6.817  69.017  1.00  0.00    -0.248 OA 
ENDBRANCH  19  26
ENDBRANCH  16  17
ENDBRANCH  15  16
ENDBRANCH  12  15
ENDBRANCH  11  12
ENDBRANCH   8  11
ENDBRANCH   7   8
ENDBRANCH   6   7
ENDBRANCH   5   6
ENDBRANCH   2   5
TORSDOF 10
ENDMDL
MODEL      151
REMARK 921   NORMALIZED FREE ENERGY PREDICTED BY IDOCK:   -4.68 KCAL/MOL
REMARK 922        TOTAL FREE ENERGY PREDICTED BY IDOCK:   -8.34 KCAL/MOL
REMARK 923 INTER-LIGAND FREE ENERGY PREDICTED BY IDOCK:   -6.86 KCAL/MOL
REMARK 924 INTRA-LIGAND FREE ENERGY PREDICTED BY IDOCK:   -1.48 KCAL/MOL
REMARK 927      BINDING AFFINITY PREDICTED BY RF-SCORE:    0.00 PKD
ROOT
HETATM    1  C   UNL     1      -9.824  12.520  68.432  1.00  0.00    -0.202 C  
HETATM    2  N   UNL     1     -11.330  12.404  68.347  1.00  0.00    -0.261 N  
HETATM    3  C   UNL     1     -11.942  13.734  67.941  1.00  0.00    -0.356 C  
HETATM    4  C   UNL     1     -11.689  11.364  67.273  1.00  0.00    -0.039 C  
ENDROOT
BRANCH   2   5
HETATM    5  C   UNL     1     -11.847  11.958  69.738  1.00  0.00    -0.340 C  
BRANCH   5   6
HETATM    6  C   UNL     1     -11.314  10.619  70.215  1.00  0.00    -0.319 C  
BRANCH   6   7
HETATM    7  O   UNL     1     -12.391   9.717  70.378  1.00  0.00    -0.154 OA 
BRANCH   7   8
HETATM    8  P   UNL     1     -12.036   8.599  71.649  1.00  0.00    -0.376 P  
HETATM    9  O   UNL     1     -12.280   7.464  70.662  1.00  0.00    -0.212 OA 
HETATM   10  O   UNL     1     -13.213   9.191  72.433  1.00  0.00    -0.426 OA 
BRANCH   8  11
HETATM   11  O   UNL     1     -11.679   7.480  72.921  1.00  0.00    -0.244 OA 
BRANCH  11  12
HETATM   12  P   UNL     1     -10.142   6.744  72.626  1.00  0.00    -0.189 P  
HETATM   13  O   UNL     1      -9.435   7.969  73.471  1.00  0.00    -0.273 OA 
HETATM   14  O   UNL     1     -10.470   5.711  73.724  1.00  0.00    -0.232 OA 
BRANCH  12  15
HETATM   15  O   UNL     1      -8.604   6.009  72.332  1.00  0.00    -0.120 OA 
BRANCH  15  16
HETATM   16  C   UNL     1      -7.478   6.908  72.320  1.00  0.00    -0.087 C  
BRANCH  16  17
HETATM   17  C   UNL     1      -7.199   7.511  70.951  1.00  0.00    -0.067 C  
HETATM   18  O   UNL     1      -7.639   6.617  69.926  1.00  0.00    -0.095 OA 
HETATM   19  C   UNL     1      -7.839   7.404  68.751  1.00  0.00    -0.121 C  
HETATM   20  H   UNL     1      -7.436  10.764  70.929  1.00  0.00     0.000 HD 
HETATM   21  C   UNL     1      -8.210   8.827  69.221  1.00  0.00    -0.108 C  
HETATM   22  H   UNL     1      -7.720  10.731  68.808  1.00  0.00     0.000 HD 
HETATM   23  C   UNL     1      -7.874   8.848  70.710  1.00  0.00    -0.119 C  
HETATM   24  O   UNL     1      -7.492   9.855  68.519  1.00  0.00    -0.080 OA 
HETATM   25  O   UNL     1      -7.014   9.927  71.080  1.00  0.00    -0.333 OA 
BRANCH  19  26
HETATM   26  N   UNL     1      -8.825   6.771  67.872  1.00  0.00    -0.119 N  
HETATM   27  C   UNL     1     -10.167   6.782  68.175  1.00  0.00    -0.174 C  
HETATM   28  C   UNL     1     -11.045   6.117  67.433  1.00  0.00    -0.326 C  
HETATM   29  C   UNL     1     -10.487   5.372  66.290  1.00  0.00    -0.221 C  
HETATM   30  N   UNL     1      -9.224   5.356  65.992  1.00  0.00    -0.157 N  
HETATM   31  N   UNL     1     -11.325   4.640  65.495  1.00  0.00    -0.932 NA 
HETATM   32  H   UNL     1      -8.895   4.833  65.181  1.00  0.00     0.000 HD 
HETATM   33  C   UNL     1      -8.330   6.049  66.779  1.00  0.00    -0.106 C  
HETATM   34  H1  UNL     1     -10.940   4.125  64.704  1.00  0.00     0.000 HD 
HETATM   35  H2  UNL     1     -12.326   4.610  65.691  1.00  0.00     0.000 HD 
HETATM   36  O   UNL     1      -7.122   6.035  66.530  1.00  0.00    -0.069 OA 
ENDBRANCH  19  26
ENDBRANCH  16  17
ENDBRANCH  15  16
ENDBRANCH  12  15
ENDBRANCH  11  12
ENDBRANCH   8  11
ENDBRANCH   7   8
ENDBRANCH   6   7
ENDBRANCH   5   6
ENDBRANCH   2   5
TORSDOF 10
ENDMDL
MODEL      152
REMARK 921   NORMALIZED FREE ENERGY PREDICTED BY IDOCK:   -4.66 KCAL/MOL
REMARK 922        TOTAL FREE ENERGY PREDICTED BY IDOCK:   -8.32 KCAL/MOL
REMARK 923 INTER-LIGAND FREE ENERGY PREDICTED BY IDOCK:   -8.44 KCAL/MOL
REMARK 924 INTRA-LIGAND FREE ENERGY PREDICTED BY IDOCK:    0.12 KCAL/MOL
REMARK 927      BINDING AFFINITY PREDICTED BY RF-SCORE:    0.00 PKD
ROOT
HETATM    1  C   UNL     1      -7.361  20.056  70.024  1.00  0.00     0.343 C  
HETATM    2  N   UNL     1      -5.876  19.798  69.882  1.00  0.00    -0.261 N  
HETATM    3  C   UNL     1      -5.333  20.497  68.647  1.00  0.00    -0.269 C  
HETATM    4  C   UNL     1      -5.152  20.369  71.113  1.00  0.00    -0.264 C  
ENDROOT
BRANCH   2   5
HETATM    5  C   UNL     1      -5.673  18.266  69.786  1.00  0.00    -0.235 C  
BRANCH   5   6
HETATM    6  C   UNL     1      -6.746  17.530  69.004  1.00  0.00    -0.247 C  
BRANCH   6   7
HETATM    7  O   UNL     1      -7.084  18.276  67.852  1.00  0.00    -0.216 OA 
BRANCH   7   8
HETATM    8  P   UNL     1      -7.875  17.257  66.700  1.00  0.00    -0.315 P  
HETATM    9  O   UNL     1      -6.635  16.370  66.697  1.00  0.00    -0.255 OA 
HETATM   10  O   UNL     1      -7.948  18.463  65.756  1.00  0.00    -0.509 OA 
BRANCH   8  11
HETATM   11  O   UNL     1      -8.666  16.237  65.548  1.00  0.00    -0.203 OA 
BRANCH  11  12
HETATM   12  P   UNL     1     -10.147  15.649  66.221  1.00  0.00    -0.348 P  
HETATM   13  O   UNL     1      -9.955  16.705  67.471  1.00  0.00    -0.253 OA 
HETATM   14  O   UNL     1     -10.911  16.488  65.174  1.00  0.00    -0.543 OA 
BRANCH  12  15
HETATM   15  O   UNL     1     -11.628  15.062  66.895  1.00  0.00    -0.323 OA 
BRANCH  15  16
HETATM   16  C   UNL     1     -12.052  13.766  66.430  1.00  0.00    -0.444 C  
BRANCH  16  17
HETATM   17  C   UNL     1     -11.105  12.642  66.823  1.00  0.00    -0.277 C  
HETATM   18  O   UNL     1     -11.291  12.308  68.201  1.00  0.00    -0.251 OA 
HETATM   19  C   UNL     1     -10.801  10.977  68.371  1.00  0.00    -0.220 C  
HETATM   20  H   UNL     1     -10.522  10.563  64.378  1.00  0.00     0.000 HD 
HETATM   21  C   UNL     1     -10.976  10.256  67.018  1.00  0.00    -0.119 C  
HETATM   22  H   UNL     1      -9.918   9.071  65.788  1.00  0.00     0.000 HD 
HETATM   23  C   UNL     1     -11.280  11.369  66.018  1.00  0.00    -0.112 C  
HETATM   24  O   UNL     1      -9.810   9.515  66.621  1.00  0.00    -0.197 OA 
HETATM   25  O   UNL     1     -10.413  11.361  64.883  1.00  0.00    -0.276 OA 
BRANCH  19  26
HETATM   26  N   UNL     1     -11.464  10.328  69.504  1.00  0.00    -0.233 N  
HETATM   27  C   UNL     1     -12.604  10.856  70.065  1.00  0.00    -0.187 C  
HETATM   28  C   UNL     1     -13.144  10.326  71.156  1.00  0.00    -0.481 C  
HETATM   29  C   UNL     1     -12.439   9.159  71.718  1.00  0.00    -0.372 C  
HETATM   30  N   UNL     1     -11.365   8.650  71.198  1.00  0.00    -0.264 N  
HETATM   31  N   UNL     1     -12.918   8.574  72.859  1.00  0.00    -0.694 NA 
HETATM   32  H   UNL     1     -10.927   7.834  71.623  1.00  0.00     0.000 HD 
HETATM   33  C   UNL     1     -10.821   9.220  70.067  1.00  0.00    -0.238 C  
HETATM   34  H1  UNL     1     -12.431   7.768  73.248  1.00  0.00     0.000 HD 
HETATM   35  H2  UNL     1     -13.754   8.942  73.315  1.00  0.00     0.000 HD 
HETATM   36  O   UNL     1      -9.790   8.768  69.563  1.00  0.00    -0.174 OA 
ENDBRANCH  19  26
ENDBRANCH  16  17
ENDBRANCH  15  16
ENDBRANCH  12  15
ENDBRANCH  11  12
ENDBRANCH   8  11
ENDBRANCH   7   8
ENDBRANCH   6   7
ENDBRANCH   5   6
ENDBRANCH   2   5
TORSDOF 10
ENDMDL
MODEL      153
REMARK 921   NORMALIZED FREE ENERGY PREDICTED BY IDOCK:   -4.66 KCAL/MOL
REMARK 922        TOTAL FREE ENERGY PREDICTED BY IDOCK:   -8.31 KCAL/MOL
REMARK 923 INTER-LIGAND FREE ENERGY PREDICTED BY IDOCK:   -7.57 KCAL/MOL
REMARK 924 INTRA-LIGAND FREE ENERGY PREDICTED BY IDOCK:   -0.74 KCAL/MOL
REMARK 927      BINDING AFFINITY PREDICTED BY RF-SCORE:    0.00 PKD
ROOT
HETATM    1  C   UNL     1     -13.361  13.210  72.312  1.00  0.00    -0.522 C  
HETATM    2  N   UNL     1     -12.929  14.382  71.457  1.00  0.00    -0.318 N  
HETATM    3  C   UNL     1     -14.072  15.369  71.293  1.00  0.00    -0.360 C  
HETATM    4  C   UNL     1     -11.767  15.106  72.158  1.00  0.00    -0.414 C  
ENDROOT
BRANCH   2   5
HETATM    5  C   UNL     1     -12.480  13.822  70.085  1.00  0.00    -0.267 C  
BRANCH   5   6
HETATM    6  C   UNL     1     -12.041  14.873  69.081  1.00  0.00    -0.231 C  
BRANCH   6   7
HETATM    7  O   UNL     1     -12.342  14.428  67.773  1.00  0.00    -0.236 OA 
BRANCH   7   8
HETATM    8  P   UNL     1     -11.103  13.358  67.215  1.00  0.00    -0.301 P  
HETATM    9  O   UNL     1     -10.626  14.465  66.282  1.00  0.00    -0.283 OA 
HETATM   10  O   UNL     1     -12.206  12.399  66.754  1.00  0.00    -0.551 OA 
BRANCH   8  11
HETATM   11  O   UNL     1      -9.863  12.288  66.657  1.00  0.00    -0.211 OA 
BRANCH  11  12
HETATM   12  P   UNL     1      -9.170  11.456  68.006  1.00  0.00    -0.182 P  
HETATM   13  O   UNL     1      -8.245  10.593  66.952  1.00  0.00    -0.118 OA 
HETATM   14  O   UNL     1      -8.306  12.705  68.283  1.00  0.00    -0.166 OA 
BRANCH  12  15
HETATM   15  O   UNL     1      -8.477  10.623  69.355  1.00  0.00    -0.136 OA 
BRANCH  15  16
HETATM   16  C   UNL     1      -8.529   9.185  69.290  1.00  0.00    -0.132 C  
BRANCH  16  17
HETATM   17  C   UNL     1      -9.860   8.606  69.743  1.00  0.00    -0.183 C  
HETATM   18  O   UNL     1      -9.732   7.198  69.961  1.00  0.00    -0.171 OA 
HETATM   19  C   UNL     1     -10.788   6.820  70.844  1.00  0.00    -0.249 C  
HETATM   20  H   UNL     1     -11.606  10.700  71.535  1.00  0.00     0.000 HD 
HETATM   21  C   UNL     1     -11.113   8.055  71.712  1.00  0.00    -0.260 C  
HETATM   22  H   UNL     1     -12.724   9.069  72.356  1.00  0.00     0.000 HD 
HETATM   23  C   UNL     1     -10.402   9.216  71.022  1.00  0.00    -0.293 C  
HETATM   24  O   UNL     1     -12.523   8.309  71.822  1.00  0.00    -0.305 OA 
HETATM   25  O   UNL     1     -11.266  10.317  70.735  1.00  0.00    -0.329 OA 
BRANCH  19  26
HETATM   26  N   UNL     1     -10.420   5.619  71.597  1.00  0.00    -0.222 N  
HETATM   27  C   UNL     1     -10.351   5.628  72.971  1.00  0.00    -0.203 C  
HETATM   28  C   UNL     1      -9.916   4.570  73.645  1.00  0.00    -0.185 C  
HETATM   29  C   UNL     1      -9.510   3.411  72.828  1.00  0.00    -0.107 C  
HETATM   30  N   UNL     1      -9.574   3.389  71.533  1.00  0.00    -0.154 N  
HETATM   31  N   UNL     1      -9.024   2.293  73.449  1.00  0.00    -0.069 NA 
HETATM   32  H   UNL     1      -9.291   2.555  71.020  1.00  0.00     0.000 HD 
HETATM   33  C   UNL     1     -10.024   4.500  70.854  1.00  0.00    -0.193 C  
HETATM   34  H1  UNL     1      -8.744   1.491  72.885  1.00  0.00     0.000 HD 
HETATM   35  H2  UNL     1      -8.943   2.261  74.466  1.00  0.00     0.000 HD 
HETATM   36  O   UNL     1     -10.077   4.513  69.622  1.00  0.00    -0.221 OA 
ENDBRANCH  19  26
ENDBRANCH  16  17
ENDBRANCH  15  16
ENDBRANCH  12  15
ENDBRANCH  11  12
ENDBRANCH   8  11
ENDBRANCH   7   8
ENDBRANCH   6   7
ENDBRANCH   5   6
ENDBRANCH   2   5
TORSDOF 10
ENDMDL
MODEL      154
REMARK 921   NORMALIZED FREE ENERGY PREDICTED BY IDOCK:   -4.66 KCAL/MOL
REMARK 922        TOTAL FREE ENERGY PREDICTED BY IDOCK:   -8.31 KCAL/MOL
REMARK 923 INTER-LIGAND FREE ENERGY PREDICTED BY IDOCK:   -7.64 KCAL/MOL
REMARK 924 INTRA-LIGAND FREE ENERGY PREDICTED BY IDOCK:   -0.68 KCAL/MOL
REMARK 927      BINDING AFFINITY PREDICTED BY RF-SCORE:    0.00 PKD
ROOT
HETATM    1  C   UNL     1     -10.714   7.621  68.688  1.00  0.00    -0.059 C  
HETATM    2  N   UNL     1      -9.458   7.988  69.448  1.00  0.00    -0.159 N  
HETATM    3  C   UNL     1      -9.689   9.237  70.282  1.00  0.00    -0.232 C  
HETATM    4  C   UNL     1      -9.099   6.835  70.401  1.00  0.00    -0.153 C  
ENDROOT
BRANCH   2   5
HETATM    5  C   UNL     1      -8.330   8.216  68.412  1.00  0.00    -0.126 C  
BRANCH   5   6
HETATM    6  C   UNL     1      -7.672   9.582  68.476  1.00  0.00    -0.081 C  
BRANCH   6   7
HETATM    7  O   UNL     1      -6.543   9.520  69.324  1.00  0.00    -0.047 OA 
BRANCH   7   8
HETATM    8  P   UNL     1      -5.904  11.109  69.573  1.00  0.00    -0.083 P  
HETATM    9  O   UNL     1      -6.146  10.927  71.066  1.00  0.00    -0.358 OA 
HETATM   10  O   UNL     1      -7.029  11.648  68.681  1.00  0.00    -0.074 OA 
BRANCH   8  11
HETATM   11  O   UNL     1      -5.265  12.698  69.820  1.00  0.00    -0.073 OA 
BRANCH  11  12
HETATM   12  P   UNL     1      -6.365  13.868  69.180  1.00  0.00    -0.117 P  
HETATM   13  O   UNL     1      -6.314  14.654  70.626  1.00  0.00    -0.170 OA 
HETATM   14  O   UNL     1      -5.186  14.494  68.404  1.00  0.00    -0.091 OA 
BRANCH  12  15
HETATM   15  O   UNL     1      -7.466  15.039  68.539  1.00  0.00    -0.110 OA 
BRANCH  15  16
HETATM   16  C   UNL     1      -7.962  14.766  67.215  1.00  0.00    -0.205 C  
BRANCH  16  17
HETATM   17  C   UNL     1      -9.342  14.126  67.206  1.00  0.00    -0.225 C  
HETATM   18  O   UNL     1      -9.804  13.944  68.547  1.00  0.00    -0.226 OA 
HETATM   19  C   UNL     1     -11.228  13.848  68.482  1.00  0.00    -0.270 C  
HETATM   20  H   UNL     1     -11.138  15.026  64.635  1.00  0.00     0.000 HD 
HETATM   21  C   UNL     1     -11.678  14.663  67.252  1.00  0.00    -0.385 C  
HETATM   22  H   UNL     1     -12.920  14.473  65.683  1.00  0.00     0.000 HD 
HETATM   23  C   UNL     1     -10.396  14.928  66.466  1.00  0.00    -0.293 C  
HETATM   24  O   UNL     1     -12.642  13.971  66.441  1.00  0.00    -0.428 OA 
HETATM   25  O   UNL     1     -10.478  14.524  65.099  1.00  0.00    -0.364 OA 
BRANCH  19  26
HETATM   26  N   UNL     1     -11.827  14.268  69.751  1.00  0.00    -0.304 N  
HETATM   27  C   UNL     1     -12.520  13.382  70.543  1.00  0.00    -0.279 C  
HETATM   28  C   UNL     1     -13.151  13.787  71.639  1.00  0.00    -0.456 C  
HETATM   29  C   UNL     1     -13.065  15.229  71.933  1.00  0.00    -0.395 C  
HETATM   30  N   UNL     1     -12.413  16.074  71.195  1.00  0.00    -0.561 N  
HETATM   31  N   UNL     1     -13.713  15.728  73.030  1.00  0.00    -0.637 NA 
HETATM   32  H   UNL     1     -12.377  17.059  71.454  1.00  0.00     0.000 HD 
HETATM   33  C   UNL     1     -11.769  15.632  70.060  1.00  0.00    -0.357 C  
HETATM   34  H1  UNL     1     -13.655  16.725  73.233  1.00  0.00     0.000 HD 
HETATM   35  H2  UNL     1     -14.250  15.109  73.638  1.00  0.00     0.000 HD 
HETATM   36  O   UNL     1     -11.158  16.417  69.331  1.00  0.00    -0.318 OA 
ENDBRANCH  19  26
ENDBRANCH  16  17
ENDBRANCH  15  16
ENDBRANCH  12  15
ENDBRANCH  11  12
ENDBRANCH   8  11
ENDBRANCH   7   8
ENDBRANCH   6   7
ENDBRANCH   5   6
ENDBRANCH   2   5
TORSDOF 10
ENDMDL
MODEL      155
REMARK 921   NORMALIZED FREE ENERGY PREDICTED BY IDOCK:   -4.65 KCAL/MOL
REMARK 922        TOTAL FREE ENERGY PREDICTED BY IDOCK:   -8.31 KCAL/MOL
REMARK 923 INTER-LIGAND FREE ENERGY PREDICTED BY IDOCK:   -7.13 KCAL/MOL
REMARK 924 INTRA-LIGAND FREE ENERGY PREDICTED BY IDOCK:   -1.17 KCAL/MOL
REMARK 927      BINDING AFFINITY PREDICTED BY RF-SCORE:    0.00 PKD
ROOT
HETATM    1  C   UNL     1      -8.308   5.247  66.081  1.00  0.00    -0.115 C  
HETATM    2  N   UNL     1      -9.197   4.149  65.537  1.00  0.00    -0.140 N  
HETATM    3  C   UNL     1     -10.660   4.521  65.702  1.00  0.00    -0.194 C  
HETATM    4  C   UNL     1      -8.912   3.977  64.035  1.00  0.00    -0.131 C  
ENDROOT
BRANCH   2   5
HETATM    5  C   UNL     1      -8.865   2.850  66.312  1.00  0.00    -0.144 C  
BRANCH   5   6
HETATM    6  C   UNL     1      -8.312   3.065  67.709  1.00  0.00    -0.081 C  
BRANCH   6   7
HETATM    7  O   UNL     1      -9.156   2.431  68.650  1.00  0.00    -0.111 OA 
BRANCH   7   8
HETATM    8  P   UNL     1      -9.280   3.401  70.078  1.00  0.00    -0.162 P  
HETATM    9  O   UNL     1      -9.862   4.516  69.218  1.00  0.00    -0.192 OA 
HETATM   10  O   UNL     1      -7.760   3.278  70.234  1.00  0.00    -0.044 OA 
BRANCH   8  11
HETATM   11  O   UNL     1      -9.405   4.371  71.506  1.00  0.00    -0.129 OA 
BRANCH  11  12
HETATM   12  P   UNL     1      -9.392   6.044  71.069  1.00  0.00    -0.161 P  
HETATM   13  O   UNL     1     -10.723   6.263  72.014  1.00  0.00    -0.215 OA 
HETATM   14  O   UNL     1      -8.226   6.253  72.059  1.00  0.00    -0.109 OA 
BRANCH  12  15
HETATM   15  O   UNL     1      -9.379   7.718  70.632  1.00  0.00    -0.161 OA 
BRANCH  15  16
HETATM   16  C   UNL     1     -10.652   8.266  70.235  1.00  0.00    -0.227 C  
BRANCH  16  17
HETATM   17  C   UNL     1     -10.736   9.776  70.391  1.00  0.00    -0.308 C  
HETATM   18  O   UNL     1     -10.157  10.417  69.252  1.00  0.00    -0.209 OA 
HETATM   19  C   UNL     1     -10.709  11.734  69.196  1.00  0.00    -0.124 C  
HETATM   20  H   UNL     1     -13.395  10.734  72.021  1.00  0.00     0.000 HD 
HETATM   21  C   UNL     1     -12.109  11.663  69.841  1.00  0.00    -0.301 C  
HETATM   22  H   UNL     1     -13.218  12.688  71.166  1.00  0.00     0.000 HD 
HETATM   23  C   UNL     1     -12.148  10.309  70.545  1.00  0.00    -0.310 C  
HETATM   24  O   UNL     1     -12.356  12.731  70.770  1.00  0.00    -0.368 OA 
HETATM   25  O   UNL     1     -12.511  10.400  71.924  1.00  0.00    -0.356 OA 
BRANCH  19  26
HETATM   26  N   UNL     1     -10.689  12.239  67.822  1.00  0.00    -0.211 N  
HETATM   27  C   UNL     1     -11.748  12.035  66.968  1.00  0.00    -0.267 C  
HETATM   28  C   UNL     1     -11.685  12.401  65.693  1.00  0.00    -0.468 C  
HETATM   29  C   UNL     1     -10.418  13.020  65.265  1.00  0.00    -0.304 C  
HETATM   30  N   UNL     1      -9.413  13.220  66.060  1.00  0.00    -0.470 N  
HETATM   31  N   UNL     1     -10.266  13.398  63.959  1.00  0.00    -0.752 NA 
HETATM   32  H   UNL     1      -8.564  13.664  65.711  1.00  0.00     0.000 HD 
HETATM   33  C   UNL     1      -9.499  12.828  67.379  1.00  0.00    -0.190 C  
HETATM   34  H1  UNL     1      -9.390  13.825  63.662  1.00  0.00     0.000 HD 
HETATM   35  H2  UNL     1     -11.022  13.253  63.289  1.00  0.00     0.000 HD 
HETATM   36  O   UNL     1      -8.551  12.989  68.151  1.00  0.00    -0.176 OA 
ENDBRANCH  19  26
ENDBRANCH  16  17
ENDBRANCH  15  16
ENDBRANCH  12  15
ENDBRANCH  11  12
ENDBRANCH   8  11
ENDBRANCH   7   8
ENDBRANCH   6   7
ENDBRANCH   5   6
ENDBRANCH   2   5
TORSDOF 10
ENDMDL
MODEL      156
REMARK 921   NORMALIZED FREE ENERGY PREDICTED BY IDOCK:   -4.65 KCAL/MOL
REMARK 922        TOTAL FREE ENERGY PREDICTED BY IDOCK:   -8.30 KCAL/MOL
REMARK 923 INTER-LIGAND FREE ENERGY PREDICTED BY IDOCK:   -7.28 KCAL/MOL
REMARK 924 INTRA-LIGAND FREE ENERGY PREDICTED BY IDOCK:   -1.01 KCAL/MOL
REMARK 927      BINDING AFFINITY PREDICTED BY RF-SCORE:    0.00 PKD
ROOT
HETATM    1  C   UNL     1      -7.146  15.164  69.640  1.00  0.00    -0.193 C  
HETATM    2  N   UNL     1      -7.528  15.028  68.182  1.00  0.00    -0.105 N  
HETATM    3  C   UNL     1      -6.460  15.644  67.294  1.00  0.00    -0.058 C  
HETATM    4  C   UNL     1      -7.637  13.533  67.834  1.00  0.00    -0.151 C  
ENDROOT
BRANCH   2   5
HETATM    5  C   UNL     1      -8.890  15.739  67.985  1.00  0.00    -0.176 C  
BRANCH   5   6
HETATM    6  C   UNL     1      -9.212  16.111  66.549  1.00  0.00    -0.272 C  
BRANCH   6   7
HETATM    7  O   UNL     1     -10.602  16.335  66.423  1.00  0.00    -0.306 OA 
BRANCH   7   8
HETATM    8  P   UNL     1     -11.256  15.301  65.199  1.00  0.00    -0.303 P  
HETATM    9  O   UNL     1      -9.980  14.472  65.278  1.00  0.00    -0.363 OA 
HETATM   10  O   UNL     1     -11.315  16.518  64.270  1.00  0.00    -1.020 OA 
BRANCH   8  11
HETATM   11  O   UNL     1     -11.911  14.266  63.977  1.00  0.00    -0.403 OA 
BRANCH  11  12
HETATM   12  P   UNL     1     -11.456  12.630  64.302  1.00  0.00    -0.434 P  
HETATM   13  O   UNL     1     -12.484  12.638  65.589  1.00  0.00    -0.622 OA 
HETATM   14  O   UNL     1     -12.364  12.186  63.136  1.00  0.00    -0.474 OA 
BRANCH  12  15
HETATM   15  O   UNL     1     -11.000  10.993  64.628  1.00  0.00    -0.243 OA 
BRANCH  15  16
HETATM   16  C   UNL     1     -10.470  10.747  65.945  1.00  0.00    -0.204 C  
BRANCH  16  17
HETATM   17  C   UNL     1      -9.135  10.017  65.933  1.00  0.00    -0.159 C  
HETATM   18  O   UNL     1      -9.212   8.847  66.752  1.00  0.00    -0.145 OA 
HETATM   19  C   UNL     1      -8.179   7.966  66.308  1.00  0.00    -0.117 C  
HETATM   20  H   UNL     1      -7.561  10.303  63.090  1.00  0.00     0.000 HD 
HETATM   21  C   UNL     1      -7.945   8.264  64.812  1.00  0.00    -0.146 C  
HETATM   22  H   UNL     1      -6.410   8.558  63.550  1.00  0.00     0.000 HD 
HETATM   23  C   UNL     1      -8.676   9.580  64.556  1.00  0.00    -0.205 C  
HETATM   24  O   UNL     1      -6.554   8.375  64.471  1.00  0.00    -0.065 OA 
HETATM   25  O   UNL     1      -7.849  10.576  63.953  1.00  0.00    -0.098 OA 
BRANCH  19  26
HETATM   26  N   UNL     1      -8.526   6.576  66.612  1.00  0.00    -0.113 N  
HETATM   27  C   UNL     1      -9.636   5.978  66.061  1.00  0.00     0.010 C  
HETATM   28  C   UNL     1     -10.007   4.755  66.419  1.00  0.00    -0.264 C  
HETATM   29  C   UNL     1      -9.167   4.101  67.438  1.00  0.00    -0.157 C  
HETATM   30  N   UNL     1      -8.117   4.653  67.964  1.00  0.00    -0.088 N  
HETATM   31  N   UNL     1      -9.502   2.850  67.880  1.00  0.00    -0.249 NA 
HETATM   32  H   UNL     1      -7.565   4.148  68.657  1.00  0.00     0.000 HD 
HETATM   33  C   UNL     1      -7.752   5.926  67.581  1.00  0.00    -0.097 C  
HETATM   34  H1  UNL     1      -8.921   2.398  68.585  1.00  0.00     0.000 HD 
HETATM   35  H2  UNL     1     -10.325   2.375  67.507  1.00  0.00     0.000 HD 
HETATM   36  O   UNL     1      -6.770   6.481  68.078  1.00  0.00    -0.062 OA 
ENDBRANCH  19  26
ENDBRANCH  16  17
ENDBRANCH  15  16
ENDBRANCH  12  15
ENDBRANCH  11  12
ENDBRANCH   8  11
ENDBRANCH   7   8
ENDBRANCH   6   7
ENDBRANCH   5   6
ENDBRANCH   2   5
TORSDOF 10
ENDMDL
MODEL      157
REMARK 921   NORMALIZED FREE ENERGY PREDICTED BY IDOCK:   -4.64 KCAL/MOL
REMARK 922        TOTAL FREE ENERGY PREDICTED BY IDOCK:   -8.28 KCAL/MOL
REMARK 923 INTER-LIGAND FREE ENERGY PREDICTED BY IDOCK:   -7.36 KCAL/MOL
REMARK 924 INTRA-LIGAND FREE ENERGY PREDICTED BY IDOCK:   -0.92 KCAL/MOL
REMARK 927      BINDING AFFINITY PREDICTED BY RF-SCORE:    0.00 PKD
ROOT
HETATM    1  C   UNL     1      -5.681   4.086  69.246  1.00  0.00    -0.018 C  
HETATM    2  N   UNL     1      -7.003   3.580  68.709  1.00  0.00    -0.046 N  
HETATM    3  C   UNL     1      -6.855   3.142  67.262  1.00  0.00    -0.046 C  
HETATM    4  C   UNL     1      -7.442   2.360  69.537  1.00  0.00    -0.043 C  
ENDROOT
BRANCH   2   5
HETATM    5  C   UNL     1      -8.033   4.730  68.837  1.00  0.00    -0.076 C  
BRANCH   5   6
HETATM    6  C   UNL     1      -9.485   4.288  68.828  1.00  0.00    -0.164 C  
BRANCH   6   7
HETATM    7  O   UNL     1     -10.318   5.407  69.056  1.00  0.00    -0.217 OA 
BRANCH   7   8
HETATM    8  P   UNL     1     -10.221   6.497  67.715  1.00  0.00    -0.221 P  
HETATM    9  O   UNL     1     -10.950   7.534  68.560  1.00  0.00    -0.052 OA 
HETATM   10  O   UNL     1     -11.026   5.482  66.895  1.00  0.00    -0.212 OA 
BRANCH   8  11
HETATM   11  O   UNL     1     -10.123   7.586  66.374  1.00  0.00    -0.157 OA 
BRANCH  11  12
HETATM   12  P   UNL     1      -9.543   9.121  66.921  1.00  0.00    -0.214 P  
HETATM   13  O   UNL     1      -8.105   8.406  67.288  1.00  0.00    -0.104 OA 
HETATM   14  O   UNL     1      -9.358   9.533  65.445  1.00  0.00    -0.229 OA 
BRANCH  12  15
HETATM   15  O   UNL     1      -8.962  10.656  67.468  1.00  0.00    -0.135 OA 
BRANCH  15  16
HETATM   16  C   UNL     1      -9.095  11.741  66.528  1.00  0.00    -0.203 C  
BRANCH  16  17
HETATM   17  C   UNL     1     -10.429  12.466  66.625  1.00  0.00    -0.229 C  
HETATM   18  O   UNL     1     -10.284  13.652  67.410  1.00  0.00    -0.238 OA 
HETATM   19  C   UNL     1     -11.358  14.520  67.046  1.00  0.00    -0.349 C  
HETATM   20  H   UNL     1     -12.255  12.118  63.944  1.00  0.00     0.000 HD 
HETATM   21  C   UNL     1     -11.726  14.192  65.583  1.00  0.00    -0.357 C  
HETATM   22  H   UNL     1     -13.368  13.868  64.473  1.00  0.00     0.000 HD 
HETATM   23  C   UNL     1     -11.015  12.874  65.287  1.00  0.00    -0.283 C  
HETATM   24  O   UNL     1     -13.142  14.070  65.374  1.00  0.00    -0.763 OA 
HETATM   25  O   UNL     1     -11.888  11.863  64.782  1.00  0.00    -0.286 OA 
BRANCH  19  26
HETATM   26  N   UNL     1     -10.991  15.917  67.290  1.00  0.00    -0.281 N  
HETATM   27  C   UNL     1     -10.399  16.683  66.313  1.00  0.00    -0.317 C  
HETATM   28  C   UNL     1      -9.972  17.915  66.568  1.00  0.00    -0.357 C  
HETATM   29  C   UNL     1     -10.165  18.387  67.951  1.00  0.00    -0.381 C  
HETATM   30  N   UNL     1     -10.724  17.675  68.881  1.00  0.00    -0.325 N  
HETATM   31  N   UNL     1      -9.725  19.635  68.299  1.00  0.00    -0.379 NA 
HETATM   32  H   UNL     1     -10.842  18.059  69.818  1.00  0.00     0.000 HD 
HETATM   33  C   UNL     1     -11.155  16.398  68.594  1.00  0.00    -0.352 C  
HETATM   34  H1  UNL     1      -9.858  19.962  69.255  1.00  0.00     0.000 HD 
HETATM   35  H2  UNL     1      -9.269  20.232  67.608  1.00  0.00     0.000 HD 
HETATM   36  O   UNL     1     -11.673  15.693  69.464  1.00  0.00    -0.328 OA 
ENDBRANCH  19  26
ENDBRANCH  16  17
ENDBRANCH  15  16
ENDBRANCH  12  15
ENDBRANCH  11  12
ENDBRANCH   8  11
ENDBRANCH   7   8
ENDBRANCH   6   7
ENDBRANCH   5   6
ENDBRANCH   2   5
TORSDOF 10
ENDMDL
MODEL      158
REMARK 921   NORMALIZED FREE ENERGY PREDICTED BY IDOCK:   -4.60 KCAL/MOL
REMARK 922        TOTAL FREE ENERGY PREDICTED BY IDOCK:   -8.22 KCAL/MOL
REMARK 923 INTER-LIGAND FREE ENERGY PREDICTED BY IDOCK:   -6.89 KCAL/MOL
REMARK 924 INTRA-LIGAND FREE ENERGY PREDICTED BY IDOCK:   -1.33 KCAL/MOL
REMARK 927      BINDING AFFINITY PREDICTED BY RF-SCORE:    0.00 PKD
ROOT
HETATM    1  C   UNL     1     -10.165  13.192  64.207  1.00  0.00    -0.261 C  
HETATM    2  N   UNL     1     -11.645  13.392  64.454  1.00  0.00    -0.368 N  
HETATM    3  C   UNL     1     -12.460  12.701  63.375  1.00  0.00    -0.372 C  
HETATM    4  C   UNL     1     -12.011  12.761  65.809  1.00  0.00    -0.449 C  
ENDROOT
BRANCH   2   5
HETATM    5  C   UNL     1     -11.918  14.916  64.465  1.00  0.00    -0.410 C  
BRANCH   5   6
HETATM    6  C   UNL     1     -10.777  15.763  64.999  1.00  0.00    -0.421 C  
BRANCH   6   7
HETATM    7  O   UNL     1     -11.036  16.103  66.347  1.00  0.00    -0.196 OA 
BRANCH   7   8
HETATM    8  P   UNL     1      -9.550  16.447  67.164  1.00  0.00    -0.247 P  
HETATM    9  O   UNL     1      -9.154  17.326  65.984  1.00  0.00    -0.483 OA 
HETATM   10  O   UNL     1      -9.241  14.946  67.130  1.00  0.00    -0.202 OA 
BRANCH   8  11
HETATM   11  O   UNL     1      -8.064  16.792  67.981  1.00  0.00    -0.179 OA 
BRANCH  11  12
HETATM   12  P   UNL     1      -7.066  15.380  67.981  1.00  0.00    -0.155 P  
HETATM   13  O   UNL     1      -5.962  16.206  67.080  1.00  0.00    -0.322 OA 
HETATM   14  O   UNL     1      -6.653  15.718  69.429  1.00  0.00    -0.152 OA 
BRANCH  12  15
HETATM   15  O   UNL     1      -6.066  13.967  67.979  1.00  0.00    -0.115 OA 
BRANCH  15  16
HETATM   16  C   UNL     1      -6.104  13.179  69.185  1.00  0.00    -0.095 C  
BRANCH  16  17
HETATM   17  C   UNL     1      -6.118  11.680  68.927  1.00  0.00    -0.053 C  
HETATM   18  O   UNL     1      -6.846  11.014  69.962  1.00  0.00    -0.145 OA 
HETATM   19  C   UNL     1      -7.266   9.758  69.427  1.00  0.00    -0.076 C  
HETATM   20  H   UNL     1      -6.141  10.942  65.749  1.00  0.00     0.000 HD 
HETATM   21  C   UNL     1      -7.421   9.947  67.903  1.00  0.00    -0.089 C  
HETATM   22  H   UNL     1      -6.919   9.001  66.203  1.00  0.00     0.000 HD 
HETATM   23  C   UNL     1      -6.742  11.281  67.603  1.00  0.00    -0.073 C  
HETATM   24  O   UNL     1      -6.824   8.885  67.141  1.00  0.00    -0.072 OA 
HETATM   25  O   UNL     1      -5.751  11.192  66.579  1.00  0.00    -0.101 OA 
BRANCH  19  26
HETATM   26  N   UNL     1      -8.470   9.286  70.114  1.00  0.00    -0.170 N  
HETATM   27  C   UNL     1      -9.719   9.442  69.559  1.00  0.00    -0.183 C  
HETATM   28  C   UNL     1     -10.817   9.110  70.229  1.00  0.00    -0.282 C  
HETATM   29  C   UNL     1     -10.604   8.583  71.589  1.00  0.00    -0.283 C  
HETATM   30  N   UNL     1      -9.431   8.429  72.123  1.00  0.00    -0.262 N  
HETATM   31  N   UNL     1     -11.688   8.245  72.352  1.00  0.00    -0.387 NA 
HETATM   32  H   UNL     1      -9.343   8.047  73.064  1.00  0.00     0.000 HD 
HETATM   33  C   UNL     1      -8.306   8.784  71.411  1.00  0.00    -0.168 C  
HETATM   34  H1  UNL     1     -11.541   7.880  73.293  1.00  0.00     0.000 HD 
HETATM   35  H2  UNL     1     -12.633   8.356  71.985  1.00  0.00     0.000 HD 
HETATM   36  O   UNL     1      -7.181   8.666  71.902  1.00  0.00    -0.121 OA 
ENDBRANCH  19  26
ENDBRANCH  16  17
ENDBRANCH  15  16
ENDBRANCH  12  15
ENDBRANCH  11  12
ENDBRANCH   8  11
ENDBRANCH   7   8
ENDBRANCH   6   7
ENDBRANCH   5   6
ENDBRANCH   2   5
TORSDOF 10
ENDMDL
MODEL      159
REMARK 921   NORMALIZED FREE ENERGY PREDICTED BY IDOCK:   -4.58 KCAL/MOL
REMARK 922        TOTAL FREE ENERGY PREDICTED BY IDOCK:   -8.20 KCAL/MOL
REMARK 923 INTER-LIGAND FREE ENERGY PREDICTED BY IDOCK:   -7.32 KCAL/MOL
REMARK 924 INTRA-LIGAND FREE ENERGY PREDICTED BY IDOCK:   -0.87 KCAL/MOL
REMARK 927      BINDING AFFINITY PREDICTED BY RF-SCORE:    0.00 PKD
ROOT
HETATM    1  C   UNL     1     -11.537  10.287  71.351  1.00  0.00    -0.145 C  
HETATM    2  N   UNL     1     -10.826   8.952  71.412  1.00  0.00    -0.280 N  
HETATM    3  C   UNL     1      -9.388   9.139  71.866  1.00  0.00     0.122 C  
HETATM    4  C   UNL     1     -11.540   8.056  72.438  1.00  0.00    -0.390 C  
ENDROOT
BRANCH   2   5
HETATM    5  C   UNL     1     -10.884   8.324  69.998  1.00  0.00    -0.232 C  
BRANCH   5   6
HETATM    6  C   UNL     1     -11.214   6.842  69.974  1.00  0.00    -0.299 C  
BRANCH   6   7
HETATM    7  O   UNL     1     -10.393   6.194  69.022  1.00  0.00    -0.173 OA 
BRANCH   7   8
HETATM    8  P   UNL     1     -10.105   7.245  67.679  1.00  0.00    -0.221 P  
HETATM    9  O   UNL     1     -11.373   6.698  67.034  1.00  0.00    -0.348 OA 
HETATM   10  O   UNL     1      -8.771   6.522  67.462  1.00  0.00    -0.115 OA 
BRANCH   8  11
HETATM   11  O   UNL     1      -9.817   8.297  66.335  1.00  0.00    -0.243 OA 
BRANCH  11  12
HETATM   12  P   UNL     1      -9.180   9.799  66.907  1.00  0.00    -0.154 P  
HETATM   13  O   UNL     1      -7.700   9.342  66.348  1.00  0.00    -0.096 OA 
HETATM   14  O   UNL     1      -9.814  10.490  65.681  1.00  0.00    -0.221 OA 
BRANCH  12  15
HETATM   15  O   UNL     1      -8.542  11.303  67.478  1.00  0.00    -0.131 OA 
BRANCH  15  16
HETATM   16  C   UNL     1      -9.263  12.480  67.066  1.00  0.00    -0.214 C  
BRANCH  16  17
HETATM   17  C   UNL     1      -9.567  13.435  68.209  1.00  0.00    -0.220 C  
HETATM   18  O   UNL     1      -8.978  14.712  67.949  1.00  0.00    -0.166 OA 
HETATM   19  C   UNL     1      -9.697  15.664  68.734  1.00  0.00    -0.212 C  
HETATM   20  H   UNL     1     -12.472  12.877  69.585  1.00  0.00     0.000 HD 
HETATM   21  C   UNL     1     -11.128  15.115  68.910  1.00  0.00    -0.270 C  
HETATM   22  H   UNL     1     -12.485  14.868  70.371  1.00  0.00     0.000 HD 
HETATM   23  C   UNL     1     -11.047  13.659  68.458  1.00  0.00    -0.275 C  
HETATM   24  O   UNL     1     -11.604  15.206  70.263  1.00  0.00    -0.251 OA 
HETATM   25  O   UNL     1     -11.545  12.738  69.429  1.00  0.00    -0.282 OA 
BRANCH  19  26
HETATM   26  N   UNL     1      -9.619  16.994  68.124  1.00  0.00    -0.258 N  
HETATM   27  C   UNL     1     -10.501  17.384  67.143  1.00  0.00    -0.305 C  
HETATM   28  C   UNL     1     -10.364  18.548  66.518  1.00  0.00    -0.447 C  
HETATM   29  C   UNL     1      -9.213  19.369  66.934  1.00  0.00    -0.322 C  
HETATM   30  N   UNL     1      -8.375  19.012  67.859  1.00  0.00    -0.281 N  
HETATM   31  N   UNL     1      -8.988  20.568  66.316  1.00  0.00    -0.577 NA 
HETATM   32  H   UNL     1      -7.603  19.627  68.115  1.00  0.00     0.000 HD 
HETATM   33  C   UNL     1      -8.535  17.799  68.492  1.00  0.00    -0.296 C  
HETATM   34  H1  UNL     1      -8.192  21.136  66.604  1.00  0.00     0.000 HD 
HETATM   35  H2  UNL     1      -9.610  20.891  65.575  1.00  0.00     0.000 HD 
HETATM   36  O   UNL     1      -7.742  17.427  69.361  1.00  0.00    -0.022 OA 
ENDBRANCH  19  26
ENDBRANCH  16  17
ENDBRANCH  15  16
ENDBRANCH  12  15
ENDBRANCH  11  12
ENDBRANCH   8  11
ENDBRANCH   7   8
ENDBRANCH   6   7
ENDBRANCH   5   6
ENDBRANCH   2   5
TORSDOF 10
ENDMDL
MODEL      160
REMARK 921   NORMALIZED FREE ENERGY PREDICTED BY IDOCK:   -4.58 KCAL/MOL
REMARK 922        TOTAL FREE ENERGY PREDICTED BY IDOCK:   -8.19 KCAL/MOL
REMARK 923 INTER-LIGAND FREE ENERGY PREDICTED BY IDOCK:   -7.26 KCAL/MOL
REMARK 924 INTRA-LIGAND FREE ENERGY PREDICTED BY IDOCK:   -0.93 KCAL/MOL
REMARK 927      BINDING AFFINITY PREDICTED BY RF-SCORE:    0.00 PKD
ROOT
HETATM    1  C   UNL     1      -5.815   7.639  63.688  1.00  0.00    -0.049 C  
HETATM    2  N   UNL     1      -6.841   8.731  63.908  1.00  0.00    -0.087 N  
HETATM    3  C   UNL     1      -6.180  10.098  63.849  1.00  0.00    -0.133 C  
HETATM    4  C   UNL     1      -7.892   8.658  62.787  1.00  0.00    -0.138 C  
ENDROOT
BRANCH   2   5
HETATM    5  C   UNL     1      -7.494   8.490  65.291  1.00  0.00    -0.086 C  
BRANCH   5   6
HETATM    6  C   UNL     1      -7.555   9.713  66.188  1.00  0.00    -0.102 C  
BRANCH   6   7
HETATM    7  O   UNL     1      -7.026   9.390  67.459  1.00  0.00    -0.076 OA 
BRANCH   7   8
HETATM    8  P   UNL     1      -8.230   9.636  68.677  1.00  0.00    -0.110 P  
HETATM    9  O   UNL     1      -8.500   8.136  68.652  1.00  0.00    -0.125 OA 
HETATM   10  O   UNL     1      -8.965  10.556  67.697  1.00  0.00    -0.137 OA 
BRANCH   8  11
HETATM   11  O   UNL     1      -9.433   9.881  69.897  1.00  0.00    -0.220 OA 
BRANCH  11  12
HETATM   12  P   UNL     1     -10.793  10.696  69.207  1.00  0.00    -0.268 P  
HETATM   13  O   UNL     1     -11.361   9.236  68.696  1.00  0.00     0.146 OA 
HETATM   14  O   UNL     1     -11.388  10.821  70.626  1.00  0.00    -0.298 OA 
BRANCH  12  15
HETATM   15  O   UNL     1     -12.155  11.510  68.517  1.00  0.00    -0.522 OA 
BRANCH  15  16
HETATM   16  C   UNL     1     -11.890  12.822  67.984  1.00  0.00    -0.336 C  
BRANCH  16  17
HETATM   17  C   UNL     1     -11.254  13.767  68.992  1.00  0.00    -0.272 C  
HETATM   18  O   UNL     1     -10.362  14.663  68.325  1.00  0.00    -0.222 OA 
HETATM   19  C   UNL     1     -10.214  15.803  69.173  1.00  0.00    -0.231 C  
HETATM   20  H   UNL     1     -13.241  14.490  71.477  1.00  0.00     0.000 HD 
HETATM   21  C   UNL     1     -11.519  15.933  69.986  1.00  0.00    -0.354 C  
HETATM   22  H   UNL     1     -12.094  16.250  71.885  1.00  0.00     0.000 HD 
HETATM   23  C   UNL     1     -12.248  14.609  69.771  1.00  0.00    -0.302 C  
HETATM   24  O   UNL     1     -11.290  16.170  71.385  1.00  0.00    -0.380 OA 
HETATM   25  O   UNL     1     -12.618  13.963  70.989  1.00  0.00    -0.333 OA 
BRANCH  19  26
HETATM   26  N   UNL     1      -9.860  16.986  68.384  1.00  0.00    -0.269 N  
HETATM   27  C   UNL     1     -10.784  17.614  67.582  1.00  0.00    -0.314 C  
HETATM   28  C   UNL     1     -10.436  18.620  66.788  1.00  0.00    -0.454 C  
HETATM   29  C   UNL     1      -9.012  18.999  66.820  1.00  0.00    -0.313 C  
HETATM   30  N   UNL     1      -8.131  18.416  67.574  1.00  0.00    -0.245 N  
HETATM   31  N   UNL     1      -8.570  20.008  66.009  1.00  0.00    -0.527 NA 
HETATM   32  H   UNL     1      -7.161  18.729  67.564  1.00  0.00     0.000 HD 
HETATM   33  C   UNL     1      -8.514  17.372  68.387  1.00  0.00    -0.263 C  
HETATM   34  H1  UNL     1      -7.585  20.271  66.031  1.00  0.00     0.000 HD 
HETATM   35  H2  UNL     1      -9.219  20.493  65.388  1.00  0.00     0.000 HD 
HETATM   36  O   UNL     1      -7.694  16.788  69.099  1.00  0.00    -0.237 OA 
ENDBRANCH  19  26
ENDBRANCH  16  17
ENDBRANCH  15  16
ENDBRANCH  12  15
ENDBRANCH  11  12
ENDBRANCH   8  11
ENDBRANCH   7   8
ENDBRANCH   6   7
ENDBRANCH   5   6
ENDBRANCH   2   5
TORSDOF 10
ENDMDL
MODEL      161
REMARK 921   NORMALIZED FREE ENERGY PREDICTED BY IDOCK:   -4.57 KCAL/MOL
REMARK 922        TOTAL FREE ENERGY PREDICTED BY IDOCK:   -8.17 KCAL/MOL
REMARK 923 INTER-LIGAND FREE ENERGY PREDICTED BY IDOCK:   -7.18 KCAL/MOL
REMARK 924 INTRA-LIGAND FREE ENERGY PREDICTED BY IDOCK:   -0.99 KCAL/MOL
REMARK 927      BINDING AFFINITY PREDICTED BY RF-SCORE:    0.00 PKD
ROOT
HETATM    1  C   UNL     1      -9.422   1.973  72.309  1.00  0.00    -0.093 C  
HETATM    2  N   UNL     1      -8.571   3.032  71.643  1.00  0.00    -0.068 N  
HETATM    3  C   UNL     1      -7.643   3.681  72.656  1.00  0.00    -0.060 C  
HETATM    4  C   UNL     1      -7.706   2.366  70.559  1.00  0.00    -0.042 C  
ENDROOT
BRANCH   2   5
HETATM    5  C   UNL     1      -9.526   4.078  71.018  1.00  0.00    -0.163 C  
BRANCH   5   6
HETATM    6  C   UNL     1     -10.347   4.869  72.020  1.00  0.00    -0.197 C  
BRANCH   6   7
HETATM    7  O   UNL     1      -9.770   6.148  72.195  1.00  0.00    -0.156 OA 
BRANCH   7   8
HETATM    8  P   UNL     1     -11.014   7.336  72.381  1.00  0.00    -0.310 P  
HETATM    9  O   UNL     1     -10.657   7.416  73.860  1.00  0.00    -0.307 OA 
HETATM   10  O   UNL     1     -12.021   6.286  71.899  1.00  0.00    -0.328 OA 
BRANCH   8  11
HETATM   11  O   UNL     1     -12.257   8.525  72.567  1.00  0.00    -0.389 OA 
BRANCH  11  12
HETATM   12  P   UNL     1     -11.965   9.838  71.480  1.00  0.00    -0.326 P  
HETATM   13  O   UNL     1     -10.738   8.965  70.813  1.00  0.00    -0.208 OA 
HETATM   14  O   UNL     1     -13.195   9.386  70.665  1.00  0.00     0.008 OA 
BRANCH  12  15
HETATM   15  O   UNL     1     -11.672  11.151  70.392  1.00  0.00    -0.316 OA 
BRANCH  15  16
HETATM   16  C   UNL     1     -12.145  10.958  69.045  1.00  0.00    -0.169 C  
BRANCH  16  17
HETATM   17  C   UNL     1     -11.184  11.476  67.986  1.00  0.00    -0.269 C  
HETATM   18  O   UNL     1     -11.524  12.819  67.632  1.00  0.00    -0.292 OA 
HETATM   19  C   UNL     1     -10.349  13.407  67.073  1.00  0.00    -0.247 C  
HETATM   20  H   UNL     1      -8.178  10.248  68.297  1.00  0.00     0.000 HD 
HETATM   21  C   UNL     1      -9.140  12.700  67.720  1.00  0.00    -0.192 C  
HETATM   22  H   UNL     1      -7.390  11.884  67.164  1.00  0.00     0.000 HD 
HETATM   23  C   UNL     1      -9.728  11.472  68.410  1.00  0.00    -0.202 C  
HETATM   24  O   UNL     1      -8.135  12.320  66.766  1.00  0.00    -0.132 OA 
HETATM   25  O   UNL     1      -9.090  10.251  68.031  1.00  0.00    -0.130 OA 
BRANCH  19  26
HETATM   26  N   UNL     1     -10.374  14.862  67.244  1.00  0.00    -0.250 N  
HETATM   27  C   UNL     1     -10.518  15.435  68.487  1.00  0.00    -0.234 C  
HETATM   28  C   UNL     1     -10.646  16.749  68.628  1.00  0.00    -0.353 C  
HETATM   29  C   UNL     1     -10.636  17.533  67.380  1.00  0.00    -0.311 C  
HETATM   30  N   UNL     1     -10.499  17.005  66.203  1.00  0.00    -0.306 N  
HETATM   31  N   UNL     1     -10.791  18.891  67.442  1.00  0.00    -0.441 NA 
HETATM   32  H   UNL     1     -10.486  17.598  65.374  1.00  0.00     0.000 HD 
HETATM   33  C   UNL     1     -10.371  15.639  66.079  1.00  0.00    -0.335 C  
HETATM   34  H1  UNL     1     -10.784  19.433  66.579  1.00  0.00     0.000 HD 
HETATM   35  H2  UNL     1     -10.913  19.356  68.342  1.00  0.00     0.000 HD 
HETATM   36  O   UNL     1     -10.259  15.109  64.971  1.00  0.00    -0.364 OA 
ENDBRANCH  19  26
ENDBRANCH  16  17
ENDBRANCH  15  16
ENDBRANCH  12  15
ENDBRANCH  11  12
ENDBRANCH   8  11
ENDBRANCH   7   8
ENDBRANCH   6   7
ENDBRANCH   5   6
ENDBRANCH   2   5
TORSDOF 10
ENDMDL
MODEL      162
REMARK 921   NORMALIZED FREE ENERGY PREDICTED BY IDOCK:   -4.56 KCAL/MOL
REMARK 922        TOTAL FREE ENERGY PREDICTED BY IDOCK:   -8.16 KCAL/MOL
REMARK 923 INTER-LIGAND FREE ENERGY PREDICTED BY IDOCK:   -6.65 KCAL/MOL
REMARK 924 INTRA-LIGAND FREE ENERGY PREDICTED BY IDOCK:   -1.51 KCAL/MOL
REMARK 927      BINDING AFFINITY PREDICTED BY RF-SCORE:    0.00 PKD
ROOT
HETATM    1  C   UNL     1      -8.936  10.052  64.726  1.00  0.00    -0.212 C  
HETATM    2  N   UNL     1      -8.107   8.942  65.336  1.00  0.00    -0.112 N  
HETATM    3  C   UNL     1      -7.521   8.058  64.249  1.00  0.00    -0.106 C  
HETATM    4  C   UNL     1      -6.943   9.568  66.124  1.00  0.00    -0.091 C  
ENDROOT
BRANCH   2   5
HETATM    5  C   UNL     1      -9.031   8.127  66.275  1.00  0.00    -0.177 C  
BRANCH   5   6
HETATM    6  C   UNL     1      -8.373   6.923  66.926  1.00  0.00    -0.114 C  
BRANCH   6   7
HETATM    7  O   UNL     1      -9.344   5.917  67.139  1.00  0.00    -0.114 OA 
BRANCH   7   8
HETATM    8  P   UNL     1      -9.650   5.743  68.833  1.00  0.00    -0.145 P  
HETATM    9  O   UNL     1      -8.199   6.127  69.092  1.00  0.00    -0.110 OA 
HETATM   10  O   UNL     1     -10.012   4.278  68.567  1.00  0.00    -0.085 OA 
BRANCH   8  11
HETATM   11  O   UNL     1      -9.958   5.570  70.527  1.00  0.00    -0.186 OA 
BRANCH  11  12
HETATM   12  P   UNL     1     -10.910   6.904  71.079  1.00  0.00    -0.260 P  
HETATM   13  O   UNL     1      -9.529   7.615  71.628  1.00  0.00    -0.145 OA 
HETATM   14  O   UNL     1     -10.996   7.397  69.619  1.00  0.00    -0.238 OA 
BRANCH  12  15
HETATM   15  O   UNL     1     -11.861   8.240  71.631  1.00  0.00    -0.273 OA 
BRANCH  15  16
HETATM   16  C   UNL     1     -12.344   9.126  70.603  1.00  0.00     0.047 C  
BRANCH  16  17
HETATM   17  C   UNL     1     -11.818  10.547  70.732  1.00  0.00    -0.365 C  
HETATM   18  O   UNL     1     -11.117  10.918  69.542  1.00  0.00    -0.234 OA 
HETATM   19  C   UNL     1     -11.111  12.346  69.497  1.00  0.00    -0.016 C  
HETATM   20  H   UNL     1     -13.763  12.459  72.522  1.00  0.00     0.000 HD 
HETATM   21  C   UNL     1     -12.377  12.826  70.239  1.00  0.00    -0.204 C  
HETATM   22  H   UNL     1     -12.896  14.193  71.616  1.00  0.00     0.000 HD 
HETATM   23  C   UNL     1     -12.892  11.590  70.973  1.00  0.00    -0.263 C  
HETATM   24  O   UNL     1     -12.117  13.898  71.160  1.00  0.00    -0.344 OA 
HETATM   25  O   UNL     1     -13.090  11.805  72.371  1.00  0.00    -0.243 OA 
BRANCH  19  26
HETATM   26  N   UNL     1     -10.994  12.814  68.114  1.00  0.00    -0.235 N  
HETATM   27  C   UNL     1     -11.657  12.184  67.087  1.00  0.00    -0.335 C  
HETATM   28  C   UNL     1     -11.467  12.543  65.822  1.00  0.00    -0.407 C  
HETATM   29  C   UNL     1     -10.504  13.638  65.604  1.00  0.00    -0.299 C  
HETATM   30  N   UNL     1      -9.874  14.241  66.564  1.00  0.00    -0.278 N  
HETATM   31  N   UNL     1     -10.233  14.046  64.326  1.00  0.00    -0.657 NA 
HETATM   32  H   UNL     1      -9.228  15.001  66.355  1.00  0.00     0.000 HD 
HETATM   33  C   UNL     1     -10.084  13.849  67.869  1.00  0.00    -0.242 C  
HETATM   34  H1  UNL     1      -9.567  14.802  64.175  1.00  0.00     0.000 HD 
HETATM   35  H2  UNL     1     -10.693  13.597  63.533  1.00  0.00     0.000 HD 
HETATM   36  O   UNL     1      -9.484  14.393  68.799  1.00  0.00    -0.205 OA 
ENDBRANCH  19  26
ENDBRANCH  16  17
ENDBRANCH  15  16
ENDBRANCH  12  15
ENDBRANCH  11  12
ENDBRANCH   8  11
ENDBRANCH   7   8
ENDBRANCH   6   7
ENDBRANCH   5   6
ENDBRANCH   2   5
TORSDOF 10
ENDMDL
MODEL      163
REMARK 921   NORMALIZED FREE ENERGY PREDICTED BY IDOCK:   -4.55 KCAL/MOL
REMARK 922        TOTAL FREE ENERGY PREDICTED BY IDOCK:   -8.15 KCAL/MOL
REMARK 923 INTER-LIGAND FREE ENERGY PREDICTED BY IDOCK:   -7.28 KCAL/MOL
REMARK 924 INTRA-LIGAND FREE ENERGY PREDICTED BY IDOCK:   -0.87 KCAL/MOL
REMARK 927      BINDING AFFINITY PREDICTED BY RF-SCORE:    0.00 PKD
ROOT
HETATM    1  C   UNL     1      -9.334   9.140  65.081  1.00  0.00    -0.110 C  
HETATM    2  N   UNL     1      -8.482  10.362  64.812  1.00  0.00    -0.175 N  
HETATM    3  C   UNL     1      -7.649  10.707  66.035  1.00  0.00    -0.142 C  
HETATM    4  C   UNL     1      -7.522  10.052  63.651  1.00  0.00    -0.137 C  
ENDROOT
BRANCH   2   5
HETATM    5  C   UNL     1      -9.434  11.526  64.443  1.00  0.00    -0.080 C  
BRANCH   5   6
HETATM    6  C   UNL     1     -10.800  11.096  63.939  1.00  0.00    -0.274 C  
BRANCH   6   7
HETATM    7  O   UNL     1     -11.467  12.210  63.381  1.00  0.00    -0.427 OA 
BRANCH   7   8
HETATM    8  P   UNL     1     -11.855  13.349  64.625  1.00  0.00    -0.441 P  
HETATM    9  O   UNL     1     -12.680  12.262  65.303  1.00  0.00    -0.543 OA 
HETATM   10  O   UNL     1     -12.499  14.231  63.549  1.00  0.00    -0.798 OA 
BRANCH   8  11
HETATM   11  O   UNL     1     -12.242  14.487  65.869  1.00  0.00    -0.349 OA 
BRANCH  11  12
HETATM   12  P   UNL     1     -11.809  13.828  67.408  1.00  0.00    -0.368 P  
HETATM   13  O   UNL     1     -10.266  13.654  66.858  1.00  0.00    -0.254 OA 
HETATM   14  O   UNL     1     -11.813  15.261  67.980  1.00  0.00    -0.314 OA 
BRANCH  12  15
HETATM   15  O   UNL     1     -11.375  13.168  68.948  1.00  0.00    -0.256 OA 
BRANCH  15  16
HETATM   16  C   UNL     1     -10.388  12.118  68.917  1.00  0.00    -0.073 C  
BRANCH  16  17
HETATM   17  C   UNL     1     -10.978  10.728  69.097  1.00  0.00    -0.244 C  
HETATM   18  O   UNL     1     -10.322   9.803  68.225  1.00  0.00    -0.179 OA 
HETATM   19  C   UNL     1     -10.522   8.502  68.779  1.00  0.00    -0.184 C  
HETATM   20  H   UNL     1     -11.962  10.156  72.154  1.00  0.00     0.000 HD 
HETATM   21  C   UNL     1     -10.667   8.681  70.306  1.00  0.00    -0.227 C  
HETATM   22  H   UNL     1     -11.856   8.048  71.796  1.00  0.00     0.000 HD 
HETATM   23  C   UNL     1     -10.867  10.181  70.507  1.00  0.00    -0.273 C  
HETATM   24  O   UNL     1     -11.767   7.939  70.856  1.00  0.00    -0.288 OA 
HETATM   25  O   UNL     1     -12.031  10.498  71.270  1.00  0.00    -0.345 OA 
BRANCH  19  26
HETATM   26  N   UNL     1      -9.446   7.599  68.365  1.00  0.00    -0.149 N  
HETATM   27  C   UNL     1      -9.715   6.406  67.736  1.00  0.00    -0.121 C  
HETATM   28  C   UNL     1      -8.746   5.542  67.456  1.00  0.00    -0.107 C  
HETATM   29  C   UNL     1      -7.389   5.942  67.871  1.00  0.00    -0.077 C  
HETATM   30  N   UNL     1      -7.122   7.065  68.463  1.00  0.00    -0.086 N  
HETATM   31  N   UNL     1      -6.342   5.091  67.643  1.00  0.00    -0.039 NA 
HETATM   32  H   UNL     1      -6.162   7.295  68.716  1.00  0.00     0.000 HD 
HETATM   33  C   UNL     1      -8.144   7.945  68.747  1.00  0.00    -0.126 C  
HETATM   34  H1  UNL     1      -5.404   5.368  67.930  1.00  0.00     0.000 HD 
HETATM   35  H2  UNL     1      -6.498   4.190  67.190  1.00  0.00     0.000 HD 
HETATM   36  O   UNL     1      -7.921   9.011  69.326  1.00  0.00    -0.092 OA 
ENDBRANCH  19  26
ENDBRANCH  16  17
ENDBRANCH  15  16
ENDBRANCH  12  15
ENDBRANCH  11  12
ENDBRANCH   8  11
ENDBRANCH   7   8
ENDBRANCH   6   7
ENDBRANCH   5   6
ENDBRANCH   2   5
TORSDOF 10
ENDMDL
MODEL      164
REMARK 921   NORMALIZED FREE ENERGY PREDICTED BY IDOCK:   -4.55 KCAL/MOL
REMARK 922        TOTAL FREE ENERGY PREDICTED BY IDOCK:   -8.14 KCAL/MOL
REMARK 923 INTER-LIGAND FREE ENERGY PREDICTED BY IDOCK:   -6.88 KCAL/MOL
REMARK 924 INTRA-LIGAND FREE ENERGY PREDICTED BY IDOCK:   -1.26 KCAL/MOL
REMARK 927      BINDING AFFINITY PREDICTED BY RF-SCORE:    0.00 PKD
ROOT
HETATM    1  C   UNL     1      -6.186   8.279  62.552  1.00  0.00    -0.087 C  
HETATM    2  N   UNL     1      -6.981   9.287  63.354  1.00  0.00    -0.090 N  
HETATM    3  C   UNL     1      -6.051  10.157  64.182  1.00  0.00    -0.137 C  
HETATM    4  C   UNL     1      -7.751  10.199  62.383  1.00  0.00    -0.135 C  
ENDROOT
BRANCH   2   5
HETATM    5  C   UNL     1      -7.959   8.500  64.261  1.00  0.00    -0.149 C  
BRANCH   5   6
HETATM    6  C   UNL     1      -7.292   7.656  65.333  1.00  0.00    -0.071 C  
BRANCH   6   7
HETATM    7  O   UNL     1      -7.575   6.291  65.098  1.00  0.00    -0.081 OA 
BRANCH   7   8
HETATM    8  P   UNL     1      -8.686   5.706  66.289  1.00  0.00    -0.139 P  
HETATM    9  O   UNL     1      -7.535   4.931  66.920  1.00  0.00    -0.084 OA 
HETATM   10  O   UNL     1      -9.494   5.072  65.151  1.00  0.00    -0.115 OA 
BRANCH   8  11
HETATM   11  O   UNL     1      -9.797   5.122  67.479  1.00  0.00    -0.144 OA 
BRANCH  11  12
HETATM   12  P   UNL     1     -10.539   6.462  68.281  1.00  0.00    -0.309 P  
HETATM   13  O   UNL     1      -9.256   6.507  69.314  1.00  0.00    -0.139 OA 
HETATM   14  O   UNL     1     -10.077   7.364  67.117  1.00  0.00    -0.195 OA 
BRANCH  12  15
HETATM   15  O   UNL     1     -11.281   7.803  69.085  1.00  0.00     0.076 OA 
BRANCH  15  16
HETATM   16  C   UNL     1     -10.540   8.350  70.193  1.00  0.00    -0.233 C  
BRANCH  16  17
HETATM   17  C   UNL     1     -10.637   9.864  70.298  1.00  0.00    -0.301 C  
HETATM   18  O   UNL     1     -10.047  10.472  69.146  1.00  0.00    -0.205 OA 
HETATM   19  C   UNL     1     -10.607  11.782  69.040  1.00  0.00    -0.136 C  
HETATM   20  H   UNL     1     -13.325  10.855  71.859  1.00  0.00     0.000 HD 
HETATM   21  C   UNL     1     -12.016  11.722  69.667  1.00  0.00    -0.312 C  
HETATM   22  H   UNL     1     -13.149  12.781  70.943  1.00  0.00     0.000 HD 
HETATM   23  C   UNL     1     -12.054  10.392  70.416  1.00  0.00    -0.315 C  
HETATM   24  O   UNL     1     -12.282  12.818  70.557  1.00  0.00    -0.368 OA 
HETATM   25  O   UNL     1     -12.437  10.525  71.785  1.00  0.00    -0.373 OA 
BRANCH  19  26
HETATM   26  N   UNL     1     -10.572  12.242  67.650  1.00  0.00    -0.211 N  
HETATM   27  C   UNL     1     -11.721  12.348  66.901  1.00  0.00    -0.362 C  
HETATM   28  C   UNL     1     -11.676  12.663  65.612  1.00  0.00    -0.458 C  
HETATM   29  C   UNL     1     -10.330  12.876  65.050  1.00  0.00    -0.315 C  
HETATM   30  N   UNL     1      -9.239  12.781  65.745  1.00  0.00    -0.447 N  
HETATM   31  N   UNL     1     -10.200  13.176  63.721  1.00  0.00    -0.706 NA 
HETATM   32  H   UNL     1      -8.335  12.951  65.306  1.00  0.00     0.000 HD 
HETATM   33  C   UNL     1      -9.309  12.448  67.081  1.00  0.00    -0.199 C  
HETATM   34  H1  UNL     1      -9.269  13.323  63.332  1.00  0.00     0.000 HD 
HETATM   35  H2  UNL     1     -11.025  13.252  63.126  1.00  0.00     0.000 HD 
HETATM   36  O   UNL     1      -8.287  12.333  67.761  1.00  0.00    -0.142 OA 
ENDBRANCH  19  26
ENDBRANCH  16  17
ENDBRANCH  15  16
ENDBRANCH  12  15
ENDBRANCH  11  12
ENDBRANCH   8  11
ENDBRANCH   7   8
ENDBRANCH   6   7
ENDBRANCH   5   6
ENDBRANCH   2   5
TORSDOF 10
ENDMDL
MODEL      165
REMARK 921   NORMALIZED FREE ENERGY PREDICTED BY IDOCK:   -4.54 KCAL/MOL
REMARK 922        TOTAL FREE ENERGY PREDICTED BY IDOCK:   -8.13 KCAL/MOL
REMARK 923 INTER-LIGAND FREE ENERGY PREDICTED BY IDOCK:   -7.64 KCAL/MOL
REMARK 924 INTRA-LIGAND FREE ENERGY PREDICTED BY IDOCK:   -0.50 KCAL/MOL
REMARK 927      BINDING AFFINITY PREDICTED BY RF-SCORE:    0.00 PKD
ROOT
HETATM    1  C   UNL     1      -7.380   6.487  69.317  1.00  0.00    -0.093 C  
HETATM    2  N   UNL     1      -8.163   5.718  70.359  1.00  0.00    -0.105 N  
HETATM    3  C   UNL     1      -7.784   4.247  70.327  1.00  0.00    -0.045 C  
HETATM    4  C   UNL     1      -7.816   6.272  71.751  1.00  0.00    -0.101 C  
ENDROOT
BRANCH   2   5
HETATM    5  C   UNL     1      -9.669   5.908  70.051  1.00  0.00    -0.167 C  
BRANCH   5   6
HETATM    6  C   UNL     1     -10.032   7.260  69.463  1.00  0.00    -0.170 C  
BRANCH   6   7
HETATM    7  O   UNL     1     -10.812   7.072  68.300  1.00  0.00    -0.198 OA 
BRANCH   7   8
HETATM    8  P   UNL     1     -10.104   7.924  66.971  1.00  0.00    -0.311 P  
HETATM    9  O   UNL     1      -9.472   6.613  66.522  1.00  0.00    -0.163 OA 
HETATM   10  O   UNL     1      -9.375   8.808  67.990  1.00  0.00    -0.141 OA 
BRANCH   8  11
HETATM   11  O   UNL     1      -9.396   8.777  65.642  1.00  0.00    -0.214 OA 
BRANCH  11  12
HETATM   12  P   UNL     1      -8.851  10.328  66.177  1.00  0.00    -0.162 P  
HETATM   13  O   UNL     1      -7.566  10.188  65.157  1.00  0.00    -0.134 OA 
HETATM   14  O   UNL     1      -9.933  10.973  65.285  1.00  0.00    -0.234 OA 
BRANCH  12  15
HETATM   15  O   UNL     1      -8.305  11.881  66.712  1.00  0.00    -0.178 OA 
BRANCH  15  16
HETATM   16  C   UNL     1      -8.836  12.323  67.977  1.00  0.00    -0.182 C  
BRANCH  16  17
HETATM   17  C   UNL     1      -9.860  13.440  67.846  1.00  0.00    -0.237 C  
HETATM   18  O   UNL     1     -10.797  13.372  68.924  1.00  0.00    -0.246 OA 
HETATM   19  C   UNL     1     -11.373  14.672  69.051  1.00  0.00    -0.277 C  
HETATM   20  H   UNL     1      -8.618  16.148  66.516  1.00  0.00     0.000 HD 
HETATM   21  C   UNL     1     -10.317  15.683  68.558  1.00  0.00    -0.219 C  
HETATM   22  H   UNL     1     -10.209  17.298  67.367  1.00  0.00     0.000 HD 
HETATM   23  C   UNL     1      -9.265  14.835  67.847  1.00  0.00    -0.191 C  
HETATM   24  O   UNL     1     -10.860  16.676  67.671  1.00  0.00    -0.324 OA 
HETATM   25  O   UNL     1      -8.991  15.274  66.516  1.00  0.00    -0.268 OA 
BRANCH  19  26
HETATM   26  N   UNL     1     -11.843  14.892  70.421  1.00  0.00    -0.280 N  
HETATM   27  C   UNL     1     -11.590  16.071  71.084  1.00  0.00    -0.443 C  
HETATM   28  C   UNL     1     -11.924  16.228  72.360  1.00  0.00    -0.630 C  
HETATM   29  C   UNL     1     -12.562  15.066  73.004  1.00  0.00    -0.437 C  
HETATM   30  N   UNL     1     -12.808  13.950  72.389  1.00  0.00    -0.314 N  
HETATM   31  N   UNL     1     -12.910  15.140  74.325  1.00  0.00    -0.562 NA 
HETATM   32  H   UNL     1     -13.264  13.183  72.882  1.00  0.00     0.000 HD 
HETATM   33  C   UNL     1     -12.449  13.808  71.066  1.00  0.00    -0.380 C  
HETATM   34  H1  UNL     1     -13.351  14.337  74.771  1.00  0.00     0.000 HD 
HETATM   35  H2  UNL     1     -12.729  15.991  74.859  1.00  0.00     0.000 HD 
HETATM   36  O   UNL     1     -12.654  12.751  70.463  1.00  0.00    -0.226 OA 
ENDBRANCH  19  26
ENDBRANCH  16  17
ENDBRANCH  15  16
ENDBRANCH  12  15
ENDBRANCH  11  12
ENDBRANCH   8  11
ENDBRANCH   7   8
ENDBRANCH   6   7
ENDBRANCH   5   6
ENDBRANCH   2   5
TORSDOF 10
ENDMDL
MODEL      166
REMARK 921   NORMALIZED FREE ENERGY PREDICTED BY IDOCK:   -4.49 KCAL/MOL
REMARK 922        TOTAL FREE ENERGY PREDICTED BY IDOCK:   -8.04 KCAL/MOL
REMARK 923 INTER-LIGAND FREE ENERGY PREDICTED BY IDOCK:   -7.19 KCAL/MOL
REMARK 924 INTRA-LIGAND FREE ENERGY PREDICTED BY IDOCK:   -0.85 KCAL/MOL
REMARK 927      BINDING AFFINITY PREDICTED BY RF-SCORE:    0.00 PKD
ROOT
HETATM    1  C   UNL     1     -10.968   4.209  73.495  1.00  0.00    -0.272 C  
HETATM    2  N   UNL     1     -10.334   5.521  73.084  1.00  0.00    -0.191 N  
HETATM    3  C   UNL     1     -10.248   6.463  74.273  1.00  0.00    -0.344 C  
HETATM    4  C   UNL     1      -8.905   5.247  72.586  1.00  0.00    -0.123 C  
ENDROOT
BRANCH   2   5
HETATM    5  C   UNL     1     -11.202   6.130  71.956  1.00  0.00    -0.286 C  
BRANCH   5   6
HETATM    6  C   UNL     1     -11.013   5.491  70.592  1.00  0.00    -0.120 C  
BRANCH   6   7
HETATM    7  O   UNL     1     -11.588   6.319  69.601  1.00  0.00    -0.430 OA 
BRANCH   7   8
HETATM    8  P   UNL     1     -10.414   6.688  68.386  1.00  0.00    -0.254 P  
HETATM    9  O   UNL     1     -11.486   6.434  67.333  1.00  0.00    -0.157 OA 
HETATM   10  O   UNL     1      -9.574   5.518  68.912  1.00  0.00    -0.123 OA 
BRANCH   8  11
HETATM   11  O   UNL     1      -9.239   7.058  67.170  1.00  0.00    -0.130 OA 
BRANCH  11  12
HETATM   12  P   UNL     1      -9.305   8.745  66.799  1.00  0.00    -0.213 P  
HETATM   13  O   UNL     1      -8.515   9.049  68.212  1.00  0.00    -0.127 OA 
HETATM   14  O   UNL     1      -8.151   8.531  65.797  1.00  0.00    -0.104 OA 
BRANCH  12  15
HETATM   15  O   UNL     1      -9.371  10.434  66.429  1.00  0.00    -0.158 OA 
BRANCH  15  16
HETATM   16  C   UNL     1      -9.643  11.304  67.545  1.00  0.00    -0.170 C  
BRANCH  16  17
HETATM   17  C   UNL     1     -10.331  12.601  67.148  1.00  0.00    -0.231 C  
HETATM   18  O   UNL     1      -9.842  13.679  67.951  1.00  0.00    -0.224 OA 
HETATM   19  C   UNL     1     -10.101  14.882  67.226  1.00  0.00    -0.235 C  
HETATM   20  H   UNL     1     -11.070  12.721  63.973  1.00  0.00     0.000 HD 
HETATM   21  C   UNL     1     -10.086  14.517  65.727  1.00  0.00    -0.342 C  
HETATM   22  H   UNL     1     -11.181  14.856  64.077  1.00  0.00     0.000 HD 
HETATM   23  C   UNL     1     -10.136  12.991  65.695  1.00  0.00    -0.268 C  
HETATM   24  O   UNL     1     -11.190  15.081  65.000  1.00  0.00    -0.370 OA 
HETATM   25  O   UNL     1     -11.192  12.477  64.883  1.00  0.00    -0.290 OA 
BRANCH  19  26
HETATM   26  N   UNL     1      -9.150  15.927  67.614  1.00  0.00    -0.197 N  
HETATM   27  C   UNL     1      -7.794  15.692  67.630  1.00  0.00    -0.154 C  
HETATM   28  C   UNL     1      -6.943  16.605  68.082  1.00  0.00    -0.156 C  
HETATM   29  C   UNL     1      -7.545  17.860  68.567  1.00  0.00    -0.289 C  
HETATM   30  N   UNL     1      -8.821  18.095  68.555  1.00  0.00    -0.306 N  
HETATM   31  N   UNL     1      -6.734  18.839  69.074  1.00  0.00    -0.277 NA 
HETATM   32  H   UNL     1      -9.181  18.987  68.892  1.00  0.00     0.000 HD 
HETATM   33  C   UNL     1      -9.687  17.131  68.085  1.00  0.00    -0.276 C  
HETATM   34  H1  UNL     1      -7.151  19.707  69.410  1.00  0.00     0.000 HD 
HETATM   35  H2  UNL     1      -5.724  18.701  69.116  1.00  0.00     0.000 HD 
HETATM   36  O   UNL     1     -10.905  17.320  68.081  1.00  0.00    -0.375 OA 
ENDBRANCH  19  26
ENDBRANCH  16  17
ENDBRANCH  15  16
ENDBRANCH  12  15
ENDBRANCH  11  12
ENDBRANCH   8  11
ENDBRANCH   7   8
ENDBRANCH   6   7
ENDBRANCH   5   6
ENDBRANCH   2   5
TORSDOF 10
ENDMDL
MODEL      167
REMARK 921   NORMALIZED FREE ENERGY PREDICTED BY IDOCK:   -4.48 KCAL/MOL
REMARK 922        TOTAL FREE ENERGY PREDICTED BY IDOCK:   -8.03 KCAL/MOL
REMARK 923 INTER-LIGAND FREE ENERGY PREDICTED BY IDOCK:   -6.85 KCAL/MOL
REMARK 924 INTRA-LIGAND FREE ENERGY PREDICTED BY IDOCK:   -1.18 KCAL/MOL
REMARK 927      BINDING AFFINITY PREDICTED BY RF-SCORE:    0.00 PKD
ROOT
HETATM    1  C   UNL     1     -10.517   4.342  73.403  1.00  0.00    -0.190 C  
HETATM    2  N   UNL     1     -10.409   5.764  72.898  1.00  0.00    -0.190 N  
HETATM    3  C   UNL     1     -11.685   6.170  72.181  1.00  0.00    -0.309 C  
HETATM    4  C   UNL     1     -10.214   6.705  74.099  1.00  0.00    -0.363 C  
ENDROOT
BRANCH   2   5
HETATM    5  C   UNL     1      -9.191   5.833  71.943  1.00  0.00    -0.144 C  
BRANCH   5   6
HETATM    6  C   UNL     1      -7.915   6.358  72.576  1.00  0.00    -0.102 C  
BRANCH   6   7
HETATM    7  O   UNL     1      -7.675   7.676  72.124  1.00  0.00    -0.082 OA 
BRANCH   7   8
HETATM    8  P   UNL     1      -8.588   7.981  70.686  1.00  0.00    -0.136 P  
HETATM    9  O   UNL     1      -7.291   7.883  69.893  1.00  0.00    -0.071 OA 
HETATM   10  O   UNL     1      -9.006   9.324  71.295  1.00  0.00    -0.285 OA 
BRANCH   8  11
HETATM   11  O   UNL     1      -9.501   8.285  69.248  1.00  0.00    -0.154 OA 
BRANCH  11  12
HETATM   12  P   UNL     1      -9.594   9.991  68.975  1.00  0.00    -0.219 P  
HETATM   13  O   UNL     1      -8.770   9.773  67.566  1.00  0.00    -0.125 OA 
HETATM   14  O   UNL     1     -11.066   9.803  68.548  1.00  0.00    -0.184 OA 
BRANCH  12  15
HETATM   15  O   UNL     1      -9.687  11.697  68.701  1.00  0.00    -0.192 OA 
BRANCH  15  16
HETATM   16  C   UNL     1      -9.848  12.097  67.326  1.00  0.00    -0.196 C  
BRANCH  16  17
HETATM   17  C   UNL     1      -8.794  13.087  66.856  1.00  0.00    -0.180 C  
HETATM   18  O   UNL     1      -9.383  14.377  66.673  1.00  0.00    -0.258 OA 
HETATM   19  C   UNL     1      -8.321  15.329  66.750  1.00  0.00    -0.223 C  
HETATM   20  H   UNL     1      -5.833  12.455  68.071  1.00  0.00     0.000 HD 
HETATM   21  C   UNL     1      -7.236  14.720  67.664  1.00  0.00    -0.188 C  
HETATM   22  H   UNL     1      -5.242  14.476  67.689  1.00  0.00     0.000 HD 
HETATM   23  C   UNL     1      -7.624  13.251  67.808  1.00  0.00    -0.161 C  
HETATM   24  O   UNL     1      -5.910  14.850  67.126  1.00  0.00    -0.230 OA 
HETATM   25  O   UNL     1      -6.566  12.352  67.475  1.00  0.00    -0.116 OA 
BRANCH  19  26
HETATM   26  N   UNL     1      -8.832  16.631  67.184  1.00  0.00    -0.188 N  
HETATM   27  C   UNL     1      -9.844  16.731  68.111  1.00  0.00    -0.264 C  
HETATM   28  C   UNL     1     -10.377  17.906  68.424  1.00  0.00    -0.380 C  
HETATM   29  C   UNL     1      -9.823  19.072  67.712  1.00  0.00    -0.336 C  
HETATM   30  N   UNL     1      -8.867  18.992  66.838  1.00  0.00    -0.291 N  
HETATM   31  N   UNL     1     -10.340  20.315  67.959  1.00  0.00    -0.316 NA 
HETATM   32  H   UNL     1      -8.514  19.834  66.385  1.00  0.00     0.000 HD 
HETATM   33  C   UNL     1      -8.332  17.761  66.525  1.00  0.00    -0.265 C  
HETATM   34  H1  UNL     1      -9.957  21.121  67.467  1.00  0.00     0.000 HD 
HETATM   35  H2  UNL     1     -11.100  20.433  68.630  1.00  0.00     0.000 HD 
HETATM   36  O   UNL     1      -7.436  17.654  65.685  1.00  0.00    -0.508 OA 
ENDBRANCH  19  26
ENDBRANCH  16  17
ENDBRANCH  15  16
ENDBRANCH  12  15
ENDBRANCH  11  12
ENDBRANCH   8  11
ENDBRANCH   7   8
ENDBRANCH   6   7
ENDBRANCH   5   6
ENDBRANCH   2   5
TORSDOF 10
ENDMDL
MODEL      168
REMARK 921   NORMALIZED FREE ENERGY PREDICTED BY IDOCK:   -4.48 KCAL/MOL
REMARK 922        TOTAL FREE ENERGY PREDICTED BY IDOCK:   -8.03 KCAL/MOL
REMARK 923 INTER-LIGAND FREE ENERGY PREDICTED BY IDOCK:   -7.14 KCAL/MOL
REMARK 924 INTRA-LIGAND FREE ENERGY PREDICTED BY IDOCK:   -0.89 KCAL/MOL
REMARK 927      BINDING AFFINITY PREDICTED BY RF-SCORE:    0.00 PKD
ROOT
HETATM    1  C   UNL     1     -10.003   4.897  72.552  1.00  0.00    -0.173 C  
HETATM    2  N   UNL     1      -9.959   6.390  72.799  1.00  0.00    -0.170 N  
HETATM    3  C   UNL     1     -10.483   6.713  74.188  1.00  0.00    -0.224 C  
HETATM    4  C   UNL     1      -8.498   6.864  72.716  1.00  0.00    -0.116 C  
ENDROOT
BRANCH   2   5
HETATM    5  C   UNL     1     -10.821   7.072  71.709  1.00  0.00    -0.223 C  
BRANCH   5   6
HETATM    6  C   UNL     1     -10.216   7.057  70.316  1.00  0.00    -0.193 C  
BRANCH   6   7
HETATM    7  O   UNL     1     -10.766   8.113  69.554  1.00  0.00    -0.227 OA 
BRANCH   7   8
HETATM    8  P   UNL     1      -9.601   8.680  68.407  1.00  0.00    -0.154 P  
HETATM    9  O   UNL     1     -10.711   8.721  67.364  1.00  0.00    -0.267 OA 
HETATM   10  O   UNL     1      -8.819   7.381  68.633  1.00  0.00    -0.128 OA 
BRANCH   8  11
HETATM   11  O   UNL     1      -8.436   9.248  67.260  1.00  0.00    -0.123 OA 
BRANCH  11  12
HETATM   12  P   UNL     1      -8.554  10.967  67.123  1.00  0.00    -0.143 P  
HETATM   13  O   UNL     1      -8.111  11.087  68.705  1.00  0.00    -0.134 OA 
HETATM   14  O   UNL     1      -7.199  10.963  66.384  1.00  0.00    -0.134 OA 
BRANCH  12  15
HETATM   15  O   UNL     1      -8.672  12.688  66.987  1.00  0.00    -0.197 OA 
BRANCH  15  16
HETATM   16  C   UNL     1      -9.636  13.315  67.856  1.00  0.00    -0.217 C  
BRANCH  16  17
HETATM   17  C   UNL     1     -10.005  14.728  67.431  1.00  0.00    -0.223 C  
HETATM   18  O   UNL     1      -9.419  15.676  68.326  1.00  0.00    -0.196 OA 
HETATM   19  C   UNL     1      -9.349  16.917  67.622  1.00  0.00    -0.233 C  
HETATM   20  H   UNL     1     -10.312  15.037  64.197  1.00  0.00     0.000 HD 
HETATM   21  C   UNL     1      -9.222  16.578  66.122  1.00  0.00    -0.303 C  
HETATM   22  H   UNL     1     -10.020  17.150  64.369  1.00  0.00     0.000 HD 
HETATM   23  C   UNL     1      -9.562  15.093  66.027  1.00  0.00    -0.330 C  
HETATM   24  O   UNL     1     -10.098  17.359  65.293  1.00  0.00    -0.414 OA 
HETATM   25  O   UNL     1     -10.590  14.808  65.077  1.00  0.00    -0.386 OA 
BRANCH  19  26
HETATM   26  N   UNL     1      -8.269  17.749  68.159  1.00  0.00    -0.251 N  
HETATM   27  C   UNL     1      -7.168  17.189  68.766  1.00  0.00    -0.232 C  
HETATM   28  C   UNL     1      -6.242  17.946  69.344  1.00  0.00    -0.248 C  
HETATM   29  C   UNL     1      -6.481  19.400  69.299  1.00  0.00    -0.312 C  
HETATM   30  N   UNL     1      -7.513  19.939  68.728  1.00  0.00    -0.271 N  
HETATM   31  N   UNL     1      -5.586  20.243  69.898  1.00  0.00    -0.282 NA 
HETATM   32  H   UNL     1      -7.621  20.953  68.716  1.00  0.00     0.000 HD 
HETATM   33  C   UNL     1      -8.464  19.135  68.137  1.00  0.00    -0.320 C  
HETATM   34  H1  UNL     1      -5.751  21.249  69.867  1.00  0.00     0.000 HD 
HETATM   35  H2  UNL     1      -4.762  19.870  70.370  1.00  0.00     0.000 HD 
HETATM   36  O   UNL     1      -9.464  19.621  67.604  1.00  0.00    -0.314 OA 
ENDBRANCH  19  26
ENDBRANCH  16  17
ENDBRANCH  15  16
ENDBRANCH  12  15
ENDBRANCH  11  12
ENDBRANCH   8  11
ENDBRANCH   7   8
ENDBRANCH   6   7
ENDBRANCH   5   6
ENDBRANCH   2   5
TORSDOF 10
ENDMDL
MODEL      169
REMARK 921   NORMALIZED FREE ENERGY PREDICTED BY IDOCK:   -4.47 KCAL/MOL
REMARK 922        TOTAL FREE ENERGY PREDICTED BY IDOCK:   -8.01 KCAL/MOL
REMARK 923 INTER-LIGAND FREE ENERGY PREDICTED BY IDOCK:   -7.12 KCAL/MOL
REMARK 924 INTRA-LIGAND FREE ENERGY PREDICTED BY IDOCK:   -0.90 KCAL/MOL
REMARK 927      BINDING AFFINITY PREDICTED BY RF-SCORE:    0.00 PKD
ROOT
HETATM    1  C   UNL     1      -7.222   3.110  65.437  1.00  0.00    -0.067 C  
HETATM    2  N   UNL     1      -8.599   3.452  65.964  1.00  0.00    -0.114 N  
HETATM    3  C   UNL     1      -9.557   3.710  64.813  1.00  0.00    -0.173 C  
HETATM    4  C   UNL     1      -9.132   2.257  66.772  1.00  0.00    -0.080 C  
ENDROOT
BRANCH   2   5
HETATM    5  C   UNL     1      -8.462   4.706  66.862  1.00  0.00    -0.105 C  
BRANCH   5   6
HETATM    6  C   UNL     1      -9.246   4.648  68.160  1.00  0.00    -0.128 C  
BRANCH   6   7
HETATM    7  O   UNL     1     -10.416   5.431  68.037  1.00  0.00    -0.180 OA 
BRANCH   7   8
HETATM    8  P   UNL     1     -10.538   6.523  69.374  1.00  0.00    -0.304 P  
HETATM    9  O   UNL     1     -10.041   7.633  68.456  1.00  0.00    -0.178 OA 
HETATM   10  O   UNL     1      -9.527   5.645  70.120  1.00  0.00    -0.152 OA 
BRANCH   8  11
HETATM   11  O   UNL     1     -10.660   7.616  70.710  1.00  0.00    -0.216 OA 
BRANCH  11  12
HETATM   12  P   UNL     1     -11.063   9.193  70.128  1.00  0.00    -0.138 P  
HETATM   13  O   UNL     1     -12.083   9.365  71.410  1.00  0.00    -0.315 OA 
HETATM   14  O   UNL     1      -9.717   9.701  70.687  1.00  0.00    -0.257 OA 
BRANCH  12  15
HETATM   15  O   UNL     1     -11.468  10.773  69.548  1.00  0.00    -0.246 OA 
BRANCH  15  16
HETATM   16  C   UNL     1     -11.027  11.073  68.209  1.00  0.00    -0.235 C  
BRANCH  16  17
HETATM   17  C   UNL     1     -11.434  12.460  67.735  1.00  0.00    -0.324 C  
HETATM   18  O   UNL     1     -10.707  13.456  68.458  1.00  0.00    -0.250 OA 
HETATM   19  C   UNL     1     -10.723  14.639  67.657  1.00  0.00    -0.271 C  
HETATM   20  H   UNL     1     -12.215  12.536  64.568  1.00  0.00     0.000 HD 
HETATM   21  C   UNL     1     -10.826  14.186  66.186  1.00  0.00    -0.296 C  
HETATM   22  H   UNL     1     -11.868  14.647  64.531  1.00  0.00     0.000 HD 
HETATM   23  C   UNL     1     -11.199  12.707  66.257  1.00  0.00    -0.311 C  
HETATM   24  O   UNL     1     -11.804  14.926  65.437  1.00  0.00    -0.299 OA 
HETATM   25  O   UNL     1     -12.362  12.381  65.494  1.00  0.00    -0.621 OA 
BRANCH  19  26
HETATM   26  N   UNL     1      -9.562  15.479  67.963  1.00  0.00    -0.202 N  
HETATM   27  C   UNL     1      -8.305  14.939  68.106  1.00  0.00    -0.144 C  
HETATM   28  C   UNL     1      -7.275  15.685  68.486  1.00  0.00    -0.120 C  
HETATM   29  C   UNL     1      -7.573  17.105  68.748  1.00  0.00    -0.259 C  
HETATM   30  N   UNL     1      -8.753  17.627  68.615  1.00  0.00    -0.289 N  
HETATM   31  N   UNL     1      -6.568  17.932  69.171  1.00  0.00    -0.239 NA 
HETATM   32  H   UNL     1      -8.898  18.619  68.798  1.00  0.00     0.000 HD 
HETATM   33  C   UNL     1      -9.809  16.832  68.223  1.00  0.00    -0.257 C  
HETATM   34  H1  UNL     1      -6.774  18.914  69.353  1.00  0.00     0.000 HD 
HETATM   35  H2  UNL     1      -5.623  17.571  69.302  1.00  0.00     0.000 HD 
HETATM   36  O   UNL     1     -10.945  17.299  68.107  1.00  0.00    -0.347 OA 
ENDBRANCH  19  26
ENDBRANCH  16  17
ENDBRANCH  15  16
ENDBRANCH  12  15
ENDBRANCH  11  12
ENDBRANCH   8  11
ENDBRANCH   7   8
ENDBRANCH   6   7
ENDBRANCH   5   6
ENDBRANCH   2   5
TORSDOF 10
ENDMDL
MODEL      170
REMARK 921   NORMALIZED FREE ENERGY PREDICTED BY IDOCK:   -4.46 KCAL/MOL
REMARK 922        TOTAL FREE ENERGY PREDICTED BY IDOCK:   -8.01 KCAL/MOL
REMARK 923 INTER-LIGAND FREE ENERGY PREDICTED BY IDOCK:   -7.32 KCAL/MOL
REMARK 924 INTRA-LIGAND FREE ENERGY PREDICTED BY IDOCK:   -0.69 KCAL/MOL
REMARK 927      BINDING AFFINITY PREDICTED BY RF-SCORE:    0.00 PKD
ROOT
HETATM    1  C   UNL     1      -8.653   7.459  72.523  1.00  0.00    -0.113 C  
HETATM    2  N   UNL     1      -9.650   6.354  72.800  1.00  0.00    -0.150 N  
HETATM    3  C   UNL     1     -10.188   6.467  74.216  1.00  0.00    -0.350 C  
HETATM    4  C   UNL     1     -10.832   6.495  71.825  1.00  0.00    -0.238 C  
ENDROOT
BRANCH   2   5
HETATM    5  C   UNL     1      -8.923   5.002  72.590  1.00  0.00    -0.125 C  
BRANCH   5   6
HETATM    6  C   UNL     1      -8.367   4.789  71.194  1.00  0.00    -0.105 C  
BRANCH   6   7
HETATM    7  O   UNL     1      -8.426   3.414  70.869  1.00  0.00    -0.064 OA 
BRANCH   7   8
HETATM    8  P   UNL     1      -8.905   3.218  69.219  1.00  0.00    -0.127 P  
HETATM    9  O   UNL     1      -9.893   2.152  69.677  1.00  0.00     0.066 OA 
HETATM   10  O   UNL     1      -7.459   2.825  68.896  1.00  0.00    -0.048 OA 
BRANCH   8  11
HETATM   11  O   UNL     1      -9.385   3.023  67.568  1.00  0.00    -0.191 OA 
BRANCH  11  12
HETATM   12  P   UNL     1      -9.713   4.573  66.876  1.00  0.00    -0.198 P  
HETATM   13  O   UNL     1     -10.365   5.037  68.316  1.00  0.00    -0.116 OA 
HETATM   14  O   UNL     1      -8.219   4.922  67.045  1.00  0.00    -0.107 OA 
BRANCH  12  15
HETATM   15  O   UNL     1     -10.042   6.125  66.185  1.00  0.00    -0.033 OA 
BRANCH  15  16
HETATM   16  C   UNL     1     -10.780   7.035  67.024  1.00  0.00    -0.353 C  
BRANCH  16  17
HETATM   17  C   UNL     1     -10.076   8.366  67.239  1.00  0.00    -0.253 C  
HETATM   18  O   UNL     1     -10.192   9.174  66.065  1.00  0.00    -0.256 OA 
HETATM   19  C   UNL     1     -10.000  10.528  66.477  1.00  0.00    -0.214 C  
HETATM   20  H   UNL     1     -10.229   9.394  70.331  1.00  0.00     0.000 HD 
HETATM   21  C   UNL     1     -10.470  10.624  67.944  1.00  0.00    -0.208 C  
HETATM   22  H   UNL     1      -9.837  11.397  69.688  1.00  0.00     0.000 HD 
HETATM   23  C   UNL     1     -10.615   9.175  68.404  1.00  0.00    -0.172 C  
HETATM   24  O   UNL     1      -9.548  11.338  68.784  1.00  0.00    -0.192 OA 
HETATM   25  O   UNL     1      -9.892   8.887  69.602  1.00  0.00    -0.173 OA 
BRANCH  19  26
HETATM   26  N   UNL     1     -10.674  11.444  65.555  1.00  0.00    -0.272 N  
HETATM   27  C   UNL     1     -11.714  12.243  65.970  1.00  0.00    -0.388 C  
HETATM   28  C   UNL     1     -12.392  12.994  65.110  1.00  0.00    -0.536 C  
HETATM   29  C   UNL     1     -11.964  12.903  63.702  1.00  0.00    -0.541 C  
HETATM   30  N   UNL     1     -10.983  12.155  63.298  1.00  0.00    -0.673 N  
HETATM   31  N   UNL     1     -12.632  13.625  62.752  1.00  0.00    -0.640 NA 
HETATM   32  H   UNL     1     -10.723  12.141  62.313  1.00  0.00     0.000 HD 
HETATM   33  C   UNL     1     -10.296  11.381  64.208  1.00  0.00    -0.328 C  
HETATM   34  H1  UNL     1     -12.336  13.562  61.778  1.00  0.00     0.000 HD 
HETATM   35  H2  UNL     1     -13.418  14.221  63.015  1.00  0.00     0.000 HD 
HETATM   36  O   UNL     1      -9.373  10.648  63.847  1.00  0.00    -0.221 OA 
ENDBRANCH  19  26
ENDBRANCH  16  17
ENDBRANCH  15  16
ENDBRANCH  12  15
ENDBRANCH  11  12
ENDBRANCH   8  11
ENDBRANCH   7   8
ENDBRANCH   6   7
ENDBRANCH   5   6
ENDBRANCH   2   5
TORSDOF 10
ENDMDL
MODEL      171
REMARK 921   NORMALIZED FREE ENERGY PREDICTED BY IDOCK:   -4.46 KCAL/MOL
REMARK 922        TOTAL FREE ENERGY PREDICTED BY IDOCK:   -8.00 KCAL/MOL
REMARK 923 INTER-LIGAND FREE ENERGY PREDICTED BY IDOCK:   -7.93 KCAL/MOL
REMARK 924 INTRA-LIGAND FREE ENERGY PREDICTED BY IDOCK:   -0.07 KCAL/MOL
REMARK 927      BINDING AFFINITY PREDICTED BY RF-SCORE:    0.00 PKD
ROOT
HETATM    1  C   UNL     1      -7.277  19.649  69.033  1.00  0.00    -0.344 C  
HETATM    2  N   UNL     1      -7.465  19.868  67.547  1.00  0.00    -0.269 N  
HETATM    3  C   UNL     1      -8.798  20.545  67.276  1.00  0.00    -0.291 C  
HETATM    4  C   UNL     1      -6.346  20.790  67.035  1.00  0.00    -0.272 C  
ENDROOT
BRANCH   2   5
HETATM    5  C   UNL     1      -7.396  18.484  66.856  1.00  0.00    -0.212 C  
BRANCH   5   6
HETATM    6  C   UNL     1      -8.680  18.050  66.170  1.00  0.00    -0.088 C  
BRANCH   6   7
HETATM    7  O   UNL     1      -9.508  17.384  67.103  1.00  0.00    -0.248 OA 
BRANCH   7   8
HETATM    8  P   UNL     1     -10.151  15.942  66.395  1.00  0.00    -0.331 P  
HETATM    9  O   UNL     1     -10.720  16.799  65.271  1.00  0.00    -0.576 OA 
HETATM   10  O   UNL     1     -10.965  15.735  67.678  1.00  0.00    -0.311 OA 
BRANCH   8  11
HETATM   11  O   UNL     1     -10.794  14.500  65.687  1.00  0.00    -0.301 OA 
BRANCH  11  12
HETATM   12  P   UNL     1     -11.335  13.436  66.939  1.00  0.00    -0.356 P  
HETATM   13  O   UNL     1     -12.541  12.931  65.937  1.00  0.00    -0.509 OA 
HETATM   14  O   UNL     1     -10.170  12.488  66.583  1.00  0.00    -0.225 OA 
BRANCH  12  15
HETATM   15  O   UNL     1     -11.877  12.371  68.190  1.00  0.00    -0.338 OA 
BRANCH  15  16
HETATM   16  C   UNL     1     -11.097  11.173  68.367  1.00  0.00    -0.247 C  
BRANCH  16  17
HETATM   17  C   UNL     1     -11.728  10.176  69.326  1.00  0.00     0.003 C  
HETATM   18  O   UNL     1     -10.988   8.952  69.315  1.00  0.00    -0.144 OA 
HETATM   19  C   UNL     1     -11.277   8.286  70.545  1.00  0.00    -0.239 C  
HETATM   20  H   UNL     1     -13.086  11.605  71.926  1.00  0.00     0.000 HD 
HETATM   21  C   UNL     1     -11.602   9.380  71.584  1.00  0.00    -0.396 C  
HETATM   22  H   UNL     1     -12.975   9.758  73.002  1.00  0.00     0.000 HD 
HETATM   23  C   UNL     1     -11.799  10.652  70.764  1.00  0.00    -0.357 C  
HETATM   24  O   UNL     1     -12.774   9.085  72.362  1.00  0.00    -0.392 OA 
HETATM   25  O   UNL     1     -13.042  11.306  71.025  1.00  0.00    -0.263 OA 
BRANCH  19  26
HETATM   26  N   UNL     1     -10.174   7.395  70.915  1.00  0.00    -0.193 N  
HETATM   27  C   UNL     1     -10.385   6.058  71.161  1.00  0.00    -0.214 C  
HETATM   28  C   UNL     1      -9.405   5.276  71.598  1.00  0.00    -0.178 C  
HETATM   29  C   UNL     1      -8.103   5.934  71.806  1.00  0.00    -0.118 C  
HETATM   30  N   UNL     1      -7.890   7.193  71.575  1.00  0.00    -0.093 N  
HETATM   31  N   UNL     1      -7.051   5.200  72.282  1.00  0.00    -0.081 NA 
HETATM   32  H   UNL     1      -6.964   7.592  71.725  1.00  0.00     0.000 HD 
HETATM   33  C   UNL     1      -8.923   7.987  71.126  1.00  0.00    -0.141 C  
HETATM   34  H1  UNL     1      -6.150   5.655  72.426  1.00  0.00     0.000 HD 
HETATM   35  H2  UNL     1      -7.166   4.207  72.490  1.00  0.00     0.000 HD 
HETATM   36  O   UNL     1      -8.753   9.191  70.917  1.00  0.00    -0.208 OA 
ENDBRANCH  19  26
ENDBRANCH  16  17
ENDBRANCH  15  16
ENDBRANCH  12  15
ENDBRANCH  11  12
ENDBRANCH   8  11
ENDBRANCH   7   8
ENDBRANCH   6   7
ENDBRANCH   5   6
ENDBRANCH   2   5
TORSDOF 10
ENDMDL
MODEL      172
REMARK 921   NORMALIZED FREE ENERGY PREDICTED BY IDOCK:   -4.44 KCAL/MOL
REMARK 922        TOTAL FREE ENERGY PREDICTED BY IDOCK:   -7.97 KCAL/MOL
REMARK 923 INTER-LIGAND FREE ENERGY PREDICTED BY IDOCK:   -7.60 KCAL/MOL
REMARK 924 INTRA-LIGAND FREE ENERGY PREDICTED BY IDOCK:   -0.38 KCAL/MOL
REMARK 927      BINDING AFFINITY PREDICTED BY RF-SCORE:    0.00 PKD
ROOT
HETATM    1  C   UNL     1      -8.926   6.572  69.822  1.00  0.00    -0.142 C  
HETATM    2  N   UNL     1      -9.439   5.947  68.542  1.00  0.00    -0.120 N  
HETATM    3  C   UNL     1      -9.330   4.434  68.610  1.00  0.00    -0.147 C  
HETATM    4  C   UNL     1     -10.923   6.314  68.370  1.00  0.00    -0.325 C  
ENDROOT
BRANCH   2   5
HETATM    5  C   UNL     1      -8.595   6.512  67.373  1.00  0.00    -0.118 C  
BRANCH   5   6
HETATM    6  C   UNL     1      -9.376   7.330  66.361  1.00  0.00    -0.150 C  
BRANCH   6   7
HETATM    7  O   UNL     1      -9.879   8.494  66.986  1.00  0.00    -0.181 OA 
BRANCH   7   8
HETATM    8  P   UNL     1      -8.658   9.721  67.017  1.00  0.00    -0.123 P  
HETATM    9  O   UNL     1      -9.677  10.658  67.653  1.00  0.00    -0.162 OA 
HETATM   10  O   UNL     1      -8.578   9.610  65.490  1.00  0.00    -0.134 OA 
BRANCH   8  11
HETATM   11  O   UNL     1      -7.438  10.946  67.048  1.00  0.00    -0.109 OA 
BRANCH  11  12
HETATM   12  P   UNL     1      -8.044  12.342  67.869  1.00  0.00    -0.187 P  
HETATM   13  O   UNL     1      -7.183  11.888  69.198  1.00  0.00    -0.096 OA 
HETATM   14  O   UNL     1      -7.033  13.199  67.078  1.00  0.00    -0.019 OA 
BRANCH  12  15
HETATM   15  O   UNL     1      -8.649  13.738  68.693  1.00  0.00    -0.148 OA 
BRANCH  15  16
HETATM   16  C   UNL     1      -9.668  14.479  67.992  1.00  0.00    -0.218 C  
BRANCH  16  17
HETATM   17  C   UNL     1     -10.931  14.694  68.811  1.00  0.00    -0.258 C  
HETATM   18  O   UNL     1     -11.567  13.439  69.066  1.00  0.00    -0.268 OA 
HETATM   19  C   UNL     1     -12.394  13.624  70.216  1.00  0.00    -0.322 C  
HETATM   20  H   UNL     1     -10.686  17.207  70.878  1.00  0.00     0.000 HD 
HETATM   21  C   UNL     1     -11.741  14.733  71.068  1.00  0.00    -0.306 C  
HETATM   22  H   UNL     1     -12.281  16.398  72.054  1.00  0.00     0.000 HD 
HETATM   23  C   UNL     1     -10.698  15.367  70.151  1.00  0.00    -0.308 C  
HETATM   24  O   UNL     1     -12.683  15.715  71.529  1.00  0.00    -0.405 OA 
HETATM   25  O   UNL     1     -10.832  16.785  70.039  1.00  0.00    -0.282 OA 
BRANCH  19  26
HETATM   26  N   UNL     1     -12.593  12.350  70.912  1.00  0.00    -0.310 N  
HETATM   27  C   UNL     1     -11.938  11.207  70.515  1.00  0.00    -0.380 C  
HETATM   28  C   UNL     1     -12.199  10.034  71.080  1.00  0.00    -0.462 C  
HETATM   29  C   UNL     1     -13.229  10.043  72.134  1.00  0.00    -0.390 C  
HETATM   30  N   UNL     1     -13.851  11.114  72.519  1.00  0.00    -0.073 N  
HETATM   31  N   UNL     1     -13.573   8.867  72.744  1.00  0.00    -0.835 NA 
HETATM   32  H   UNL     1     -14.546  11.064  73.263  1.00  0.00     0.000 HD 
HETATM   33  C   UNL     1     -13.568  12.321  71.917  1.00  0.00    -0.099 C  
HETATM   34  H1  UNL     1     -14.286   8.874  73.473  1.00  0.00     0.000 HD 
HETATM   35  H2  UNL     1     -13.122   7.994  72.471  1.00  0.00     0.000 HD 
HETATM   36  O   UNL     1     -14.158  13.351  72.250  1.00  0.00    -0.519 OA 
ENDBRANCH  19  26
ENDBRANCH  16  17
ENDBRANCH  15  16
ENDBRANCH  12  15
ENDBRANCH  11  12
ENDBRANCH   8  11
ENDBRANCH   7   8
ENDBRANCH   6   7
ENDBRANCH   5   6
ENDBRANCH   2   5
TORSDOF 10
ENDMDL
MODEL      173
REMARK 921   NORMALIZED FREE ENERGY PREDICTED BY IDOCK:   -4.44 KCAL/MOL
REMARK 922        TOTAL FREE ENERGY PREDICTED BY IDOCK:   -7.97 KCAL/MOL
REMARK 923 INTER-LIGAND FREE ENERGY PREDICTED BY IDOCK:   -8.35 KCAL/MOL
REMARK 924 INTRA-LIGAND FREE ENERGY PREDICTED BY IDOCK:    0.38 KCAL/MOL
REMARK 927      BINDING AFFINITY PREDICTED BY RF-SCORE:    0.00 PKD
ROOT
HETATM    1  C   UNL     1     -12.293   9.656  71.395  1.00  0.00    -0.378 C  
HETATM    2  N   UNL     1     -11.468   8.392  71.288  1.00  0.00    -0.271 N  
HETATM    3  C   UNL     1     -10.549   8.256  72.491  1.00  0.00    -0.337 C  
HETATM    4  C   UNL     1     -12.415   7.180  71.269  1.00  0.00    -0.386 C  
ENDROOT
BRANCH   2   5
HETATM    5  C   UNL     1     -10.652   8.472  69.974  1.00  0.00    -0.227 C  
BRANCH   5   6
HETATM    6  C   UNL     1      -9.168   8.734  70.162  1.00  0.00    -0.169 C  
BRANCH   6   7
HETATM    7  O   UNL     1      -8.427   7.816  69.383  1.00  0.00    -0.131 OA 
BRANCH   7   8
HETATM    8  P   UNL     1      -8.376   8.347  67.737  1.00  0.00    -0.131 P  
HETATM    9  O   UNL     1      -8.763   6.935  67.314  1.00  0.00    -0.119 OA 
HETATM   10  O   UNL     1      -6.899   8.699  67.947  1.00  0.00    -0.065 OA 
BRANCH   8  11
HETATM   11  O   UNL     1      -8.326   8.879  66.091  1.00  0.00    -0.115 OA 
BRANCH  11  12
HETATM   12  P   UNL     1      -9.354  10.256  65.898  1.00  0.00    -0.211 P  
HETATM   13  O   UNL     1      -8.026  11.220  66.035  1.00  0.00    -0.102 OA 
HETATM   14  O   UNL     1      -9.409   9.955  64.386  1.00  0.00    -0.262 OA 
BRANCH  12  15
HETATM   15  O   UNL     1     -10.382  11.634  65.706  1.00  0.00    -0.232 OA 
BRANCH  15  16
HETATM   16  C   UNL     1     -11.391  11.802  66.721  1.00  0.00    -0.320 C  
BRANCH  16  17
HETATM   17  C   UNL     1     -11.682  13.258  67.050  1.00  0.00    -0.389 C  
HETATM   18  O   UNL     1     -12.341  13.350  68.316  1.00  0.00    -0.187 OA 
HETATM   19  C   UNL     1     -12.121  14.677  68.799  1.00  0.00    -0.202 C  
HETATM   20  H   UNL     1      -9.417  15.296  65.883  1.00  0.00     0.000 HD 
HETATM   21  C   UNL     1     -10.779  15.155  68.206  1.00  0.00    -0.251 C  
HETATM   22  H   UNL     1     -10.018  16.781  67.303  1.00  0.00     0.000 HD 
HETATM   23  C   UNL     1     -10.450  14.141  67.113  1.00  0.00    -0.270 C  
HETATM   24  O   UNL     1     -10.845  16.486  67.668  1.00  0.00    -0.326 OA 
HETATM   25  O   UNL     1     -10.189  14.743  65.845  1.00  0.00    -0.279 OA 
BRANCH  19  26
HETATM   26  N   UNL     1     -12.193  14.707  70.262  1.00  0.00    -0.311 N  
HETATM   27  C   UNL     1     -13.342  14.351  70.929  1.00  0.00    -0.238 C  
HETATM   28  C   UNL     1     -13.440  14.480  72.248  1.00  0.00    -0.518 C  
HETATM   29  C   UNL     1     -12.254  15.032  72.928  1.00  0.00    -0.344 C  
HETATM   30  N   UNL     1     -11.164  15.369  72.310  1.00  0.00    -0.363 N  
HETATM   31  N   UNL     1     -12.288  15.221  74.283  1.00  0.00    -0.640 NA 
HETATM   32  H   UNL     1     -10.370  15.734  72.834  1.00  0.00     0.000 HD 
HETATM   33  C   UNL     1     -11.087  15.231  70.941  1.00  0.00    -0.301 C  
HETATM   34  H1  UNL     1     -11.469  15.603  74.754  1.00  0.00     0.000 HD 
HETATM   35  H2  UNL     1     -13.125  14.982  74.816  1.00  0.00     0.000 HD 
HETATM   36  O   UNL     1     -10.070  15.561  70.327  1.00  0.00    -0.270 OA 
ENDBRANCH  19  26
ENDBRANCH  16  17
ENDBRANCH  15  16
ENDBRANCH  12  15
ENDBRANCH  11  12
ENDBRANCH   8  11
ENDBRANCH   7   8
ENDBRANCH   6   7
ENDBRANCH   5   6
ENDBRANCH   2   5
TORSDOF 10
ENDMDL
MODEL      174
REMARK 921   NORMALIZED FREE ENERGY PREDICTED BY IDOCK:   -4.40 KCAL/MOL
REMARK 922        TOTAL FREE ENERGY PREDICTED BY IDOCK:   -7.91 KCAL/MOL
REMARK 923 INTER-LIGAND FREE ENERGY PREDICTED BY IDOCK:   -6.92 KCAL/MOL
REMARK 924 INTRA-LIGAND FREE ENERGY PREDICTED BY IDOCK:   -0.99 KCAL/MOL
REMARK 927      BINDING AFFINITY PREDICTED BY RF-SCORE:    0.00 PKD
ROOT
HETATM    1  C   UNL     1      -5.516   8.596  64.434  1.00  0.00    -0.058 C  
HETATM    2  N   UNL     1      -6.845   9.244  64.755  1.00  0.00    -0.085 N  
HETATM    3  C   UNL     1      -6.640  10.473  65.623  1.00  0.00    -0.116 C  
HETATM    4  C   UNL     1      -7.510   9.691  63.441  1.00  0.00    -0.118 C  
ENDROOT
BRANCH   2   5
HETATM    5  C   UNL     1      -7.718   8.192  65.482  1.00  0.00    -0.095 C  
BRANCH   5   6
HETATM    6  C   UNL     1      -7.480   8.092  66.978  1.00  0.00    -0.092 C  
BRANCH   6   7
HETATM    7  O   UNL     1      -6.854   6.859  67.272  1.00  0.00    -0.067 OA 
BRANCH   7   8
HETATM    8  P   UNL     1      -7.961   5.819  68.101  1.00  0.00    -0.105 P  
HETATM    9  O   UNL     1      -6.908   5.633  69.186  1.00  0.00    -0.057 OA 
HETATM   10  O   UNL     1      -7.951   4.907  66.869  1.00  0.00    -0.102 OA 
BRANCH   8  11
HETATM   11  O   UNL     1      -9.069   4.780  68.930  1.00  0.00    -0.104 OA 
BRANCH  11  12
HETATM   12  P   UNL     1     -10.467   5.684  69.397  1.00  0.00    -0.279 P  
HETATM   13  O   UNL     1      -9.774   5.923  70.872  1.00  0.00    -0.167 OA 
HETATM   14  O   UNL     1      -9.931   6.869  68.566  1.00  0.00    -0.142 OA 
BRANCH  12  15
HETATM   15  O   UNL     1     -11.865   6.588  69.866  1.00  0.00    -0.381 OA 
BRANCH  15  16
HETATM   16  C   UNL     1     -11.976   6.875  71.274  1.00  0.00    -0.356 C  
BRANCH  16  17
HETATM   17  C   UNL     1     -11.980   8.363  71.590  1.00  0.00    -0.307 C  
HETATM   18  O   UNL     1     -11.055   9.045  70.740  1.00  0.00    -0.245 OA 
HETATM   19  C   UNL     1     -11.462  10.414  70.703  1.00  0.00    -0.349 C  
HETATM   20  H   UNL     1     -14.906   9.445  72.545  1.00  0.00     0.000 HD 
HETATM   21  C   UNL     1     -12.988  10.436  70.930  1.00  0.00    -0.387 C  
HETATM   22  H   UNL     1     -14.340  11.442  72.023  1.00  0.00     0.000 HD 
HETATM   23  C   UNL     1     -13.331   9.032  71.422  1.00  0.00    -0.277 C  
HETATM   24  O   UNL     1     -13.400  11.429  71.884  1.00  0.00    -0.435 OA 
HETATM   25  O   UNL     1     -14.060   9.026  72.650  1.00  0.00    -0.516 OA 
BRANCH  19  26
HETATM   26  N   UNL     1     -11.016  11.047  69.459  1.00  0.00    -0.250 N  
HETATM   27  C   UNL     1     -11.885  11.758  68.665  1.00  0.00    -0.310 C  
HETATM   28  C   UNL     1     -11.504  12.241  67.488  1.00  0.00    -0.414 C  
HETATM   29  C   UNL     1     -10.112  11.955  67.097  1.00  0.00    -0.204 C  
HETATM   30  N   UNL     1      -9.282  11.288  67.838  1.00  0.00    -0.153 N  
HETATM   31  N   UNL     1      -9.654  12.395  65.885  1.00  0.00    -0.360 NA 
HETATM   32  H   UNL     1      -8.325  11.131  67.522  1.00  0.00     0.000 HD 
HETATM   33  C   UNL     1      -9.700  10.793  69.054  1.00  0.00    -0.187 C  
HETATM   34  H1  UNL     1      -8.691  12.198  65.615  1.00  0.00     0.000 HD 
HETATM   35  H2  UNL     1     -10.269  12.915  65.259  1.00  0.00     0.000 HD 
HETATM   36  O   UNL     1      -8.937  10.139  69.769  1.00  0.00    -0.199 OA 
ENDBRANCH  19  26
ENDBRANCH  16  17
ENDBRANCH  15  16
ENDBRANCH  12  15
ENDBRANCH  11  12
ENDBRANCH   8  11
ENDBRANCH   7   8
ENDBRANCH   6   7
ENDBRANCH   5   6
ENDBRANCH   2   5
TORSDOF 10
ENDMDL
MODEL      175
REMARK 921   NORMALIZED FREE ENERGY PREDICTED BY IDOCK:   -4.40 KCAL/MOL
REMARK 922        TOTAL FREE ENERGY PREDICTED BY IDOCK:   -7.90 KCAL/MOL
REMARK 923 INTER-LIGAND FREE ENERGY PREDICTED BY IDOCK:   -6.80 KCAL/MOL
REMARK 924 INTRA-LIGAND FREE ENERGY PREDICTED BY IDOCK:   -1.10 KCAL/MOL
REMARK 927      BINDING AFFINITY PREDICTED BY RF-SCORE:    0.00 PKD
ROOT
HETATM    1  C   UNL     1      -6.827   7.411  72.299  1.00  0.00    -0.059 C  
HETATM    2  N   UNL     1      -7.403   7.889  70.983  1.00  0.00    -0.060 N  
HETATM    3  C   UNL     1      -8.667   8.698  71.220  1.00  0.00    -0.194 C  
HETATM    4  C   UNL     1      -6.374   8.800  70.292  1.00  0.00    -0.038 C  
ENDROOT
BRANCH   2   5
HETATM    5  C   UNL     1      -7.699   6.639  70.118  1.00  0.00    -0.102 C  
BRANCH   5   6
HETATM    6  C   UNL     1      -7.590   6.862  68.620  1.00  0.00    -0.105 C  
BRANCH   6   7
HETATM    7  O   UNL     1      -8.859   6.674  68.024  1.00  0.00    -0.117 OA 
BRANCH   7   8
HETATM    8  P   UNL     1      -9.009   7.684  66.627  1.00  0.00    -0.170 P  
HETATM    9  O   UNL     1     -10.521   7.629  66.802  1.00  0.00    -0.314 OA 
HETATM   10  O   UNL     1      -8.297   6.592  65.821  1.00  0.00    -0.131 OA 
BRANCH   8  11
HETATM   11  O   UNL     1      -9.159   8.695  65.231  1.00  0.00    -0.153 OA 
BRANCH  11  12
HETATM   12  P   UNL     1      -9.114  10.355  65.714  1.00  0.00    -0.192 P  
HETATM   13  O   UNL     1      -7.499  10.192  65.993  1.00  0.00    -0.107 OA 
HETATM   14  O   UNL     1      -9.169  10.750  64.223  1.00  0.00    -0.202 OA 
BRANCH  12  15
HETATM   15  O   UNL     1      -9.068  12.016  66.198  1.00  0.00    -0.203 OA 
BRANCH  15  16
HETATM   16  C   UNL     1      -9.930  12.902  65.458  1.00  0.00    -0.213 C  
BRANCH  16  17
HETATM   17  C   UNL     1     -10.412  14.095  66.269  1.00  0.00    -0.286 C  
HETATM   18  O   UNL     1     -11.441  13.685  67.174  1.00  0.00    -0.311 OA 
HETATM   19  C   UNL     1     -11.480  14.657  68.220  1.00  0.00    -0.314 C  
HETATM   20  H   UNL     1      -8.046  16.260  66.866  1.00  0.00     0.000 HD 
HETATM   21  C   UNL     1     -10.057  15.241  68.345  1.00  0.00    -0.220 C  
HETATM   22  H   UNL     1      -9.168  17.035  68.515  1.00  0.00     0.000 HD 
HETATM   23  C   UNL     1      -9.329  14.771  67.088  1.00  0.00    -0.224 C  
HETATM   24  O   UNL     1     -10.044  16.675  68.438  1.00  0.00    -0.245 OA 
HETATM   25  O   UNL     1      -8.725  15.836  66.353  1.00  0.00    -0.290 OA 
BRANCH  19  26
HETATM   26  N   UNL     1     -12.011  14.064  69.449  1.00  0.00    -0.325 N  
HETATM   27  C   UNL     1     -11.930  12.711  69.685  1.00  0.00    -0.286 C  
HETATM   28  C   UNL     1     -12.505  12.163  70.749  1.00  0.00    -0.362 C  
HETATM   29  C   UNL     1     -13.232  13.089  71.635  1.00  0.00    -0.336 C  
HETATM   30  N   UNL     1     -13.315  14.367  71.425  1.00  0.00    -0.340 N  
HETATM   31  N   UNL     1     -13.875  12.595  72.737  1.00  0.00    -0.612 NA 
HETATM   32  H   UNL     1     -13.822  14.962  72.079  1.00  0.00     0.000 HD 
HETATM   33  C   UNL     1     -12.714  14.914  70.312  1.00  0.00    -0.271 C  
HETATM   34  H1  UNL     1     -14.379  13.235  73.350  1.00  0.00     0.000 HD 
HETATM   35  H2  UNL     1     -13.851  11.596  72.944  1.00  0.00     0.000 HD 
HETATM   36  O   UNL     1     -12.793  16.123  70.078  1.00  0.00    -0.021 OA 
ENDBRANCH  19  26
ENDBRANCH  16  17
ENDBRANCH  15  16
ENDBRANCH  12  15
ENDBRANCH  11  12
ENDBRANCH   8  11
ENDBRANCH   7   8
ENDBRANCH   6   7
ENDBRANCH   5   6
ENDBRANCH   2   5
TORSDOF 10
ENDMDL
MODEL      176
REMARK 921   NORMALIZED FREE ENERGY PREDICTED BY IDOCK:   -4.39 KCAL/MOL
REMARK 922        TOTAL FREE ENERGY PREDICTED BY IDOCK:   -7.89 KCAL/MOL
REMARK 923 INTER-LIGAND FREE ENERGY PREDICTED BY IDOCK:   -6.98 KCAL/MOL
REMARK 924 INTRA-LIGAND FREE ENERGY PREDICTED BY IDOCK:   -0.91 KCAL/MOL
REMARK 927      BINDING AFFINITY PREDICTED BY RF-SCORE:    0.00 PKD
ROOT
HETATM    1  C   UNL     1     -10.567  14.179  64.907  1.00  0.00    -0.430 C  
HETATM    2  N   UNL     1     -11.835  13.355  64.966  1.00  0.00    -0.337 N  
HETATM    3  C   UNL     1     -12.906  14.086  65.758  1.00  0.00    -0.377 C  
HETATM    4  C   UNL     1     -12.358  13.144  63.535  1.00  0.00    -0.398 C  
ENDROOT
BRANCH   2   5
HETATM    5  C   UNL     1     -11.485  12.000  65.628  1.00  0.00    -0.316 C  
BRANCH   5   6
HETATM    6  C   UNL     1     -10.032  11.582  65.491  1.00  0.00    -0.242 C  
BRANCH   6   7
HETATM    7  O   UNL     1      -9.857  10.883  64.274  1.00  0.00    -0.254 OA 
BRANCH   7   8
HETATM    8  P   UNL     1      -8.783   9.548  64.510  1.00  0.00    -0.195 P  
HETATM    9  O   UNL     1      -8.336  10.193  65.815  1.00  0.00    -0.134 OA 
HETATM   10  O   UNL     1      -8.093   9.934  63.196  1.00  0.00    -0.135 OA 
BRANCH   8  11
HETATM   11  O   UNL     1      -7.710   8.211  64.745  1.00  0.00    -0.107 OA 
BRANCH  11  12
HETATM   12  P   UNL     1      -8.336   7.181  65.985  1.00  0.00    -0.142 P  
HETATM   13  O   UNL     1      -8.362   5.946  64.896  1.00  0.00    -0.136 OA 
HETATM   14  O   UNL     1      -6.913   7.092  66.576  1.00  0.00    -0.065 OA 
BRANCH  12  15
HETATM   15  O   UNL     1      -8.963   6.150  67.225  1.00  0.00    -0.114 OA 
BRANCH  15  16
HETATM   16  C   UNL     1      -7.975   5.491  68.043  1.00  0.00    -0.096 C  
BRANCH  16  17
HETATM   17  C   UNL     1      -7.908   6.031  69.463  1.00  0.00    -0.099 C  
HETATM   18  O   UNL     1      -9.039   6.866  69.722  1.00  0.00    -0.144 OA 
HETATM   19  C   UNL     1      -9.203   6.909  71.140  1.00  0.00    -0.154 C  
HETATM   20  H   UNL     1      -6.516   3.941  71.546  1.00  0.00     0.000 HD 
HETATM   21  C   UNL     1      -8.651   5.579  71.697  1.00  0.00    -0.132 C  
HETATM   22  H   UNL     1      -7.461   4.941  73.185  1.00  0.00     0.000 HD 
HETATM   23  C   UNL     1      -7.878   4.959  70.536  1.00  0.00    -0.066 C  
HETATM   24  O   UNL     1      -7.801   5.759  72.842  1.00  0.00    -0.103 OA 
HETATM   25  O   UNL     1      -6.535   4.612  70.874  1.00  0.00    -0.028 OA 
BRANCH  19  26
HETATM   26  N   UNL     1     -10.599   7.189  71.485  1.00  0.00    -0.208 N  
HETATM   27  C   UNL     1     -11.630   6.816  70.656  1.00  0.00    -0.370 C  
HETATM   28  C   UNL     1     -12.885   7.163  70.919  1.00  0.00    -0.180 C  
HETATM   29  C   UNL     1     -13.086   7.971  72.135  1.00  0.00    -0.202 C  
HETATM   30  N   UNL     1     -12.122   8.327  72.927  1.00  0.00    -0.513 N  
HETATM   31  N   UNL     1     -14.347   8.391  72.458  1.00  0.00    -0.784 NA 
HETATM   32  H   UNL     1     -12.322   8.876  73.762  1.00  0.00     0.000 HD 
HETATM   33  C   UNL     1     -10.827   7.959  72.632  1.00  0.00    -0.364 C  
HETATM   34  H1  UNL     1     -14.487   8.950  73.299  1.00  0.00     0.000 HD 
HETATM   35  H2  UNL     1     -15.140   8.148  71.863  1.00  0.00     0.000 HD 
HETATM   36  O   UNL     1      -9.890   8.300  73.357  1.00  0.00    -0.155 OA 
ENDBRANCH  19  26
ENDBRANCH  16  17
ENDBRANCH  15  16
ENDBRANCH  12  15
ENDBRANCH  11  12
ENDBRANCH   8  11
ENDBRANCH   7   8
ENDBRANCH   6   7
ENDBRANCH   5   6
ENDBRANCH   2   5
TORSDOF 10
ENDMDL
MODEL      177
REMARK 921   NORMALIZED FREE ENERGY PREDICTED BY IDOCK:   -4.39 KCAL/MOL
REMARK 922        TOTAL FREE ENERGY PREDICTED BY IDOCK:   -7.89 KCAL/MOL
REMARK 923 INTER-LIGAND FREE ENERGY PREDICTED BY IDOCK:   -6.76 KCAL/MOL
REMARK 924 INTRA-LIGAND FREE ENERGY PREDICTED BY IDOCK:   -1.13 KCAL/MOL
REMARK 927      BINDING AFFINITY PREDICTED BY RF-SCORE:    0.00 PKD
ROOT
HETATM    1  C   UNL     1      -9.976   2.582  63.995  1.00  0.00    -0.116 C  
HETATM    2  N   UNL     1      -8.596   3.203  64.048  1.00  0.00    -0.089 N  
HETATM    3  C   UNL     1      -7.538   2.129  64.230  1.00  0.00    -0.060 C  
HETATM    4  C   UNL     1      -8.324   3.923  62.716  1.00  0.00    -0.082 C  
ENDROOT
BRANCH   2   5
HETATM    5  C   UNL     1      -8.577   4.206  65.228  1.00  0.00    -0.119 C  
BRANCH   5   6
HETATM    6  C   UNL     1      -7.393   5.156  65.237  1.00  0.00    -0.068 C  
BRANCH   6   7
HETATM    7  O   UNL     1      -7.030   5.441  66.573  1.00  0.00    -0.061 OA 
BRANCH   7   8
HETATM    8  P   UNL     1      -6.303   7.008  66.665  1.00  0.00    -0.053 P  
HETATM    9  O   UNL     1      -7.702   7.607  66.729  1.00  0.00    -0.098 OA 
HETATM   10  O   UNL     1      -5.656   6.734  65.302  1.00  0.00    -0.029 OA 
BRANCH   8  11
HETATM   11  O   UNL     1      -5.575   8.575  66.757  1.00  0.00    -0.035 OA 
BRANCH  11  12
HETATM   12  P   UNL     1      -6.759   9.782  66.395  1.00  0.00    -0.085 P  
HETATM   13  O   UNL     1      -6.265  10.614  67.728  1.00  0.00    -0.054 OA 
HETATM   14  O   UNL     1      -5.823  10.313  65.289  1.00  0.00    -0.101 OA 
BRANCH  12  15
HETATM   15  O   UNL     1      -7.943  10.991  66.034  1.00  0.00    -0.155 OA 
BRANCH  15  16
HETATM   16  C   UNL     1      -8.835  10.680  64.945  1.00  0.00    -0.190 C  
BRANCH  16  17
HETATM   17  C   UNL     1     -10.294  10.977  65.254  1.00  0.00    -0.275 C  
HETATM   18  O   UNL     1     -10.448  11.272  66.645  1.00  0.00    -0.229 OA 
HETATM   19  C   UNL     1     -11.657  12.023  66.775  1.00  0.00    -0.321 C  
HETATM   20  H   UNL     1     -11.844  12.426  62.775  1.00  0.00     0.000 HD 
HETATM   21  C   UNL     1     -11.859  12.784  65.447  1.00  0.00    -0.415 C  
HETATM   22  H   UNL     1     -13.328  13.161  64.130  1.00  0.00     0.000 HD 
HETATM   23  C   UNL     1     -10.872  12.144  64.475  1.00  0.00    -0.312 C  
HETATM   24  O   UNL     1     -13.203  12.693  64.947  1.00  0.00    -0.819 OA 
HETATM   25  O   UNL     1     -11.482  11.696  63.264  1.00  0.00    -0.341 OA 
BRANCH  19  26
HETATM   26  N   UNL     1     -11.606  12.871  67.968  1.00  0.00    -0.320 N  
HETATM   27  C   UNL     1     -11.079  14.141  67.923  1.00  0.00    -0.268 C  
HETATM   28  C   UNL     1     -10.938  14.867  69.026  1.00  0.00    -0.251 C  
HETATM   29  C   UNL     1     -11.368  14.221  70.279  1.00  0.00    -0.086 C  
HETATM   30  N   UNL     1     -11.868  13.025  70.335  1.00  0.00    -0.543 N  
HETATM   31  N   UNL     1     -11.228  14.895  71.461  1.00  0.00    -0.556 NA 
HETATM   32  H   UNL     1     -12.161  12.634  71.229  1.00  0.00     0.000 HD 
HETATM   33  C   UNL     1     -12.002  12.288  69.178  1.00  0.00    -0.249 C  
HETATM   34  H1  UNL     1     -11.525  14.449  72.328  1.00  0.00     0.000 HD 
HETATM   35  H2  UNL     1     -10.830  15.835  71.475  1.00  0.00     0.000 HD 
HETATM   36  O   UNL     1     -12.457  11.142  69.205  1.00  0.00    -0.377 OA 
ENDBRANCH  19  26
ENDBRANCH  16  17
ENDBRANCH  15  16
ENDBRANCH  12  15
ENDBRANCH  11  12
ENDBRANCH   8  11
ENDBRANCH   7   8
ENDBRANCH   6   7
ENDBRANCH   5   6
ENDBRANCH   2   5
TORSDOF 10
ENDMDL
MODEL      178
REMARK 921   NORMALIZED FREE ENERGY PREDICTED BY IDOCK:   -4.39 KCAL/MOL
REMARK 922        TOTAL FREE ENERGY PREDICTED BY IDOCK:   -7.89 KCAL/MOL
REMARK 923 INTER-LIGAND FREE ENERGY PREDICTED BY IDOCK:   -6.57 KCAL/MOL
REMARK 924 INTRA-LIGAND FREE ENERGY PREDICTED BY IDOCK:   -1.32 KCAL/MOL
REMARK 927      BINDING AFFINITY PREDICTED BY RF-SCORE:    0.00 PKD
ROOT
HETATM    1  C   UNL     1      -9.708  14.668  68.812  1.00  0.00    -0.217 C  
HETATM    2  N   UNL     1     -10.685  14.733  67.658  1.00  0.00    -0.266 N  
HETATM    3  C   UNL     1     -10.987  16.178  67.299  1.00  0.00    -0.175 C  
HETATM    4  C   UNL     1     -10.050  14.058  66.430  1.00  0.00    -0.294 C  
ENDROOT
BRANCH   2   5
HETATM    5  C   UNL     1     -11.972  13.988  68.090  1.00  0.00    -0.347 C  
BRANCH   5   6
HETATM    6  C   UNL     1     -11.799  13.050  69.270  1.00  0.00    -0.316 C  
BRANCH   6   7
HETATM    7  O   UNL     1     -11.991  11.716  68.842  1.00  0.00    -0.328 OA 
BRANCH   7   8
HETATM    8  P   UNL     1     -12.103  10.667  70.213  1.00  0.00    -0.351 P  
HETATM    9  O   UNL     1     -12.459  11.882  71.060  1.00  0.00    -0.369 OA 
HETATM   10  O   UNL     1     -10.631  10.300  69.991  1.00  0.00    -0.271 OA 
BRANCH   8  11
HETATM   11  O   UNL     1     -12.216   9.617  71.584  1.00  0.00    -0.360 OA 
BRANCH  11  12
HETATM   12  P   UNL     1     -11.419   8.123  71.232  1.00  0.00    -0.278 P  
HETATM   13  O   UNL     1     -10.582   8.280  72.642  1.00  0.00    -0.332 OA 
HETATM   14  O   UNL     1     -12.699   7.381  71.670  1.00  0.00    -0.338 OA 
BRANCH  12  15
HETATM   15  O   UNL     1     -10.620   6.629  70.881  1.00  0.00    -0.215 OA 
BRANCH  15  16
HETATM   16  C   UNL     1     -10.908   6.060  69.589  1.00  0.00    -0.369 C  
BRANCH  16  17
HETATM   17  C   UNL     1      -9.685   5.946  68.692  1.00  0.00    -0.127 C  
HETATM   18  O   UNL     1      -9.460   7.186  68.015  1.00  0.00    -0.131 OA 
HETATM   19  C   UNL     1      -8.085   7.200  67.629  1.00  0.00    -0.114 C  
HETATM   20  H   UNL     1      -7.407   3.950  69.903  1.00  0.00     0.000 HD 
HETATM   21  C   UNL     1      -7.320   6.338  68.656  1.00  0.00    -0.086 C  
HETATM   22  H   UNL     1      -5.927   4.891  68.677  1.00  0.00     0.000 HD 
HETATM   23  C   UNL     1      -8.406   5.589  69.424  1.00  0.00    -0.101 C  
HETATM   24  O   UNL     1      -6.398   5.421  68.045  1.00  0.00    -0.036 OA 
HETATM   25  O   UNL     1      -8.208   4.174  69.445  1.00  0.00    -0.059 OA 
BRANCH  19  26
HETATM   26  N   UNL     1      -7.603   8.577  67.501  1.00  0.00    -0.097 N  
HETATM   27  C   UNL     1      -8.126   9.592  68.269  1.00  0.00    -0.105 C  
HETATM   28  C   UNL     1      -7.763  10.856  68.078  1.00  0.00    -0.101 C  
HETATM   29  C   UNL     1      -6.788  11.088  66.997  1.00  0.00    -0.109 C  
HETATM   30  N   UNL     1      -6.286  10.139  66.268  1.00  0.00    -0.078 N  
HETATM   31  N   UNL     1      -6.387  12.366  66.721  1.00  0.00    -0.484 NA 
HETATM   32  H   UNL     1      -5.605  10.357  65.542  1.00  0.00     0.000 HD 
HETATM   33  C   UNL     1      -6.680   8.835  66.481  1.00  0.00    -0.071 C  
HETATM   34  H1  UNL     1      -5.713  12.527  65.974  1.00  0.00     0.000 HD 
HETATM   35  H2  UNL     1      -6.759  13.151  67.258  1.00  0.00     0.000 HD 
HETATM   36  O   UNL     1      -6.233   7.917  65.790  1.00  0.00    -0.041 OA 
ENDBRANCH  19  26
ENDBRANCH  16  17
ENDBRANCH  15  16
ENDBRANCH  12  15
ENDBRANCH  11  12
ENDBRANCH   8  11
ENDBRANCH   7   8
ENDBRANCH   6   7
ENDBRANCH   5   6
ENDBRANCH   2   5
TORSDOF 10
ENDMDL
MODEL      179
REMARK 921   NORMALIZED FREE ENERGY PREDICTED BY IDOCK:   -4.39 KCAL/MOL
REMARK 922        TOTAL FREE ENERGY PREDICTED BY IDOCK:   -7.88 KCAL/MOL
REMARK 923 INTER-LIGAND FREE ENERGY PREDICTED BY IDOCK:   -6.78 KCAL/MOL
REMARK 924 INTRA-LIGAND FREE ENERGY PREDICTED BY IDOCK:   -1.11 KCAL/MOL
REMARK 927      BINDING AFFINITY PREDICTED BY RF-SCORE:    0.00 PKD
ROOT
HETATM    1  C   UNL     1      -8.346  14.617  69.361  1.00  0.00     0.086 C  
HETATM    2  N   UNL     1      -6.982  15.103  68.921  1.00  0.00    -0.117 N  
HETATM    3  C   UNL     1      -6.050  15.220  70.115  1.00  0.00    -0.141 C  
HETATM    4  C   UNL     1      -6.382  14.080  67.943  1.00  0.00    -0.161 C  
ENDROOT
BRANCH   2   5
HETATM    5  C   UNL     1      -7.172  16.477  68.231  1.00  0.00    -0.159 C  
BRANCH   5   6
HETATM    6  C   UNL     1      -8.203  17.379  68.885  1.00  0.00    -0.170 C  
BRANCH   6   7
HETATM    7  O   UNL     1      -8.641  18.346  67.950  1.00  0.00    -0.262 OA 
BRANCH   7   8
HETATM    8  P   UNL     1      -9.557  17.581  66.697  1.00  0.00    -0.296 P  
HETATM    9  O   UNL     1      -8.511  18.061  65.698  1.00  0.00    -0.375 OA 
HETATM   10  O   UNL     1     -10.731  18.495  67.064  1.00  0.00    -0.395 OA 
BRANCH   8  11
HETATM   11  O   UNL     1     -10.472  16.815  65.444  1.00  0.00    -0.592 OA 
BRANCH  11  12
HETATM   12  P   UNL     1     -10.676  15.140  65.821  1.00  0.00    -0.389 P  
HETATM   13  O   UNL     1      -9.040  14.963  65.752  1.00  0.00    -0.121 OA 
HETATM   14  O   UNL     1     -10.918  15.540  67.292  1.00  0.00    -0.317 OA 
BRANCH  12  15
HETATM   15  O   UNL     1     -10.878  13.463  66.199  1.00  0.00    -0.279 OA 
BRANCH  15  16
HETATM   16  C   UNL     1     -10.900  12.570  65.068  1.00  0.00    -0.290 C  
BRANCH  16  17
HETATM   17  C   UNL     1      -9.678  11.669  64.985  1.00  0.00    -0.211 C  
HETATM   18  O   UNL     1      -9.625  10.812  66.129  1.00  0.00    -0.182 OA 
HETATM   19  C   UNL     1      -8.819   9.690  65.765  1.00  0.00    -0.157 C  
HETATM   20  H   UNL     1      -8.900  10.871  61.919  1.00  0.00     0.000 HD 
HETATM   21  C   UNL     1      -8.970   9.502  64.241  1.00  0.00    -0.205 C  
HETATM   22  H   UNL     1      -7.808   9.175  62.635  1.00  0.00     0.000 HD 
HETATM   23  C   UNL     1      -9.637  10.786  63.752  1.00  0.00    -0.295 C  
HETATM   24  O   UNL     1      -7.715   9.291  63.573  1.00  0.00    -0.111 OA 
HETATM   25  O   UNL     1      -8.926  11.423  62.691  1.00  0.00    -0.316 OA 
BRANCH  19  26
HETATM   26  N   UNL     1      -9.181   8.519  66.568  1.00  0.00    -0.176 N  
HETATM   27  C   UNL     1     -10.496   8.186  66.796  1.00  0.00    -0.246 C  
HETATM   28  C   UNL     1     -10.821   7.188  67.609  1.00  0.00    -0.279 C  
HETATM   29  C   UNL     1      -9.693   6.485  68.247  1.00  0.00    -0.131 C  
HETATM   30  N   UNL     1      -8.449   6.789  68.038  1.00  0.00    -0.120 N  
HETATM   31  N   UNL     1      -9.949   5.463  69.120  1.00  0.00    -0.179 NA 
HETATM   32  H   UNL     1      -7.709   6.259  68.498  1.00  0.00     0.000 HD 
HETATM   33  C   UNL     1      -8.135   7.831  67.194  1.00  0.00    -0.118 C  
HETATM   34  H1  UNL     1      -9.169   4.977  69.561  1.00  0.00     0.000 HD 
HETATM   35  H2  UNL     1     -10.910   5.191  69.328  1.00  0.00     0.000 HD 
HETATM   36  O   UNL     1      -6.961   8.153  66.993  1.00  0.00    -0.071 OA 
ENDBRANCH  19  26
ENDBRANCH  16  17
ENDBRANCH  15  16
ENDBRANCH  12  15
ENDBRANCH  11  12
ENDBRANCH   8  11
ENDBRANCH   7   8
ENDBRANCH   6   7
ENDBRANCH   5   6
ENDBRANCH   2   5
TORSDOF 10
ENDMDL
MODEL      180
REMARK 921   NORMALIZED FREE ENERGY PREDICTED BY IDOCK:   -4.38 KCAL/MOL
REMARK 922        TOTAL FREE ENERGY PREDICTED BY IDOCK:   -7.88 KCAL/MOL
REMARK 923 INTER-LIGAND FREE ENERGY PREDICTED BY IDOCK:   -7.28 KCAL/MOL
REMARK 924 INTRA-LIGAND FREE ENERGY PREDICTED BY IDOCK:   -0.59 KCAL/MOL
REMARK 927      BINDING AFFINITY PREDICTED BY RF-SCORE:    0.00 PKD
ROOT
HETATM    1  C   UNL     1      -9.536  11.009  64.009  1.00  0.00    -0.246 C  
HETATM    2  N   UNL     1      -8.394  10.123  64.460  1.00  0.00    -0.161 N  
HETATM    3  C   UNL     1      -7.313  10.069  63.395  1.00  0.00    -0.137 C  
HETATM    4  C   UNL     1      -7.778  10.718  65.738  1.00  0.00    -0.094 C  
ENDROOT
BRANCH   2   5
HETATM    5  C   UNL     1      -8.973   8.713  64.734  1.00  0.00     0.111 C  
BRANCH   5   6
HETATM    6  C   UNL     1      -7.976   7.577  64.593  1.00  0.00    -0.133 C  
BRANCH   6   7
HETATM    7  O   UNL     1      -8.607   6.356  64.922  1.00  0.00    -0.052 OA 
BRANCH   7   8
HETATM    8  P   UNL     1      -8.639   6.152  66.640  1.00  0.00    -0.125 P  
HETATM    9  O   UNL     1      -7.122   6.294  66.642  1.00  0.00    -0.066 OA 
HETATM   10  O   UNL     1      -9.273   4.775  66.416  1.00  0.00    -0.125 OA 
BRANCH   8  11
HETATM   11  O   UNL     1      -8.672   5.950  68.358  1.00  0.00    -0.113 OA 
BRANCH  11  12
HETATM   12  P   UNL     1      -9.520   7.274  69.077  1.00  0.00    -0.147 P  
HETATM   13  O   UNL     1      -8.082   8.060  69.240  1.00  0.00    -0.114 OA 
HETATM   14  O   UNL     1      -9.985   7.693  67.667  1.00  0.00    -0.154 OA 
BRANCH  12  15
HETATM   15  O   UNL     1     -10.368   8.599  69.798  1.00  0.00    -0.202 OA 
BRANCH  15  16
HETATM   16  C   UNL     1     -10.851   9.600  68.880  1.00  0.00    -0.174 C  
BRANCH  16  17
HETATM   17  C   UNL     1     -10.793  11.013  69.440  1.00  0.00    -0.231 C  
HETATM   18  O   UNL     1     -10.246  11.902  68.463  1.00  0.00    -0.213 OA 
HETATM   19  C   UNL     1     -10.684  13.216  68.812  1.00  0.00    -0.225 C  
HETATM   20  H   UNL     1     -13.234  11.657  71.506  1.00  0.00     0.000 HD 
HETATM   21  C   UNL     1     -12.035  13.061  69.542  1.00  0.00    -0.289 C  
HETATM   22  H   UNL     1     -12.951  13.755  71.190  1.00  0.00     0.000 HD 
HETATM   23  C   UNL     1     -12.139  11.572  69.861  1.00  0.00    -0.316 C  
HETATM   24  O   UNL     1     -12.120  13.850  70.740  1.00  0.00    -0.334 OA 
HETATM   25  O   UNL     1     -12.391  11.307  71.242  1.00  0.00    -0.336 OA 
BRANCH  19  26
HETATM   26  N   UNL     1     -10.721  14.075  67.625  1.00  0.00    -0.255 N  
HETATM   27  C   UNL     1     -10.375  15.405  67.692  1.00  0.00    -0.262 C  
HETATM   28  C   UNL     1     -10.510  16.204  66.641  1.00  0.00    -0.300 C  
HETATM   29  C   UNL     1     -11.058  15.578  65.424  1.00  0.00    -0.298 C  
HETATM   30  N   UNL     1     -11.385  14.325  65.347  1.00  0.00    -0.319 N  
HETATM   31  N   UNL     1     -11.253  16.344  64.307  1.00  0.00    -1.298 NA 
HETATM   32  H   UNL     1     -11.748  13.943  64.474  1.00  0.00     0.000 HD 
HETATM   33  C   UNL     1     -11.241  13.514  66.452  1.00  0.00    -0.307 C  
HETATM   34  H1  UNL     1     -11.631  15.911  63.465  1.00  0.00     0.000 HD 
HETATM   35  H2  UNL     1     -11.022  17.338  64.316  1.00  0.00     0.000 HD 
HETATM   36  O   UNL     1     -11.562  12.324  66.412  1.00  0.00    -0.366 OA 
ENDBRANCH  19  26
ENDBRANCH  16  17
ENDBRANCH  15  16
ENDBRANCH  12  15
ENDBRANCH  11  12
ENDBRANCH   8  11
ENDBRANCH   7   8
ENDBRANCH   6   7
ENDBRANCH   5   6
ENDBRANCH   2   5
TORSDOF 10
ENDMDL
MODEL      181
REMARK 921   NORMALIZED FREE ENERGY PREDICTED BY IDOCK:   -4.38 KCAL/MOL
REMARK 922        TOTAL FREE ENERGY PREDICTED BY IDOCK:   -7.88 KCAL/MOL
REMARK 923 INTER-LIGAND FREE ENERGY PREDICTED BY IDOCK:   -6.31 KCAL/MOL
REMARK 924 INTRA-LIGAND FREE ENERGY PREDICTED BY IDOCK:   -1.57 KCAL/MOL
REMARK 927      BINDING AFFINITY PREDICTED BY RF-SCORE:    0.00 PKD
ROOT
HETATM    1  C   UNL     1      -8.237   7.595  65.522  1.00  0.00    -0.135 C  
HETATM    2  N   UNL     1      -7.204   8.360  64.722  1.00  0.00    -0.080 N  
HETATM    3  C   UNL     1      -6.803   9.630  65.452  1.00  0.00    -0.094 C  
HETATM    4  C   UNL     1      -5.950   7.483  64.562  1.00  0.00    -0.038 C  
ENDROOT
BRANCH   2   5
HETATM    5  C   UNL     1      -7.827   8.687  63.342  1.00  0.00    -0.151 C  
BRANCH   5   6
HETATM    6  C   UNL     1      -8.400  10.087  63.218  1.00  0.00    -0.168 C  
BRANCH   6   7
HETATM    7  O   UNL     1      -9.719  10.011  62.714  1.00  0.00    -0.200 OA 
BRANCH   7   8
HETATM    8  P   UNL     1     -10.591  11.448  63.125  1.00  0.00     0.051 P  
HETATM    9  O   UNL     1      -9.257  12.176  63.230  1.00  0.00    -0.086 OA 
HETATM   10  O   UNL     1     -11.147  10.703  64.344  1.00  0.00     0.170 OA 
BRANCH   8  11
HETATM   11  O   UNL     1     -11.463  12.885  63.535  1.00  0.00    -0.463 OA 
BRANCH  11  12
HETATM   12  P   UNL     1     -11.705  12.943  65.246  1.00  0.00    -0.414 P  
HETATM   13  O   UNL     1     -10.722  14.264  65.303  1.00  0.00    -0.321 OA 
HETATM   14  O   UNL     1     -13.097  13.559  64.989  1.00  0.00    -0.736 OA 
BRANCH  12  15
HETATM   15  O   UNL     1     -11.946  13.003  66.959  1.00  0.00    -0.383 OA 
BRANCH  15  16
HETATM   16  C   UNL     1     -12.068  11.725  67.613  1.00  0.00     0.178 C  
BRANCH  16  17
HETATM   17  C   UNL     1     -10.841  11.340  68.425  1.00  0.00    -0.205 C  
HETATM   18  O   UNL     1     -11.226  10.534  69.540  1.00  0.00    -0.235 OA 
HETATM   19  C   UNL     1     -10.067   9.799  69.936  1.00  0.00    -0.251 C  
HETATM   20  H   UNL     1      -8.172  10.968  66.585  1.00  0.00     0.000 HD 
HETATM   21  C   UNL     1      -9.201   9.609  68.674  1.00  0.00    -0.136 C  
HETATM   22  H   UNL     1      -7.277   9.777  68.120  1.00  0.00     0.000 HD 
HETATM   23  C   UNL     1      -9.794  10.568  67.644  1.00  0.00    -0.166 C  
HETATM   24  O   UNL     1      -7.810   9.894  68.898  1.00  0.00    -0.083 OA 
HETATM   25  O   UNL     1      -8.828  11.451  67.073  1.00  0.00    -0.158 OA 
BRANCH  19  26
HETATM   26  N   UNL     1     -10.455   8.556  70.609  1.00  0.00    -0.197 N  
HETATM   27  C   UNL     1     -11.524   7.808  70.171  1.00  0.00    -0.043 C  
HETATM   28  C   UNL     1     -11.938   6.741  70.844  1.00  0.00    -0.437 C  
HETATM   29  C   UNL     1     -11.191   6.428  72.075  1.00  0.00    -0.281 C  
HETATM   30  N   UNL     1     -10.180   7.124  72.497  1.00  0.00    -0.187 N  
HETATM   31  N   UNL     1     -11.575   5.359  72.838  1.00  0.00    -0.466 NA 
HETATM   32  H   UNL     1      -9.692   6.853  73.351  1.00  0.00     0.000 HD 
HETATM   33  C   UNL     1      -9.770   8.231  71.786  1.00  0.00    -0.212 C  
HETATM   34  H1  UNL     1     -11.059   5.143  73.690  1.00  0.00     0.000 HD 
HETATM   35  H2  UNL     1     -12.370   4.785  72.557  1.00  0.00     0.000 HD 
HETATM   36  O   UNL     1      -8.824   8.920  72.174  1.00  0.00    -0.381 OA 
ENDBRANCH  19  26
ENDBRANCH  16  17
ENDBRANCH  15  16
ENDBRANCH  12  15
ENDBRANCH  11  12
ENDBRANCH   8  11
ENDBRANCH   7   8
ENDBRANCH   6   7
ENDBRANCH   5   6
ENDBRANCH   2   5
TORSDOF 10
ENDMDL
MODEL      182
REMARK 921   NORMALIZED FREE ENERGY PREDICTED BY IDOCK:   -4.38 KCAL/MOL
REMARK 922        TOTAL FREE ENERGY PREDICTED BY IDOCK:   -7.88 KCAL/MOL
REMARK 923 INTER-LIGAND FREE ENERGY PREDICTED BY IDOCK:   -6.27 KCAL/MOL
REMARK 924 INTRA-LIGAND FREE ENERGY PREDICTED BY IDOCK:   -1.61 KCAL/MOL
REMARK 927      BINDING AFFINITY PREDICTED BY RF-SCORE:    0.00 PKD
ROOT
HETATM    1  C   UNL     1     -12.117  11.105  68.098  1.00  0.00     0.123 C  
HETATM    2  N   UNL     1     -11.381  11.991  69.079  1.00  0.00    -0.255 N  
HETATM    3  C   UNL     1     -11.838  11.704  70.499  1.00  0.00    -0.231 C  
HETATM    4  C   UNL     1      -9.875  11.689  68.990  1.00  0.00     0.052 C  
ENDROOT
BRANCH   2   5
HETATM    5  C   UNL     1     -11.670  13.463  68.691  1.00  0.00    -0.349 C  
BRANCH   5   6
HETATM    6  C   UNL     1     -12.199  13.657  67.282  1.00  0.00    -0.275 C  
BRANCH   6   7
HETATM    7  O   UNL     1     -11.153  14.114  66.447  1.00  0.00    -0.311 OA 
BRANCH   7   8
HETATM    8  P   UNL     1     -10.930  13.018  65.127  1.00  0.00    -0.321 P  
HETATM    9  O   UNL     1     -10.235  14.141  64.367  1.00  0.00    -0.272 OA 
HETATM   10  O   UNL     1     -12.455  12.879  65.049  1.00  0.00    -0.463 OA 
BRANCH   8  11
HETATM   11  O   UNL     1     -10.708  11.921  63.807  1.00  0.00    -0.336 OA 
BRANCH  11  12
HETATM   12  P   UNL     1      -9.426  10.822  64.182  1.00  0.00    -0.305 P  
HETATM   13  O   UNL     1     -10.467   9.997  65.155  1.00  0.00    -0.113 OA 
HETATM   14  O   UNL     1      -9.642  10.161  62.804  1.00  0.00    -0.302 OA 
BRANCH  12  15
HETATM   15  O   UNL     1      -8.144   9.722  64.557  1.00  0.00    -0.130 OA 
BRANCH  15  16
HETATM   16  C   UNL     1      -7.739   9.690  65.940  1.00  0.00    -0.102 C  
BRANCH  16  17
HETATM   17  C   UNL     1      -7.674   8.285  66.519  1.00  0.00    -0.092 C  
HETATM   18  O   UNL     1      -8.169   8.287  67.860  1.00  0.00    -0.125 OA 
HETATM   19  C   UNL     1      -8.568   6.947  68.153  1.00  0.00    -0.123 C  
HETATM   20  H   UNL     1      -8.147   5.967  64.273  1.00  0.00     0.000 HD 
HETATM   21  C   UNL     1      -8.980   6.297  66.816  1.00  0.00    -0.125 C  
HETATM   22  H   UNL     1      -8.684   4.581  65.813  1.00  0.00     0.000 HD 
HETATM   23  C   UNL     1      -8.468   7.253  65.742  1.00  0.00    -0.143 C  
HETATM   24  O   UNL     1      -8.430   4.982  66.637  1.00  0.00    -0.108 OA 
HETATM   25  O   UNL     1      -7.650   6.614  64.760  1.00  0.00    -0.088 OA 
BRANCH  19  26
HETATM   26  N   UNL     1      -9.604   6.937  69.188  1.00  0.00    -0.145 N  
HETATM   27  C   UNL     1     -10.401   8.035  69.416  1.00  0.00    -0.217 C  
HETATM   28  C   UNL     1     -11.267   8.061  70.422  1.00  0.00    -0.230 C  
HETATM   29  C   UNL     1     -11.304   6.854  71.268  1.00  0.00    -0.279 C  
HETATM   30  N   UNL     1     -10.560   5.811  71.063  1.00  0.00    -0.242 N  
HETATM   31  N   UNL     1     -12.151   6.816  72.342  1.00  0.00    -0.502 NA 
HETATM   32  H   UNL     1     -10.637   4.999  71.674  1.00  0.00     0.000 HD 
HETATM   33  C   UNL     1      -9.665   5.808  70.015  1.00  0.00    -0.169 C  
HETATM   34  H1  UNL     1     -12.176   5.982  72.928  1.00  0.00     0.000 HD 
HETATM   35  H2  UNL     1     -12.750   7.614  72.555  1.00  0.00     0.000 HD 
HETATM   36  O   UNL     1      -8.933   4.837  69.809  1.00  0.00    -0.090 OA 
ENDBRANCH  19  26
ENDBRANCH  16  17
ENDBRANCH  15  16
ENDBRANCH  12  15
ENDBRANCH  11  12
ENDBRANCH   8  11
ENDBRANCH   7   8
ENDBRANCH   6   7
ENDBRANCH   5   6
ENDBRANCH   2   5
TORSDOF 10
ENDMDL
MODEL      183
REMARK 921   NORMALIZED FREE ENERGY PREDICTED BY IDOCK:   -4.38 KCAL/MOL
REMARK 922        TOTAL FREE ENERGY PREDICTED BY IDOCK:   -7.87 KCAL/MOL
REMARK 923 INTER-LIGAND FREE ENERGY PREDICTED BY IDOCK:   -6.56 KCAL/MOL
REMARK 924 INTRA-LIGAND FREE ENERGY PREDICTED BY IDOCK:   -1.31 KCAL/MOL
REMARK 927      BINDING AFFINITY PREDICTED BY RF-SCORE:    0.00 PKD
ROOT
HETATM    1  C   UNL     1     -11.605   9.684  71.329  1.00  0.00    -0.393 C  
HETATM    2  N   UNL     1     -10.434   9.190  70.507  1.00  0.00    -0.218 N  
HETATM    3  C   UNL     1     -10.819   7.942  69.732  1.00  0.00    -0.202 C  
HETATM    4  C   UNL     1     -10.041  10.281  69.496  1.00  0.00    -0.235 C  
ENDROOT
BRANCH   2   5
HETATM    5  C   UNL     1      -9.266   8.899  71.482  1.00  0.00    -0.252 C  
BRANCH   5   6
HETATM    6  C   UNL     1      -7.882   9.024  70.872  1.00  0.00    -0.146 C  
BRANCH   6   7
HETATM    7  O   UNL     1      -7.594   7.862  70.118  1.00  0.00    -0.080 OA 
BRANCH   7   8
HETATM    8  P   UNL     1      -6.666   8.282  68.720  1.00  0.00    -0.060 P  
HETATM    9  O   UNL     1      -7.710   7.574  67.866  1.00  0.00    -0.111 OA 
HETATM   10  O   UNL     1      -5.501   7.481  69.314  1.00  0.00    -0.015 OA 
BRANCH   8  11
HETATM   11  O   UNL     1      -5.737   8.702  67.322  1.00  0.00    -0.038 OA 
BRANCH  11  12
HETATM   12  P   UNL     1      -5.711  10.422  67.144  1.00  0.00    -0.048 P  
HETATM   13  O   UNL     1      -7.158  10.327  66.364  1.00  0.00    -0.100 OA 
HETATM   14  O   UNL     1      -6.124  10.543  68.626  1.00  0.00    -0.044 OA 
BRANCH  12  15
HETATM   15  O   UNL     1      -5.685  12.143  66.965  1.00  0.00    -0.186 OA 
BRANCH  15  16
HETATM   16  C   UNL     1      -5.585  12.893  68.191  1.00  0.00    -0.088 C  
BRANCH  16  17
HETATM   17  C   UNL     1      -6.239  14.264  68.117  1.00  0.00    -0.136 C  
HETATM   18  O   UNL     1      -7.048  14.356  66.942  1.00  0.00     0.075 OA 
HETATM   19  C   UNL     1      -8.003  15.391  67.179  1.00  0.00    -0.217 C  
HETATM   20  H   UNL     1      -6.932  15.497  71.057  1.00  0.00     0.000 HD 
HETATM   21  C   UNL     1      -8.245  15.440  68.703  1.00  0.00    -0.158 C  
HETATM   22  H   UNL     1      -8.376  16.805  70.171  1.00  0.00     0.000 HD 
HETATM   23  C   UNL     1      -7.122  14.599  69.305  1.00  0.00    -0.150 C  
HETATM   24  O   UNL     1      -8.227  16.775  69.233  1.00  0.00    -0.155 OA 
HETATM   25  O   UNL     1      -6.380  15.287  70.313  1.00  0.00    -0.138 OA 
BRANCH  19  26
HETATM   26  N   UNL     1      -9.206  15.173  66.372  1.00  0.00    -0.285 N  
HETATM   27  C   UNL     1      -9.766  13.923  66.245  1.00  0.00    -0.289 C  
HETATM   28  C   UNL     1     -10.792  13.708  65.429  1.00  0.00    -0.302 C  
HETATM   29  C   UNL     1     -11.271  14.882  64.678  1.00  0.00    -0.341 C  
HETATM   30  N   UNL     1     -10.754  16.067  64.791  1.00  0.00    -0.476 N  
HETATM   31  N   UNL     1     -12.307  14.735  63.796  1.00  0.00    -1.082 NA 
HETATM   32  H   UNL     1     -11.134  16.846  64.255  1.00  0.00     0.000 HD 
HETATM   33  C   UNL     1      -9.686  16.265  65.640  1.00  0.00    -0.171 C  
HETATM   34  H1  UNL     1     -12.639  15.547  63.276  1.00  0.00     0.000 HD 
HETATM   35  H2  UNL     1     -12.744  13.822  63.661  1.00  0.00     0.000 HD 
HETATM   36  O   UNL     1      -9.163  17.377  65.752  1.00  0.00    -0.517 OA 
ENDBRANCH  19  26
ENDBRANCH  16  17
ENDBRANCH  15  16
ENDBRANCH  12  15
ENDBRANCH  11  12
ENDBRANCH   8  11
ENDBRANCH   7   8
ENDBRANCH   6   7
ENDBRANCH   5   6
ENDBRANCH   2   5
TORSDOF 10
ENDMDL
MODEL      184
REMARK 921   NORMALIZED FREE ENERGY PREDICTED BY IDOCK:   -4.36 KCAL/MOL
REMARK 922        TOTAL FREE ENERGY PREDICTED BY IDOCK:   -7.84 KCAL/MOL
REMARK 923 INTER-LIGAND FREE ENERGY PREDICTED BY IDOCK:   -7.17 KCAL/MOL
REMARK 924 INTRA-LIGAND FREE ENERGY PREDICTED BY IDOCK:   -0.68 KCAL/MOL
REMARK 927      BINDING AFFINITY PREDICTED BY RF-SCORE:    0.00 PKD
ROOT
HETATM    1  C   UNL     1      -6.409  19.627  69.229  1.00  0.00    -0.313 C  
HETATM    2  N   UNL     1      -6.403  20.190  67.824  1.00  0.00    -0.219 N  
HETATM    3  C   UNL     1      -7.696  20.936  67.545  1.00  0.00    -0.175 C  
HETATM    4  C   UNL     1      -5.238  21.185  67.693  1.00  0.00    -0.258 C  
ENDROOT
BRANCH   2   5
HETATM    5  C   UNL     1      -6.225  19.004  66.844  1.00  0.00    -0.178 C  
BRANCH   5   6
HETATM    6  C   UNL     1      -7.479  18.618  66.078  1.00  0.00    -0.230 C  
BRANCH   6   7
HETATM    7  O   UNL     1      -8.415  18.046  66.970  1.00  0.00    -0.226 OA 
BRANCH   7   8
HETATM    8  P   UNL     1      -9.171  16.676  66.231  1.00  0.00    -0.260 P  
HETATM    9  O   UNL     1     -10.042  17.639  65.435  1.00  0.00    -0.482 OA 
HETATM   10  O   UNL     1      -9.614  16.228  67.628  1.00  0.00    -0.224 OA 
BRANCH   8  11
HETATM   11  O   UNL     1      -9.926  15.305  65.492  1.00  0.00    -0.337 OA 
BRANCH  11  12
HETATM   12  P   UNL     1     -10.509  14.237  66.720  1.00  0.00    -0.280 P  
HETATM   13  O   UNL     1     -11.953  14.177  65.930  1.00  0.00    -0.376 OA 
HETATM   14  O   UNL     1      -9.705  13.099  66.057  1.00  0.00    -0.279 OA 
BRANCH  12  15
HETATM   15  O   UNL     1     -11.094  13.168  67.948  1.00  0.00    -0.245 OA 
BRANCH  15  16
HETATM   16  C   UNL     1     -11.743  11.972  67.473  1.00  0.00    -0.280 C  
BRANCH  16  17
HETATM   17  C   UNL     1     -11.786  10.856  68.505  1.00  0.00    -0.237 C  
HETATM   18  O   UNL     1     -11.085   9.710  68.014  1.00  0.00    -0.188 OA 
HETATM   19  C   UNL     1     -10.713   8.935  69.155  1.00  0.00    -0.143 C  
HETATM   20  H   UNL     1     -11.789  11.967  71.572  1.00  0.00     0.000 HD 
HETATM   21  C   UNL     1     -10.550   9.919  70.333  1.00  0.00    -0.302 C  
HETATM   22  H   UNL     1     -11.086  10.068  72.264  1.00  0.00     0.000 HD 
HETATM   23  C   UNL     1     -11.177  11.222  69.846  1.00  0.00    -0.187 C  
HETATM   24  O   UNL     1     -11.186   9.463  71.538  1.00  0.00    -0.355 OA 
HETATM   25  O   UNL     1     -12.170  11.738  70.733  1.00  0.00    -0.378 OA 
BRANCH  19  26
HETATM   26  N   UNL     1      -9.528   8.127  68.860  1.00  0.00    -0.151 N  
HETATM   27  C   UNL     1      -8.279   8.695  68.762  1.00  0.00    -0.121 C  
HETATM   28  C   UNL     1      -7.224   7.979  68.391  1.00  0.00    -0.089 C  
HETATM   29  C   UNL     1      -7.486   6.561  68.086  1.00  0.00    -0.095 C  
HETATM   30  N   UNL     1      -8.658   6.013  68.177  1.00  0.00    -0.115 N  
HETATM   31  N   UNL     1      -6.454   5.765  67.670  1.00  0.00    -0.045 NA 
HETATM   32  H   UNL     1      -8.778   5.023  67.965  1.00  0.00     0.000 HD 
HETATM   33  C   UNL     1      -9.740   6.776  68.560  1.00  0.00    -0.133 C  
HETATM   34  H1  UNL     1      -6.635   4.784  67.459  1.00  0.00     0.000 HD 
HETATM   35  H2  UNL     1      -5.513   6.149  67.572  1.00  0.00     0.000 HD 
HETATM   36  O   UNL     1     -10.868   6.284  68.635  1.00  0.00    -0.270 OA 
ENDBRANCH  19  26
ENDBRANCH  16  17
ENDBRANCH  15  16
ENDBRANCH  12  15
ENDBRANCH  11  12
ENDBRANCH   8  11
ENDBRANCH   7   8
ENDBRANCH   6   7
ENDBRANCH   5   6
ENDBRANCH   2   5
TORSDOF 10
ENDMDL
MODEL      185
REMARK 921   NORMALIZED FREE ENERGY PREDICTED BY IDOCK:   -4.35 KCAL/MOL
REMARK 922        TOTAL FREE ENERGY PREDICTED BY IDOCK:   -7.83 KCAL/MOL
REMARK 923 INTER-LIGAND FREE ENERGY PREDICTED BY IDOCK:   -7.18 KCAL/MOL
REMARK 924 INTRA-LIGAND FREE ENERGY PREDICTED BY IDOCK:   -0.65 KCAL/MOL
REMARK 927      BINDING AFFINITY PREDICTED BY RF-SCORE:    0.00 PKD
ROOT
HETATM    1  C   UNL     1      -9.093   6.084  66.374  1.00  0.00    -0.150 C  
HETATM    2  N   UNL     1      -9.185   7.314  67.251  1.00  0.00    -0.128 N  
HETATM    3  C   UNL     1     -10.595   7.878  67.228  1.00  0.00    -0.295 C  
HETATM    4  C   UNL     1      -8.851   6.918  68.699  1.00  0.00    -0.124 C  
ENDROOT
BRANCH   2   5
HETATM    5  C   UNL     1      -8.165   8.350  66.716  1.00  0.00    -0.102 C  
BRANCH   5   6
HETATM    6  C   UNL     1      -7.999   9.585  67.582  1.00  0.00    -0.106 C  
BRANCH   6   7
HETATM    7  O   UNL     1      -6.687  10.091  67.432  1.00  0.00    -0.072 OA 
BRANCH   7   8
HETATM    8  P   UNL     1      -6.721  11.821  67.417  1.00  0.00    -0.145 P  
HETATM    9  O   UNL     1      -8.218  11.747  67.148  1.00  0.00    -0.154 OA 
HETATM   10  O   UNL     1      -5.735  11.780  66.243  1.00  0.00    -0.233 OA 
BRANCH   8  11
HETATM   11  O   UNL     1      -6.753  13.551  67.402  1.00  0.00    -0.180 OA 
BRANCH  11  12
HETATM   12  P   UNL     1      -8.290  14.102  67.973  1.00  0.00    -0.188 P  
HETATM   13  O   UNL     1      -7.506  14.967  69.135  1.00  0.00    -0.142 OA 
HETATM   14  O   UNL     1      -8.336  15.084  66.783  1.00  0.00    -0.225 OA 
BRANCH  12  15
HETATM   15  O   UNL     1      -9.826  14.655  68.546  1.00  0.00    -0.216 OA 
BRANCH  15  16
HETATM   16  C   UNL     1     -10.975  14.072  67.901  1.00  0.00    -0.247 C  
BRANCH  16  17
HETATM   17  C   UNL     1     -12.085  13.692  68.869  1.00  0.00    -0.300 C  
HETATM   18  O   UNL     1     -12.128  12.272  69.029  1.00  0.00    -0.265 OA 
HETATM   19  C   UNL     1     -12.781  12.017  70.274  1.00  0.00     0.152 C  
HETATM   20  H   UNL     1     -12.550  15.927  71.200  1.00  0.00     0.000 HD 
HETATM   21  C   UNL     1     -12.501  13.231  71.185  1.00  0.00    -0.308 C  
HETATM   22  H   UNL     1     -13.503  14.453  72.425  1.00  0.00     0.000 HD 
HETATM   23  C   UNL     1     -11.942  14.301  70.251  1.00  0.00    -0.329 C  
HETATM   24  O   UNL     1     -13.675  13.706  71.864  1.00  0.00    -0.400 OA 
HETATM   25  O   UNL     1     -12.640  15.545  70.335  1.00  0.00    -0.419 OA 
BRANCH  19  26
HETATM   26  N   UNL     1     -12.355  10.727  70.820  1.00  0.00    -0.349 N  
HETATM   27  C   UNL     1     -13.123  10.050  71.739  1.00  0.00    -0.457 C  
HETATM   28  C   UNL     1     -12.686   8.933  72.312  1.00  0.00    -0.464 C  
HETATM   29  C   UNL     1     -11.341   8.488  71.906  1.00  0.00    -0.329 C  
HETATM   30  N   UNL     1     -10.608   9.116  71.039  1.00  0.00    -0.265 N  
HETATM   31  N   UNL     1     -10.810   7.361  72.473  1.00  0.00    -0.260 NA 
HETATM   32  H   UNL     1      -9.689   8.754  70.787  1.00  0.00     0.000 HD 
HETATM   33  C   UNL     1     -11.080  10.275  70.461  1.00  0.00    -0.306 C  
HETATM   34  H1  UNL     1      -9.880   7.053  72.193  1.00  0.00     0.000 HD 
HETATM   35  H2  UNL     1     -11.340   6.835  73.169  1.00  0.00     0.000 HD 
HETATM   36  O   UNL     1     -10.396  10.902  69.648  1.00  0.00    -0.170 OA 
ENDBRANCH  19  26
ENDBRANCH  16  17
ENDBRANCH  15  16
ENDBRANCH  12  15
ENDBRANCH  11  12
ENDBRANCH   8  11
ENDBRANCH   7   8
ENDBRANCH   6   7
ENDBRANCH   5   6
ENDBRANCH   2   5
TORSDOF 10
ENDMDL
MODEL      186
REMARK 921   NORMALIZED FREE ENERGY PREDICTED BY IDOCK:   -4.34 KCAL/MOL
REMARK 922        TOTAL FREE ENERGY PREDICTED BY IDOCK:   -7.82 KCAL/MOL
REMARK 923 INTER-LIGAND FREE ENERGY PREDICTED BY IDOCK:   -6.61 KCAL/MOL
REMARK 924 INTRA-LIGAND FREE ENERGY PREDICTED BY IDOCK:   -1.20 KCAL/MOL
REMARK 927      BINDING AFFINITY PREDICTED BY RF-SCORE:    0.00 PKD
ROOT
HETATM    1  C   UNL     1      -9.123   5.382  65.414  1.00  0.00    -0.088 C  
HETATM    2  N   UNL     1      -7.706   5.104  65.867  1.00  0.00    -0.090 N  
HETATM    3  C   UNL     1      -7.135   3.911  65.119  1.00  0.00    -0.066 C  
HETATM    4  C   UNL     1      -6.834   6.331  65.549  1.00  0.00    -0.052 C  
ENDROOT
BRANCH   2   5
HETATM    5  C   UNL     1      -7.743   4.836  67.392  1.00  0.00    -0.090 C  
BRANCH   5   6
HETATM    6  C   UNL     1      -7.541   6.066  68.259  1.00  0.00    -0.091 C  
BRANCH   6   7
HETATM    7  O   UNL     1      -7.147   5.666  69.556  1.00  0.00    -0.061 OA 
BRANCH   7   8
HETATM    8  P   UNL     1      -8.115   6.473  70.741  1.00  0.00    -0.122 P  
HETATM    9  O   UNL     1      -6.881   6.556  71.631  1.00  0.00    -0.064 OA 
HETATM   10  O   UNL     1      -9.005   5.226  70.792  1.00  0.00    -0.131 OA 
BRANCH   8  11
HETATM   11  O   UNL     1      -9.084   7.280  71.926  1.00  0.00    -0.134 OA 
BRANCH  11  12
HETATM   12  P   UNL     1     -10.339   8.169  71.136  1.00  0.00    -0.210 P  
HETATM   13  O   UNL     1     -11.443   7.318  72.012  1.00  0.00    -0.255 OA 
HETATM   14  O   UNL     1     -10.017   9.366  72.055  1.00  0.00    -0.058 OA 
BRANCH  12  15
HETATM   15  O   UNL     1     -11.596   9.058  70.345  1.00  0.00    -0.226 OA 
BRANCH  15  16
HETATM   16  C   UNL     1     -11.230  10.373  69.883  1.00  0.00    -0.306 C  
BRANCH  16  17
HETATM   17  C   UNL     1     -11.337  10.536  68.375  1.00  0.00    -0.262 C  
HETATM   18  O   UNL     1     -11.622  11.900  68.051  1.00  0.00    -0.303 OA 
HETATM   19  C   UNL     1     -11.204  12.097  66.699  1.00  0.00    -0.324 C  
HETATM   20  H   UNL     1      -9.363   8.519  66.740  1.00  0.00     0.000 HD 
HETATM   21  C   UNL     1     -10.048  11.109  66.436  1.00  0.00    -0.226 C  
HETATM   22  H   UNL     1      -9.471   9.798  65.027  1.00  0.00     0.000 HD 
HETATM   23  C   UNL     1     -10.087  10.139  67.614  1.00  0.00    -0.190 C  
HETATM   24  O   UNL     1     -10.182  10.406  65.190  1.00  0.00    -0.304 OA 
HETATM   25  O   UNL     1     -10.146   8.768  67.216  1.00  0.00    -0.195 OA 
BRANCH  19  26
HETATM   26  N   UNL     1     -10.875  13.505  66.466  1.00  0.00    -0.282 N  
HETATM   27  C   UNL     1     -10.318  14.283  67.454  1.00  0.00    -0.259 C  
HETATM   28  C   UNL     1     -10.117  15.584  67.275  1.00  0.00    -0.250 C  
HETATM   29  C   UNL     1     -10.538  16.124  65.969  1.00  0.00    -0.295 C  
HETATM   30  N   UNL     1     -11.063  15.400  65.029  1.00  0.00    -0.410 N  
HETATM   31  N   UNL     1     -10.391  17.461  65.720  1.00  0.00    -0.590 NA 
HETATM   32  H   UNL     1     -11.324  15.826  64.140  1.00  0.00     0.000 HD 
HETATM   33  C   UNL     1     -11.265  14.053  65.238  1.00  0.00    -0.319 C  
HETATM   34  H1  UNL     1     -10.682  17.835  64.817  1.00  0.00     0.000 HD 
HETATM   35  H2  UNL     1      -9.993  18.078  66.429  1.00  0.00     0.000 HD 
HETATM   36  O   UNL     1     -11.779  13.346  64.369  1.00  0.00    -0.361 OA 
ENDBRANCH  19  26
ENDBRANCH  16  17
ENDBRANCH  15  16
ENDBRANCH  12  15
ENDBRANCH  11  12
ENDBRANCH   8  11
ENDBRANCH   7   8
ENDBRANCH   6   7
ENDBRANCH   5   6
ENDBRANCH   2   5
TORSDOF 10
ENDMDL
MODEL      187
REMARK 921   NORMALIZED FREE ENERGY PREDICTED BY IDOCK:   -4.33 KCAL/MOL
REMARK 922        TOTAL FREE ENERGY PREDICTED BY IDOCK:   -7.79 KCAL/MOL
REMARK 923 INTER-LIGAND FREE ENERGY PREDICTED BY IDOCK:   -6.85 KCAL/MOL
REMARK 924 INTRA-LIGAND FREE ENERGY PREDICTED BY IDOCK:   -0.93 KCAL/MOL
REMARK 927      BINDING AFFINITY PREDICTED BY RF-SCORE:    0.00 PKD
ROOT
HETATM    1  C   UNL     1      -5.987  18.711  65.070  1.00  0.00    -0.251 C  
HETATM    2  N   UNL     1      -6.662  19.302  66.289  1.00  0.00    -0.200 N  
HETATM    3  C   UNL     1      -6.223  18.571  67.546  1.00  0.00    -0.185 C  
HETATM    4  C   UNL     1      -6.245  20.777  66.422  1.00  0.00    -0.246 C  
ENDROOT
BRANCH   2   5
HETATM    5  C   UNL     1      -8.193  19.181  66.084  1.00  0.00    -0.252 C  
BRANCH   5   6
HETATM    6  C   UNL     1      -8.828  17.967  66.739  1.00  0.00    -0.263 C  
BRANCH   6   7
HETATM    7  O   UNL     1      -8.856  16.897  65.817  1.00  0.00    -0.522 OA 
BRANCH   7   8
HETATM    8  P   UNL     1     -10.240  15.901  66.111  1.00  0.00    -0.363 P  
HETATM    9  O   UNL     1     -10.744  16.264  64.720  1.00  0.00    -0.680 OA 
HETATM   10  O   UNL     1     -10.578  16.807  67.301  1.00  0.00    -0.320 OA 
BRANCH   8  11
HETATM   11  O   UNL     1     -11.624  14.905  66.405  1.00  0.00    -0.330 OA 
BRANCH  11  12
HETATM   12  P   UNL     1     -11.106  13.339  66.923  1.00  0.00    -0.307 P  
HETATM   13  O   UNL     1      -9.555  13.892  66.925  1.00  0.00    -0.250 OA 
HETATM   14  O   UNL     1     -11.600  13.687  68.344  1.00  0.00    -0.297 OA 
BRANCH  12  15
HETATM   15  O   UNL     1     -10.587  11.771  67.441  1.00  0.00    -0.212 OA 
BRANCH  15  16
HETATM   16  C   UNL     1      -9.818  11.023  66.479  1.00  0.00    -0.203 C  
BRANCH  16  17
HETATM   17  C   UNL     1      -8.686  10.220  67.102  1.00  0.00    -0.129 C  
HETATM   18  O   UNL     1      -9.163   8.932  67.500  1.00  0.00    -0.135 OA 
HETATM   19  C   UNL     1      -8.022   8.077  67.577  1.00  0.00    -0.122 C  
HETATM   20  H   UNL     1      -5.780  10.896  65.782  1.00  0.00     0.000 HD 
HETATM   21  C   UNL     1      -6.986   8.616  66.568  1.00  0.00    -0.079 C  
HETATM   22  H   UNL     1      -5.020   9.026  66.492  1.00  0.00     0.000 HD 
HETATM   23  C   UNL     1      -7.498  10.002  66.184  1.00  0.00    -0.109 C  
HETATM   24  O   UNL     1      -5.658   8.693  67.113  1.00  0.00    -0.037 OA 
HETATM   25  O   UNL     1      -6.525  11.032  66.357  1.00  0.00    -0.119 OA 
BRANCH  19  26
HETATM   26  N   UNL     1      -8.414   6.681  67.369  1.00  0.00    -0.120 N  
HETATM   27  C   UNL     1      -9.176   6.305  66.287  1.00  0.00    -0.145 C  
HETATM   28  C   UNL     1      -9.618   5.059  66.156  1.00  0.00    -0.178 C  
HETATM   29  C   UNL     1      -9.250   4.130  67.240  1.00  0.00    -0.158 C  
HETATM   30  N   UNL     1      -8.531   4.472  68.264  1.00  0.00    -0.093 N  
HETATM   31  N   UNL     1      -9.693   2.837  67.191  1.00  0.00    -0.356 NA 
HETATM   32  H   UNL     1      -8.296   3.784  68.978  1.00  0.00     0.000 HD 
HETATM   33  C   UNL     1      -8.086   5.771  68.381  1.00  0.00    -0.108 C  
HETATM   34  H1  UNL     1      -9.438   2.194  67.941  1.00  0.00     0.000 HD 
HETATM   35  H2  UNL     1     -10.271   2.518  66.413  1.00  0.00     0.000 HD 
HETATM   36  O   UNL     1      -7.416   6.127  69.354  1.00  0.00    -0.088 OA 
ENDBRANCH  19  26
ENDBRANCH  16  17
ENDBRANCH  15  16
ENDBRANCH  12  15
ENDBRANCH  11  12
ENDBRANCH   8  11
ENDBRANCH   7   8
ENDBRANCH   6   7
ENDBRANCH   5   6
ENDBRANCH   2   5
TORSDOF 10
ENDMDL
MODEL      188
REMARK 921   NORMALIZED FREE ENERGY PREDICTED BY IDOCK:   -4.32 KCAL/MOL
REMARK 922        TOTAL FREE ENERGY PREDICTED BY IDOCK:   -7.78 KCAL/MOL
REMARK 923 INTER-LIGAND FREE ENERGY PREDICTED BY IDOCK:   -7.76 KCAL/MOL
REMARK 924 INTRA-LIGAND FREE ENERGY PREDICTED BY IDOCK:   -0.02 KCAL/MOL
REMARK 927      BINDING AFFINITY PREDICTED BY RF-SCORE:    0.00 PKD
ROOT
HETATM    1  C   UNL     1      -5.905  18.990  64.606  1.00  0.00    -0.284 C  
HETATM    2  N   UNL     1      -6.350  19.445  65.980  1.00  0.00    -0.188 N  
HETATM    3  C   UNL     1      -5.554  18.730  67.058  1.00  0.00    -0.144 C  
HETATM    4  C   UNL     1      -6.087  20.955  66.113  1.00  0.00    -0.254 C  
ENDROOT
BRANCH   2   5
HETATM    5  C   UNL     1      -7.862  19.137  66.111  1.00  0.00    -0.282 C  
BRANCH   5   6
HETATM    6  C   UNL     1      -8.185  17.802  66.758  1.00  0.00    -0.250 C  
BRANCH   6   7
HETATM    7  O   UNL     1      -8.514  16.861  65.755  1.00  0.00    -0.492 OA 
BRANCH   7   8
HETATM    8  P   UNL     1     -10.020  16.098  66.134  1.00  0.00    -0.376 P  
HETATM    9  O   UNL     1     -10.496  16.431  64.726  1.00  0.00    -0.620 OA 
HETATM   10  O   UNL     1     -10.200  17.123  67.260  1.00  0.00    -0.300 OA 
BRANCH   8  11
HETATM   11  O   UNL     1     -11.525  15.333  66.514  1.00  0.00    -0.242 OA 
BRANCH  11  12
HETATM   12  P   UNL     1     -11.223  13.865  67.377  1.00  0.00    -0.343 P  
HETATM   13  O   UNL     1      -9.630  14.278  67.449  1.00  0.00    -0.207 OA 
HETATM   14  O   UNL     1     -11.810  14.532  68.639  1.00  0.00    -0.319 OA 
BRANCH  12  15
HETATM   15  O   UNL     1     -10.920  12.397  68.241  1.00  0.00    -0.212 OA 
BRANCH  15  16
HETATM   16  C   UNL     1     -11.677  12.223  69.455  1.00  0.00    -0.332 C  
BRANCH  16  17
HETATM   17  C   UNL     1     -11.954  10.766  69.793  1.00  0.00    -0.325 C  
HETATM   18  O   UNL     1     -11.087   9.917  69.037  1.00  0.00    -0.213 OA 
HETATM   19  C   UNL     1     -11.014   8.675  69.739  1.00  0.00    -0.127 C  
HETATM   20  H   UNL     1     -12.881  10.339  72.892  1.00  0.00     0.000 HD 
HETATM   21  C   UNL     1     -11.240   8.987  71.233  1.00  0.00    -0.315 C  
HETATM   22  H   UNL     1     -12.307   8.280  72.782  1.00  0.00     0.000 HD 
HETATM   23  C   UNL     1     -11.768  10.419  71.258  1.00  0.00    -0.231 C  
HETATM   24  O   UNL     1     -12.168   8.088  71.861  1.00  0.00    -0.292 OA 
HETATM   25  O   UNL     1     -12.996  10.556  71.974  1.00  0.00    -0.458 OA 
BRANCH  19  26
HETATM   26  N   UNL     1      -9.755   7.990  69.437  1.00  0.00    -0.168 N  
HETATM   27  C   UNL     1      -9.735   6.681  69.013  1.00  0.00    -0.140 C  
HETATM   28  C   UNL     1      -8.590   6.031  68.842  1.00  0.00    -0.116 C  
HETATM   29  C   UNL     1      -7.366   6.795  69.144  1.00  0.00    -0.093 C  
HETATM   30  N   UNL     1      -7.372   8.030  69.542  1.00  0.00    -0.084 N  
HETATM   31  N   UNL     1      -6.148   6.184  69.018  1.00  0.00    -0.027 NA 
HETATM   32  H   UNL     1      -6.493   8.513  69.724  1.00  0.00     0.000 HD 
HETATM   33  C   UNL     1      -8.572   8.684  69.717  1.00  0.00    -0.131 C  
HETATM   34  H1  UNL     1      -5.302   6.712  69.227  1.00  0.00     0.000 HD 
HETATM   35  H2  UNL     1      -6.088   5.211  68.719  1.00  0.00     0.000 HD 
HETATM   36  O   UNL     1      -8.606   9.852  70.112  1.00  0.00    -0.195 OA 
ENDBRANCH  19  26
ENDBRANCH  16  17
ENDBRANCH  15  16
ENDBRANCH  12  15
ENDBRANCH  11  12
ENDBRANCH   8  11
ENDBRANCH   7   8
ENDBRANCH   6   7
ENDBRANCH   5   6
ENDBRANCH   2   5
TORSDOF 10
ENDMDL
MODEL      189
REMARK 921   NORMALIZED FREE ENERGY PREDICTED BY IDOCK:   -4.29 KCAL/MOL
REMARK 922        TOTAL FREE ENERGY PREDICTED BY IDOCK:   -7.73 KCAL/MOL
REMARK 923 INTER-LIGAND FREE ENERGY PREDICTED BY IDOCK:   -6.68 KCAL/MOL
REMARK 924 INTRA-LIGAND FREE ENERGY PREDICTED BY IDOCK:   -1.06 KCAL/MOL
REMARK 927      BINDING AFFINITY PREDICTED BY RF-SCORE:    0.00 PKD
ROOT
HETATM    1  C   UNL     1      -9.925   2.905  72.403  1.00  0.00    -0.165 C  
HETATM    2  N   UNL     1      -8.631   3.445  71.833  1.00  0.00    -0.080 N  
HETATM    3  C   UNL     1      -8.156   4.643  72.638  1.00  0.00    -0.100 C  
HETATM    4  C   UNL     1      -7.554   2.351  71.921  1.00  0.00    -0.044 C  
ENDROOT
BRANCH   2   5
HETATM    5  C   UNL     1      -8.896   3.838  70.358  1.00  0.00    -0.086 C  
BRANCH   5   6
HETATM    6  C   UNL     1      -9.957   4.906  70.165  1.00  0.00    -0.255 C  
BRANCH   6   7
HETATM    7  O   UNL     1      -9.338   6.125  69.806  1.00  0.00    -0.148 OA 
BRANCH   7   8
HETATM    8  P   UNL     1     -10.470   7.426  69.946  1.00  0.00    -0.237 P  
HETATM    9  O   UNL     1     -10.511   7.172  71.447  1.00  0.00    -0.205 OA 
HETATM   10  O   UNL     1     -11.407   6.645  69.018  1.00  0.00    -0.245 OA 
BRANCH   8  11
HETATM   11  O   UNL     1     -11.602   8.727  70.085  1.00  0.00    -0.111 OA 
BRANCH  11  12
HETATM   12  P   UNL     1     -10.882  10.183  69.491  1.00  0.00    -0.282 P  
HETATM   13  O   UNL     1      -9.487   9.345  69.234  1.00  0.00    -0.154 OA 
HETATM   14  O   UNL     1     -11.655   9.980  68.170  1.00  0.00    -0.144 OA 
BRANCH  12  15
HETATM   15  O   UNL     1     -10.160  11.638  68.895  1.00  0.00    -0.181 OA 
BRANCH  15  16
HETATM   16  C   UNL     1     -10.064  11.742  67.461  1.00  0.00    -0.192 C  
BRANCH  16  17
HETATM   17  C   UNL     1      -9.015  12.740  66.996  1.00  0.00    -0.221 C  
HETATM   18  O   UNL     1      -9.588  14.047  66.913  1.00  0.00    -0.252 OA 
HETATM   19  C   UNL     1      -8.506  14.977  66.990  1.00  0.00    -0.229 C  
HETATM   20  H   UNL     1      -6.012  11.995  68.030  1.00  0.00     0.000 HD 
HETATM   21  C   UNL     1      -7.391  14.302  67.816  1.00  0.00    -0.174 C  
HETATM   22  H   UNL     1      -5.403  14.025  67.731  1.00  0.00     0.000 HD 
HETATM   23  C   UNL     1      -7.798  12.833  67.898  1.00  0.00    -0.156 C  
HETATM   24  O   UNL     1      -6.089  14.440  67.223  1.00  0.00    -0.300 OA 
HETATM   25  O   UNL     1      -6.774  11.937  67.465  1.00  0.00    -0.087 OA 
BRANCH  19  26
HETATM   26  N   UNL     1      -8.972  16.261  67.519  1.00  0.00    -0.187 N  
HETATM   27  C   UNL     1      -9.824  16.325  68.597  1.00  0.00    -0.230 C  
HETATM   28  C   UNL     1     -10.327  17.483  69.009  1.00  0.00    -0.303 C  
HETATM   29  C   UNL     1      -9.924  18.670  68.234  1.00  0.00    -0.384 C  
HETATM   30  N   UNL     1      -9.119  18.623  67.217  1.00  0.00    -0.274 N  
HETATM   31  N   UNL     1     -10.423  19.896  68.579  1.00  0.00    -0.496 NA 
HETATM   32  H   UNL     1      -8.864  19.479  66.725  1.00  0.00     0.000 HD 
HETATM   33  C   UNL     1      -8.612  17.410  66.805  1.00  0.00    -0.260 C  
HETATM   34  H1  UNL     1     -10.145  20.717  68.043  1.00  0.00     0.000 HD 
HETATM   35  H2  UNL     1     -11.068  19.987  69.364  1.00  0.00     0.000 HD 
HETATM   36  O   UNL     1      -7.860  17.335  65.829  1.00  0.00    -0.495 OA 
ENDBRANCH  19  26
ENDBRANCH  16  17
ENDBRANCH  15  16
ENDBRANCH  12  15
ENDBRANCH  11  12
ENDBRANCH   8  11
ENDBRANCH   7   8
ENDBRANCH   6   7
ENDBRANCH   5   6
ENDBRANCH   2   5
TORSDOF 10
ENDMDL
MODEL      190
REMARK 921   NORMALIZED FREE ENERGY PREDICTED BY IDOCK:   -4.28 KCAL/MOL
REMARK 922        TOTAL FREE ENERGY PREDICTED BY IDOCK:   -7.72 KCAL/MOL
REMARK 923 INTER-LIGAND FREE ENERGY PREDICTED BY IDOCK:   -7.55 KCAL/MOL
REMARK 924 INTRA-LIGAND FREE ENERGY PREDICTED BY IDOCK:   -0.17 KCAL/MOL
REMARK 927      BINDING AFFINITY PREDICTED BY RF-SCORE:    0.00 PKD
ROOT
HETATM    1  C   UNL     1      -6.127  19.265  64.605  1.00  0.00    -0.247 C  
HETATM    2  N   UNL     1      -6.526  19.485  66.049  1.00  0.00    -0.196 N  
HETATM    3  C   UNL     1      -5.753  18.548  66.961  1.00  0.00    -0.146 C  
HETATM    4  C   UNL     1      -6.183  20.931  66.444  1.00  0.00    -0.260 C  
ENDROOT
BRANCH   2   5
HETATM    5  C   UNL     1      -8.050  19.232  66.159  1.00  0.00    -0.284 C  
BRANCH   5   6
HETATM    6  C   UNL     1      -8.431  17.861  66.688  1.00  0.00    -0.258 C  
BRANCH   6   7
HETATM    7  O   UNL     1      -8.712  17.001  65.601  1.00  0.00    -0.468 OA 
BRANCH   7   8
HETATM    8  P   UNL     1     -10.119  16.054  65.948  1.00  0.00    -0.366 P  
HETATM    9  O   UNL     1     -10.771  16.646  64.705  1.00  0.00    -0.742 OA 
HETATM   10  O   UNL     1     -10.226  16.792  67.287  1.00  0.00    -0.280 OA 
BRANCH   8  11
HETATM   11  O   UNL     1     -11.525  15.107  66.294  1.00  0.00    -0.280 OA 
BRANCH  11  12
HETATM   12  P   UNL     1     -11.063  13.458  66.536  1.00  0.00    -0.310 P  
HETATM   13  O   UNL     1      -9.595  13.811  65.877  1.00  0.00    -0.233 OA 
HETATM   14  O   UNL     1     -10.856  13.776  68.032  1.00  0.00    -0.241 OA 
BRANCH  12  15
HETATM   15  O   UNL     1     -10.600  11.808  66.777  1.00  0.00    -0.221 OA 
BRANCH  15  16
HETATM   16  C   UNL     1     -10.300  11.440  68.138  1.00  0.00    -0.188 C  
BRANCH  16  17
HETATM   17  C   UNL     1     -10.876  10.092  68.541  1.00  0.00    -0.231 C  
HETATM   18  O   UNL     1     -10.782   9.175  67.448  1.00  0.00    -0.277 OA 
HETATM   19  C   UNL     1     -10.833   7.861  68.008  1.00  0.00     0.041 C  
HETATM   20  H   UNL     1     -10.413   9.411  71.698  1.00  0.00     0.000 HD 
HETATM   21  C   UNL     1     -10.250   7.956  69.434  1.00  0.00    -0.206 C  
HETATM   22  H   UNL     1     -10.687   7.328  71.291  1.00  0.00     0.000 HD 
HETATM   23  C   UNL     1     -10.189   9.452  69.733  1.00  0.00    -0.220 C  
HETATM   24  O   UNL     1     -11.046   7.269  70.413  1.00  0.00    -0.257 OA 
HETATM   25  O   UNL     1     -10.842   9.811  70.951  1.00  0.00    -0.310 OA 
BRANCH  19  26
HETATM   26  N   UNL     1     -10.157   6.904  67.129  1.00  0.00    -0.189 N  
HETATM   27  C   UNL     1     -10.639   5.628  66.954  1.00  0.00    -0.296 C  
HETATM   28  C   UNL     1      -9.968   4.730  66.242  1.00  0.00    -0.264 C  
HETATM   29  C   UNL     1      -8.688   5.189  65.672  1.00  0.00    -0.143 C  
HETATM   30  N   UNL     1      -8.224   6.390  65.828  1.00  0.00    -0.127 N  
HETATM   31  N   UNL     1      -7.925   4.313  64.949  1.00  0.00    -0.092 NA 
HETATM   32  H   UNL     1      -7.338   6.657  65.400  1.00  0.00     0.000 HD 
HETATM   33  C   UNL     1      -8.935   7.304  66.575  1.00  0.00    -0.152 C  
HETATM   34  H1  UNL     1      -7.040   4.630  64.555  1.00  0.00     0.000 HD 
HETATM   35  H2  UNL     1      -8.239   3.353  64.806  1.00  0.00     0.000 HD 
HETATM   36  O   UNL     1      -8.507   8.447  66.755  1.00  0.00    -0.110 OA 
ENDBRANCH  19  26
ENDBRANCH  16  17
ENDBRANCH  15  16
ENDBRANCH  12  15
ENDBRANCH  11  12
ENDBRANCH   8  11
ENDBRANCH   7   8
ENDBRANCH   6   7
ENDBRANCH   5   6
ENDBRANCH   2   5
TORSDOF 10
ENDMDL
MODEL      191
REMARK 921   NORMALIZED FREE ENERGY PREDICTED BY IDOCK:   -4.27 KCAL/MOL
REMARK 922        TOTAL FREE ENERGY PREDICTED BY IDOCK:   -7.70 KCAL/MOL
REMARK 923 INTER-LIGAND FREE ENERGY PREDICTED BY IDOCK:   -6.46 KCAL/MOL
REMARK 924 INTRA-LIGAND FREE ENERGY PREDICTED BY IDOCK:   -1.24 KCAL/MOL
REMARK 927      BINDING AFFINITY PREDICTED BY RF-SCORE:    0.00 PKD
ROOT
HETATM    1  C   UNL     1     -12.671  14.178  65.088  1.00  0.00    -0.364 C  
HETATM    2  N   UNL     1     -11.447  13.660  65.812  1.00  0.00    -0.310 N  
HETATM    3  C   UNL     1     -10.207  14.413  65.361  1.00  0.00    -0.382 C  
HETATM    4  C   UNL     1     -11.626  13.894  67.321  1.00  0.00    -0.365 C  
ENDROOT
BRANCH   2   5
HETATM    5  C   UNL     1     -11.322  12.148  65.501  1.00  0.00    -0.344 C  
BRANCH   5   6
HETATM    6  C   UNL     1      -9.993  11.527  65.890  1.00  0.00    -0.230 C  
BRANCH   6   7
HETATM    7  O   UNL     1     -10.159  10.762  67.068  1.00  0.00    -0.194 OA 
BRANCH   7   8
HETATM    8  P   UNL     1      -8.629  10.147  67.592  1.00  0.00    -0.116 P  
HETATM    9  O   UNL     1      -9.007  10.538  69.015  1.00  0.00    -0.166 OA 
HETATM   10  O   UNL     1      -7.956  11.175  66.675  1.00  0.00    -0.149 OA 
BRANCH   8  11
HETATM   11  O   UNL     1      -7.099   9.531  68.115  1.00  0.00    -0.077 OA 
BRANCH  11  12
HETATM   12  P   UNL     1      -7.174   7.806  68.206  1.00  0.00    -0.093 P  
HETATM   13  O   UNL     1      -8.464   7.844  67.183  1.00  0.00    -0.115 OA 
HETATM   14  O   UNL     1      -5.970   7.741  67.243  1.00  0.00    -0.045 OA 
BRANCH  12  15
HETATM   15  O   UNL     1      -7.250   6.079  68.296  1.00  0.00    -0.079 OA 
BRANCH  15  16
HETATM   16  C   UNL     1      -6.551   5.484  69.407  1.00  0.00    -0.050 C  
BRANCH  16  17
HETATM   17  C   UNL     1      -7.468   4.770  70.387  1.00  0.00    -0.051 C  
HETATM   18  O   UNL     1      -8.474   5.670  70.859  1.00  0.00    -0.121 OA 
HETATM   19  C   UNL     1      -9.559   4.867  71.325  1.00  0.00    -0.168 C  
HETATM   20  H   UNL     1      -7.863   1.610  69.678  1.00  0.00     0.000 HD 
HETATM   21  C   UNL     1      -9.533   3.557  70.509  1.00  0.00    -0.179 C  
HETATM   22  H   UNL     1      -9.672   1.578  70.822  1.00  0.00     0.000 HD 
HETATM   23  C   UNL     1      -8.176   3.559  69.810  1.00  0.00    -0.052 C  
HETATM   24  O   UNL     1      -9.688   2.384  71.324  1.00  0.00    -0.150 OA 
HETATM   25  O   UNL     1      -7.421   2.369  70.040  1.00  0.00    -0.043 OA 
BRANCH  19  26
HETATM   26  N   UNL     1     -10.817   5.614  71.250  1.00  0.00    -0.245 N  
HETATM   27  C   UNL     1     -11.168   6.314  70.119  1.00  0.00    -0.403 C  
HETATM   28  C   UNL     1     -12.256   7.075  70.091  1.00  0.00     0.045 C  
HETATM   29  C   UNL     1     -13.039   7.122  71.338  1.00  0.00    -0.352 C  
HETATM   30  N   UNL     1     -12.720   6.465  72.410  1.00  0.00    -0.533 N  
HETATM   31  N   UNL     1     -14.158   7.907  71.396  1.00  0.00    -0.595 NA 
HETATM   32  H   UNL     1     -13.307   6.525  73.242  1.00  0.00     0.000 HD 
HETATM   33  C   UNL     1     -11.584   5.685  72.419  1.00  0.00    -0.221 C  
HETATM   34  H1  UNL     1     -14.700   7.940  72.259  1.00  0.00     0.000 HD 
HETATM   35  H2  UNL     1     -14.448   8.453  70.584  1.00  0.00     0.000 HD 
HETATM   36  O   UNL     1     -11.248   5.064  73.430  1.00  0.00    -0.315 OA 
ENDBRANCH  19  26
ENDBRANCH  16  17
ENDBRANCH  15  16
ENDBRANCH  12  15
ENDBRANCH  11  12
ENDBRANCH   8  11
ENDBRANCH   7   8
ENDBRANCH   6   7
ENDBRANCH   5   6
ENDBRANCH   2   5
TORSDOF 10
ENDMDL
MODEL      192
REMARK 921   NORMALIZED FREE ENERGY PREDICTED BY IDOCK:   -4.25 KCAL/MOL
REMARK 922        TOTAL FREE ENERGY PREDICTED BY IDOCK:   -7.67 KCAL/MOL
REMARK 923 INTER-LIGAND FREE ENERGY PREDICTED BY IDOCK:   -7.40 KCAL/MOL
REMARK 924 INTRA-LIGAND FREE ENERGY PREDICTED BY IDOCK:   -0.27 KCAL/MOL
REMARK 927      BINDING AFFINITY PREDICTED BY RF-SCORE:    0.00 PKD
ROOT
HETATM    1  C   UNL     1     -13.151  13.159  72.293  1.00  0.00    -0.353 C  
HETATM    2  N   UNL     1     -12.679  14.523  71.837  1.00  0.00    -0.326 N  
HETATM    3  C   UNL     1     -13.857  15.365  71.377  1.00  0.00    -0.486 C  
HETATM    4  C   UNL     1     -12.012  15.239  73.023  1.00  0.00    -0.407 C  
ENDROOT
BRANCH   2   5
HETATM    5  C   UNL     1     -11.667  14.309  70.685  1.00  0.00    -0.223 C  
BRANCH   5   6
HETATM    6  C   UNL     1     -10.570  15.355  70.599  1.00  0.00    -0.127 C  
BRANCH   6   7
HETATM    7  O   UNL     1     -10.426  15.775  69.256  1.00  0.00    -0.214 OA 
BRANCH   7   8
HETATM    8  P   UNL     1      -8.750  15.813  68.827  1.00  0.00    -0.236 P  
HETATM    9  O   UNL     1      -8.835  17.334  68.804  1.00  0.00    -0.276 OA 
HETATM   10  O   UNL     1      -9.105  15.013  67.569  1.00  0.00    -0.178 OA 
BRANCH   8  11
HETATM   11  O   UNL     1      -7.074  15.851  68.399  1.00  0.00    -0.113 OA 
BRANCH  11  12
HETATM   12  P   UNL     1      -6.330  14.358  68.854  1.00  0.00    -0.105 P  
HETATM   13  O   UNL     1      -5.626  14.298  67.366  1.00  0.00    -0.342 OA 
HETATM   14  O   UNL     1      -5.311  15.164  69.687  1.00  0.00    -0.091 OA 
BRANCH  12  15
HETATM   15  O   UNL     1      -5.584  12.863  69.308  1.00  0.00    -0.071 OA 
BRANCH  15  16
HETATM   16  C   UNL     1      -6.099  11.688  68.651  1.00  0.00    -0.051 C  
BRANCH  16  17
HETATM   17  C   UNL     1      -7.584  11.463  68.889  1.00  0.00    -0.114 C  
HETATM   18  O   UNL     1      -8.345  12.107  67.864  1.00  0.00    -0.142 OA 
HETATM   19  C   UNL     1      -9.617  11.457  67.827  1.00  0.00    -0.172 C  
HETATM   20  H   UNL     1      -8.221   8.572  70.261  1.00  0.00     0.000 HD 
HETATM   21  C   UNL     1      -9.395  10.006  68.303  1.00  0.00    -0.132 C  
HETATM   22  H   UNL     1     -10.238   8.679  69.554  1.00  0.00     0.000 HD 
HETATM   23  C   UNL     1      -7.996  10.003  68.914  1.00  0.00    -0.101 C  
HETATM   24  O   UNL     1     -10.374   9.572  69.261  1.00  0.00    -0.192 OA 
HETATM   25  O   UNL     1      -7.962   9.486  70.244  1.00  0.00    -0.144 OA 
BRANCH  19  26
HETATM   26  N   UNL     1     -10.218  11.584  66.497  1.00  0.00    -0.212 N  
HETATM   27  C   UNL     1     -11.291  12.414  66.272  1.00  0.00    -0.340 C  
HETATM   28  C   UNL     1     -11.899  12.448  65.092  1.00  0.00    -0.437 C  
HETATM   29  C   UNL     1     -11.359  11.540  64.065  1.00  0.00    -0.296 C  
HETATM   30  N   UNL     1     -10.346  10.754  64.264  1.00  0.00    -0.366 N  
HETATM   31  N   UNL     1     -11.950  11.497  62.832  1.00  0.00    -0.778 NA 
HETATM   32  H   UNL     1     -10.006  10.156  63.511  1.00  0.00     0.000 HD 
HETATM   33  C   UNL     1      -9.732  10.732  65.497  1.00  0.00    -0.239 C  
HETATM   34  H1  UNL     1     -11.576  10.869  62.121  1.00  0.00     0.000 HD 
HETATM   35  H2  UNL     1     -12.757  12.088  62.626  1.00  0.00     0.000 HD 
HETATM   36  O   UNL     1      -8.780   9.981  65.719  1.00  0.00    -0.137 OA 
ENDBRANCH  19  26
ENDBRANCH  16  17
ENDBRANCH  15  16
ENDBRANCH  12  15
ENDBRANCH  11  12
ENDBRANCH   8  11
ENDBRANCH   7   8
ENDBRANCH   6   7
ENDBRANCH   5   6
ENDBRANCH   2   5
TORSDOF 10
ENDMDL
MODEL      193
REMARK 921   NORMALIZED FREE ENERGY PREDICTED BY IDOCK:   -4.23 KCAL/MOL
REMARK 922        TOTAL FREE ENERGY PREDICTED BY IDOCK:   -7.63 KCAL/MOL
REMARK 923 INTER-LIGAND FREE ENERGY PREDICTED BY IDOCK:   -6.71 KCAL/MOL
REMARK 924 INTRA-LIGAND FREE ENERGY PREDICTED BY IDOCK:   -0.93 KCAL/MOL
REMARK 927      BINDING AFFINITY PREDICTED BY RF-SCORE:    0.00 PKD
ROOT
HETATM    1  C   UNL     1     -13.467  13.001  72.272  1.00  0.00    -0.547 C  
HETATM    2  N   UNL     1     -13.016  14.260  71.563  1.00  0.00    -0.322 N  
HETATM    3  C   UNL     1     -14.193  15.195  71.343  1.00  0.00    -0.498 C  
HETATM    4  C   UNL     1     -11.987  14.986  72.446  1.00  0.00    -0.348 C  
ENDROOT
BRANCH   2   5
HETATM    5  C   UNL     1     -12.383  13.839  70.214  1.00  0.00    -0.337 C  
BRANCH   5   6
HETATM    6  C   UNL     1     -11.898  14.991  69.351  1.00  0.00    -0.329 C  
BRANCH   6   7
HETATM    7  O   UNL     1     -12.201  14.722  67.997  1.00  0.00    -0.200 OA 
BRANCH   7   8
HETATM    8  P   UNL     1     -11.179  13.458  67.404  1.00  0.00    -0.316 P  
HETATM    9  O   UNL     1     -10.365  14.517  66.671  1.00  0.00    -0.267 OA 
HETATM   10  O   UNL     1     -12.411  12.844  66.730  1.00  0.00    -0.405 OA 
BRANCH   8  11
HETATM   11  O   UNL     1     -10.156  12.193  66.813  1.00  0.00    -0.199 OA 
BRANCH  11  12
HETATM   12  P   UNL     1      -9.943  11.001  68.047  1.00  0.00    -0.185 P  
HETATM   13  O   UNL     1      -9.460   9.938  66.885  1.00  0.00    -0.154 OA 
HETATM   14  O   UNL     1      -8.627  11.702  68.444  1.00  0.00    -0.153 OA 
BRANCH  12  15
HETATM   15  O   UNL     1      -9.729   9.806  69.281  1.00  0.00    -0.175 OA 
BRANCH  15  16
HETATM   16  C   UNL     1     -10.323   8.522  69.011  1.00  0.00    -0.216 C  
BRANCH  16  17
HETATM   17  C   UNL     1      -9.367   7.357  69.220  1.00  0.00    -0.154 C  
HETATM   18  O   UNL     1      -9.845   6.203  68.524  1.00  0.00    -0.130 OA 
HETATM   19  C   UNL     1      -8.716   5.352  68.316  1.00  0.00    -0.101 C  
HETATM   20  H   UNL     1      -6.260   8.307  69.510  1.00  0.00     0.000 HD 
HETATM   21  C   UNL     1      -7.473   6.263  68.238  1.00  0.00    -0.090 C  
HETATM   22  H   UNL     1      -5.606   6.340  68.977  1.00  0.00     0.000 HD 
HETATM   23  C   UNL     1      -7.950   7.621  68.747  1.00  0.00    -0.126 C  
HETATM   24  O   UNL     1      -6.372   5.779  69.025  1.00  0.00    -0.036 OA 
HETATM   25  O   UNL     1      -7.147   8.141  69.806  1.00  0.00    -0.057 OA 
BRANCH  19  26
HETATM   26  N   UNL     1      -8.928   4.498  67.145  1.00  0.00    -0.113 N  
HETATM   27  C   UNL     1      -8.944   5.020  65.872  1.00  0.00    -0.141 C  
HETATM   28  C   UNL     1      -9.241   4.263  64.822  1.00  0.00    -0.156 C  
HETATM   29  C   UNL     1      -9.556   2.853  65.115  1.00  0.00    -0.019 C  
HETATM   30  N   UNL     1      -9.542   2.349  66.310  1.00  0.00    -0.355 N  
HETATM   31  N   UNL     1      -9.899   2.017  64.088  1.00  0.00    -0.237 NA 
HETATM   32  H   UNL     1      -9.757   1.363  66.452  1.00  0.00     0.000 HD 
HETATM   33  C   UNL     1      -9.236   3.154  67.386  1.00  0.00    -0.188 C  
HETATM   34  H1  UNL     1     -10.118   1.042  64.290  1.00  0.00     0.000 HD 
HETATM   35  H2  UNL     1      -9.936   2.366  63.129  1.00  0.00     0.000 HD 
HETATM   36  O   UNL     1      -9.234   2.704  68.534  1.00  0.00    -0.151 OA 
ENDBRANCH  19  26
ENDBRANCH  16  17
ENDBRANCH  15  16
ENDBRANCH  12  15
ENDBRANCH  11  12
ENDBRANCH   8  11
ENDBRANCH   7   8
ENDBRANCH   6   7
ENDBRANCH   5   6
ENDBRANCH   2   5
TORSDOF 10
ENDMDL
MODEL      194
REMARK 921   NORMALIZED FREE ENERGY PREDICTED BY IDOCK:   -4.22 KCAL/MOL
REMARK 922        TOTAL FREE ENERGY PREDICTED BY IDOCK:   -7.62 KCAL/MOL
REMARK 923 INTER-LIGAND FREE ENERGY PREDICTED BY IDOCK:   -7.71 KCAL/MOL
REMARK 924 INTRA-LIGAND FREE ENERGY PREDICTED BY IDOCK:    0.09 KCAL/MOL
REMARK 927      BINDING AFFINITY PREDICTED BY RF-SCORE:    0.00 PKD
ROOT
HETATM    1  C   UNL     1      -5.953   8.719  69.226  1.00  0.00    -0.041 C  
HETATM    2  N   UNL     1      -7.055   8.324  70.186  1.00  0.00    -0.040 N  
HETATM    3  C   UNL     1      -7.542   6.917  69.884  1.00  0.00    -0.099 C  
HETATM    4  C   UNL     1      -6.496   8.339  71.619  1.00  0.00    -0.055 C  
ENDROOT
BRANCH   2   5
HETATM    5  C   UNL     1      -8.203   9.352  70.033  1.00  0.00    -0.162 C  
BRANCH   5   6
HETATM    6  C   UNL     1      -9.557   8.873  70.526  1.00  0.00    -0.202 C  
BRANCH   6   7
HETATM    7  O   UNL     1     -10.429   9.978  70.649  1.00  0.00    -0.276 OA 
BRANCH   7   8
HETATM    8  P   UNL     1     -11.045  10.420  69.093  1.00  0.00    -0.238 P  
HETATM    9  O   UNL     1     -10.438  11.803  69.293  1.00  0.00    -0.096 OA 
HETATM   10  O   UNL     1     -12.454  10.125  69.621  1.00  0.00     0.057 OA 
BRANCH   8  11
HETATM   11  O   UNL     1     -11.660  10.860  67.537  1.00  0.00    -0.526 OA 
BRANCH  11  12
HETATM   12  P   UNL     1     -10.678  12.114  66.864  1.00  0.00    -0.257 P  
HETATM   13  O   UNL     1      -9.643  10.958  66.313  1.00  0.00    -0.188 OA 
HETATM   14  O   UNL     1     -11.699  12.242  65.713  1.00  0.00    -0.387 OA 
BRANCH  12  15
HETATM   15  O   UNL     1      -9.695  13.369  66.190  1.00  0.00    -0.282 OA 
BRANCH  15  16
HETATM   16  C   UNL     1     -10.393  14.340  65.386  1.00  0.00    -0.370 C  
BRANCH  16  17
HETATM   17  C   UNL     1     -10.831  15.569  66.168  1.00  0.00    -0.295 C  
HETATM   18  O   UNL     1     -11.646  15.178  67.275  1.00  0.00    -0.323 OA 
HETATM   19  C   UNL     1     -11.589  16.244  68.225  1.00  0.00    -0.118 C  
HETATM   20  H   UNL     1      -8.601  17.950  66.138  1.00  0.00     0.000 HD 
HETATM   21  C   UNL     1     -10.224  16.940  68.039  1.00  0.00    -0.310 C  
HETATM   22  H   UNL     1      -9.484  18.802  67.892  1.00  0.00     0.000 HD 
HETATM   23  C   UNL     1      -9.687  16.401  66.715  1.00  0.00    -0.251 C  
HETATM   24  O   UNL     1     -10.324  18.373  68.006  1.00  0.00    -0.366 OA 
HETATM   25  O   UNL     1      -9.318  17.429  65.795  1.00  0.00    -0.518 OA 
BRANCH  19  26
HETATM   26  N   UNL     1     -11.843  15.739  69.576  1.00  0.00    -0.361 N  
HETATM   27  C   UNL     1     -13.116  15.690  70.095  1.00  0.00     0.264 C  
HETATM   28  C   UNL     1     -13.333  15.332  71.355  1.00  0.00    -0.573 C  
HETATM   29  C   UNL     1     -12.132  15.008  72.146  1.00  0.00    -0.377 C  
HETATM   30  N   UNL     1     -10.926  15.048  71.668  1.00  0.00    -0.497 N  
HETATM   31  N   UNL     1     -12.271  14.658  73.461  1.00  0.00    -0.260 NA 
HETATM   32  H   UNL     1     -10.133  14.801  72.258  1.00  0.00     0.000 HD 
HETATM   33  C   UNL     1     -10.725  15.427  70.358  1.00  0.00    -0.286 C  
HETATM   34  H1  UNL     1     -11.441  14.434  74.008  1.00  0.00     0.000 HD 
HETATM   35  H2  UNL     1     -13.196  14.621  73.890  1.00  0.00     0.000 HD 
HETATM   36  O   UNL     1      -9.588  15.492  69.884  1.00  0.00    -0.275 OA 
ENDBRANCH  19  26
ENDBRANCH  16  17
ENDBRANCH  15  16
ENDBRANCH  12  15
ENDBRANCH  11  12
ENDBRANCH   8  11
ENDBRANCH   7   8
ENDBRANCH   6   7
ENDBRANCH   5   6
ENDBRANCH   2   5
TORSDOF 10
ENDMDL
MODEL      195
REMARK 921   NORMALIZED FREE ENERGY PREDICTED BY IDOCK:   -4.22 KCAL/MOL
REMARK 922        TOTAL FREE ENERGY PREDICTED BY IDOCK:   -7.62 KCAL/MOL
REMARK 923 INTER-LIGAND FREE ENERGY PREDICTED BY IDOCK:   -7.76 KCAL/MOL
REMARK 924 INTRA-LIGAND FREE ENERGY PREDICTED BY IDOCK:    0.14 KCAL/MOL
REMARK 927      BINDING AFFINITY PREDICTED BY RF-SCORE:    0.00 PKD
ROOT
HETATM    1  C   UNL     1      -7.377  20.051  70.029  1.00  0.00     0.343 C  
HETATM    2  N   UNL     1      -5.889  19.798  69.916  1.00  0.00    -0.261 N  
HETATM    3  C   UNL     1      -5.325  20.491  68.688  1.00  0.00    -0.269 C  
HETATM    4  C   UNL     1      -5.191  20.380  71.157  1.00  0.00    -0.265 C  
ENDROOT
BRANCH   2   5
HETATM    5  C   UNL     1      -5.677  18.266  69.834  1.00  0.00    -0.246 C  
BRANCH   5   6
HETATM    6  C   UNL     1      -6.715  17.524  69.012  1.00  0.00    -0.247 C  
BRANCH   6   7
HETATM    7  O   UNL     1      -7.032  18.282  67.862  1.00  0.00    -0.205 OA 
BRANCH   7   8
HETATM    8  P   UNL     1      -7.747  17.261  66.661  1.00  0.00    -0.320 P  
HETATM    9  O   UNL     1      -6.487  16.405  66.701  1.00  0.00    -0.277 OA 
HETATM   10  O   UNL     1      -7.809  18.479  65.732  1.00  0.00    -0.504 OA 
BRANCH   8  11
HETATM   11  O   UNL     1      -8.462  16.240  65.462  1.00  0.00     0.032 OA 
BRANCH  11  12
HETATM   12  P   UNL     1      -9.969  15.628  66.050  1.00  0.00    -0.388 P  
HETATM   13  O   UNL     1      -9.803  16.595  67.373  1.00  0.00    -0.245 OA 
HETATM   14  O   UNL     1     -10.691  16.545  65.040  1.00  0.00    -0.662 OA 
BRANCH  12  15
HETATM   15  O   UNL     1     -11.476  15.017  66.640  1.00  0.00    -0.336 OA 
BRANCH  15  16
HETATM   16  C   UNL     1     -11.942  13.805  66.015  1.00  0.00    -0.414 C  
BRANCH  16  17
HETATM   17  C   UNL     1     -10.818  12.866  65.604  1.00  0.00    -0.273 C  
HETATM   18  O   UNL     1     -10.363  12.124  66.739  1.00  0.00    -0.211 OA 
HETATM   19  C   UNL     1      -9.726  10.950  66.234  1.00  0.00    -0.204 C  
HETATM   20  H   UNL     1     -11.152  11.749  62.557  1.00  0.00     0.000 HD 
HETATM   21  C   UNL     1     -10.397  10.617  64.885  1.00  0.00    -0.277 C  
HETATM   22  H   UNL     1      -9.866  10.102  63.017  1.00  0.00     0.000 HD 
HETATM   23  C   UNL     1     -11.203  11.865  64.531  1.00  0.00    -0.319 C  
HETATM   24  O   UNL     1      -9.452  10.306  63.848  1.00  0.00    -0.270 OA 
HETATM   25  O   UNL     1     -10.912  12.375  63.229  1.00  0.00    -0.438 OA 
BRANCH  19  26
HETATM   26  N   UNL     1      -9.775   9.874  67.227  1.00  0.00    -0.166 N  
HETATM   27  C   UNL     1     -10.436   8.694  66.973  1.00  0.00    -0.284 C  
HETATM   28  C   UNL     1     -10.569   7.764  67.912  1.00  0.00    -0.221 C  
HETATM   29  C   UNL     1      -9.979   8.087  69.223  1.00  0.00    -0.191 C  
HETATM   30  N   UNL     1      -9.351   9.194  69.474  1.00  0.00    -0.158 N  
HETATM   31  N   UNL     1     -10.099   7.190  70.250  1.00  0.00    -0.187 NA 
HETATM   32  H   UNL     1      -8.951   9.358  70.398  1.00  0.00     0.000 HD 
HETATM   33  C   UNL     1      -9.228  10.147  68.486  1.00  0.00    -0.144 C  
HETATM   34  H1  UNL     1      -9.691   7.413  71.157  1.00  0.00     0.000 HD 
HETATM   35  H2  UNL     1     -10.593   6.308  70.109  1.00  0.00     0.000 HD 
HETATM   36  O   UNL     1      -8.653  11.216  68.704  1.00  0.00    -0.151 OA 
ENDBRANCH  19  26
ENDBRANCH  16  17
ENDBRANCH  15  16
ENDBRANCH  12  15
ENDBRANCH  11  12
ENDBRANCH   8  11
ENDBRANCH   7   8
ENDBRANCH   6   7
ENDBRANCH   5   6
ENDBRANCH   2   5
TORSDOF 10
ENDMDL
MODEL      196
REMARK 921   NORMALIZED FREE ENERGY PREDICTED BY IDOCK:   -4.21 KCAL/MOL
REMARK 922        TOTAL FREE ENERGY PREDICTED BY IDOCK:   -7.61 KCAL/MOL
REMARK 923 INTER-LIGAND FREE ENERGY PREDICTED BY IDOCK:   -6.93 KCAL/MOL
REMARK 924 INTRA-LIGAND FREE ENERGY PREDICTED BY IDOCK:   -0.68 KCAL/MOL
REMARK 927      BINDING AFFINITY PREDICTED BY RF-SCORE:    0.00 PKD
ROOT
HETATM    1  C   UNL     1      -9.652  13.416  67.345  1.00  0.00    -0.223 C  
HETATM    2  N   UNL     1     -11.110  13.821  67.336  1.00  0.00    -0.290 N  
HETATM    3  C   UNL     1     -11.262  15.242  66.819  1.00  0.00    -0.241 C  
HETATM    4  C   UNL     1     -11.880  12.883  66.391  1.00  0.00    -0.415 C  
ENDROOT
BRANCH   2   5
HETATM    5  C   UNL     1     -11.641  13.699  68.785  1.00  0.00    -0.324 C  
BRANCH   5   6
HETATM    6  C   UNL     1     -11.831  12.274  69.275  1.00  0.00    -0.306 C  
BRANCH   6   7
HETATM    7  O   UNL     1     -12.598  12.285  70.463  1.00  0.00    -0.206 OA 
BRANCH   7   8
HETATM    8  P   UNL     1     -12.340  10.818  71.344  1.00  0.00    -0.204 P  
HETATM    9  O   UNL     1     -12.182  10.096  70.011  1.00  0.00    -0.174 OA 
HETATM   10  O   UNL     1     -13.737  10.994  71.950  1.00  0.00    -0.120 OA 
BRANCH   8  11
HETATM   11  O   UNL     1     -12.082   9.351  72.225  1.00  0.00    -0.290 OA 
BRANCH  11  12
HETATM   12  P   UNL     1     -11.229   8.224  71.229  1.00  0.00    -0.282 P  
HETATM   13  O   UNL     1      -9.874   8.519  72.117  1.00  0.00    -0.268 OA 
HETATM   14  O   UNL     1     -11.911   7.079  72.007  1.00  0.00    -0.291 OA 
BRANCH  12  15
HETATM   15  O   UNL     1     -10.375   7.095  70.232  1.00  0.00    -0.196 OA 
BRANCH  15  16
HETATM   16  C   UNL     1      -8.965   7.347  70.079  1.00  0.00    -0.144 C  
BRANCH  16  17
HETATM   17  C   UNL     1      -8.568   7.728  68.661  1.00  0.00    -0.129 C  
HETATM   18  O   UNL     1      -8.435   6.553  67.859  1.00  0.00    -0.118 OA 
HETATM   19  C   UNL     1      -8.583   6.964  66.499  1.00  0.00    -0.129 C  
HETATM   20  H   UNL     1      -9.821  10.591  67.724  1.00  0.00     0.000 HD 
HETATM   21  C   UNL     1      -9.492   8.211  66.502  1.00  0.00    -0.221 C  
HETATM   22  H   UNL     1      -9.552  10.040  65.674  1.00  0.00     0.000 HD 
HETATM   23  C   UNL     1      -9.555   8.646  67.964  1.00  0.00    -0.149 C  
HETATM   24  O   UNL     1      -8.993   9.273  65.672  1.00  0.00    -0.172 OA 
HETATM   25  O   UNL     1      -9.204  10.016  68.161  1.00  0.00    -0.127 OA 
BRANCH  19  26
HETATM   26  N   UNL     1      -9.067   5.851  65.678  1.00  0.00    -0.098 N  
HETATM   27  C   UNL     1      -8.405   5.461  64.537  1.00  0.00    -0.138 C  
HETATM   28  C   UNL     1      -8.902   4.523  63.739  1.00  0.00    -0.140 C  
HETATM   29  C   UNL     1     -10.196   3.950  64.151  1.00  0.00    -0.219 C  
HETATM   30  N   UNL     1     -10.830   4.308  65.225  1.00  0.00    -0.673 N  
HETATM   31  N   UNL     1     -10.787   2.999  63.365  1.00  0.00    -0.240 NA 
HETATM   32  H   UNL     1     -11.717   3.868  65.467  1.00  0.00     0.000 HD 
HETATM   33  C   UNL     1     -10.297   5.286  66.037  1.00  0.00    -0.130 C  
HETATM   34  H1  UNL     1     -11.682   2.602  63.649  1.00  0.00     0.000 HD 
HETATM   35  H2  UNL     1     -10.336   2.689  62.503  1.00  0.00     0.000 HD 
HETATM   36  O   UNL     1     -10.888   5.658  67.053  1.00  0.00    -0.275 OA 
ENDBRANCH  19  26
ENDBRANCH  16  17
ENDBRANCH  15  16
ENDBRANCH  12  15
ENDBRANCH  11  12
ENDBRANCH   8  11
ENDBRANCH   7   8
ENDBRANCH   6   7
ENDBRANCH   5   6
ENDBRANCH   2   5
TORSDOF 10
ENDMDL
MODEL      197
REMARK 921   NORMALIZED FREE ENERGY PREDICTED BY IDOCK:   -4.19 KCAL/MOL
REMARK 922        TOTAL FREE ENERGY PREDICTED BY IDOCK:   -7.57 KCAL/MOL
REMARK 923 INTER-LIGAND FREE ENERGY PREDICTED BY IDOCK:   -5.88 KCAL/MOL
REMARK 924 INTRA-LIGAND FREE ENERGY PREDICTED BY IDOCK:   -1.69 KCAL/MOL
REMARK 927      BINDING AFFINITY PREDICTED BY RF-SCORE:    0.00 PKD
ROOT
HETATM    1  C   UNL     1     -11.074   6.123  69.439  1.00  0.00    -0.409 C  
HETATM    2  N   UNL     1      -9.802   5.421  69.015  1.00  0.00    -0.154 N  
HETATM    3  C   UNL     1      -8.619   6.370  69.103  1.00  0.00    -0.125 C  
HETATM    4  C   UNL     1      -9.543   4.243  69.969  1.00  0.00    -0.204 C  
ENDROOT
BRANCH   2   5
HETATM    5  C   UNL     1     -10.003   4.920  67.564  1.00  0.00    -0.156 C  
BRANCH   5   6
HETATM    6  C   UNL     1      -9.530   3.500  67.310  1.00  0.00    -0.187 C  
BRANCH   6   7
HETATM    7  O   UNL     1      -8.190   3.525  66.859  1.00  0.00    -0.093 OA 
BRANCH   7   8
HETATM    8  P   UNL     1      -8.023   4.671  65.574  1.00  0.00    -0.097 P  
HETATM    9  O   UNL     1      -8.395   3.564  64.595  1.00  0.00    -0.093 OA 
HETATM   10  O   UNL     1      -6.559   4.853  65.993  1.00  0.00    -0.043 OA 
BRANCH   8  11
HETATM   11  O   UNL     1      -7.856   5.818  64.289  1.00  0.00    -0.100 OA 
BRANCH  11  12
HETATM   12  P   UNL     1      -7.449   7.364  64.946  1.00  0.00    -0.100 P  
HETATM   13  O   UNL     1      -7.612   8.008  63.439  1.00  0.00    -0.114 OA 
HETATM   14  O   UNL     1      -8.879   7.455  65.518  1.00  0.00    -0.092 OA 
BRANCH  12  15
HETATM   15  O   UNL     1      -7.041   8.913  65.603  1.00  0.00    -0.082 OA 
BRANCH  15  16
HETATM   16  C   UNL     1      -7.832  10.018  65.124  1.00  0.00    -0.136 C  
BRANCH  16  17
HETATM   17  C   UNL     1      -8.076  11.088  66.176  1.00  0.00    -0.141 C  
HETATM   18  O   UNL     1      -9.296  10.820  66.871  1.00  0.00    -0.158 OA 
HETATM   19  C   UNL     1      -9.214  11.499  68.125  1.00  0.00    -0.181 C  
HETATM   20  H   UNL     1      -5.314  12.246  67.470  1.00  0.00     0.000 HD 
HETATM   21  C   UNL     1      -7.718  11.581  68.495  1.00  0.00    -0.134 C  
HETATM   22  H   UNL     1      -6.402  12.936  69.179  1.00  0.00     0.000 HD 
HETATM   23  C   UNL     1      -6.977  11.205  67.214  1.00  0.00    -0.096 C  
HETATM   24  O   UNL     1      -7.323  12.885  68.951  1.00  0.00    -0.094 OA 
HETATM   25  O   UNL     1      -6.003  12.172  66.820  1.00  0.00    -0.241 OA 
BRANCH  19  26
HETATM   26  N   UNL     1     -10.059  10.837  69.122  1.00  0.00    -0.217 N  
HETATM   27  C   UNL     1      -9.529   9.964  70.043  1.00  0.00    -0.202 C  
HETATM   28  C   UNL     1     -10.310   9.285  70.876  1.00  0.00    -0.367 C  
HETATM   29  C   UNL     1     -11.758   9.523  70.737  1.00  0.00    -0.298 C  
HETATM   30  N   UNL     1     -12.269  10.346  69.874  1.00  0.00    -0.499 N  
HETATM   31  N   UNL     1     -12.629   8.840  71.541  1.00  0.00    -0.319 NA 
HETATM   32  H   UNL     1     -13.279  10.481  69.830  1.00  0.00     0.000 HD 
HETATM   33  C   UNL     1     -11.441  11.036  69.016  1.00  0.00    -0.299 C  
HETATM   34  H1  UNL     1     -13.630   9.004  71.444  1.00  0.00     0.000 HD 
HETATM   35  H2  UNL     1     -12.279   8.173  72.229  1.00  0.00     0.000 HD 
HETATM   36  O   UNL     1     -11.902  11.810  68.173  1.00  0.00    -0.451 OA 
ENDBRANCH  19  26
ENDBRANCH  16  17
ENDBRANCH  15  16
ENDBRANCH  12  15
ENDBRANCH  11  12
ENDBRANCH   8  11
ENDBRANCH   7   8
ENDBRANCH   6   7
ENDBRANCH   5   6
ENDBRANCH   2   5
TORSDOF 10
ENDMDL
MODEL      198
REMARK 921   NORMALIZED FREE ENERGY PREDICTED BY IDOCK:   -4.13 KCAL/MOL
REMARK 922        TOTAL FREE ENERGY PREDICTED BY IDOCK:   -7.47 KCAL/MOL
REMARK 923 INTER-LIGAND FREE ENERGY PREDICTED BY IDOCK:   -6.45 KCAL/MOL
REMARK 924 INTRA-LIGAND FREE ENERGY PREDICTED BY IDOCK:   -1.03 KCAL/MOL
REMARK 927      BINDING AFFINITY PREDICTED BY RF-SCORE:    0.00 PKD
ROOT
HETATM    1  C   UNL     1     -11.525   7.467  72.447  1.00  0.00    -0.315 C  
HETATM    2  N   UNL     1     -10.213   6.716  72.518  1.00  0.00    -0.180 N  
HETATM    3  C   UNL     1      -9.154   7.562  73.205  1.00  0.00    -0.177 C  
HETATM    4  C   UNL     1     -10.416   5.436  73.346  1.00  0.00    -0.235 C  
ENDROOT
BRANCH   2   5
HETATM    5  C   UNL     1      -9.791   6.371  71.068  1.00  0.00    -0.180 C  
BRANCH   5   6
HETATM    6  C   UNL     1      -9.466   4.907  70.831  1.00  0.00    -0.165 C  
BRANCH   6   7
HETATM    7  O   UNL     1      -8.076   4.762  70.621  1.00  0.00    -0.078 OA 
BRANCH   7   8
HETATM    8  P   UNL     1      -7.552   5.844  69.376  1.00  0.00    -0.095 P  
HETATM    9  O   UNL     1      -7.317   4.633  68.482  1.00  0.00    -0.063 OA 
HETATM   10  O   UNL     1      -6.441   6.316  70.322  1.00  0.00    -0.037 OA 
BRANCH   8  11
HETATM   11  O   UNL     1      -7.029   6.926  68.131  1.00  0.00    -0.074 OA 
BRANCH  11  12
HETATM   12  P   UNL     1      -7.881   8.424  68.275  1.00  0.00    -0.112 P  
HETATM   13  O   UNL     1      -6.440   9.174  68.546  1.00  0.00    -0.053 OA 
HETATM   14  O   UNL     1      -8.004   8.457  66.737  1.00  0.00    -0.096 OA 
BRANCH  12  15
HETATM   15  O   UNL     1      -8.732   9.924  68.420  1.00  0.00    -0.117 OA 
BRANCH  15  16
HETATM   16  C   UNL     1      -8.561  10.842  67.323  1.00  0.00    -0.128 C  
BRANCH  16  17
HETATM   17  C   UNL     1      -9.856  11.507  66.883  1.00  0.00    -0.197 C  
HETATM   18  O   UNL     1     -10.116  12.654  67.696  1.00  0.00    -0.211 OA 
HETATM   19  C   UNL     1     -10.994  13.497  66.948  1.00  0.00    -0.288 C  
HETATM   20  H   UNL     1     -10.395  11.231  63.677  1.00  0.00     0.000 HD 
HETATM   21  C   UNL     1     -10.708  13.234  65.454  1.00  0.00    -0.297 C  
HETATM   22  H   UNL     1     -11.727  12.904  63.755  1.00  0.00     0.000 HD 
HETATM   23  C   UNL     1      -9.863  11.963  65.436  1.00  0.00    -0.233 C  
HETATM   24  O   UNL     1     -11.903  13.066  64.674  1.00  0.00    -0.338 OA 
HETATM   25  O   UNL     1     -10.391  10.946  64.584  1.00  0.00    -0.319 OA 
BRANCH  19  26
HETATM   26  N   UNL     1     -10.843  14.893  67.366  1.00  0.00    -0.296 N  
HETATM   27  C   UNL     1      -9.929  15.726  66.764  1.00  0.00    -0.252 C  
HETATM   28  C   UNL     1      -9.719  16.958  67.214  1.00  0.00    -0.251 C  
HETATM   29  C   UNL     1     -10.513  17.355  68.390  1.00  0.00    -0.384 C  
HETATM   30  N   UNL     1     -11.379  16.580  68.966  1.00  0.00    -0.242 N  
HETATM   31  N   UNL     1     -10.333  18.600  68.930  1.00  0.00    -0.455 NA 
HETATM   32  H   UNL     1     -11.910  16.913  69.770  1.00  0.00     0.000 HD 
HETATM   33  C   UNL     1     -11.578  15.304  68.485  1.00  0.00    -0.352 C  
HETATM   34  H1  UNL     1     -10.882  18.875  69.743  1.00  0.00     0.000 HD 
HETATM   35  H2  UNL     1      -9.656  19.245  68.522  1.00  0.00     0.000 HD 
HETATM   36  O   UNL     1     -12.381  14.540  69.025  1.00  0.00    -0.225 OA 
ENDBRANCH  19  26
ENDBRANCH  16  17
ENDBRANCH  15  16
ENDBRANCH  12  15
ENDBRANCH  11  12
ENDBRANCH   8  11
ENDBRANCH   7   8
ENDBRANCH   6   7
ENDBRANCH   5   6
ENDBRANCH   2   5
TORSDOF 10
ENDMDL
MODEL      199
REMARK 921   NORMALIZED FREE ENERGY PREDICTED BY IDOCK:   -4.12 KCAL/MOL
REMARK 922        TOTAL FREE ENERGY PREDICTED BY IDOCK:   -7.46 KCAL/MOL
REMARK 923 INTER-LIGAND FREE ENERGY PREDICTED BY IDOCK:   -7.46 KCAL/MOL
REMARK 924 INTRA-LIGAND FREE ENERGY PREDICTED BY IDOCK:   -0.01 KCAL/MOL
REMARK 927      BINDING AFFINITY PREDICTED BY RF-SCORE:    0.00 PKD
ROOT
HETATM    1  C   UNL     1     -10.524   4.340  73.403  1.00  0.00    -0.190 C  
HETATM    2  N   UNL     1     -10.468   5.747  72.848  1.00  0.00    -0.202 N  
HETATM    3  C   UNL     1     -11.751   6.076  72.105  1.00  0.00    -0.279 C  
HETATM    4  C   UNL     1     -10.324   6.737  74.017  1.00  0.00    -0.347 C  
ENDROOT
BRANCH   2   5
HETATM    5  C   UNL     1      -9.243   5.831  71.904  1.00  0.00    -0.144 C  
BRANCH   5   6
HETATM    6  C   UNL     1      -7.969   6.336  72.557  1.00  0.00    -0.103 C  
BRANCH   6   7
HETATM    7  O   UNL     1      -7.705   7.652  72.114  1.00  0.00    -0.082 OA 
BRANCH   7   8
HETATM    8  P   UNL     1      -8.547   7.956  70.634  1.00  0.00    -0.134 P  
HETATM    9  O   UNL     1      -7.208   7.901  69.910  1.00  0.00    -0.063 OA 
HETATM   10  O   UNL     1      -9.030   9.280  71.238  1.00  0.00    -0.285 OA 
BRANCH   8  11
HETATM   11  O   UNL     1      -9.391   8.260  69.154  1.00  0.00    -0.151 OA 
BRANCH  11  12
HETATM   12  P   UNL     1      -9.552   9.966  68.922  1.00  0.00    -0.192 P  
HETATM   13  O   UNL     1      -8.613   9.835  67.575  1.00  0.00    -0.125 OA 
HETATM   14  O   UNL     1     -10.975   9.719  68.378  1.00  0.00    -0.217 OA 
BRANCH  12  15
HETATM   15  O   UNL     1      -9.712  11.673  68.689  1.00  0.00    -0.192 OA 
BRANCH  15  16
HETATM   16  C   UNL     1     -11.064  12.171  68.656  1.00  0.00    -0.251 C  
BRANCH  16  17
HETATM   17  C   UNL     1     -11.374  12.999  67.418  1.00  0.00    -0.305 C  
HETATM   18  O   UNL     1     -11.551  14.371  67.780  1.00  0.00    -0.319 OA 
HETATM   19  C   UNL     1     -11.318  15.141  66.600  1.00  0.00    -0.234 C  
HETATM   20  H   UNL     1      -9.897  11.869  64.738  1.00  0.00     0.000 HD 
HETATM   21  C   UNL     1     -10.330  14.339  65.727  1.00  0.00    -0.327 C  
HETATM   22  H   UNL     1     -10.114  13.784  63.808  1.00  0.00     0.000 HD 
HETATM   23  C   UNL     1     -10.301  12.945  66.348  1.00  0.00    -0.268 C  
HETATM   24  O   UNL     1     -10.723  14.278  64.346  1.00  0.00    -0.327 OA 
HETATM   25  O   UNL     1     -10.569  11.903  65.409  1.00  0.00    -0.253 OA 
BRANCH  19  26
HETATM   26  N   UNL     1     -10.874  16.492  66.951  1.00  0.00    -0.161 N  
HETATM   27  C   UNL     1     -10.477  17.388  65.985  1.00  0.00    -0.276 C  
HETATM   28  C   UNL     1      -9.975  18.574  66.312  1.00  0.00    -0.384 C  
HETATM   29  C   UNL     1      -9.866  18.849  67.756  1.00  0.00    -0.337 C  
HETATM   30  N   UNL     1     -10.239  18.014  68.675  1.00  0.00    -0.387 N  
HETATM   31  N   UNL     1      -9.333  20.039  68.171  1.00  0.00    -0.295 NA 
HETATM   32  H   UNL     1     -10.152  18.263  69.660  1.00  0.00     0.000 HD 
HETATM   33  C   UNL     1     -10.753  16.787  68.314  1.00  0.00    -0.364 C  
HETATM   34  H1  UNL     1      -9.257  20.230  69.170  1.00  0.00     0.000 HD 
HETATM   35  H2  UNL     1      -9.014  20.727  67.489  1.00  0.00     0.000 HD 
HETATM   36  O   UNL     1     -11.098  15.967  69.168  1.00  0.00    -0.259 OA 
ENDBRANCH  19  26
ENDBRANCH  16  17
ENDBRANCH  15  16
ENDBRANCH  12  15
ENDBRANCH  11  12
ENDBRANCH   8  11
ENDBRANCH   7   8
ENDBRANCH   6   7
ENDBRANCH   5   6
ENDBRANCH   2   5
TORSDOF 10
ENDMDL
MODEL      200
REMARK 921   NORMALIZED FREE ENERGY PREDICTED BY IDOCK:   -4.11 KCAL/MOL
REMARK 922        TOTAL FREE ENERGY PREDICTED BY IDOCK:   -7.44 KCAL/MOL
REMARK 923 INTER-LIGAND FREE ENERGY PREDICTED BY IDOCK:   -6.26 KCAL/MOL
REMARK 924 INTRA-LIGAND FREE ENERGY PREDICTED BY IDOCK:   -1.18 KCAL/MOL
REMARK 927      BINDING AFFINITY PREDICTED BY RF-SCORE:    0.00 PKD
ROOT
HETATM    1  C   UNL     1      -5.307  17.342  69.231  1.00  0.00    -0.162 C  
HETATM    2  N   UNL     1      -6.275  16.396  68.551  1.00  0.00    -0.125 N  
HETATM    3  C   UNL     1      -5.652  15.018  68.402  1.00  0.00    -0.108 C  
HETATM    4  C   UNL     1      -7.534  16.261  69.425  1.00  0.00    -0.152 C  
ENDROOT
BRANCH   2   5
HETATM    5  C   UNL     1      -6.626  16.998  67.169  1.00  0.00    -0.182 C  
BRANCH   5   6
HETATM    6  C   UNL     1      -8.111  17.053  66.858  1.00  0.00    -0.219 C  
BRANCH   6   7
HETATM    7  O   UNL     1      -8.450  15.984  65.996  1.00  0.00    -0.302 OA 
BRANCH   7   8
HETATM    8  P   UNL     1     -10.035  15.402  66.374  1.00  0.00    -0.324 P  
HETATM    9  O   UNL     1      -9.393  14.390  67.316  1.00  0.00    -0.195 OA 
HETATM   10  O   UNL     1     -10.208  15.055  64.891  1.00  0.00    -0.357 OA 
BRANCH   8  11
HETATM   11  O   UNL     1     -11.620  14.821  66.753  1.00  0.00    -0.364 OA 
BRANCH  11  12
HETATM   12  P   UNL     1     -11.593  13.094  66.847  1.00  0.00    -0.399 P  
HETATM   13  O   UNL     1     -12.343  13.199  68.310  1.00  0.00    -0.130 OA 
HETATM   14  O   UNL     1     -12.775  13.060  65.854  1.00  0.00    -0.439 OA 
BRANCH  12  15
HETATM   15  O   UNL     1     -11.567  11.367  66.942  1.00  0.00    -0.492 OA 
BRANCH  15  16
HETATM   16  C   UNL     1     -11.168  10.821  68.215  1.00  0.00    -0.297 C  
BRANCH  16  17
HETATM   17  C   UNL     1     -10.840   9.337  68.162  1.00  0.00    -0.090 C  
HETATM   18  O   UNL     1     -10.390   8.983  66.852  1.00  0.00    -0.256 OA 
HETATM   19  C   UNL     1      -9.632   7.781  66.988  1.00  0.00    -0.184 C  
HETATM   20  H   UNL     1      -9.685   8.194  70.991  1.00  0.00     0.000 HD 
HETATM   21  C   UNL     1      -9.027   7.788  68.408  1.00  0.00    -0.132 C  
HETATM   22  H   UNL     1      -8.803   6.536  69.964  1.00  0.00     0.000 HD 
HETATM   23  C   UNL     1      -9.771   8.899  69.145  1.00  0.00    -0.168 C  
HETATM   24  O   UNL     1      -9.176   6.532  69.089  1.00  0.00    -0.135 OA 
HETATM   25  O   UNL     1     -10.355   8.468  70.375  1.00  0.00    -0.194 OA 
BRANCH  19  26
HETATM   26  N   UNL     1      -8.654   7.667  65.904  1.00  0.00    -0.145 N  
HETATM   27  C   UNL     1      -8.132   8.782  65.290  1.00  0.00    -0.129 C  
HETATM   28  C   UNL     1      -7.327   8.676  64.239  1.00  0.00    -0.104 C  
HETATM   29  C   UNL     1      -7.049   7.303  63.779  1.00  0.00    -0.069 C  
HETATM   30  N   UNL     1      -7.533   6.244  64.350  1.00  0.00    -0.081 N  
HETATM   31  N   UNL     1      -6.251   7.113  62.684  1.00  0.00    -0.051 NA 
HETATM   32  H   UNL     1      -7.296   5.317  63.997  1.00  0.00     0.000 HD 
HETATM   33  C   UNL     1      -8.369   6.378  65.438  1.00  0.00    -0.141 C  
HETATM   34  H1  UNL     1      -6.059   6.164  62.366  1.00  0.00     0.000 HD 
HETATM   35  H2  UNL     1      -5.853   7.913  62.191  1.00  0.00     0.000 HD 
HETATM   36  O   UNL     1      -8.858   5.388  65.988  1.00  0.00    -0.134 OA 
ENDBRANCH  19  26
ENDBRANCH  16  17
ENDBRANCH  15  16
ENDBRANCH  12  15
ENDBRANCH  11  12
ENDBRANCH   8  11
ENDBRANCH   7   8
ENDBRANCH   6   7
ENDBRANCH   5   6
ENDBRANCH   2   5
TORSDOF 10
ENDMDL
MODEL      201
REMARK 921   NORMALIZED FREE ENERGY PREDICTED BY IDOCK:   -4.06 KCAL/MOL
REMARK 922        TOTAL FREE ENERGY PREDICTED BY IDOCK:   -7.37 KCAL/MOL
REMARK 923 INTER-LIGAND FREE ENERGY PREDICTED BY IDOCK:   -6.03 KCAL/MOL
REMARK 924 INTRA-LIGAND FREE ENERGY PREDICTED BY IDOCK:   -1.34 KCAL/MOL
REMARK 927      BINDING AFFINITY PREDICTED BY RF-SCORE:    0.00 PKD
ROOT
HETATM    1  C   UNL     1      -9.905  12.516  64.402  1.00  0.00    -0.070 C  
HETATM    2  N   UNL     1     -11.397  12.694  64.586  1.00  0.00    -0.306 N  
HETATM    3  C   UNL     1     -12.155  12.012  63.460  1.00  0.00    -0.526 C  
HETATM    4  C   UNL     1     -11.816  12.037  65.912  1.00  0.00    -0.158 C  
ENDROOT
BRANCH   2   5
HETATM    5  C   UNL     1     -11.689  14.215  64.609  1.00  0.00    -0.417 C  
BRANCH   5   6
HETATM    6  C   UNL     1     -10.539  15.076  65.099  1.00  0.00    -0.418 C  
BRANCH   6   7
HETATM    7  O   UNL     1     -10.679  15.301  66.488  1.00  0.00    -0.303 OA 
BRANCH   7   8
HETATM    8  P   UNL     1      -9.126  15.273  67.249  1.00  0.00    -0.219 P  
HETATM    9  O   UNL     1      -8.547  15.919  65.997  1.00  0.00    -0.307 OA 
HETATM   10  O   UNL     1      -9.247  13.747  67.330  1.00  0.00    -0.219 OA 
BRANCH   8  11
HETATM   11  O   UNL     1      -7.573  15.245  68.012  1.00  0.00    -0.113 OA 
BRANCH  11  12
HETATM   12  P   UNL     1      -7.111  13.607  68.318  1.00  0.00    -0.147 P  
HETATM   13  O   UNL     1      -5.837  13.813  67.295  1.00  0.00    -0.326 OA 
HETATM   14  O   UNL     1      -6.540  14.062  69.678  1.00  0.00    -0.125 OA 
BRANCH  12  15
HETATM   15  O   UNL     1      -6.648  11.968  68.624  1.00  0.00    -0.064 OA 
BRANCH  15  16
HETATM   16  C   UNL     1      -7.479  11.251  69.558  1.00  0.00     0.081 C  
BRANCH  16  17
HETATM   17  C   UNL     1      -7.952   9.903  69.037  1.00  0.00    -0.101 C  
HETATM   18  O   UNL     1      -7.890   8.928  70.080  1.00  0.00    -0.080 OA 
HETATM   19  C   UNL     1      -8.792   7.881  69.719  1.00  0.00    -0.141 C  
HETATM   20  H   UNL     1     -10.271  10.169  66.757  1.00  0.00     0.000 HD 
HETATM   21  C   UNL     1      -9.902   8.520  68.858  1.00  0.00    -0.176 C  
HETATM   22  H   UNL     1     -10.885   8.156  67.144  1.00  0.00     0.000 HD 
HETATM   23  C   UNL     1      -9.370   9.905  68.498  1.00  0.00    -0.143 C  
HETATM   24  O   UNL     1     -10.202   7.762  67.674  1.00  0.00    -0.187 OA 
HETATM   25  O   UNL     1      -9.383  10.168  67.095  1.00  0.00    -0.150 OA 
BRANCH  19  26
HETATM   26  N   UNL     1      -9.268   7.180  70.914  1.00  0.00    -0.153 N  
HETATM   27  C   UNL     1     -10.099   7.794  71.822  1.00  0.00    -0.179 C  
HETATM   28  C   UNL     1     -10.444   7.195  72.955  1.00  0.00    -0.331 C  
HETATM   29  C   UNL     1      -9.871   5.854  73.172  1.00  0.00    -0.168 C  
HETATM   30  N   UNL     1      -9.088   5.263  72.324  1.00  0.00    -0.138 N  
HETATM   31  N   UNL     1     -10.157   5.184  74.330  1.00  0.00    -0.222 NA 
HETATM   32  H   UNL     1      -8.731   4.328  72.520  1.00  0.00     0.000 HD 
HETATM   33  C   UNL     1      -8.740   5.906  71.155  1.00  0.00    -0.132 C  
HETATM   34  H1  UNL     1      -9.761   4.256  74.481  1.00  0.00     0.000 HD 
HETATM   35  H2  UNL     1     -10.759   5.608  75.036  1.00  0.00     0.000 HD 
HETATM   36  O   UNL     1      -7.982   5.374  70.340  1.00  0.00    -0.095 OA 
ENDBRANCH  19  26
ENDBRANCH  16  17
ENDBRANCH  15  16
ENDBRANCH  12  15
ENDBRANCH  11  12
ENDBRANCH   8  11
ENDBRANCH   7   8
ENDBRANCH   6   7
ENDBRANCH   5   6
ENDBRANCH   2   5
TORSDOF 10
ENDMDL
MODEL      202
REMARK 921   NORMALIZED FREE ENERGY PREDICTED BY IDOCK:   -4.06 KCAL/MOL
REMARK 922        TOTAL FREE ENERGY PREDICTED BY IDOCK:   -7.36 KCAL/MOL
REMARK 923 INTER-LIGAND FREE ENERGY PREDICTED BY IDOCK:   -6.64 KCAL/MOL
REMARK 924 INTRA-LIGAND FREE ENERGY PREDICTED BY IDOCK:   -0.72 KCAL/MOL
REMARK 927      BINDING AFFINITY PREDICTED BY RF-SCORE:    0.00 PKD
ROOT
HETATM    1  C   UNL     1      -7.799  19.305  68.743  1.00  0.00    -0.353 C  
HETATM    2  N   UNL     1      -8.717  18.704  67.701  1.00  0.00    -0.270 N  
HETATM    3  C   UNL     1     -10.170  18.904  68.096  1.00  0.00    -0.391 C  
HETATM    4  C   UNL     1      -8.483  19.419  66.359  1.00  0.00    -0.346 C  
ENDROOT
BRANCH   2   5
HETATM    5  C   UNL     1      -8.376  17.197  67.588  1.00  0.00    -0.192 C  
BRANCH   5   6
HETATM    6  C   UNL     1      -9.347  16.270  68.298  1.00  0.00    -0.204 C  
BRANCH   6   7
HETATM    7  O   UNL     1      -9.686  15.200  67.439  1.00  0.00    -0.208 OA 
BRANCH   7   8
HETATM    8  P   UNL     1     -11.043  14.338  68.079  1.00  0.00    -0.296 P  
HETATM    9  O   UNL     1     -11.223  13.690  66.712  1.00  0.00    -0.302 OA 
HETATM   10  O   UNL     1     -11.703  15.691  68.371  1.00  0.00    -0.367 OA 
BRANCH   8  11
HETATM   11  O   UNL     1     -12.399  13.476  68.720  1.00  0.00    -0.235 OA 
BRANCH  11  12
HETATM   12  P   UNL     1     -11.838  12.152  69.682  1.00  0.00    -0.227 P  
HETATM   13  O   UNL     1     -12.859  12.638  70.880  1.00  0.00    -0.219 OA 
HETATM   14  O   UNL     1     -12.721  11.212  68.834  1.00  0.00    -0.202 OA 
BRANCH  12  15
HETATM   15  O   UNL     1     -11.277  10.829  70.645  1.00  0.00    -0.245 OA 
BRANCH  15  16
HETATM   16  C   UNL     1     -11.607   9.516  70.149  1.00  0.00    -0.111 C  
BRANCH  16  17
HETATM   17  C   UNL     1     -10.388   8.686  69.779  1.00  0.00    -0.212 C  
HETATM   18  O   UNL     1     -10.195   8.705  68.362  1.00  0.00    -0.190 OA 
HETATM   19  C   UNL     1      -8.823   8.383  68.128  1.00  0.00    -0.142 C  
HETATM   20  H   UNL     1      -8.056   8.774  72.059  1.00  0.00     0.000 HD 
HETATM   21  C   UNL     1      -8.032   8.860  69.365  1.00  0.00    -0.100 C  
HETATM   22  H   UNL     1      -6.606   8.175  70.603  1.00  0.00     0.000 HD 
HETATM   23  C   UNL     1      -9.095   9.155  70.420  1.00  0.00    -0.233 C  
HETATM   24  O   UNL     1      -7.094   7.882  69.842  1.00  0.00    -0.058 OA 
HETATM   25  O   UNL     1      -8.866   8.480  71.657  1.00  0.00    -0.170 OA 
BRANCH  19  26
HETATM   26  N   UNL     1      -8.375   8.951  66.854  1.00  0.00    -0.111 N  
HETATM   27  C   UNL     1      -7.735   8.179  65.912  1.00  0.00    -0.091 C  
HETATM   28  C   UNL     1      -7.236   8.717  64.806  1.00  0.00    -0.091 C  
HETATM   29  C   UNL     1      -7.405  10.175  64.668  1.00  0.00    -0.129 C  
HETATM   30  N   UNL     1      -8.008  10.913  65.548  1.00  0.00    -0.346 N  
HETATM   31  N   UNL     1      -6.893  10.807  63.568  1.00  0.00    -0.335 NA 
HETATM   32  H   UNL     1      -8.107  11.916  65.394  1.00  0.00     0.000 HD 
HETATM   33  C   UNL     1      -8.515  10.334  66.691  1.00  0.00    -0.124 C  
HETATM   34  H1  UNL     1      -7.009  11.815  63.472  1.00  0.00     0.000 HD 
HETATM   35  H2  UNL     1      -6.400  10.275  62.850  1.00  0.00     0.000 HD 
HETATM   36  O   UNL     1      -9.076  11.016  67.553  1.00  0.00    -0.137 OA 
ENDBRANCH  19  26
ENDBRANCH  16  17
ENDBRANCH  15  16
ENDBRANCH  12  15
ENDBRANCH  11  12
ENDBRANCH   8  11
ENDBRANCH   7   8
ENDBRANCH   6   7
ENDBRANCH   5   6
ENDBRANCH   2   5
TORSDOF 10
ENDMDL
MODEL      203
REMARK 921   NORMALIZED FREE ENERGY PREDICTED BY IDOCK:   -4.05 KCAL/MOL
REMARK 922        TOTAL FREE ENERGY PREDICTED BY IDOCK:   -7.36 KCAL/MOL
REMARK 923 INTER-LIGAND FREE ENERGY PREDICTED BY IDOCK:   -6.52 KCAL/MOL
REMARK 924 INTRA-LIGAND FREE ENERGY PREDICTED BY IDOCK:   -0.83 KCAL/MOL
REMARK 927      BINDING AFFINITY PREDICTED BY RF-SCORE:    0.00 PKD
ROOT
HETATM    1  C   UNL     1     -11.197   7.085  69.777  1.00  0.00    -0.217 C  
HETATM    2  N   UNL     1      -9.804   6.934  69.206  1.00  0.00    -0.156 N  
HETATM    3  C   UNL     1      -8.926   8.097  69.635  1.00  0.00    -0.154 C  
HETATM    4  C   UNL     1      -9.182   5.637  69.751  1.00  0.00    -0.138 C  
ENDROOT
BRANCH   2   5
HETATM    5  C   UNL     1      -9.932   6.876  67.664  1.00  0.00    -0.144 C  
BRANCH   5   6
HETATM    6  C   UNL     1      -9.023   5.866  66.987  1.00  0.00    -0.116 C  
BRANCH   6   7
HETATM    7  O   UNL     1      -7.786   6.478  66.683  1.00  0.00    -0.096 OA 
BRANCH   7   8
HETATM    8  P   UNL     1      -7.993   7.619  65.398  1.00  0.00    -0.132 P  
HETATM    9  O   UNL     1      -8.285   6.451  64.465  1.00  0.00    -0.114 OA 
HETATM   10  O   UNL     1      -6.544   8.065  65.626  1.00  0.00    -0.042 OA 
BRANCH   8  11
HETATM   11  O   UNL     1      -8.201   8.760  64.114  1.00  0.00    -0.156 OA 
BRANCH  11  12
HETATM   12  P   UNL     1      -8.548  10.318  64.780  1.00  0.00    -0.190 P  
HETATM   13  O   UNL     1      -9.411  10.666  63.420  1.00  0.00    -0.258 OA 
HETATM   14  O   UNL     1      -9.597   9.651  65.694  1.00  0.00    -0.233 OA 
BRANCH  12  15
HETATM   15  O   UNL     1      -8.896  11.878  65.444  1.00  0.00     0.119 OA 
BRANCH  15  16
HETATM   16  C   UNL     1     -10.266  12.310  65.328  1.00  0.00    -0.278 C  
BRANCH  16  17
HETATM   17  C   UNL     1     -10.678  13.309  66.399  1.00  0.00    -0.285 C  
HETATM   18  O   UNL     1     -11.666  12.728  67.253  1.00  0.00    -0.348 OA 
HETATM   19  C   UNL     1     -11.628  13.456  68.482  1.00  0.00    -0.333 C  
HETATM   20  H   UNL     1      -8.236  15.274  67.304  1.00  0.00     0.000 HD 
HETATM   21  C   UNL     1     -10.188  13.985  68.646  1.00  0.00    -0.233 C  
HETATM   22  H   UNL     1      -9.251  15.693  69.141  1.00  0.00     0.000 HD 
HETATM   23  C   UNL     1      -9.538  13.785  67.279  1.00  0.00    -0.237 C  
HETATM   24  O   UNL     1     -10.138  15.367  69.040  1.00  0.00    -0.212 OA 
HETATM   25  O   UNL     1      -8.950  14.975  66.753  1.00  0.00    -0.233 OA 
BRANCH  19  26
HETATM   26  N   UNL     1     -12.106  12.621  69.586  1.00  0.00    -0.256 N  
HETATM   27  C   UNL     1     -12.758  13.168  70.667  1.00  0.00    -0.130 C  
HETATM   28  C   UNL     1     -13.097  12.426  71.714  1.00  0.00    -0.446 C  
HETATM   29  C   UNL     1     -12.721  11.002  71.641  1.00  0.00    -0.378 C  
HETATM   30  N   UNL     1     -12.109  10.474  70.626  1.00  0.00    -0.325 N  
HETATM   31  N   UNL     1     -13.012  10.178  72.694  1.00  0.00    -0.222 NA 
HETATM   32  H   UNL     1     -11.885   9.479  70.624  1.00  0.00     0.000 HD 
HETATM   33  C   UNL     1     -11.763  11.264  69.552  1.00  0.00    -0.345 C  
HETATM   34  H1  UNL     1     -12.752   9.194  72.643  1.00  0.00     0.000 HD 
HETATM   35  H2  UNL     1     -13.483  10.545  73.521  1.00  0.00     0.000 HD 
HETATM   36  O   UNL     1     -11.164  10.792  68.583  1.00  0.00    -0.235 OA 
ENDBRANCH  19  26
ENDBRANCH  16  17
ENDBRANCH  15  16
ENDBRANCH  12  15
ENDBRANCH  11  12
ENDBRANCH   8  11
ENDBRANCH   7   8
ENDBRANCH   6   7
ENDBRANCH   5   6
ENDBRANCH   2   5
TORSDOF 10
ENDMDL
MODEL      204
REMARK 921   NORMALIZED FREE ENERGY PREDICTED BY IDOCK:   -4.05 KCAL/MOL
REMARK 922        TOTAL FREE ENERGY PREDICTED BY IDOCK:   -7.35 KCAL/MOL
REMARK 923 INTER-LIGAND FREE ENERGY PREDICTED BY IDOCK:   -5.97 KCAL/MOL
REMARK 924 INTRA-LIGAND FREE ENERGY PREDICTED BY IDOCK:   -1.39 KCAL/MOL
REMARK 927      BINDING AFFINITY PREDICTED BY RF-SCORE:    0.00 PKD
ROOT
HETATM    1  C   UNL     1     -10.574  13.196  64.063  1.00  0.00    -0.276 C  
HETATM    2  N   UNL     1     -11.736  12.577  64.811  1.00  0.00    -0.342 N  
HETATM    3  C   UNL     1     -12.801  12.104  63.837  1.00  0.00    -0.306 C  
HETATM    4  C   UNL     1     -11.227  11.356  65.595  1.00  0.00    -0.076 C  
ENDROOT
BRANCH   2   5
HETATM    5  C   UNL     1     -12.302  13.652  65.772  1.00  0.00    -0.482 C  
BRANCH   5   6
HETATM    6  C   UNL     1     -11.265  14.601  66.346  1.00  0.00    -0.336 C  
BRANCH   6   7
HETATM    7  O   UNL     1     -11.109  14.344  67.728  1.00  0.00    -0.271 OA 
BRANCH   7   8
HETATM    8  P   UNL     1      -9.432  14.133  68.101  1.00  0.00    -0.220 P  
HETATM    9  O   UNL     1      -9.096  14.825  66.786  1.00  0.00    -0.239 OA 
HETATM   10  O   UNL     1      -9.677  12.620  68.122  1.00  0.00    -0.210 OA 
BRANCH   8  11
HETATM   11  O   UNL     1      -7.756  13.923  68.476  1.00  0.00    -0.130 OA 
BRANCH  11  12
HETATM   12  P   UNL     1      -7.335  12.254  68.313  1.00  0.00    -0.125 P  
HETATM   13  O   UNL     1      -6.346  12.663  67.061  1.00  0.00    -0.212 OA 
HETATM   14  O   UNL     1      -6.416  12.406  69.544  1.00  0.00    -0.119 OA 
BRANCH  12  15
HETATM   15  O   UNL     1      -6.912  10.584  68.149  1.00  0.00    -0.071 OA 
BRANCH  15  16
HETATM   16  C   UNL     1      -7.281   9.739  69.257  1.00  0.00    -0.072 C  
BRANCH  16  17
HETATM   17  C   UNL     1      -8.640   9.078  69.088  1.00  0.00    -0.133 C  
HETATM   18  O   UNL     1      -8.528   7.945  68.223  1.00  0.00    -0.123 OA 
HETATM   19  C   UNL     1      -9.642   7.098  68.508  1.00  0.00    -0.139 C  
HETATM   20  H   UNL     1     -10.501   9.311  71.757  1.00  0.00     0.000 HD 
HETATM   21  C   UNL     1     -10.024   7.337  69.984  1.00  0.00    -0.184 C  
HETATM   22  H   UNL     1     -11.673   7.650  71.088  1.00  0.00     0.000 HD 
HETATM   23  C   UNL     1      -9.267   8.601  70.384  1.00  0.00    -0.170 C  
HETATM   24  O   UNL     1     -11.438   7.503  70.180  1.00  0.00    -0.215 OA 
HETATM   25  O   UNL     1     -10.108   9.609  70.945  1.00  0.00    -0.279 OA 
BRANCH  19  26
HETATM   26  N   UNL     1      -9.327   5.707  68.172  1.00  0.00    -0.110 N  
HETATM   27  C   UNL     1      -8.247   5.063  68.729  1.00  0.00    -0.084 C  
HETATM   28  C   UNL     1      -7.902   3.840  68.344  1.00  0.00    -0.068 C  
HETATM   29  C   UNL     1      -8.737   3.239  67.289  1.00  0.00    -0.120 C  
HETATM   30  N   UNL     1      -9.760   3.835  66.757  1.00  0.00    -0.354 N  
HETATM   31  N   UNL     1      -8.428   1.992  66.819  1.00  0.00    -0.093 NA 
HETATM   32  H   UNL     1     -10.310   3.366  66.038  1.00  0.00     0.000 HD 
HETATM   33  C   UNL     1     -10.097   5.106  67.169  1.00  0.00    -0.206 C  
HETATM   34  H1  UNL     1      -9.005   1.576  66.089  1.00  0.00     0.000 HD 
HETATM   35  H2  UNL     1      -7.627   1.483  67.195  1.00  0.00     0.000 HD 
HETATM   36  O   UNL     1     -11.053   5.703  66.667  1.00  0.00    -0.202 OA 
ENDBRANCH  19  26
ENDBRANCH  16  17
ENDBRANCH  15  16
ENDBRANCH  12  15
ENDBRANCH  11  12
ENDBRANCH   8  11
ENDBRANCH   7   8
ENDBRANCH   6   7
ENDBRANCH   5   6
ENDBRANCH   2   5
TORSDOF 10
ENDMDL
MODEL      205
REMARK 921   NORMALIZED FREE ENERGY PREDICTED BY IDOCK:   -4.04 KCAL/MOL
REMARK 922        TOTAL FREE ENERGY PREDICTED BY IDOCK:   -7.34 KCAL/MOL
REMARK 923 INTER-LIGAND FREE ENERGY PREDICTED BY IDOCK:   -6.42 KCAL/MOL
REMARK 924 INTRA-LIGAND FREE ENERGY PREDICTED BY IDOCK:   -0.92 KCAL/MOL
REMARK 927      BINDING AFFINITY PREDICTED BY RF-SCORE:    0.00 PKD
ROOT
HETATM    1  C   UNL     1      -5.139  16.830  70.026  1.00  0.00    -0.176 C  
HETATM    2  N   UNL     1      -6.172  15.805  69.609  1.00  0.00    -0.160 N  
HETATM    3  C   UNL     1      -6.311  14.730  70.673  1.00  0.00    -0.029 C  
HETATM    4  C   UNL     1      -7.532  16.506  69.454  1.00  0.00    -0.090 C  
ENDROOT
BRANCH   2   5
HETATM    5  C   UNL     1      -5.712  15.195  68.262  1.00  0.00    -0.122 C  
BRANCH   5   6
HETATM    6  C   UNL     1      -6.804  15.068  67.215  1.00  0.00    -0.003 C  
BRANCH   6   7
HETATM    7  O   UNL     1      -7.300  13.744  67.213  1.00  0.00    -0.145 OA 
BRANCH   7   8
HETATM    8  P   UNL     1      -8.990  13.749  66.840  1.00  0.00    -0.131 P  
HETATM    9  O   UNL     1      -9.259  14.229  68.261  1.00  0.00    -0.185 OA 
HETATM   10  O   UNL     1      -8.881  12.248  66.553  1.00  0.00    -0.197 OA 
BRANCH   8  11
HETATM   11  O   UNL     1     -10.679  13.755  66.466  1.00  0.00    -0.282 OA 
BRANCH  11  12
HETATM   12  P   UNL     1     -11.480  12.539  67.400  1.00  0.00    -0.365 P  
HETATM   13  O   UNL     1     -12.280  13.734  68.202  1.00  0.00    -0.331 OA 
HETATM   14  O   UNL     1     -12.394  12.264  66.187  1.00  0.00    -0.588 OA 
BRANCH  12  15
HETATM   15  O   UNL     1     -12.281  11.323  68.335  1.00  0.00    -0.604 OA 
BRANCH  15  16
HETATM   16  C   UNL     1     -11.833  11.193  69.698  1.00  0.00    -0.348 C  
BRANCH  16  17
HETATM   17  C   UNL     1     -11.877   9.764  70.216  1.00  0.00    -0.144 C  
HETATM   18  O   UNL     1     -10.621   9.122  69.984  1.00  0.00    -0.210 OA 
HETATM   19  C   UNL     1     -10.536   8.037  70.909  1.00  0.00    -0.213 C  
HETATM   20  H   UNL     1     -13.777   9.428  72.847  1.00  0.00     0.000 HD 
HETATM   21  C   UNL     1     -11.372   8.432  72.145  1.00  0.00    -0.366 C  
HETATM   22  H   UNL     1     -12.752   7.621  73.359  1.00  0.00     0.000 HD 
HETATM   23  C   UNL     1     -12.182   9.646  71.697  1.00  0.00    -0.402 C  
HETATM   24  O   UNL     1     -12.237   7.378  72.599  1.00  0.00    -0.088 OA 
HETATM   25  O   UNL     1     -13.586   9.502  71.919  1.00  0.00    -0.397 OA 
BRANCH  19  26
HETATM   26  N   UNL     1      -9.135   7.714  71.192  1.00  0.00    -0.145 N  
HETATM   27  C   UNL     1      -8.396   8.455  72.084  1.00  0.00    -0.164 C  
HETATM   28  C   UNL     1      -7.099   8.226  72.260  1.00  0.00    -0.111 C  
HETATM   29  C   UNL     1      -6.520   7.149  71.437  1.00  0.00    -0.041 C  
HETATM   30  N   UNL     1      -7.207   6.442  70.594  1.00  0.00    -0.072 N  
HETATM   31  N   UNL     1      -5.184   6.873  71.541  1.00  0.00    -0.027 NA 
HETATM   32  H   UNL     1      -6.756   5.700  70.060  1.00  0.00     0.000 HD 
HETATM   33  C   UNL     1      -8.551   6.699  70.425  1.00  0.00    -0.143 C  
HETATM   34  H1  UNL     1      -4.783   6.128  70.972  1.00  0.00     0.000 HD 
HETATM   35  H2  UNL     1      -4.595   7.406  72.182  1.00  0.00     0.000 HD 
HETATM   36  O   UNL     1      -9.223   6.055  69.617  1.00  0.00    -0.136 OA 
ENDBRANCH  19  26
ENDBRANCH  16  17
ENDBRANCH  15  16
ENDBRANCH  12  15
ENDBRANCH  11  12
ENDBRANCH   8  11
ENDBRANCH   7   8
ENDBRANCH   6   7
ENDBRANCH   5   6
ENDBRANCH   2   5
TORSDOF 10
ENDMDL
MODEL      206
REMARK 921   NORMALIZED FREE ENERGY PREDICTED BY IDOCK:   -4.03 KCAL/MOL
REMARK 922        TOTAL FREE ENERGY PREDICTED BY IDOCK:   -7.32 KCAL/MOL
REMARK 923 INTER-LIGAND FREE ENERGY PREDICTED BY IDOCK:   -6.25 KCAL/MOL
REMARK 924 INTRA-LIGAND FREE ENERGY PREDICTED BY IDOCK:   -1.07 KCAL/MOL
REMARK 927      BINDING AFFINITY PREDICTED BY RF-SCORE:    0.00 PKD
ROOT
HETATM    1  C   UNL     1      -9.871   2.449  63.696  1.00  0.00    -0.130 C  
HETATM    2  N   UNL     1      -8.607   3.280  63.754  1.00  0.00    -0.090 N  
HETATM    3  C   UNL     1      -7.420   2.412  64.136  1.00  0.00    -0.059 C  
HETATM    4  C   UNL     1      -8.338   3.874  62.361  1.00  0.00    -0.076 C  
ENDROOT
BRANCH   2   5
HETATM    5  C   UNL     1      -8.830   4.403  64.796  1.00  0.00    -0.145 C  
BRANCH   5   6
HETATM    6  C   UNL     1      -7.918   5.607  64.640  1.00  0.00    -0.120 C  
BRANCH   6   7
HETATM    7  O   UNL     1      -7.330   5.915  65.888  1.00  0.00    -0.074 OA 
BRANCH   7   8
HETATM    8  P   UNL     1      -6.794   7.560  65.897  1.00  0.00    -0.058 P  
HETATM    9  O   UNL     1      -8.147   7.953  66.477  1.00  0.00    -0.102 OA 
HETATM   10  O   UNL     1      -6.619   7.460  64.377  1.00  0.00    -0.040 OA 
BRANCH   8  11
HETATM   11  O   UNL     1      -6.258   9.205  65.907  1.00  0.00    -0.058 OA 
BRANCH  11  12
HETATM   12  P   UNL     1      -7.627  10.257  65.817  1.00  0.00    -0.144 P  
HETATM   13  O   UNL     1      -7.066  11.042  67.152  1.00  0.00    -0.091 OA 
HETATM   14  O   UNL     1      -6.930  11.002  64.659  1.00  0.00     0.388 OA 
BRANCH  12  15
HETATM   15  O   UNL     1      -8.997  11.311  65.727  1.00  0.00    -0.205 OA 
BRANCH  15  16
HETATM   16  C   UNL     1     -10.156  10.887  66.471  1.00  0.00    -0.222 C  
BRANCH  16  17
HETATM   17  C   UNL     1     -11.244  11.947  66.554  1.00  0.00    -0.327 C  
HETATM   18  O   UNL     1     -10.789  13.052  67.338  1.00  0.00    -0.245 OA 
HETATM   19  C   UNL     1     -11.584  14.178  66.962  1.00  0.00    -0.382 C  
HETATM   20  H   UNL     1     -13.072  12.096  63.856  1.00  0.00     0.000 HD 
HETATM   21  C   UNL     1     -12.014  13.956  65.496  1.00  0.00    -0.383 C  
HETATM   22  H   UNL     1     -13.673  14.085  64.371  1.00  0.00     0.000 HD 
HETATM   23  C   UNL     1     -11.685  12.493  65.209  1.00  0.00    -0.386 C  
HETATM   24  O   UNL     1     -13.408  14.222  65.273  1.00  0.00    -0.660 OA 
HETATM   25  O   UNL     1     -12.795  11.755  64.698  1.00  0.00    -0.184 OA 
BRANCH  19  26
HETATM   26  N   UNL     1     -10.854  15.424  67.207  1.00  0.00    -0.312 N  
HETATM   27  C   UNL     1      -9.983  15.939  66.274  1.00  0.00    -0.298 C  
HETATM   28  C   UNL     1      -9.244  17.010  66.541  1.00  0.00    -0.296 C  
HETATM   29  C   UNL     1      -9.414  17.589  67.886  1.00  0.00    -0.277 C  
HETATM   30  N   UNL     1     -10.233  17.114  68.773  1.00  0.00    -0.314 N  
HETATM   31  N   UNL     1      -8.666  18.677  68.245  1.00  0.00    -0.314 NA 
HETATM   32  H   UNL     1     -10.318  17.563  69.684  1.00  0.00     0.000 HD 
HETATM   33  C   UNL     1     -10.987  15.999  68.476  1.00  0.00    -0.326 C  
HETATM   34  H1  UNL     1      -8.783  19.077  69.175  1.00  0.00     0.000 HD 
HETATM   35  H2  UNL     1      -7.999  19.084  67.589  1.00  0.00     0.000 HD 
HETATM   36  O   UNL     1     -11.759  15.516  69.308  1.00  0.00    -0.324 OA 
ENDBRANCH  19  26
ENDBRANCH  16  17
ENDBRANCH  15  16
ENDBRANCH  12  15
ENDBRANCH  11  12
ENDBRANCH   8  11
ENDBRANCH   7   8
ENDBRANCH   6   7
ENDBRANCH   5   6
ENDBRANCH   2   5
TORSDOF 10
ENDMDL
MODEL      207
REMARK 921   NORMALIZED FREE ENERGY PREDICTED BY IDOCK:   -4.03 KCAL/MOL
REMARK 922        TOTAL FREE ENERGY PREDICTED BY IDOCK:   -7.31 KCAL/MOL
REMARK 923 INTER-LIGAND FREE ENERGY PREDICTED BY IDOCK:   -6.42 KCAL/MOL
REMARK 924 INTRA-LIGAND FREE ENERGY PREDICTED BY IDOCK:   -0.90 KCAL/MOL
REMARK 927      BINDING AFFINITY PREDICTED BY RF-SCORE:    0.00 PKD
ROOT
HETATM    1  C   UNL     1     -10.644  19.620  67.467  1.00  0.00    -0.446 C  
HETATM    2  N   UNL     1      -9.442  18.783  67.086  1.00  0.00    -0.299 N  
HETATM    3  C   UNL     1      -8.452  19.612  66.285  1.00  0.00    -0.360 C  
HETATM    4  C   UNL     1      -8.740  18.309  68.370  1.00  0.00    -0.309 C  
ENDROOT
BRANCH   2   5
HETATM    5  C   UNL     1      -9.951  17.576  66.260  1.00  0.00    -0.308 C  
BRANCH   5   6
HETATM    6  C   UNL     1     -10.251  16.330  67.073  1.00  0.00    -0.280 C  
BRANCH   6   7
HETATM    7  O   UNL     1      -9.937  15.184  66.308  1.00  0.00    -0.257 OA 
BRANCH   7   8
HETATM    8  P   UNL     1     -11.036  13.902  66.687  1.00  0.00    -0.321 P  
HETATM    9  O   UNL     1     -10.743  13.302  65.318  1.00  0.00    -0.294 OA 
HETATM   10  O   UNL     1     -12.139  14.958  66.833  1.00  0.00    -0.222 OA 
BRANCH   8  11
HETATM   11  O   UNL     1     -12.135  12.621  67.067  1.00  0.00    -0.480 OA 
BRANCH  11  12
HETATM   12  P   UNL     1     -11.242  11.217  67.537  1.00  0.00    -0.215 P  
HETATM   13  O   UNL     1     -10.263  12.186  68.439  1.00  0.00    -0.203 OA 
HETATM   14  O   UNL     1     -12.382  10.867  68.517  1.00  0.00    -0.490 OA 
BRANCH  12  15
HETATM   15  O   UNL     1     -10.348   9.812  68.007  1.00  0.00    -0.183 OA 
BRANCH  15  16
HETATM   16  C   UNL     1      -9.602   9.933  69.234  1.00  0.00    -0.205 C  
BRANCH  16  17
HETATM   17  C   UNL     1      -9.304   8.597  69.896  1.00  0.00    -0.159 C  
HETATM   18  O   UNL     1      -9.101   7.593  68.898  1.00  0.00    -0.141 OA 
HETATM   19  C   UNL     1      -8.342   6.550  69.513  1.00  0.00    -0.130 C  
HETATM   20  H   UNL     1      -7.671   8.910  72.703  1.00  0.00     0.000 HD 
HETATM   21  C   UNL     1      -7.492   7.205  70.622  1.00  0.00    -0.081 C  
HETATM   22  H   UNL     1      -7.005   6.882  72.544  1.00  0.00     0.000 HD 
HETATM   23  C   UNL     1      -8.080   8.603  70.792  1.00  0.00    -0.128 C  
HETATM   24  O   UNL     1      -7.529   6.479  71.861  1.00  0.00    -0.090 OA 
HETATM   25  O   UNL     1      -8.437   8.905  72.141  1.00  0.00    -0.382 OA 
BRANCH  19  26
HETATM   26  N   UNL     1      -7.576   5.812  68.505  1.00  0.00    -0.088 N  
HETATM   27  C   UNL     1      -6.916   6.463  67.489  1.00  0.00    -0.078 C  
HETATM   28  C   UNL     1      -6.312   5.789  66.518  1.00  0.00    -0.038 C  
HETATM   29  C   UNL     1      -6.407   4.320  66.601  1.00  0.00    -0.037 C  
HETATM   30  N   UNL     1      -7.024   3.694  67.555  1.00  0.00    -0.054 N  
HETATM   31  N   UNL     1      -5.833   3.556  65.621  1.00  0.00    -0.018 NA 
HETATM   32  H   UNL     1      -7.048   2.675  67.568  1.00  0.00     0.000 HD 
HETATM   33  C   UNL     1      -7.649   4.415  68.550  1.00  0.00    -0.064 C  
HETATM   34  H1  UNL     1      -5.899   2.541  65.678  1.00  0.00     0.000 HD 
HETATM   35  H2  UNL     1      -5.345   3.998  64.842  1.00  0.00     0.000 HD 
HETATM   36  O   UNL     1      -8.259   3.845  69.458  1.00  0.00    -0.054 OA 
ENDBRANCH  19  26
ENDBRANCH  16  17
ENDBRANCH  15  16
ENDBRANCH  12  15
ENDBRANCH  11  12
ENDBRANCH   8  11
ENDBRANCH   7   8
ENDBRANCH   6   7
ENDBRANCH   5   6
ENDBRANCH   2   5
TORSDOF 10
ENDMDL
MODEL      208
REMARK 921   NORMALIZED FREE ENERGY PREDICTED BY IDOCK:   -4.02 KCAL/MOL
REMARK 922        TOTAL FREE ENERGY PREDICTED BY IDOCK:   -7.31 KCAL/MOL
REMARK 923 INTER-LIGAND FREE ENERGY PREDICTED BY IDOCK:   -6.63 KCAL/MOL
REMARK 924 INTRA-LIGAND FREE ENERGY PREDICTED BY IDOCK:   -0.68 KCAL/MOL
REMARK 927      BINDING AFFINITY PREDICTED BY RF-SCORE:    0.00 PKD
ROOT
HETATM    1  C   UNL     1      -7.767  19.155  68.262  1.00  0.00    -0.315 C  
HETATM    2  N   UNL     1      -8.936  18.827  67.357  1.00  0.00    -0.271 N  
HETATM    3  C   UNL     1     -10.250  19.117  68.061  1.00  0.00    -0.401 C  
HETATM    4  C   UNL     1      -8.858  19.715  66.103  1.00  0.00    -0.332 C  
ENDROOT
BRANCH   2   5
HETATM    5  C   UNL     1      -8.829  17.329  66.977  1.00  0.00    -0.228 C  
BRANCH   5   6
HETATM    6  C   UNL     1      -9.659  16.394  67.838  1.00  0.00    -0.228 C  
BRANCH   6   7
HETATM    7  O   UNL     1     -10.419  15.540  67.007  1.00  0.00    -0.291 OA 
BRANCH   7   8
HETATM    8  P   UNL     1     -11.373  14.470  67.975  1.00  0.00    -0.337 P  
HETATM    9  O   UNL     1     -12.180  14.129  66.728  1.00  0.00    -0.447 OA 
HETATM   10  O   UNL     1     -11.771  15.678  68.830  1.00  0.00    -0.364 OA 
BRANCH   8  11
HETATM   11  O   UNL     1     -12.327  13.400  68.944  1.00  0.00    -0.212 OA 
BRANCH  11  12
HETATM   12  P   UNL     1     -11.405  11.985  69.317  1.00  0.00    -0.228 P  
HETATM   13  O   UNL     1     -12.310  11.800  70.681  1.00  0.00    -0.358 OA 
HETATM   14  O   UNL     1     -12.221  11.219  68.254  1.00  0.00    -0.611 OA 
BRANCH  12  15
HETATM   15  O   UNL     1     -10.483  10.570  69.692  1.00  0.00    -0.235 OA 
BRANCH  15  16
HETATM   16  C   UNL     1     -10.643   9.465  68.780  1.00  0.00    -0.208 C  
BRANCH  16  17
HETATM   17  C   UNL     1      -9.469   9.291  67.829  1.00  0.00    -0.140 C  
HETATM   18  O   UNL     1      -8.482   8.443  68.422  1.00  0.00    -0.133 OA 
HETATM   19  C   UNL     1      -7.703   7.907  67.351  1.00  0.00    -0.109 C  
HETATM   20  H   UNL     1     -10.365   9.334  64.692  1.00  0.00     0.000 HD 
HETATM   21  C   UNL     1      -8.621   7.847  66.113  1.00  0.00    -0.150 C  
HETATM   22  H   UNL     1      -8.559   8.316  64.160  1.00  0.00     0.000 HD 
HETATM   23  C   UNL     1      -9.839   8.689  66.487  1.00  0.00    -0.278 C  
HETATM   24  O   UNL     1      -7.994   8.353  64.923  1.00  0.00    -0.120 OA 
HETATM   25  O   UNL     1     -10.134   9.710  65.533  1.00  0.00    -0.290 OA 
BRANCH  19  26
HETATM   26  N   UNL     1      -7.111   6.625  67.742  1.00  0.00    -0.082 N  
HETATM   27  C   UNL     1      -7.530   5.442  67.178  1.00  0.00    -0.084 C  
HETATM   28  C   UNL     1      -7.068   4.274  67.608  1.00  0.00    -0.064 C  
HETATM   29  C   UNL     1      -6.101   4.335  68.719  1.00  0.00    -0.031 C  
HETATM   30  N   UNL     1      -5.697   5.444  69.257  1.00  0.00    -0.011 N  
HETATM   31  N   UNL     1      -5.601   3.171  69.235  1.00  0.00    -0.017 NA 
HETATM   32  H   UNL     1      -5.016   5.427  70.016  1.00  0.00     0.000 HD 
HETATM   33  C   UNL     1      -6.193   6.645  68.798  1.00  0.00    -0.027 C  
HETATM   34  H1  UNL     1      -4.932   3.213  70.004  1.00  0.00     0.000 HD 
HETATM   35  H2  UNL     1      -5.894   2.270  68.855  1.00  0.00     0.000 HD 
HETATM   36  O   UNL     1      -5.840   7.713  69.305  1.00  0.00    -0.028 OA 
ENDBRANCH  19  26
ENDBRANCH  16  17
ENDBRANCH  15  16
ENDBRANCH  12  15
ENDBRANCH  11  12
ENDBRANCH   8  11
ENDBRANCH   7   8
ENDBRANCH   6   7
ENDBRANCH   5   6
ENDBRANCH   2   5
TORSDOF 10
ENDMDL
MODEL      209
REMARK 921   NORMALIZED FREE ENERGY PREDICTED BY IDOCK:   -4.01 KCAL/MOL
REMARK 922        TOTAL FREE ENERGY PREDICTED BY IDOCK:   -7.29 KCAL/MOL
REMARK 923 INTER-LIGAND FREE ENERGY PREDICTED BY IDOCK:   -6.46 KCAL/MOL
REMARK 924 INTRA-LIGAND FREE ENERGY PREDICTED BY IDOCK:   -0.83 KCAL/MOL
REMARK 927      BINDING AFFINITY PREDICTED BY RF-SCORE:    0.00 PKD
ROOT
HETATM    1  C   UNL     1     -11.393   7.211  72.598  1.00  0.00    -0.268 C  
HETATM    2  N   UNL     1     -10.066   6.714  73.130  1.00  0.00    -0.180 N  
HETATM    3  C   UNL     1      -9.054   7.846  73.171  1.00  0.00    -0.260 C  
HETATM    4  C   UNL     1     -10.268   6.199  74.565  1.00  0.00    -0.300 C  
ENDROOT
BRANCH   2   5
HETATM    5  C   UNL     1      -9.584   5.573  72.199  1.00  0.00    -0.150 C  
BRANCH   5   6
HETATM    6  C   UNL     1      -8.723   4.522  72.876  1.00  0.00    -0.112 C  
BRANCH   6   7
HETATM    7  O   UNL     1      -7.364   4.759  72.567  1.00  0.00    -0.079 OA 
BRANCH   7   8
HETATM    8  P   UNL     1      -7.166   4.912  70.855  1.00  0.00    -0.063 P  
HETATM    9  O   UNL     1      -6.844   3.424  70.802  1.00  0.00    -0.032 OA 
HETATM   10  O   UNL     1      -6.045   5.922  71.123  1.00  0.00    -0.035 OA 
BRANCH   8  11
HETATM   11  O   UNL     1      -6.970   5.065  69.142  1.00  0.00    -0.052 OA 
BRANCH  11  12
HETATM   12  P   UNL     1      -7.303   6.694  68.668  1.00  0.00    -0.090 P  
HETATM   13  O   UNL     1      -7.478   6.168  67.117  1.00  0.00    -0.079 OA 
HETATM   14  O   UNL     1      -8.723   6.532  69.250  1.00  0.00    -0.129 OA 
BRANCH  12  15
HETATM   15  O   UNL     1      -7.637   8.324  68.192  1.00  0.00    -0.095 OA 
BRANCH  15  16
HETATM   16  C   UNL     1      -9.020   8.618  67.913  1.00  0.00    -0.140 C  
BRANCH  16  17
HETATM   17  C   UNL     1      -9.550   9.819  68.682  1.00  0.00    -0.151 C  
HETATM   18  O   UNL     1      -9.488  10.989  67.863  1.00  0.00    -0.159 OA 
HETATM   19  C   UNL     1     -10.433  11.917  68.398  1.00  0.00    -0.217 C  
HETATM   20  H   UNL     1     -11.925   9.033  70.776  1.00  0.00     0.000 HD 
HETATM   21  C   UNL     1     -11.547  11.087  69.071  1.00  0.00    -0.323 C  
HETATM   22  H   UNL     1     -12.591  11.067  70.787  1.00  0.00     0.000 HD 
HETATM   23  C   UNL     1     -10.982   9.672  69.158  1.00  0.00    -0.151 C  
HETATM   24  O   UNL     1     -11.905  11.578  70.373  1.00  0.00    -0.346 OA 
HETATM   25  O   UNL     1     -11.028   9.126  70.477  1.00  0.00    -0.234 OA 
BRANCH  19  26
HETATM   26  N   UNL     1     -10.894  12.836  67.356  1.00  0.00    -0.236 N  
HETATM   27  C   UNL     1     -11.842  12.456  66.433  1.00  0.00    -0.354 C  
HETATM   28  C   UNL     1     -12.181  13.253  65.427  1.00  0.00    -0.501 C  
HETATM   29  C   UNL     1     -11.475  14.545  65.365  1.00  0.00    -0.348 C  
HETATM   30  N   UNL     1     -10.581  14.916  66.229  1.00  0.00    -0.299 N  
HETATM   31  N   UNL     1     -11.749  15.409  64.340  1.00  0.00    -0.635 NA 
HETATM   32  H   UNL     1     -10.133  15.828  66.144  1.00  0.00     0.000 HD 
HETATM   33  C   UNL     1     -10.241  14.071  67.263  1.00  0.00    -0.260 C  
HETATM   34  H1  UNL     1     -11.261  16.303  64.297  1.00  0.00     0.000 HD 
HETATM   35  H2  UNL     1     -12.436  15.162  63.627  1.00  0.00     0.000 HD 
HETATM   36  O   UNL     1      -9.382  14.391  68.088  1.00  0.00    -0.191 OA 
ENDBRANCH  19  26
ENDBRANCH  16  17
ENDBRANCH  15  16
ENDBRANCH  12  15
ENDBRANCH  11  12
ENDBRANCH   8  11
ENDBRANCH   7   8
ENDBRANCH   6   7
ENDBRANCH   5   6
ENDBRANCH   2   5
TORSDOF 10
ENDMDL
MODEL      210
REMARK 921   NORMALIZED FREE ENERGY PREDICTED BY IDOCK:   -4.00 KCAL/MOL
REMARK 922        TOTAL FREE ENERGY PREDICTED BY IDOCK:   -7.28 KCAL/MOL
REMARK 923 INTER-LIGAND FREE ENERGY PREDICTED BY IDOCK:   -6.33 KCAL/MOL
REMARK 924 INTRA-LIGAND FREE ENERGY PREDICTED BY IDOCK:   -0.95 KCAL/MOL
REMARK 927      BINDING AFFINITY PREDICTED BY RF-SCORE:    0.00 PKD
ROOT
HETATM    1  C   UNL     1     -10.094  20.137  68.703  1.00  0.00    -0.247 C  
HETATM    2  N   UNL     1      -9.573  19.119  67.711  1.00  0.00    -0.304 N  
HETATM    3  C   UNL     1      -9.334  19.771  66.359  1.00  0.00    -0.401 C  
HETATM    4  C   UNL     1      -8.230  18.570  68.222  1.00  0.00    -0.314 C  
ENDROOT
BRANCH   2   5
HETATM    5  C   UNL     1     -10.625  17.988  67.602  1.00  0.00    -0.399 C  
BRANCH   5   6
HETATM    6  C   UNL     1     -10.391  17.009  66.465  1.00  0.00    -0.298 C  
BRANCH   6   7
HETATM    7  O   UNL     1     -11.079  15.804  66.734  1.00  0.00    -0.252 OA 
BRANCH   7   8
HETATM    8  P   UNL     1     -10.880  14.704  65.413  1.00  0.00    -0.412 P  
HETATM    9  O   UNL     1      -9.462  14.438  65.905  1.00  0.00    -0.256 OA 
HETATM   10  O   UNL     1     -11.146  15.876  64.461  1.00  0.00    -0.495 OA 
BRANCH   8  11
HETATM   11  O   UNL     1     -10.681  13.603  64.093  1.00  0.00    -0.333 OA 
BRANCH  11  12
HETATM   12  P   UNL     1     -10.378  12.016  64.707  1.00  0.00    -0.297 P  
HETATM   13  O   UNL     1     -11.987  11.693  64.565  1.00  0.00    -0.166 OA 
HETATM   14  O   UNL     1      -9.822  11.627  63.321  1.00  0.00    -0.372 OA 
BRANCH  12  15
HETATM   15  O   UNL     1     -10.075  10.427  65.322  1.00  0.00    -0.293 OA 
BRANCH  15  16
HETATM   16  C   UNL     1     -10.717  10.113  66.574  1.00  0.00    -0.048 C  
BRANCH  16  17
HETATM   17  C   UNL     1      -9.772   9.519  67.606  1.00  0.00    -0.154 C  
HETATM   18  O   UNL     1      -9.655   8.108  67.406  1.00  0.00    -0.148 OA 
HETATM   19  C   UNL     1      -8.424   7.707  68.011  1.00  0.00    -0.123 C  
HETATM   20  H   UNL     1      -7.381  11.567  68.462  1.00  0.00     0.000 HD 
HETATM   21  C   UNL     1      -7.475   8.922  67.950  1.00  0.00    -0.092 C  
HETATM   22  H   UNL     1      -6.210   9.915  69.153  1.00  0.00     0.000 HD 
HETATM   23  C   UNL     1      -8.371  10.101  67.578  1.00  0.00    -0.118 C  
HETATM   24  O   UNL     1      -6.794   9.167  69.191  1.00  0.00    -0.050 OA 
HETATM   25  O   UNL     1      -8.258  11.202  68.479  1.00  0.00    -0.135 OA 
BRANCH  19  26
HETATM   26  N   UNL     1      -7.912   6.492  67.373  1.00  0.00    -0.112 N  
HETATM   27  C   UNL     1      -8.161   6.220  66.048  1.00  0.00    -0.125 C  
HETATM   28  C   UNL     1      -7.786   5.071  65.499  1.00  0.00    -0.092 C  
HETATM   29  C   UNL     1      -7.107   4.121  66.399  1.00  0.00    -0.064 C  
HETATM   30  N   UNL     1      -6.864   4.367  67.649  1.00  0.00    -0.054 N  
HETATM   31  N   UNL     1      -6.715   2.903  65.914  1.00  0.00    -0.042 NA 
HETATM   32  H   UNL     1      -6.379   3.677  68.222  1.00  0.00     0.000 HD 
HETATM   33  C   UNL     1      -7.266   5.565  68.199  1.00  0.00    -0.072 C  
HETATM   34  H1  UNL     1      -6.246   2.246  66.536  1.00  0.00     0.000 HD 
HETATM   35  H2  UNL     1      -6.892   2.655  64.940  1.00  0.00     0.000 HD 
HETATM   36  O   UNL     1      -7.064   5.816  69.389  1.00  0.00    -0.061 OA 
ENDBRANCH  19  26
ENDBRANCH  16  17
ENDBRANCH  15  16
ENDBRANCH  12  15
ENDBRANCH  11  12
ENDBRANCH   8  11
ENDBRANCH   7   8
ENDBRANCH   6   7
ENDBRANCH   5   6
ENDBRANCH   2   5
TORSDOF 10
ENDMDL
MODEL      211
REMARK 921   NORMALIZED FREE ENERGY PREDICTED BY IDOCK:   -3.98 KCAL/MOL
REMARK 922        TOTAL FREE ENERGY PREDICTED BY IDOCK:   -7.25 KCAL/MOL
REMARK 923 INTER-LIGAND FREE ENERGY PREDICTED BY IDOCK:   -6.41 KCAL/MOL
REMARK 924 INTRA-LIGAND FREE ENERGY PREDICTED BY IDOCK:   -0.83 KCAL/MOL
REMARK 927      BINDING AFFINITY PREDICTED BY RF-SCORE:    0.00 PKD
ROOT
HETATM    1  C   UNL     1      -9.432   3.475  63.666  1.00  0.00    -0.126 C  
HETATM    2  N   UNL     1      -8.132   4.084  64.145  1.00  0.00    -0.089 N  
HETATM    3  C   UNL     1      -7.441   3.154  65.127  1.00  0.00    -0.072 C  
HETATM    4  C   UNL     1      -7.202   4.282  62.936  1.00  0.00    -0.044 C  
ENDROOT
BRANCH   2   5
HETATM    5  C   UNL     1      -8.466   5.442  64.810  1.00  0.00    -0.138 C  
BRANCH   5   6
HETATM    6  C   UNL     1      -8.237   5.490  66.310  1.00  0.00    -0.111 C  
BRANCH   6   7
HETATM    7  O   UNL     1      -9.476   5.663  66.969  1.00  0.00    -0.120 OA 
BRANCH   7   8
HETATM    8  P   UNL     1      -9.226   6.420  68.505  1.00  0.00    -0.122 P  
HETATM    9  O   UNL     1      -9.531   7.759  67.847  1.00  0.00    -0.142 OA 
HETATM   10  O   UNL     1      -7.794   5.873  68.486  1.00  0.00    -0.099 OA 
BRANCH   8  11
HETATM   11  O   UNL     1      -8.977   7.176  70.041  1.00  0.00    -0.142 OA 
BRANCH  11  12
HETATM   12  P   UNL     1      -8.654   8.859  69.809  1.00  0.00    -0.152 P  
HETATM   13  O   UNL     1      -9.534   9.176  71.165  1.00  0.00    -0.261 OA 
HETATM   14  O   UNL     1      -7.234   8.624  70.365  1.00  0.00    -0.039 OA 
BRANCH  12  15
HETATM   15  O   UNL     1      -8.333  10.543  69.578  1.00  0.00    -0.144 OA 
BRANCH  15  16
HETATM   16  C   UNL     1      -7.453  10.863  68.482  1.00  0.00    -0.103 C  
BRANCH  16  17
HETATM   17  C   UNL     1      -7.814  12.159  67.774  1.00  0.00    -0.148 C  
HETATM   18  O   UNL     1      -9.164  12.520  68.076  1.00  0.00    -0.191 OA 
HETATM   19  C   UNL     1      -9.275  13.925  67.844  1.00  0.00    -0.198 C  
HETATM   20  H   UNL     1      -5.277  14.188  67.475  1.00  0.00     0.000 HD 
HETATM   21  C   UNL     1      -7.879  14.535  68.089  1.00  0.00    -0.135 C  
HETATM   22  H   UNL     1      -6.620  15.833  67.213  1.00  0.00     0.000 HD 
HETATM   23  C   UNL     1      -6.933  13.338  68.143  1.00  0.00    -0.114 C  
HETATM   24  O   UNL     1      -7.480  15.458  67.062  1.00  0.00    -0.205 OA 
HETATM   25  O   UNL     1      -5.829  13.449  67.244  1.00  0.00    -0.350 OA 
BRANCH  19  26
HETATM   26  N   UNL     1     -10.348  14.496  68.662  1.00  0.00    -0.237 N  
HETATM   27  C   UNL     1     -10.084  15.422  69.645  1.00  0.00    -0.269 C  
HETATM   28  C   UNL     1     -11.042  15.858  70.454  1.00  0.00    -0.382 C  
HETATM   29  C   UNL     1     -12.380  15.281  70.235  1.00  0.00    -0.366 C  
HETATM   30  N   UNL     1     -12.642  14.409  69.310  1.00  0.00    -0.522 N  
HETATM   31  N   UNL     1     -13.414  15.659  71.048  1.00  0.00    -0.717 NA 
HETATM   32  H   UNL     1     -13.591  14.053  69.196  1.00  0.00     0.000 HD 
HETATM   33  C   UNL     1     -11.632  13.967  68.484  1.00  0.00    -0.322 C  
HETATM   34  H1  UNL     1     -14.339  15.260  70.896  1.00  0.00     0.000 HD 
HETATM   35  H2  UNL     1     -13.260  16.334  71.797  1.00  0.00     0.000 HD 
HETATM   36  O   UNL     1     -11.850  13.125  67.610  1.00  0.00    -0.354 OA 
ENDBRANCH  19  26
ENDBRANCH  16  17
ENDBRANCH  15  16
ENDBRANCH  12  15
ENDBRANCH  11  12
ENDBRANCH   8  11
ENDBRANCH   7   8
ENDBRANCH   6   7
ENDBRANCH   5   6
ENDBRANCH   2   5
TORSDOF 10
ENDMDL
MODEL      212
REMARK 921   NORMALIZED FREE ENERGY PREDICTED BY IDOCK:   -3.97 KCAL/MOL
REMARK 922        TOTAL FREE ENERGY PREDICTED BY IDOCK:   -7.22 KCAL/MOL
REMARK 923 INTER-LIGAND FREE ENERGY PREDICTED BY IDOCK:   -5.90 KCAL/MOL
REMARK 924 INTRA-LIGAND FREE ENERGY PREDICTED BY IDOCK:   -1.33 KCAL/MOL
REMARK 927      BINDING AFFINITY PREDICTED BY RF-SCORE:    0.00 PKD
ROOT
HETATM    1  C   UNL     1     -10.491  13.122  64.170  1.00  0.00    -0.326 C  
HETATM    2  N   UNL     1     -11.731  12.701  64.929  1.00  0.00    -0.336 N  
HETATM    3  C   UNL     1     -12.816  12.254  63.965  1.00  0.00    -0.279 C  
HETATM    4  C   UNL     1     -11.377  11.513  65.839  1.00  0.00    -0.108 C  
ENDROOT
BRANCH   2   5
HETATM    5  C   UNL     1     -12.202  13.915  65.769  1.00  0.00    -0.460 C  
BRANCH   5   6
HETATM    6  C   UNL     1     -11.126  14.948  66.052  1.00  0.00    -0.334 C  
BRANCH   6   7
HETATM    7  O   UNL     1     -10.885  15.004  67.444  1.00  0.00    -0.290 OA 
BRANCH   7   8
HETATM    8  P   UNL     1      -9.211  14.702  67.765  1.00  0.00    -0.209 P  
HETATM    9  O   UNL     1      -8.899  15.168  66.348  1.00  0.00    -0.285 OA 
HETATM   10  O   UNL     1      -9.576  13.235  68.019  1.00  0.00    -0.207 OA 
BRANCH   8  11
HETATM   11  O   UNL     1      -7.538  14.400  68.086  1.00  0.00    -0.107 OA 
BRANCH  11  12
HETATM   12  P   UNL     1      -7.289  12.701  68.291  1.00  0.00    -0.136 P  
HETATM   13  O   UNL     1      -6.170  12.757  67.083  1.00  0.00    -0.263 OA 
HETATM   14  O   UNL     1      -6.454  13.015  69.551  1.00  0.00    -0.116 OA 
BRANCH  12  15
HETATM   15  O   UNL     1      -7.038  11.001  68.495  1.00  0.00    -0.069 OA 
BRANCH  15  16
HETATM   16  C   UNL     1      -7.516  10.448  69.737  1.00  0.00    -0.149 C  
BRANCH  16  17
HETATM   17  C   UNL     1      -8.634   9.432  69.556  1.00  0.00    -0.158 C  
HETATM   18  O   UNL     1      -8.106   8.106  69.640  1.00  0.00    -0.113 OA 
HETATM   19  C   UNL     1      -9.196   7.250  69.984  1.00  0.00    -0.148 C  
HETATM   20  H   UNL     1     -11.490  10.467  70.746  1.00  0.00     0.000 HD 
HETATM   21  C   UNL     1     -10.200   8.100  70.791  1.00  0.00    -0.194 C  
HETATM   22  H   UNL     1     -12.178   8.444  70.860  1.00  0.00     0.000 HD 
HETATM   23  C   UNL     1      -9.749   9.543  70.579  1.00  0.00    -0.263 C  
HETATM   24  O   UNL     1     -11.560   7.921  70.364  1.00  0.00    -0.211 OA 
HETATM   25  O   UNL     1     -10.791  10.397  70.106  1.00  0.00    -0.283 OA 
BRANCH  19  26
HETATM   26  N   UNL     1      -8.710   6.053  70.674  1.00  0.00    -0.137 N  
HETATM   27  C   UNL     1      -7.607   6.099  71.496  1.00  0.00    -0.099 C  
HETATM   28  C   UNL     1      -7.105   4.995  72.036  1.00  0.00    -0.071 C  
HETATM   29  C   UNL     1      -7.795   3.739  71.689  1.00  0.00    -0.062 C  
HETATM   30  N   UNL     1      -8.837   3.683  70.917  1.00  0.00    -0.078 N  
HETATM   31  N   UNL     1      -7.320   2.555  72.184  1.00  0.00    -0.042 NA 
HETATM   32  H   UNL     1      -9.282   2.787  70.722  1.00  0.00     0.000 HD 
HETATM   33  C   UNL     1      -9.338   4.841  70.364  1.00  0.00    -0.151 C  
HETATM   34  H1  UNL     1      -7.797   1.687  71.944  1.00  0.00     0.000 HD 
HETATM   35  H2  UNL     1      -6.497   2.542  72.788  1.00  0.00     0.000 HD 
HETATM   36  O   UNL     1     -10.316   4.814  69.612  1.00  0.00    -0.217 OA 
ENDBRANCH  19  26
ENDBRANCH  16  17
ENDBRANCH  15  16
ENDBRANCH  12  15
ENDBRANCH  11  12
ENDBRANCH   8  11
ENDBRANCH   7   8
ENDBRANCH   6   7
ENDBRANCH   5   6
ENDBRANCH   2   5
TORSDOF 10
ENDMDL
MODEL      213
REMARK 921   NORMALIZED FREE ENERGY PREDICTED BY IDOCK:   -3.96 KCAL/MOL
REMARK 922        TOTAL FREE ENERGY PREDICTED BY IDOCK:   -7.20 KCAL/MOL
REMARK 923 INTER-LIGAND FREE ENERGY PREDICTED BY IDOCK:   -8.06 KCAL/MOL
REMARK 924 INTRA-LIGAND FREE ENERGY PREDICTED BY IDOCK:    0.85 KCAL/MOL
REMARK 927      BINDING AFFINITY PREDICTED BY RF-SCORE:    0.00 PKD
ROOT
HETATM    1  C   UNL     1      -7.101   7.072  68.257  1.00  0.00    -0.082 C  
HETATM    2  N   UNL     1      -8.306   6.157  68.194  1.00  0.00    -0.114 N  
HETATM    3  C   UNL     1      -8.155   5.161  67.057  1.00  0.00    -0.104 C  
HETATM    4  C   UNL     1      -8.402   5.370  69.512  1.00  0.00    -0.100 C  
ENDROOT
BRANCH   2   5
HETATM    5  C   UNL     1      -9.559   7.044  67.990  1.00  0.00    -0.128 C  
BRANCH   5   6
HETATM    6  C   UNL     1      -9.723   8.157  69.010  1.00  0.00    -0.163 C  
BRANCH   6   7
HETATM    7  O   UNL     1     -10.730   9.049  68.574  1.00  0.00    -0.186 OA 
BRANCH   7   8
HETATM    8  P   UNL     1     -10.214   9.862  67.136  1.00  0.00    -0.241 P  
HETATM    9  O   UNL     1     -10.471   8.572  66.366  1.00  0.00    -0.195 OA 
HETATM   10  O   UNL     1      -8.855  10.086  67.809  1.00  0.00    -0.125 OA 
BRANCH   8  11
HETATM   11  O   UNL     1      -9.699  10.675  65.698  1.00  0.00    -0.203 OA 
BRANCH  11  12
HETATM   12  P   UNL     1     -10.461  12.225  65.609  1.00  0.00    -0.280 P  
HETATM   13  O   UNL     1     -11.599  11.685  66.671  1.00  0.00    -0.493 OA 
HETATM   14  O   UNL     1      -9.358  12.778  66.536  1.00  0.00    -0.238 OA 
BRANCH  12  15
HETATM   15  O   UNL     1     -11.225  13.775  65.520  1.00  0.00    -0.296 OA 
BRANCH  15  16
HETATM   16  C   UNL     1     -10.348  14.908  65.671  1.00  0.00    -0.349 C  
BRANCH  16  17
HETATM   17  C   UNL     1     -10.773  15.860  66.779  1.00  0.00    -0.281 C  
HETATM   18  O   UNL     1     -11.830  15.276  67.545  1.00  0.00    -0.241 OA 
HETATM   19  C   UNL     1     -11.826  15.928  68.816  1.00  0.00    -0.268 C  
HETATM   20  H   UNL     1      -8.301  17.653  67.926  1.00  0.00     0.000 HD 
HETATM   21  C   UNL     1     -10.375  16.379  69.085  1.00  0.00    -0.289 C  
HETATM   22  H   UNL     1      -9.394  18.009  69.731  1.00  0.00     0.000 HD 
HETATM   23  C   UNL     1      -9.662  16.230  67.743  1.00  0.00    -0.233 C  
HETATM   24  O   UNL     1     -10.287  17.731  69.565  1.00  0.00    -0.168 OA 
HETATM   25  O   UNL     1      -8.997  17.421  67.322  1.00  0.00    -0.230 OA 
BRANCH  19  26
HETATM   26  N   UNL     1     -12.398  15.052  69.841  1.00  0.00    -0.300 N  
HETATM   27  C   UNL     1     -13.320  15.520  70.749  1.00  0.00    -0.259 C  
HETATM   28  C   UNL     1     -13.758  14.755  71.742  1.00  0.00    -0.511 C  
HETATM   29  C   UNL     1     -13.188  13.397  71.805  1.00  0.00    -0.407 C  
HETATM   30  N   UNL     1     -12.320  12.943  70.954  1.00  0.00    -0.401 N  
HETATM   31  N   UNL     1     -13.568  12.558  72.817  1.00  0.00    -0.593 NA 
HETATM   32  H   UNL     1     -11.968  11.990  71.040  1.00  0.00     0.000 HD 
HETATM   33  C   UNL     1     -11.876  13.757  69.934  1.00  0.00    -0.327 C  
HETATM   34  H1  UNL     1     -13.174  11.619  72.861  1.00  0.00     0.000 HD 
HETATM   35  H2  UNL     1     -14.240  12.869  73.519  1.00  0.00     0.000 HD 
HETATM   36  O   UNL     1     -11.038  13.357  69.123  1.00  0.00    -0.252 OA 
ENDBRANCH  19  26
ENDBRANCH  16  17
ENDBRANCH  15  16
ENDBRANCH  12  15
ENDBRANCH  11  12
ENDBRANCH   8  11
ENDBRANCH   7   8
ENDBRANCH   6   7
ENDBRANCH   5   6
ENDBRANCH   2   5
TORSDOF 10
ENDMDL
MODEL      214
REMARK 921   NORMALIZED FREE ENERGY PREDICTED BY IDOCK:   -3.94 KCAL/MOL
REMARK 922        TOTAL FREE ENERGY PREDICTED BY IDOCK:   -7.17 KCAL/MOL
REMARK 923 INTER-LIGAND FREE ENERGY PREDICTED BY IDOCK:   -6.22 KCAL/MOL
REMARK 924 INTRA-LIGAND FREE ENERGY PREDICTED BY IDOCK:   -0.95 KCAL/MOL
REMARK 927      BINDING AFFINITY PREDICTED BY RF-SCORE:    0.00 PKD
ROOT
HETATM    1  C   UNL     1     -10.664   5.775  69.415  1.00  0.00    -0.326 C  
HETATM    2  N   UNL     1      -9.401   5.648  68.592  1.00  0.00    -0.121 N  
HETATM    3  C   UNL     1      -8.311   6.546  69.152  1.00  0.00    -0.119 C  
HETATM    4  C   UNL     1      -8.906   4.193  68.662  1.00  0.00    -0.104 C  
ENDROOT
BRANCH   2   5
HETATM    5  C   UNL     1      -9.748   6.040  67.134  1.00  0.00    -0.131 C  
BRANCH   5   6
HETATM    6  C   UNL     1      -9.017   5.242  66.069  1.00  0.00    -0.144 C  
BRANCH   6   7
HETATM    7  O   UNL     1      -7.733   5.798  65.865  1.00  0.00    -0.088 OA 
BRANCH   7   8
HETATM    8  P   UNL     1      -7.756   6.840  64.483  1.00  0.00    -0.108 P  
HETATM    9  O   UNL     1      -8.394   5.705  63.691  1.00  0.00    -0.118 OA 
HETATM   10  O   UNL     1      -6.229   6.929  64.587  1.00  0.00    -0.035 OA 
BRANCH   8  11
HETATM   11  O   UNL     1      -7.779   7.882  63.103  1.00  0.00    -0.122 OA 
BRANCH  11  12
HETATM   12  P   UNL     1      -8.177   9.489  63.601  1.00  0.00    -0.195 P  
HETATM   13  O   UNL     1      -9.404   9.486  62.502  1.00  0.00    -0.227 OA 
HETATM   14  O   UNL     1      -8.839   8.893  64.861  1.00  0.00    -0.186 OA 
BRANCH  12  15
HETATM   15  O   UNL     1      -8.576  11.098  64.099  1.00  0.00     0.069 OA 
BRANCH  15  16
HETATM   16  C   UNL     1      -9.869  11.575  63.677  1.00  0.00    -0.353 C  
BRANCH  16  17
HETATM   17  C   UNL     1     -10.717  12.113  64.819  1.00  0.00    -0.301 C  
HETATM   18  O   UNL     1     -10.881  11.107  65.821  1.00  0.00    -0.238 OA 
HETATM   19  C   UNL     1     -11.205  11.785  67.036  1.00  0.00    -0.322 C  
HETATM   20  H   UNL     1     -10.283  15.307  65.322  1.00  0.00     0.000 HD 
HETATM   21  C   UNL     1     -10.554  13.182  66.959  1.00  0.00    -0.258 C  
HETATM   22  H   UNL     1     -11.041  15.099  67.313  1.00  0.00     0.000 HD 
HETATM   23  C   UNL     1     -10.142  13.342  65.498  1.00  0.00    -0.266 C  
HETATM   24  O   UNL     1     -11.441  14.239  67.360  1.00  0.00    -0.312 OA 
HETATM   25  O   UNL     1     -10.643  14.537  64.897  1.00  0.00    -0.409 OA 
BRANCH  19  26
HETATM   26  N   UNL     1     -10.802  10.982  68.193  1.00  0.00    -0.207 N  
HETATM   27  C   UNL     1     -11.734  10.424  69.038  1.00  0.00    -0.096 C  
HETATM   28  C   UNL     1     -11.366   9.786  70.143  1.00  0.00    -0.305 C  
HETATM   29  C   UNL     1      -9.916   9.730  70.400  1.00  0.00    -0.233 C  
HETATM   30  N   UNL     1      -9.027  10.249  69.610  1.00  0.00    -0.365 N  
HETATM   31  N   UNL     1      -9.460   9.114  71.533  1.00  0.00    -0.294 NA 
HETATM   32  H   UNL     1      -8.035  10.169  69.832  1.00  0.00     0.000 HD 
HETATM   33  C   UNL     1      -9.431  10.911  68.471  1.00  0.00    -0.185 C  
HETATM   34  H1  UNL     1      -8.458   9.075  71.711  1.00  0.00     0.000 HD 
HETATM   35  H2  UNL     1     -10.118   8.698  72.194  1.00  0.00     0.000 HD 
HETATM   36  O   UNL     1      -8.608  11.430  67.713  1.00  0.00    -0.123 OA 
ENDBRANCH  19  26
ENDBRANCH  16  17
ENDBRANCH  15  16
ENDBRANCH  12  15
ENDBRANCH  11  12
ENDBRANCH   8  11
ENDBRANCH   7   8
ENDBRANCH   6   7
ENDBRANCH   5   6
ENDBRANCH   2   5
TORSDOF 10
ENDMDL
MODEL      215
REMARK 921   NORMALIZED FREE ENERGY PREDICTED BY IDOCK:   -3.94 KCAL/MOL
REMARK 922        TOTAL FREE ENERGY PREDICTED BY IDOCK:   -7.17 KCAL/MOL
REMARK 923 INTER-LIGAND FREE ENERGY PREDICTED BY IDOCK:   -6.05 KCAL/MOL
REMARK 924 INTRA-LIGAND FREE ENERGY PREDICTED BY IDOCK:   -1.13 KCAL/MOL
REMARK 927      BINDING AFFINITY PREDICTED BY RF-SCORE:    0.00 PKD
ROOT
HETATM    1  C   UNL     1     -11.963  10.843  68.370  1.00  0.00    -0.007 C  
HETATM    2  N   UNL     1     -11.080  11.349  69.490  1.00  0.00    -0.236 N  
HETATM    3  C   UNL     1     -11.478  10.709  70.809  1.00  0.00    -0.214 C  
HETATM    4  C   UNL     1      -9.623  10.960  69.189  1.00  0.00    -0.106 C  
ENDROOT
BRANCH   2   5
HETATM    5  C   UNL     1     -11.236  12.889  69.552  1.00  0.00    -0.074 C  
BRANCH   5   6
HETATM    6  C   UNL     1     -11.854  13.516  68.315  1.00  0.00    -0.366 C  
BRANCH   6   7
HETATM    7  O   UNL     1     -10.868  14.252  67.619  1.00  0.00    -0.262 OA 
BRANCH   7   8
HETATM    8  P   UNL     1     -10.946  13.890  65.929  1.00  0.00    -0.295 P  
HETATM    9  O   UNL     1      -9.854  14.928  65.700  1.00  0.00    -0.328 OA 
HETATM   10  O   UNL     1     -12.415  14.326  65.953  1.00  0.00    -0.437 OA 
BRANCH   8  11
HETATM   11  O   UNL     1     -11.023  13.527  64.239  1.00  0.00    -0.383 OA 
BRANCH  11  12
HETATM   12  P   UNL     1     -10.307  11.981  63.948  1.00  0.00    -0.458 P  
HETATM   13  O   UNL     1     -10.743  11.533  65.472  1.00  0.00    -0.273 OA 
HETATM   14  O   UNL     1     -11.548  11.606  63.110  1.00  0.00    -0.260 OA 
BRANCH  12  15
HETATM   15  O   UNL     1      -9.591  10.432  63.659  1.00  0.00    -0.284 OA 
BRANCH  15  16
HETATM   16  C   UNL     1      -8.157  10.376  63.798  1.00  0.00    -0.104 C  
BRANCH  16  17
HETATM   17  C   UNL     1      -7.657   9.062  64.380  1.00  0.00    -0.112 C  
HETATM   18  O   UNL     1      -7.802   9.072  65.802  1.00  0.00    -0.096 OA 
HETATM   19  C   UNL     1      -7.824   7.707  66.223  1.00  0.00    -0.091 C  
HETATM   20  H   UNL     1      -8.158   6.525  62.390  1.00  0.00     0.000 HD 
HETATM   21  C   UNL     1      -8.401   6.884  65.051  1.00  0.00    -0.049 C  
HETATM   22  H   UNL     1      -7.999   5.187  64.053  1.00  0.00     0.000 HD 
HETATM   23  C   UNL     1      -8.379   7.834  63.857  1.00  0.00     0.114 C  
HETATM   24  O   UNL     1      -7.644   5.694  64.774  1.00  0.00    -0.075 OA 
HETATM   25  O   UNL     1      -7.707   7.295  62.718  1.00  0.00    -0.116 OA 
BRANCH  19  26
HETATM   26  N   UNL     1      -8.552   7.572  67.486  1.00  0.00    -0.122 N  
HETATM   27  C   UNL     1      -7.926   7.135  68.631  1.00  0.00    -0.123 C  
HETATM   28  C   UNL     1      -8.610   6.913  69.747  1.00  0.00    -0.141 C  
HETATM   29  C   UNL     1     -10.062   7.155  69.669  1.00  0.00    -0.192 C  
HETATM   30  N   UNL     1     -10.664   7.570  68.597  1.00  0.00    -0.371 N  
HETATM   31  N   UNL     1     -10.839   6.922  70.771  1.00  0.00    -0.236 NA 
HETATM   32  H   UNL     1     -11.670   7.732  68.605  1.00  0.00     0.000 HD 
HETATM   33  C   UNL     1      -9.935   7.789  67.449  1.00  0.00    -0.195 C  
HETATM   34  H1  UNL     1     -11.844   7.089  70.718  1.00  0.00     0.000 HD 
HETATM   35  H2  UNL     1     -10.418   6.585  71.637  1.00  0.00     0.000 HD 
HETATM   36  O   UNL     1     -10.484   8.165  66.410  1.00  0.00    -0.154 OA 
ENDBRANCH  19  26
ENDBRANCH  16  17
ENDBRANCH  15  16
ENDBRANCH  12  15
ENDBRANCH  11  12
ENDBRANCH   8  11
ENDBRANCH   7   8
ENDBRANCH   6   7
ENDBRANCH   5   6
ENDBRANCH   2   5
TORSDOF 10
ENDMDL
MODEL      216
REMARK 921   NORMALIZED FREE ENERGY PREDICTED BY IDOCK:   -3.91 KCAL/MOL
REMARK 922        TOTAL FREE ENERGY PREDICTED BY IDOCK:   -7.13 KCAL/MOL
REMARK 923 INTER-LIGAND FREE ENERGY PREDICTED BY IDOCK:   -6.35 KCAL/MOL
REMARK 924 INTRA-LIGAND FREE ENERGY PREDICTED BY IDOCK:   -0.78 KCAL/MOL
REMARK 927      BINDING AFFINITY PREDICTED BY RF-SCORE:    0.00 PKD
ROOT
HETATM    1  C   UNL     1     -10.480  16.182  67.463  1.00  0.00    -0.302 C  
HETATM    2  N   UNL     1     -10.677  14.796  66.887  1.00  0.00    -0.302 N  
HETATM    3  C   UNL     1     -12.139  14.570  66.539  1.00  0.00    -0.309 C  
HETATM    4  C   UNL     1      -9.852  14.674  65.594  1.00  0.00    -0.321 C  
ENDROOT
BRANCH   2   5
HETATM    5  C   UNL     1     -10.195  13.774  67.946  1.00  0.00    -0.245 C  
BRANCH   5   6
HETATM    6  C   UNL     1     -11.234  12.747  68.358  1.00  0.00    -0.278 C  
BRANCH   6   7
HETATM    7  O   UNL     1     -10.727  11.968  69.423  1.00  0.00    -0.089 OA 
BRANCH   7   8
HETATM    8  P   UNL     1     -12.011  11.074  70.163  1.00  0.00    -0.402 P  
HETATM    9  O   UNL     1     -12.574  10.813  68.771  1.00  0.00    -0.257 OA 
HETATM   10  O   UNL     1     -12.403  12.353  70.912  1.00  0.00    -0.377 OA 
BRANCH   8  11
HETATM   11  O   UNL     1     -13.294  10.180  70.903  1.00  0.00    -0.388 OA 
BRANCH  11  12
HETATM   12  P   UNL     1     -12.648   8.768  71.663  1.00  0.00    -0.369 P  
HETATM   13  O   UNL     1     -14.088   8.012  71.400  1.00  0.00    -0.366 OA 
HETATM   14  O   UNL     1     -11.863   8.477  70.366  1.00  0.00    -0.101 OA 
BRANCH  12  15
HETATM   15  O   UNL     1     -12.002   7.353  72.423  1.00  0.00    -0.269 OA 
BRANCH  15  16
HETATM   16  C   UNL     1     -10.792   7.553  73.179  1.00  0.00    -0.395 C  
BRANCH  16  17
HETATM   17  C   UNL     1      -9.561   6.948  72.522  1.00  0.00    -0.149 C  
HETATM   18  O   UNL     1      -9.434   7.435  71.183  1.00  0.00    -0.156 OA 
HETATM   19  C   UNL     1      -8.063   7.275  70.816  1.00  0.00    -0.111 C  
HETATM   20  H   UNL     1      -7.134   6.409  74.634  1.00  0.00     0.000 HD 
HETATM   21  C   UNL     1      -7.235   7.364  72.115  1.00  0.00    -0.068 C  
HETATM   22  H   UNL     1      -5.730   6.387  73.019  1.00  0.00     0.000 HD 
HETATM   23  C   UNL     1      -8.259   7.248  73.241  1.00  0.00    -0.111 C  
HETATM   24  O   UNL     1      -6.240   6.332  72.219  1.00  0.00    -0.044 OA 
HETATM   25  O   UNL     1      -7.949   6.221  74.183  1.00  0.00    -0.104 OA 
BRANCH  19  26
HETATM   26  N   UNL     1      -7.694   8.245  69.783  1.00  0.00    -0.096 N  
HETATM   27  C   UNL     1      -7.611   9.590  70.061  1.00  0.00    -0.133 C  
HETATM   28  C   UNL     1      -7.379  10.478  69.101  1.00  0.00    -0.109 C  
HETATM   29  C   UNL     1      -7.232   9.930  67.741  1.00  0.00    -0.088 C  
HETATM   30  N   UNL     1      -7.306   8.664  67.466  1.00  0.00    -0.088 N  
HETATM   31  N   UNL     1      -7.020  10.785  66.694  1.00  0.00    -0.120 NA 
HETATM   32  H   UNL     1      -7.183   8.339  66.507  1.00  0.00     0.000 HD 
HETATM   33  C   UNL     1      -7.551   7.760  68.477  1.00  0.00    -0.105 C  
HETATM   34  H1  UNL     1      -6.918  10.406  65.753  1.00  0.00     0.000 HD 
HETATM   35  H2  UNL     1      -6.964  11.791  66.853  1.00  0.00     0.000 HD 
HETATM   36  O   UNL     1      -7.645   6.553  68.241  1.00  0.00    -0.099 OA 
ENDBRANCH  19  26
ENDBRANCH  16  17
ENDBRANCH  15  16
ENDBRANCH  12  15
ENDBRANCH  11  12
ENDBRANCH   8  11
ENDBRANCH   7   8
ENDBRANCH   6   7
ENDBRANCH   5   6
ENDBRANCH   2   5
TORSDOF 10
ENDMDL
MODEL      217
REMARK 921   NORMALIZED FREE ENERGY PREDICTED BY IDOCK:   -3.90 KCAL/MOL
REMARK 922        TOTAL FREE ENERGY PREDICTED BY IDOCK:   -7.12 KCAL/MOL
REMARK 923 INTER-LIGAND FREE ENERGY PREDICTED BY IDOCK:   -6.49 KCAL/MOL
REMARK 924 INTRA-LIGAND FREE ENERGY PREDICTED BY IDOCK:   -0.63 KCAL/MOL
REMARK 927      BINDING AFFINITY PREDICTED BY RF-SCORE:    0.00 PKD
ROOT
HETATM    1  C   UNL     1      -5.811   6.703  72.070  1.00  0.00    -0.038 C  
HETATM    2  N   UNL     1      -7.112   7.069  71.388  1.00  0.00    -0.069 N  
HETATM    3  C   UNL     1      -8.058   7.735  72.373  1.00  0.00    -0.120 C  
HETATM    4  C   UNL     1      -6.817   8.067  70.257  1.00  0.00    -0.037 C  
ENDROOT
BRANCH   2   5
HETATM    5  C   UNL     1      -7.729   5.765  70.824  1.00  0.00    -0.093 C  
BRANCH   5   6
HETATM    6  C   UNL     1      -7.651   5.626  69.314  1.00  0.00    -0.087 C  
BRANCH   6   7
HETATM    7  O   UNL     1      -8.949   5.739  68.765  1.00  0.00    -0.116 OA 
BRANCH   7   8
HETATM    8  P   UNL     1      -8.873   6.538  67.232  1.00  0.00    -0.113 P  
HETATM    9  O   UNL     1     -10.342   6.191  67.026  1.00  0.00    -0.181 OA 
HETATM   10  O   UNL     1      -7.790   5.535  66.818  1.00  0.00    -0.099 OA 
BRANCH   8  11
HETATM   11  O   UNL     1      -8.797   7.339  65.700  1.00  0.00    -0.119 OA 
BRANCH  11  12
HETATM   12  P   UNL     1      -8.904   9.048  65.937  1.00  0.00    -0.200 P  
HETATM   13  O   UNL     1      -7.311   9.053  66.355  1.00  0.00    -0.086 OA 
HETATM   14  O   UNL     1      -8.861   9.225  64.405  1.00  0.00    -0.204 OA 
BRANCH  12  15
HETATM   15  O   UNL     1      -9.010  10.759  66.175  1.00  0.00    -0.165 OA 
BRANCH  15  16
HETATM   16  C   UNL     1     -10.138  11.404  65.551  1.00  0.00    -0.247 C  
BRANCH  16  17
HETATM   17  C   UNL     1     -11.135  11.977  66.547  1.00  0.00    -0.314 C  
HETATM   18  O   UNL     1     -11.618  10.940  67.405  1.00  0.00    -0.509 OA 
HETATM   19  C   UNL     1     -12.103  11.578  68.587  1.00  0.00    -0.129 C  
HETATM   20  H   UNL     1     -10.445  15.048  67.403  1.00  0.00     0.000 HD 
HETATM   21  C   UNL     1     -11.292  12.879  68.762  1.00  0.00    -0.290 C  
HETATM   22  H   UNL     1     -11.615  14.818  69.180  1.00  0.00     0.000 HD 
HETATM   23  C   UNL     1     -10.573  13.074  67.430  1.00  0.00    -0.234 C  
HETATM   24  O   UNL     1     -12.114  14.016  69.072  1.00  0.00    -0.346 OA 
HETATM   25  O   UNL     1     -10.796  14.360  66.850  1.00  0.00    -0.292 OA 
BRANCH  19  26
HETATM   26  N   UNL     1     -12.044  10.658  69.726  1.00  0.00    -0.294 N  
HETATM   27  C   UNL     1     -13.073  10.576  70.635  1.00  0.00    -0.206 C  
HETATM   28  C   UNL     1     -12.972   9.820  71.722  1.00  0.00    -0.536 C  
HETATM   29  C   UNL     1     -11.698   9.098  71.886  1.00  0.00    -0.366 C  
HETATM   30  N   UNL     1     -10.721   9.165  71.035  1.00  0.00    -0.266 N  
HETATM   31  N   UNL     1     -11.507   8.321  72.996  1.00  0.00    -0.275 NA 
HETATM   32  H   UNL     1      -9.866   8.633  71.193  1.00  0.00     0.000 HD 
HETATM   33  C   UNL     1     -10.846   9.959  69.915  1.00  0.00    -0.278 C  
HETATM   34  H1  UNL     1     -10.626   7.821  73.109  1.00  0.00     0.000 HD 
HETATM   35  H2  UNL     1     -12.240   8.242  73.702  1.00  0.00     0.000 HD 
HETATM   36  O   UNL     1      -9.925  10.056  69.100  1.00  0.00    -0.182 OA 
ENDBRANCH  19  26
ENDBRANCH  16  17
ENDBRANCH  15  16
ENDBRANCH  12  15
ENDBRANCH  11  12
ENDBRANCH   8  11
ENDBRANCH   7   8
ENDBRANCH   6   7
ENDBRANCH   5   6
ENDBRANCH   2   5
TORSDOF 10
ENDMDL
MODEL      218
REMARK 921   NORMALIZED FREE ENERGY PREDICTED BY IDOCK:   -3.87 KCAL/MOL
REMARK 922        TOTAL FREE ENERGY PREDICTED BY IDOCK:   -7.07 KCAL/MOL
REMARK 923 INTER-LIGAND FREE ENERGY PREDICTED BY IDOCK:   -7.56 KCAL/MOL
REMARK 924 INTRA-LIGAND FREE ENERGY PREDICTED BY IDOCK:    0.49 KCAL/MOL
REMARK 927      BINDING AFFINITY PREDICTED BY RF-SCORE:    0.00 PKD
ROOT
HETATM    1  C   UNL     1      -9.228   7.301  73.387  1.00  0.00    -0.184 C  
HETATM    2  N   UNL     1     -10.446   6.653  72.763  1.00  0.00    -0.206 N  
HETATM    3  C   UNL     1     -10.110   6.110  71.385  1.00  0.00    -0.194 C  
HETATM    4  C   UNL     1     -10.888   5.474  73.647  1.00  0.00    -0.249 C  
ENDROOT
BRANCH   2   5
HETATM    5  C   UNL     1     -11.559   7.726  72.681  1.00  0.00    -0.344 C  
BRANCH   5   6
HETATM    6  C   UNL     1     -11.728   8.364  71.313  1.00  0.00    -0.285 C  
BRANCH   6   7
HETATM    7  O   UNL     1     -10.735   9.353  71.132  1.00  0.00    -0.298 OA 
BRANCH   7   8
HETATM    8  P   UNL     1     -10.895  10.069  69.564  1.00  0.00    -0.268 P  
HETATM    9  O   UNL     1     -12.352  10.367  69.896  1.00  0.00    -0.222 OA 
HETATM   10  O   UNL     1     -10.516   8.712  68.960  1.00  0.00    -0.216 OA 
BRANCH   8  11
HETATM   11  O   UNL     1     -11.055  10.785  67.997  1.00  0.00    -0.254 OA 
BRANCH  11  12
HETATM   12  P   UNL     1     -10.037  12.179  67.895  1.00  0.00    -0.207 P  
HETATM   13  O   UNL     1     -11.023  12.932  68.980  1.00  0.00    -0.246 OA 
HETATM   14  O   UNL     1      -9.018  11.454  68.799  1.00  0.00    -0.159 OA 
BRANCH  12  15
HETATM   15  O   UNL     1      -9.020  13.576  67.793  1.00  0.00    -0.180 OA 
BRANCH  15  16
HETATM   16  C   UNL     1      -9.621  14.739  67.191  1.00  0.00    -0.227 C  
BRANCH  16  17
HETATM   17  C   UNL     1      -9.397  16.016  67.986  1.00  0.00    -0.202 C  
HETATM   18  O   UNL     1      -8.150  16.609  67.615  1.00  0.00    -0.167 OA 
HETATM   19  C   UNL     1      -8.230  17.991  67.966  1.00  0.00    -0.259 C  
HETATM   20  H   UNL     1     -12.173  17.590  68.663  1.00  0.00     0.000 HD 
HETATM   21  C   UNL     1      -9.719  18.390  67.885  1.00  0.00    -0.308 C  
HETATM   22  H   UNL     1     -11.075  19.400  68.970  1.00  0.00     0.000 HD 
HETATM   23  C   UNL     1     -10.475  17.067  67.795  1.00  0.00    -0.349 C  
HETATM   24  O   UNL     1     -10.158  19.155  69.020  1.00  0.00    -0.414 OA 
HETATM   25  O   UNL     1     -11.498  16.932  68.782  1.00  0.00    -0.088 OA 
BRANCH  19  26
HETATM   26  N   UNL     1      -7.334  18.786  67.123  1.00  0.00    -0.212 N  
HETATM   27  C   UNL     1      -6.017  18.986  67.467  1.00  0.00    -0.186 C  
HETATM   28  C   UNL     1      -5.236  19.792  66.758  1.00  0.00    -0.160 C  
HETATM   29  C   UNL     1      -5.872  20.453  65.605  1.00  0.00    -0.194 C  
HETATM   30  N   UNL     1      -7.112  20.271  65.268  1.00  0.00    -0.432 N  
HETATM   31  N   UNL     1      -5.139  21.321  64.842  1.00  0.00    -0.183 NA 
HETATM   32  H   UNL     1      -7.497  20.745  64.452  1.00  0.00     0.000 HD 
HETATM   33  C   UNL     1      -7.906  19.433  66.021  1.00  0.00    -0.281 C  
HETATM   34  H1  UNL     1      -5.579  21.778  64.044  1.00  0.00     0.000 HD 
HETATM   35  H2  UNL     1      -4.162  21.508  65.069  1.00  0.00     0.000 HD 
HETATM   36  O   UNL     1      -9.093  19.257  65.734  1.00  0.00    -0.379 OA 
ENDBRANCH  19  26
ENDBRANCH  16  17
ENDBRANCH  15  16
ENDBRANCH  12  15
ENDBRANCH  11  12
ENDBRANCH   8  11
ENDBRANCH   7   8
ENDBRANCH   6   7
ENDBRANCH   5   6
ENDBRANCH   2   5
TORSDOF 10
ENDMDL
MODEL      219
REMARK 921   NORMALIZED FREE ENERGY PREDICTED BY IDOCK:   -3.87 KCAL/MOL
REMARK 922        TOTAL FREE ENERGY PREDICTED BY IDOCK:   -7.06 KCAL/MOL
REMARK 923 INTER-LIGAND FREE ENERGY PREDICTED BY IDOCK:   -5.97 KCAL/MOL
REMARK 924 INTRA-LIGAND FREE ENERGY PREDICTED BY IDOCK:   -1.10 KCAL/MOL
REMARK 927      BINDING AFFINITY PREDICTED BY RF-SCORE:    0.00 PKD
ROOT
HETATM    1  C   UNL     1      -9.192   2.440  64.236  1.00  0.00    -0.123 C  
HETATM    2  N   UNL     1      -8.023   2.941  65.058  1.00  0.00    -0.082 N  
HETATM    3  C   UNL     1      -7.686   1.949  66.158  1.00  0.00    -0.070 C  
HETATM    4  C   UNL     1      -6.795   3.078  64.143  1.00  0.00    -0.037 C  
ENDROOT
BRANCH   2   5
HETATM    5  C   UNL     1      -8.422   4.314  65.653  1.00  0.00    -0.114 C  
BRANCH   5   6
HETATM    6  C   UNL     1      -8.485   4.357  67.169  1.00  0.00    -0.104 C  
BRANCH   6   7
HETATM    7  O   UNL     1      -9.837   4.349  67.583  1.00  0.00    -0.169 OA 
BRANCH   7   8
HETATM    8  P   UNL     1     -10.017   5.291  69.023  1.00  0.00    -0.181 P  
HETATM    9  O   UNL     1     -10.952   6.214  68.252  1.00  0.00    -0.307 OA 
HETATM   10  O   UNL     1      -8.505   5.541  68.991  1.00  0.00    -0.100 OA 
BRANCH   8  11
HETATM   11  O   UNL     1     -10.198   6.231  70.464  1.00  0.00    -0.184 OA 
BRANCH  11  12
HETATM   12  P   UNL     1      -9.823   7.885  70.124  1.00  0.00    -0.187 P  
HETATM   13  O   UNL     1     -11.250   8.315  70.825  1.00  0.00    -0.260 OA 
HETATM   14  O   UNL     1      -8.843   7.868  71.316  1.00  0.00    -0.129 OA 
BRANCH  12  15
HETATM   15  O   UNL     1      -9.448   9.539  69.783  1.00  0.00    -0.181 OA 
BRANCH  15  16
HETATM   16  C   UNL     1      -8.045   9.852  69.689  1.00  0.00    -0.165 C  
BRANCH  16  17
HETATM   17  C   UNL     1      -7.707  10.776  68.529  1.00  0.00    -0.118 C  
HETATM   18  O   UNL     1      -8.861  10.969  67.707  1.00  0.00    -0.130 OA 
HETATM   19  C   UNL     1      -8.657  12.187  66.990  1.00  0.00    -0.191 C  
HETATM   20  H   UNL     1      -5.477  13.025  69.310  1.00  0.00     0.000 HD 
HETATM   21  C   UNL     1      -7.754  13.080  67.868  1.00  0.00    -0.145 C  
HETATM   22  H   UNL     1      -6.126  14.241  67.673  1.00  0.00     0.000 HD 
HETATM   23  C   UNL     1      -7.212  12.147  68.948  1.00  0.00    -0.079 C  
HETATM   24  O   UNL     1      -6.682  13.691  67.133  1.00  0.00    -0.164 OA 
HETATM   25  O   UNL     1      -5.788  12.166  69.048  1.00  0.00    -0.059 OA 
BRANCH  19  26
HETATM   26  N   UNL     1      -9.942  12.786  66.621  1.00  0.00    -0.239 N  
HETATM   27  C   UNL     1     -10.632  13.594  67.494  1.00  0.00    -0.241 C  
HETATM   28  C   UNL     1     -11.844  14.049  67.198  1.00  0.00    -0.444 C  
HETATM   29  C   UNL     1     -12.390  13.624  65.896  1.00  0.00    -0.471 C  
HETATM   30  N   UNL     1     -11.748  12.864  65.064  1.00  0.00    -0.327 N  
HETATM   31  N   UNL     1     -13.645  14.028  65.532  1.00  0.00    -0.448 NA 
HETATM   32  H   UNL     1     -12.170  12.611  64.171  1.00  0.00     0.000 HD 
HETATM   33  C   UNL     1     -10.493  12.400  65.393  1.00  0.00    -0.277 C  
HETATM   34  H1  UNL     1     -14.023  13.734  64.632  1.00  0.00     0.000 HD 
HETATM   35  H2  UNL     1     -14.197  14.619  66.155  1.00  0.00     0.000 HD 
HETATM   36  O   UNL     1      -9.868  11.660  64.629  1.00  0.00    -0.244 OA 
ENDBRANCH  19  26
ENDBRANCH  16  17
ENDBRANCH  15  16
ENDBRANCH  12  15
ENDBRANCH  11  12
ENDBRANCH   8  11
ENDBRANCH   7   8
ENDBRANCH   6   7
ENDBRANCH   5   6
ENDBRANCH   2   5
TORSDOF 10
ENDMDL
MODEL      220
REMARK 921   NORMALIZED FREE ENERGY PREDICTED BY IDOCK:   -3.86 KCAL/MOL
REMARK 922        TOTAL FREE ENERGY PREDICTED BY IDOCK:   -7.05 KCAL/MOL
REMARK 923 INTER-LIGAND FREE ENERGY PREDICTED BY IDOCK:   -6.49 KCAL/MOL
REMARK 924 INTRA-LIGAND FREE ENERGY PREDICTED BY IDOCK:   -0.55 KCAL/MOL
REMARK 927      BINDING AFFINITY PREDICTED BY RF-SCORE:    0.00 PKD
ROOT
HETATM    1  C   UNL     1      -8.244  18.905  68.063  1.00  0.00    -0.293 C  
HETATM    2  N   UNL     1      -9.751  18.927  67.924  1.00  0.00    -0.314 N  
HETATM    3  C   UNL     1     -10.399  18.163  69.067  1.00  0.00    -0.117 C  
HETATM    4  C   UNL     1     -10.235  20.385  67.987  1.00  0.00    -0.189 C  
ENDROOT
BRANCH   2   5
HETATM    5  C   UNL     1     -10.106  18.288  66.559  1.00  0.00    -0.385 C  
BRANCH   5   6
HETATM    6  C   UNL     1     -10.866  16.977  66.648  1.00  0.00     0.034 C  
BRANCH   6   7
HETATM    7  O   UNL     1     -10.557  16.177  65.524  1.00  0.00    -0.371 OA 
BRANCH   7   8
HETATM    8  P   UNL     1      -9.860  14.680  66.039  1.00  0.00    -0.306 P  
HETATM    9  O   UNL     1     -10.342  14.056  64.735  1.00  0.00    -0.423 OA 
HETATM   10  O   UNL     1     -10.794  14.719  67.254  1.00  0.00    -0.294 OA 
BRANCH   8  11
HETATM   11  O   UNL     1      -9.162  13.183  66.554  1.00  0.00    -0.241 OA 
BRANCH  11  12
HETATM   12  P   UNL     1     -10.413  12.122  67.102  1.00  0.00    -0.228 P  
HETATM   13  O   UNL     1      -9.761  10.932  66.169  1.00  0.00    -0.195 OA 
HETATM   14  O   UNL     1      -9.649  11.974  68.435  1.00  0.00    -0.204 OA 
BRANCH  12  15
HETATM   15  O   UNL     1     -11.664  11.060  67.650  1.00  0.00    -0.576 OA 
BRANCH  15  16
HETATM   16  C   UNL     1     -11.937  11.099  69.064  1.00  0.00    -0.320 C  
BRANCH  16  17
HETATM   17  C   UNL     1     -11.863   9.736  69.733  1.00  0.00     0.122 C  
HETATM   18  O   UNL     1     -11.086   8.841  68.933  1.00  0.00     0.026 OA 
HETATM   19  C   UNL     1     -10.622   7.807  69.803  1.00  0.00    -0.241 C  
HETATM   20  H   UNL     1     -11.874   9.921  72.990  1.00  0.00     0.000 HD 
HETATM   21  C   UNL     1     -10.507   8.423  71.213  1.00  0.00    -0.216 C  
HETATM   22  H   UNL     1     -11.003   7.970  73.107  1.00  0.00     0.000 HD 
HETATM   23  C   UNL     1     -11.250   9.754  71.121  1.00  0.00    -0.374 C  
HETATM   24  O   UNL     1     -11.074   7.591  72.238  1.00  0.00    -0.242 OA 
HETATM   25  O   UNL     1     -12.258   9.909  72.121  1.00  0.00    -0.243 OA 
BRANCH  19  26
HETATM   26  N   UNL     1      -9.384   7.220  69.285  1.00  0.00    -0.154 N  
HETATM   27  C   UNL     1      -8.771   7.718  68.159  1.00  0.00    -0.126 C  
HETATM   28  C   UNL     1      -7.709   7.120  67.632  1.00  0.00    -0.112 C  
HETATM   29  C   UNL     1      -7.251   5.900  68.322  1.00  0.00    -0.079 C  
HETATM   30  N   UNL     1      -7.819   5.422  69.385  1.00  0.00    -0.088 N  
HETATM   31  N   UNL     1      -6.180   5.211  67.822  1.00  0.00    -0.037 NA 
HETATM   32  H   UNL     1      -7.451   4.580  69.828  1.00  0.00     0.000 HD 
HETATM   33  C   UNL     1      -8.923   6.057  69.913  1.00  0.00    -0.141 C  
HETATM   34  H1  UNL     1      -5.863   4.368  68.299  1.00  0.00     0.000 HD 
HETATM   35  H2  UNL     1      -5.703   5.538  66.981  1.00  0.00     0.000 HD 
HETATM   36  O   UNL     1      -9.493   5.612  70.912  1.00  0.00    -0.160 OA 
ENDBRANCH  19  26
ENDBRANCH  16  17
ENDBRANCH  15  16
ENDBRANCH  12  15
ENDBRANCH  11  12
ENDBRANCH   8  11
ENDBRANCH   7   8
ENDBRANCH   6   7
ENDBRANCH   5   6
ENDBRANCH   2   5
TORSDOF 10
ENDMDL
MODEL      221
REMARK 921   NORMALIZED FREE ENERGY PREDICTED BY IDOCK:   -3.83 KCAL/MOL
REMARK 922        TOTAL FREE ENERGY PREDICTED BY IDOCK:   -7.00 KCAL/MOL
REMARK 923 INTER-LIGAND FREE ENERGY PREDICTED BY IDOCK:   -5.89 KCAL/MOL
REMARK 924 INTRA-LIGAND FREE ENERGY PREDICTED BY IDOCK:   -1.11 KCAL/MOL
REMARK 927      BINDING AFFINITY PREDICTED BY RF-SCORE:    0.00 PKD
ROOT
HETATM    1  C   UNL     1      -9.276   5.282  69.773  1.00  0.00    -0.126 C  
HETATM    2  N   UNL     1      -9.361   6.635  70.446  1.00  0.00    -0.159 N  
HETATM    3  C   UNL     1     -10.811   7.004  70.713  1.00  0.00    -0.246 C  
HETATM    4  C   UNL     1      -8.628   6.566  71.797  1.00  0.00    -0.124 C  
ENDROOT
BRANCH   2   5
HETATM    5  C   UNL     1      -8.690   7.670  69.509  1.00  0.00    -0.136 C  
BRANCH   5   6
HETATM    6  C   UNL     1      -9.532   8.088  68.317  1.00  0.00    -0.141 C  
BRANCH   6   7
HETATM    7  O   UNL     1      -8.732   8.824  67.412  1.00  0.00    -0.128 OA 
BRANCH   7   8
HETATM    8  P   UNL     1      -9.734   9.590  66.228  1.00  0.00    -0.273 P  
HETATM    9  O   UNL     1     -10.840   8.605  66.588  1.00  0.00    -0.084 OA 
HETATM   10  O   UNL     1      -8.692   9.209  65.171  1.00  0.00    -0.175 OA 
BRANCH   8  11
HETATM   11  O   UNL     1     -10.736  10.357  65.044  1.00  0.00    -0.086 OA 
BRANCH  11  12
HETATM   12  P   UNL     1     -10.421  12.057  65.037  1.00  0.00    -0.309 P  
HETATM   13  O   UNL     1     -12.046  12.322  64.997  1.00  0.00    -0.386 OA 
HETATM   14  O   UNL     1     -10.122  11.969  66.549  1.00  0.00    -0.197 OA 
BRANCH  12  15
HETATM   15  O   UNL     1     -10.106  13.759  65.030  1.00  0.00    -0.343 OA 
BRANCH  15  16
HETATM   16  C   UNL     1     -10.752  14.514  66.074  1.00  0.00    -0.305 C  
BRANCH  16  17
HETATM   17  C   UNL     1      -9.776  15.195  67.021  1.00  0.00    -0.231 C  
HETATM   18  O   UNL     1      -9.334  14.268  68.016  1.00  0.00    -0.188 OA 
HETATM   19  C   UNL     1      -8.093  14.765  68.519  1.00  0.00    -0.146 C  
HETATM   20  H   UNL     1      -7.968  17.477  65.550  1.00  0.00     0.000 HD 
HETATM   21  C   UNL     1      -7.435  15.570  67.380  1.00  0.00    -0.204 C  
HETATM   22  H   UNL     1      -6.512  17.335  67.112  1.00  0.00     0.000 HD 
HETATM   23  C   UNL     1      -8.541  15.759  66.344  1.00  0.00    -0.311 C  
HETATM   24  O   UNL     1      -6.918  16.839  67.814  1.00  0.00    -0.128 OA 
HETATM   25  O   UNL     1      -8.741  17.124  65.974  1.00  0.00    -0.484 OA 
BRANCH  19  26
HETATM   26  N   UNL     1      -7.279  13.667  69.047  1.00  0.00    -0.086 N  
HETATM   27  C   UNL     1      -7.500  12.364  68.665  1.00  0.00    -0.095 C  
HETATM   28  C   UNL     1      -6.832  11.361  69.223  1.00  0.00    -0.119 C  
HETATM   29  C   UNL     1      -5.862  11.738  70.268  1.00  0.00    -0.163 C  
HETATM   30  N   UNL     1      -5.643  12.963  70.634  1.00  0.00    -0.171 N  
HETATM   31  N   UNL     1      -5.155  10.757  70.909  1.00  0.00    -0.084 NA 
HETATM   32  H   UNL     1      -4.951  13.166  71.355  1.00  0.00     0.000 HD 
HETATM   33  C   UNL     1      -6.351  13.987  70.045  1.00  0.00    -0.118 C  
HETATM   34  H1  UNL     1      -4.485  11.017  71.632  1.00  0.00     0.000 HD 
HETATM   35  H2  UNL     1      -5.297   9.776  70.667  1.00  0.00     0.000 HD 
HETATM   36  O   UNL     1      -6.176  15.159  70.388  1.00  0.00    -0.143 OA 
ENDBRANCH  19  26
ENDBRANCH  16  17
ENDBRANCH  15  16
ENDBRANCH  12  15
ENDBRANCH  11  12
ENDBRANCH   8  11
ENDBRANCH   7   8
ENDBRANCH   6   7
ENDBRANCH   5   6
ENDBRANCH   2   5
TORSDOF 10
ENDMDL
MODEL      222
REMARK 921   NORMALIZED FREE ENERGY PREDICTED BY IDOCK:   -3.82 KCAL/MOL
REMARK 922        TOTAL FREE ENERGY PREDICTED BY IDOCK:   -6.98 KCAL/MOL
REMARK 923 INTER-LIGAND FREE ENERGY PREDICTED BY IDOCK:   -5.49 KCAL/MOL
REMARK 924 INTRA-LIGAND FREE ENERGY PREDICTED BY IDOCK:   -1.49 KCAL/MOL
REMARK 927      BINDING AFFINITY PREDICTED BY RF-SCORE:    0.00 PKD
ROOT
HETATM    1  C   UNL     1     -10.630  10.355  64.968  1.00  0.00     0.065 C  
HETATM    2  N   UNL     1      -9.969  11.080  63.815  1.00  0.00    -0.316 N  
HETATM    3  C   UNL     1      -8.517  11.383  64.142  1.00  0.00     0.656 C  
HETATM    4  C   UNL     1     -10.002  10.172  62.573  1.00  0.00     0.420 C  
ENDROOT
BRANCH   2   5
HETATM    5  C   UNL     1     -10.765  12.384  63.563  1.00  0.00    -0.430 C  
BRANCH   5   6
HETATM    6  C   UNL     1     -12.263  12.268  63.780  1.00  0.00    -0.546 C  
BRANCH   6   7
HETATM    7  O   UNL     1     -12.666  13.193  64.770  1.00  0.00    -0.648 OA 
BRANCH   7   8
HETATM    8  P   UNL     1     -11.763  14.660  64.610  1.00  0.00    -0.364 P  
HETATM    9  O   UNL     1     -11.822  14.812  66.124  1.00  0.00    -0.311 OA 
HETATM   10  O   UNL     1     -12.904  15.211  63.746  1.00  0.00    -0.636 OA 
BRANCH   8  11
HETATM   11  O   UNL     1     -10.859  16.127  64.449  1.00  0.00    -0.569 OA 
BRANCH  11  12
HETATM   12  P   UNL     1     -10.442  16.721  66.018  1.00  0.00    -0.150 P  
HETATM   13  O   UNL     1      -8.863  16.391  65.684  1.00  0.00    -0.406 OA 
HETATM   14  O   UNL     1     -10.617  18.157  65.479  1.00  0.00    -0.638 OA 
BRANCH  12  15
HETATM   15  O   UNL     1     -10.024  17.316  67.589  1.00  0.00    -0.278 OA 
BRANCH  15  16
HETATM   16  C   UNL     1      -8.695  17.859  67.713  1.00  0.00    -0.250 C  
BRANCH  16  17
HETATM   17  C   UNL     1      -7.930  17.319  68.912  1.00  0.00    -0.196 C  
HETATM   18  O   UNL     1      -8.211  15.928  69.084  1.00  0.00    -0.216 OA 
HETATM   19  C   UNL     1      -7.128  15.379  69.835  1.00  0.00    -0.073 C  
HETATM   20  H   UNL     1      -5.049  18.789  69.341  1.00  0.00     0.000 HD 
HETATM   21  C   UNL     1      -5.881  16.231  69.516  1.00  0.00    -0.159 C  
HETATM   22  H   UNL     1      -4.366  17.119  70.492  1.00  0.00     0.000 HD 
HETATM   23  C   UNL     1      -6.424  17.470  68.809  1.00  0.00    -0.207 C  
HETATM   24  O   UNL     1      -5.134  16.595  70.688  1.00  0.00    -0.199 OA 
HETATM   25  O   UNL     1      -5.993  18.694  69.405  1.00  0.00    -0.235 OA 
BRANCH  19  26
HETATM   26  N   UNL     1      -6.984  13.948  69.555  1.00  0.00    -0.037 N  
HETATM   27  C   UNL     1      -7.342  13.417  68.338  1.00  0.00    -0.112 C  
HETATM   28  C   UNL     1      -7.310  12.107  68.122  1.00  0.00    -0.103 C  
HETATM   29  C   UNL     1      -6.882  11.279  69.264  1.00  0.00    -0.116 C  
HETATM   30  N   UNL     1      -6.539  11.768  70.416  1.00  0.00    -0.169 N  
HETATM   31  N   UNL     1      -6.850   9.918  69.128  1.00  0.00    -0.053 NA 
HETATM   32  H   UNL     1      -6.239  11.147  71.167  1.00  0.00     0.000 HD 
HETATM   33  C   UNL     1      -6.584  13.130  70.619  1.00  0.00     0.889 C  
HETATM   34  H1  UNL     1      -6.554   9.345  69.918  1.00  0.00     0.000 HD 
HETATM   35  H2  UNL     1      -7.120   9.481  68.247  1.00  0.00     0.000 HD 
HETATM   36  O   UNL     1      -6.282  13.620  71.710  1.00  0.00    -0.104 OA 
ENDBRANCH  19  26
ENDBRANCH  16  17
ENDBRANCH  15  16
ENDBRANCH  12  15
ENDBRANCH  11  12
ENDBRANCH   8  11
ENDBRANCH   7   8
ENDBRANCH   6   7
ENDBRANCH   5   6
ENDBRANCH   2   5
TORSDOF 10
ENDMDL
MODEL      223
REMARK 921   NORMALIZED FREE ENERGY PREDICTED BY IDOCK:   -3.82 KCAL/MOL
REMARK 922        TOTAL FREE ENERGY PREDICTED BY IDOCK:   -6.98 KCAL/MOL
REMARK 923 INTER-LIGAND FREE ENERGY PREDICTED BY IDOCK:   -5.58 KCAL/MOL
REMARK 924 INTRA-LIGAND FREE ENERGY PREDICTED BY IDOCK:   -1.40 KCAL/MOL
REMARK 927      BINDING AFFINITY PREDICTED BY RF-SCORE:    0.00 PKD
ROOT
HETATM    1  C   UNL     1     -10.429  12.885  63.884  1.00  0.00    -0.304 C  
HETATM    2  N   UNL     1     -11.781  12.703  64.541  1.00  0.00    -0.339 N  
HETATM    3  C   UNL     1     -12.773  12.107  63.557  1.00  0.00    -0.431 C  
HETATM    4  C   UNL     1     -11.632  11.729  65.722  1.00  0.00    -0.125 C  
ENDROOT
BRANCH   2   5
HETATM    5  C   UNL     1     -12.255  14.094  65.032  1.00  0.00    -0.441 C  
BRANCH   5   6
HETATM    6  C   UNL     1     -11.139  15.086  65.306  1.00  0.00    -0.386 C  
BRANCH   6   7
HETATM    7  O   UNL     1     -11.030  15.297  66.699  1.00  0.00    -0.313 OA 
BRANCH   7   8
HETATM    8  P   UNL     1      -9.409  14.987  67.218  1.00  0.00    -0.217 P  
HETATM    9  O   UNL     1      -8.943  15.288  65.799  1.00  0.00    -0.152 OA 
HETATM   10  O   UNL     1      -9.851  13.566  67.587  1.00  0.00    -0.219 OA 
BRANCH   8  11
HETATM   11  O   UNL     1      -7.788  14.678  67.738  1.00  0.00    -0.127 OA 
BRANCH  11  12
HETATM   12  P   UNL     1      -7.639  13.019  68.202  1.00  0.00    -0.163 P  
HETATM   13  O   UNL     1      -6.381  12.875  67.149  1.00  0.00    -0.249 OA 
HETATM   14  O   UNL     1      -6.950  13.485  69.502  1.00  0.00    -0.022 OA 
BRANCH  12  15
HETATM   15  O   UNL     1      -7.489  11.358  68.667  1.00  0.00    -0.104 OA 
BRANCH  15  16
HETATM   16  C   UNL     1      -8.519  10.480  68.173  1.00  0.00    -0.123 C  
BRANCH  16  17
HETATM   17  C   UNL     1      -8.001   9.418  67.215  1.00  0.00    -0.106 C  
HETATM   18  O   UNL     1      -7.886   8.164  67.892  1.00  0.00    -0.117 OA 
HETATM   19  C   UNL     1      -7.913   7.150  66.887  1.00  0.00    -0.115 C  
HETATM   20  H   UNL     1      -9.000   9.887  64.145  1.00  0.00     0.000 HD 
HETATM   21  C   UNL     1      -8.739   7.706  65.708  1.00  0.00    -0.125 C  
HETATM   22  H   UNL     1      -8.624   7.827  63.706  1.00  0.00     0.000 HD 
HETATM   23  C   UNL     1      -8.876   9.199  65.995  1.00  0.00    -0.168 C  
HETATM   24  O   UNL     1      -8.116   7.484  64.432  1.00  0.00    -0.135 OA 
HETATM   25  O   UNL     1      -8.453  10.024  64.909  1.00  0.00    -0.148 OA 
BRANCH  19  26
HETATM   26  N   UNL     1      -8.409   5.890  67.445  1.00  0.00    -0.105 N  
HETATM   27  C   UNL     1      -9.481   5.860  68.306  1.00  0.00    -0.116 C  
HETATM   28  C   UNL     1      -9.862   4.731  68.892  1.00  0.00    -0.230 C  
HETATM   29  C   UNL     1      -9.061   3.537  68.569  1.00  0.00    -0.147 C  
HETATM   30  N   UNL     1      -8.048   3.552  67.757  1.00  0.00    -0.080 N  
HETATM   31  N   UNL     1      -9.374   2.342  69.156  1.00  0.00    -0.134 NA 
HETATM   32  H   UNL     1      -7.537   2.692  67.561  1.00  0.00     0.000 HD 
HETATM   33  C   UNL     1      -7.668   4.735  67.163  1.00  0.00    -0.091 C  
HETATM   34  H1  UNL     1      -8.819   1.516  68.933  1.00  0.00     0.000 HD 
HETATM   35  H2  UNL     1     -10.154   2.278  69.810  1.00  0.00     0.000 HD 
HETATM   36  O   UNL     1      -6.698   4.781  66.403  1.00  0.00    -0.051 OA 
ENDBRANCH  19  26
ENDBRANCH  16  17
ENDBRANCH  15  16
ENDBRANCH  12  15
ENDBRANCH  11  12
ENDBRANCH   8  11
ENDBRANCH   7   8
ENDBRANCH   6   7
ENDBRANCH   5   6
ENDBRANCH   2   5
TORSDOF 10
ENDMDL
MODEL      224
REMARK 921   NORMALIZED FREE ENERGY PREDICTED BY IDOCK:   -3.81 KCAL/MOL
REMARK 922        TOTAL FREE ENERGY PREDICTED BY IDOCK:   -6.97 KCAL/MOL
REMARK 923 INTER-LIGAND FREE ENERGY PREDICTED BY IDOCK:   -5.94 KCAL/MOL
REMARK 924 INTRA-LIGAND FREE ENERGY PREDICTED BY IDOCK:   -1.03 KCAL/MOL
REMARK 927      BINDING AFFINITY PREDICTED BY RF-SCORE:    0.00 PKD
ROOT
HETATM    1  C   UNL     1      -8.108  18.364  66.817  1.00  0.00    -0.251 C  
HETATM    2  N   UNL     1      -9.558  18.300  67.248  1.00  0.00    -0.276 N  
HETATM    3  C   UNL     1      -9.661  17.854  68.696  1.00  0.00    -0.353 C  
HETATM    4  C   UNL     1     -10.172  19.706  67.135  1.00  0.00    -0.435 C  
ENDROOT
BRANCH   2   5
HETATM    5  C   UNL     1     -10.284  17.305  66.309  1.00  0.00    -0.342 C  
BRANCH   5   6
HETATM    6  C   UNL     1     -10.984  16.159  67.015  1.00  0.00    -0.123 C  
BRANCH   6   7
HETATM    7  O   UNL     1     -11.228  15.117  66.091  1.00  0.00    -0.336 OA 
BRANCH   7   8
HETATM    8  P   UNL     1     -10.042  13.871  66.281  1.00  0.00    -0.313 P  
HETATM    9  O   UNL     1     -11.035  12.892  65.666  1.00  0.00    -0.268 OA 
HETATM   10  O   UNL     1     -10.075  14.137  67.790  1.00  0.00    -0.233 OA 
BRANCH   8  11
HETATM   11  O   UNL     1      -8.856  12.625  66.470  1.00  0.00    -0.172 OA 
BRANCH  11  12
HETATM   12  P   UNL     1      -9.646  11.091  66.587  1.00  0.00    -0.201 P  
HETATM   13  O   UNL     1      -8.731  10.566  65.321  1.00  0.00    -0.177 OA 
HETATM   14  O   UNL     1      -8.760  10.772  67.809  1.00  0.00    -0.128 OA 
BRANCH  12  15
HETATM   15  O   UNL     1     -10.435   9.556  66.702  1.00  0.00    -0.231 OA 
BRANCH  15  16
HETATM   16  C   UNL     1     -10.773   9.131  68.037  1.00  0.00    -0.147 C  
BRANCH  16  17
HETATM   17  C   UNL     1     -10.525   7.650  68.282  1.00  0.00    -0.174 C  
HETATM   18  O   UNL     1     -10.356   6.971  67.035  1.00  0.00    -0.233 OA 
HETATM   19  C   UNL     1      -9.637   5.769  67.315  1.00  0.00    -0.117 C  
HETATM   20  H   UNL     1      -8.887   7.081  71.045  1.00  0.00     0.000 HD 
HETATM   21  C   UNL     1      -8.765   6.045  68.559  1.00  0.00    -0.110 C  
HETATM   22  H   UNL     1      -8.294   5.164  70.302  1.00  0.00     0.000 HD 
HETATM   23  C   UNL     1      -9.303   7.355  69.131  1.00  0.00    -0.146 C  
HETATM   24  O   UNL     1      -8.831   4.994  69.536  1.00  0.00    -0.093 OA 
HETATM   25  O   UNL     1      -9.652   7.266  70.513  1.00  0.00    -0.169 OA 
BRANCH  19  26
HETATM   26  N   UNL     1      -8.896   5.328  66.131  1.00  0.00    -0.131 N  
HETATM   27  C   UNL     1      -7.578   5.672  65.941  1.00  0.00    -0.086 C  
HETATM   28  C   UNL     1      -6.941   5.361  64.818  1.00  0.00    -0.049 C  
HETATM   29  C   UNL     1      -7.736   4.643  63.806  1.00  0.00    -0.073 C  
HETATM   30  N   UNL     1      -8.979   4.310  63.974  1.00  0.00    -0.141 N  
HETATM   31  N   UNL     1      -7.157   4.312  62.611  1.00  0.00    -0.038 NA 
HETATM   32  H   UNL     1      -9.477   3.802  63.244  1.00  0.00     0.000 HD 
HETATM   33  C   UNL     1      -9.622   4.648  65.146  1.00  0.00    -0.128 C  
HETATM   34  H1  UNL     1      -7.707   3.816  61.911  1.00  0.00     0.000 HD 
HETATM   35  H2  UNL     1      -6.185   4.559  62.423  1.00  0.00     0.000 HD 
HETATM   36  O   UNL     1     -10.808   4.360  65.324  1.00  0.00    -0.260 OA 
ENDBRANCH  19  26
ENDBRANCH  16  17
ENDBRANCH  15  16
ENDBRANCH  12  15
ENDBRANCH  11  12
ENDBRANCH   8  11
ENDBRANCH   7   8
ENDBRANCH   6   7
ENDBRANCH   5   6
ENDBRANCH   2   5
TORSDOF 10
ENDMDL
MODEL      225
REMARK 921   NORMALIZED FREE ENERGY PREDICTED BY IDOCK:   -3.81 KCAL/MOL
REMARK 922        TOTAL FREE ENERGY PREDICTED BY IDOCK:   -6.96 KCAL/MOL
REMARK 923 INTER-LIGAND FREE ENERGY PREDICTED BY IDOCK:   -6.03 KCAL/MOL
REMARK 924 INTRA-LIGAND FREE ENERGY PREDICTED BY IDOCK:   -0.93 KCAL/MOL
REMARK 927      BINDING AFFINITY PREDICTED BY RF-SCORE:    0.00 PKD
ROOT
HETATM    1  C   UNL     1     -10.227   2.804  72.530  1.00  0.00    -0.154 C  
HETATM    2  N   UNL     1      -9.073   3.114  73.459  1.00  0.00    -0.085 N  
HETATM    3  C   UNL     1      -9.279   4.463  74.128  1.00  0.00    -0.109 C  
HETATM    4  C   UNL     1      -9.017   2.039  74.558  1.00  0.00    -0.065 C  
ENDROOT
BRANCH   2   5
HETATM    5  C   UNL     1      -7.774   3.106  72.616  1.00  0.00    -0.058 C  
BRANCH   5   6
HETATM    6  C   UNL     1      -7.979   3.344  71.130  1.00  0.00    -0.058 C  
BRANCH   6   7
HETATM    7  O   UNL     1      -8.271   4.710  70.910  1.00  0.00    -0.086 OA 
BRANCH   7   8
HETATM    8  P   UNL     1      -7.568   5.228  69.416  1.00  0.00    -0.070 P  
HETATM    9  O   UNL     1      -8.055   3.929  68.785  1.00  0.00    -0.069 OA 
HETATM   10  O   UNL     1      -6.210   5.266  70.124  1.00  0.00    -0.023 OA 
BRANCH   8  11
HETATM   11  O   UNL     1      -6.867   5.748  67.922  1.00  0.00    -0.057 OA 
BRANCH  11  12
HETATM   12  P   UNL     1      -7.482   7.310  67.509  1.00  0.00    -0.104 P  
HETATM   13  O   UNL     1      -8.640   7.119  68.664  1.00  0.00    -0.125 OA 
HETATM   14  O   UNL     1      -6.310   7.936  68.295  1.00  0.00    -0.047 OA 
BRANCH  12  15
HETATM   15  O   UNL     1      -8.098   8.874  67.097  1.00  0.00    -0.102 OA 
BRANCH  15  16
HETATM   16  C   UNL     1      -7.519   9.979  67.818  1.00  0.00    -0.089 C  
BRANCH  16  17
HETATM   17  C   UNL     1      -8.552  10.945  68.376  1.00  0.00    -0.146 C  
HETATM   18  O   UNL     1      -8.919  11.899  67.375  1.00  0.00    -0.163 OA 
HETATM   19  C   UNL     1     -10.199  12.413  67.746  1.00  0.00    -0.211 C  
HETATM   20  H   UNL     1     -10.539   9.554  70.557  1.00  0.00     0.000 HD 
HETATM   21  C   UNL     1     -10.918  11.302  68.540  1.00  0.00    -0.220 C  
HETATM   22  H   UNL     1     -11.984  11.098  70.231  1.00  0.00     0.000 HD 
HETATM   23  C   UNL     1      -9.827  10.283  68.862  1.00  0.00    -0.195 C  
HETATM   24  O   UNL     1     -11.541  11.783  69.742  1.00  0.00    -0.295 OA 
HETATM   25  O   UNL     1      -9.741   9.969  70.252  1.00  0.00    -0.212 OA 
BRANCH  19  26
HETATM   26  N   UNL     1     -10.921  12.890  66.564  1.00  0.00    -0.270 N  
HETATM   27  C   UNL     1     -11.716  12.047  65.823  1.00  0.00    -0.245 C  
HETATM   28  C   UNL     1     -12.285  12.454  64.693  1.00  0.00    -0.499 C  
HETATM   29  C   UNL     1     -11.997  13.844  64.294  1.00  0.00    -0.444 C  
HETATM   30  N   UNL     1     -11.251  14.649  64.986  1.00  0.00    -0.365 N  
HETATM   31  N   UNL     1     -12.524  14.328  63.128  1.00  0.00    -0.930 NA 
HETATM   32  H   UNL     1     -11.096  15.605  64.668  1.00  0.00     0.000 HD 
HETATM   33  C   UNL     1     -10.668  14.204  66.153  1.00  0.00    -0.297 C  
HETATM   34  H1  UNL     1     -12.325  15.288  62.852  1.00  0.00     0.000 HD 
HETATM   35  H2  UNL     1     -13.109  13.733  62.541  1.00  0.00     0.000 HD 
HETATM   36  O   UNL     1      -9.938  14.942  66.819  1.00  0.00    -0.237 OA 
ENDBRANCH  19  26
ENDBRANCH  16  17
ENDBRANCH  15  16
ENDBRANCH  12  15
ENDBRANCH  11  12
ENDBRANCH   8  11
ENDBRANCH   7   8
ENDBRANCH   6   7
ENDBRANCH   5   6
ENDBRANCH   2   5
TORSDOF 10
ENDMDL
MODEL      226
REMARK 921   NORMALIZED FREE ENERGY PREDICTED BY IDOCK:   -3.77 KCAL/MOL
REMARK 922        TOTAL FREE ENERGY PREDICTED BY IDOCK:   -6.90 KCAL/MOL
REMARK 923 INTER-LIGAND FREE ENERGY PREDICTED BY IDOCK:   -6.99 KCAL/MOL
REMARK 924 INTRA-LIGAND FREE ENERGY PREDICTED BY IDOCK:    0.08 KCAL/MOL
REMARK 927      BINDING AFFINITY PREDICTED BY RF-SCORE:    0.00 PKD
ROOT
HETATM    1  C   UNL     1      -9.632   4.233  71.713  1.00  0.00    -0.154 C  
HETATM    2  N   UNL     1     -10.318   5.582  71.683  1.00  0.00    -0.212 N  
HETATM    3  C   UNL     1     -11.376   5.614  70.593  1.00  0.00     0.121 C  
HETATM    4  C   UNL     1     -11.013   5.816  73.034  1.00  0.00    -0.278 C  
ENDROOT
BRANCH   2   5
HETATM    5  C   UNL     1      -9.230   6.656  71.431  1.00  0.00    -0.151 C  
BRANCH   5   6
HETATM    6  C   UNL     1      -9.144   7.735  72.495  1.00  0.00    -0.169 C  
BRANCH   6   7
HETATM    7  O   UNL     1      -9.700   8.934  71.994  1.00  0.00    -0.316 OA 
BRANCH   7   8
HETATM    8  P   UNL     1      -9.074   9.258  70.413  1.00  0.00    -0.255 P  
HETATM    9  O   UNL     1      -7.895   9.964  71.071  1.00  0.00    -0.172 OA 
HETATM   10  O   UNL     1     -10.359  10.041  70.119  1.00  0.00    -0.263 OA 
BRANCH   8  11
HETATM   11  O   UNL     1      -8.448   9.581  68.833  1.00  0.00    -0.117 OA 
BRANCH  11  12
HETATM   12  P   UNL     1      -8.755  11.232  68.418  1.00  0.00    -0.146 P  
HETATM   13  O   UNL     1      -7.543  11.139  67.306  1.00  0.00    -0.113 OA 
HETATM   14  O   UNL     1      -9.991  10.762  67.623  1.00  0.00    -0.168 OA 
BRANCH  12  15
HETATM   15  O   UNL     1      -9.060  12.884  68.003  1.00  0.00    -0.197 OA 
BRANCH  15  16
HETATM   16  C   UNL     1     -10.432  13.309  68.119  1.00  0.00    -0.245 C  
BRANCH  16  17
HETATM   17  C   UNL     1     -10.728  14.604  67.379  1.00  0.00    -0.280 C  
HETATM   18  O   UNL     1      -9.996  15.682  67.968  1.00  0.00    -0.220 OA 
HETATM   19  C   UNL     1      -9.892  16.702  66.973  1.00  0.00    -0.260 C  
HETATM   20  H   UNL     1     -11.292  14.145  64.198  1.00  0.00     0.000 HD 
HETATM   21  C   UNL     1      -9.923  15.996  65.600  1.00  0.00    -0.313 C  
HETATM   22  H   UNL     1     -10.824  16.198  63.816  1.00  0.00     0.000 HD 
HETATM   23  C   UNL     1     -10.382  14.572  65.902  1.00  0.00    -0.319 C  
HETATM   24  O   UNL     1     -10.806  16.632  64.661  1.00  0.00    -0.784 OA 
HETATM   25  O   UNL     1     -11.508  14.165  65.123  1.00  0.00    -0.314 OA 
BRANCH  19  26
HETATM   26  N   UNL     1      -8.709  17.531  67.212  1.00  0.00    -0.226 N  
HETATM   27  C   UNL     1      -8.787  18.905  67.219  1.00  0.00    -0.281 C  
HETATM   28  C   UNL     1      -7.697  19.655  67.331  1.00  0.00    -0.299 C  
HETATM   29  C   UNL     1      -6.422  18.924  67.434  1.00  0.00    -0.193 C  
HETATM   30  N   UNL     1      -6.335  17.629  67.431  1.00  0.00    -0.144 N  
HETATM   31  N   UNL     1      -5.252  19.628  67.524  1.00  0.00    -0.169 NA 
HETATM   32  H   UNL     1      -5.426  17.176  67.518  1.00  0.00     0.000 HD 
HETATM   33  C   UNL     1      -7.479  16.870  67.309  1.00  0.00    -0.166 C  
HETATM   34  H1  UNL     1      -4.370  19.122  67.595  1.00  0.00     0.000 HD 
HETATM   35  H2  UNL     1      -5.263  20.648  67.520  1.00  0.00     0.000 HD 
HETATM   36  O   UNL     1      -7.423  15.638  67.284  1.00  0.00    -0.184 OA 
ENDBRANCH  19  26
ENDBRANCH  16  17
ENDBRANCH  15  16
ENDBRANCH  12  15
ENDBRANCH  11  12
ENDBRANCH   8  11
ENDBRANCH   7   8
ENDBRANCH   6   7
ENDBRANCH   5   6
ENDBRANCH   2   5
TORSDOF 10
ENDMDL
MODEL      227
REMARK 921   NORMALIZED FREE ENERGY PREDICTED BY IDOCK:   -3.75 KCAL/MOL
REMARK 922        TOTAL FREE ENERGY PREDICTED BY IDOCK:   -6.88 KCAL/MOL
REMARK 923 INTER-LIGAND FREE ENERGY PREDICTED BY IDOCK:   -5.72 KCAL/MOL
REMARK 924 INTRA-LIGAND FREE ENERGY PREDICTED BY IDOCK:   -1.16 KCAL/MOL
REMARK 927      BINDING AFFINITY PREDICTED BY RF-SCORE:    0.00 PKD
ROOT
HETATM    1  C   UNL     1     -12.159  14.121  64.737  1.00  0.00    -0.441 C  
HETATM    2  N   UNL     1     -11.117  14.544  65.750  1.00  0.00    -0.317 N  
HETATM    3  C   UNL     1     -11.761  14.785  67.104  1.00  0.00    -0.334 C  
HETATM    4  C   UNL     1     -10.087  13.413  65.904  1.00  0.00    -0.293 C  
ENDROOT
BRANCH   2   5
HETATM    5  C   UNL     1     -10.442  15.833  65.219  1.00  0.00    -0.401 C  
BRANCH   5   6
HETATM    6  C   UNL     1     -11.274  17.095  65.370  1.00  0.00     0.391 C  
BRANCH   6   7
HETATM    7  O   UNL     1     -10.425  18.224  65.328  1.00  0.00    -0.492 OA 
BRANCH   7   8
HETATM    8  P   UNL     1      -9.559  18.367  66.819  1.00  0.00    -0.333 P  
HETATM    9  O   UNL     1     -10.881  18.684  67.507  1.00  0.00    -0.435 OA 
HETATM   10  O   UNL     1      -8.744  19.498  66.182  1.00  0.00    -0.353 OA 
BRANCH   8  11
HETATM   11  O   UNL     1      -8.693  18.508  68.310  1.00  0.00    -0.294 OA 
BRANCH  11  12
HETATM   12  P   UNL     1      -8.082  16.957  68.771  1.00  0.00    -0.187 P  
HETATM   13  O   UNL     1      -9.615  16.517  69.184  1.00  0.00    -0.260 OA 
HETATM   14  O   UNL     1      -8.007  16.585  67.275  1.00  0.00    -0.148 OA 
BRANCH  12  15
HETATM   15  O   UNL     1      -7.473  15.405  69.232  1.00  0.00    -0.173 OA 
BRANCH  15  16
HETATM   16  C   UNL     1      -8.055  14.280  68.546  1.00  0.00    -0.147 C  
BRANCH  16  17
HETATM   17  C   UNL     1      -7.958  12.978  69.326  1.00  0.00     0.615 C  
HETATM   18  O   UNL     1      -8.627  11.932  68.616  1.00  0.00    -0.131 OA 
HETATM   19  C   UNL     1      -8.081  10.700  69.088  1.00  0.00    -0.141 C  
HETATM   20  H   UNL     1      -5.174  12.715  71.007  1.00  0.00     0.000 HD 
HETATM   21  C   UNL     1      -6.633  10.990  69.535  1.00  0.00    -0.118 C  
HETATM   22  H   UNL     1      -5.420  10.591  71.086  1.00  0.00     0.000 HD 
HETATM   23  C   UNL     1      -6.538  12.513  69.589  1.00  0.00     0.002 C  
HETATM   24  O   UNL     1      -6.311  10.412  70.811  1.00  0.00    -0.271 OA 
HETATM   25  O   UNL     1      -6.064  13.006  70.842  1.00  0.00    -0.197 OA 
BRANCH  19  26
HETATM   26  N   UNL     1      -8.212   9.658  68.067  1.00  0.00    -0.109 N  
HETATM   27  C   UNL     1      -7.617   9.785  66.833  1.00  0.00    -0.095 C  
HETATM   28  C   UNL     1      -7.823   8.891  65.874  1.00  0.00    -0.102 C  
HETATM   29  C   UNL     1      -8.728   7.779  66.217  1.00  0.00    -0.155 C  
HETATM   30  N   UNL     1      -9.294   7.646  67.377  1.00  0.00    -0.138 N  
HETATM   31  N   UNL     1      -9.013   6.832  65.271  1.00  0.00    -0.358 NA 
HETATM   32  H   UNL     1      -9.901   6.849  67.562  1.00  0.00     0.000 HD 
HETATM   33  C   UNL     1      -9.068   8.589  68.356  1.00  0.00    -0.139 C  
HETATM   34  H1  UNL     1      -9.639   6.063  65.508  1.00  0.00     0.000 HD 
HETATM   35  H2  UNL     1      -8.603   6.895  64.338  1.00  0.00     0.000 HD 
HETATM   36  O   UNL     1      -9.608   8.497  69.461  1.00  0.00    -0.167 OA 
ENDBRANCH  19  26
ENDBRANCH  16  17
ENDBRANCH  15  16
ENDBRANCH  12  15
ENDBRANCH  11  12
ENDBRANCH   8  11
ENDBRANCH   7   8
ENDBRANCH   6   7
ENDBRANCH   5   6
ENDBRANCH   2   5
TORSDOF 10
ENDMDL
MODEL      228
REMARK 921   NORMALIZED FREE ENERGY PREDICTED BY IDOCK:   -3.75 KCAL/MOL
REMARK 922        TOTAL FREE ENERGY PREDICTED BY IDOCK:   -6.88 KCAL/MOL
REMARK 923 INTER-LIGAND FREE ENERGY PREDICTED BY IDOCK:   -6.06 KCAL/MOL
REMARK 924 INTRA-LIGAND FREE ENERGY PREDICTED BY IDOCK:   -0.82 KCAL/MOL
REMARK 927      BINDING AFFINITY PREDICTED BY RF-SCORE:    0.00 PKD
ROOT
HETATM    1  C   UNL     1      -5.126   6.405  70.124  1.00  0.00    -0.014 C  
HETATM    2  N   UNL     1      -6.136   6.853  69.088  1.00  0.00    -0.025 N  
HETATM    3  C   UNL     1      -6.845   8.115  69.551  1.00  0.00    -0.042 C  
HETATM    4  C   UNL     1      -5.396   7.172  67.778  1.00  0.00    -0.020 C  
ENDROOT
BRANCH   2   5
HETATM    5  C   UNL     1      -7.144   5.695  68.883  1.00  0.00    -0.069 C  
BRANCH   5   6
HETATM    6  C   UNL     1      -7.756   5.624  67.495  1.00  0.00    -0.097 C  
BRANCH   6   7
HETATM    7  O   UNL     1      -9.165   5.614  67.604  1.00  0.00    -0.107 OA 
BRANCH   7   8
HETATM    8  P   UNL     1      -9.805   7.144  67.111  1.00  0.00    -0.219 P  
HETATM    9  O   UNL     1     -10.967   6.402  66.463  1.00  0.00    -0.216 OA 
HETATM   10  O   UNL     1      -8.513   7.374  66.318  1.00  0.00    -0.123 OA 
BRANCH   8  11
HETATM   11  O   UNL     1     -10.445   8.675  66.619  1.00  0.00    -0.277 OA 
BRANCH  11  12
HETATM   12  P   UNL     1     -10.333   9.795  67.931  1.00  0.00    -0.241 P  
HETATM   13  O   UNL     1      -8.921  10.350  67.289  1.00  0.00    -0.135 OA 
HETATM   14  O   UNL     1     -11.398  10.664  67.230  1.00  0.00    -0.380 OA 
BRANCH  12  15
HETATM   15  O   UNL     1     -10.219  10.916  69.244  1.00  0.00    -0.217 OA 
BRANCH  15  16
HETATM   16  C   UNL     1     -11.462  11.518  69.656  1.00  0.00    -0.301 C  
BRANCH  16  17
HETATM   17  C   UNL     1     -12.395  10.553  70.370  1.00  0.00    -0.324 C  
HETATM   18  O   UNL     1     -11.838   9.236  70.356  1.00  0.00    -0.191 OA 
HETATM   19  C   UNL     1     -12.446   8.520  71.433  1.00  0.00    -0.297 C  
HETATM   20  H   UNL     1     -14.023  11.950  72.828  1.00  0.00     0.000 HD 
HETATM   21  C   UNL     1     -12.815   9.560  72.512  1.00  0.00    -0.176 C  
HETATM   22  H   UNL     1     -14.372  10.024  73.694  1.00  0.00     0.000 HD 
HETATM   23  C   UNL     1     -12.677  10.912  71.817  1.00  0.00    -0.329 C  
HETATM   24  O   UNL     1     -14.144   9.384  73.030  1.00  0.00    -0.310 OA 
HETATM   25  O   UNL     1     -13.847  11.724  71.922  1.00  0.00     0.036 OA 
BRANCH  19  26
HETATM   26  N   UNL     1     -11.566   7.443  71.892  1.00  0.00    -0.264 N  
HETATM   27  C   UNL     1     -10.848   7.554  73.060  1.00  0.00    -0.392 C  
HETATM   28  C   UNL     1      -9.972   6.623  73.420  1.00  0.00    -0.231 C  
HETATM   29  C   UNL     1      -9.820   5.490  72.490  1.00  0.00    -0.164 C  
HETATM   30  N   UNL     1     -10.492   5.373  71.387  1.00  0.00    -0.231 N  
HETATM   31  N   UNL     1      -8.915   4.504  72.778  1.00  0.00    -0.118 NA 
HETATM   32  H   UNL     1     -10.355   4.560  70.787  1.00  0.00     0.000 HD 
HETATM   33  C   UNL     1     -11.393   6.353  71.031  1.00  0.00    -0.328 C  
HETATM   34  H1  UNL     1      -8.810   3.721  72.134  1.00  0.00     0.000 HD 
HETATM   35  H2  UNL     1      -8.353   4.553  73.628  1.00  0.00     0.000 HD 
HETATM   36  O   UNL     1     -12.032   6.276  69.978  1.00  0.00    -0.256 OA 
ENDBRANCH  19  26
ENDBRANCH  16  17
ENDBRANCH  15  16
ENDBRANCH  12  15
ENDBRANCH  11  12
ENDBRANCH   8  11
ENDBRANCH   7   8
ENDBRANCH   6   7
ENDBRANCH   5   6
ENDBRANCH   2   5
TORSDOF 10
ENDMDL
MODEL      229
REMARK 921   NORMALIZED FREE ENERGY PREDICTED BY IDOCK:   -3.75 KCAL/MOL
REMARK 922        TOTAL FREE ENERGY PREDICTED BY IDOCK:   -6.87 KCAL/MOL
REMARK 923 INTER-LIGAND FREE ENERGY PREDICTED BY IDOCK:   -5.41 KCAL/MOL
REMARK 924 INTRA-LIGAND FREE ENERGY PREDICTED BY IDOCK:   -1.46 KCAL/MOL
REMARK 927      BINDING AFFINITY PREDICTED BY RF-SCORE:    0.00 PKD
ROOT
HETATM    1  C   UNL     1     -11.639  12.463  65.361  1.00  0.00    -0.381 C  
HETATM    2  N   UNL     1     -11.093  12.925  66.695  1.00  0.00    -0.276 N  
HETATM    3  C   UNL     1      -9.574  12.887  66.688  1.00  0.00    -0.257 C  
HETATM    4  C   UNL     1     -11.534  14.379  66.935  1.00  0.00    -0.366 C  
ENDROOT
BRANCH   2   5
HETATM    5  C   UNL     1     -11.666  11.989  67.787  1.00  0.00    -0.309 C  
BRANCH   5   6
HETATM    6  C   UNL     1     -10.654  11.518  68.816  1.00  0.00    -0.211 C  
BRANCH   6   7
HETATM    7  O   UNL     1     -11.100  10.307  69.393  1.00  0.00    -0.228 OA 
BRANCH   7   8
HETATM    8  P   UNL     1      -9.758   9.445  70.064  1.00  0.00    -0.254 P  
HETATM    9  O   UNL     1     -10.403   9.595  71.436  1.00  0.00    -0.242 OA 
HETATM   10  O   UNL     1      -8.842  10.553  69.531  1.00  0.00    -0.134 OA 
BRANCH   8  11
HETATM   11  O   UNL     1      -8.416   8.582  70.735  1.00  0.00    -0.125 OA 
BRANCH  11  12
HETATM   12  P   UNL     1      -8.319   7.015  70.011  1.00  0.00    -0.141 P  
HETATM   13  O   UNL     1      -9.413   7.509  68.883  1.00  0.00    -0.146 OA 
HETATM   14  O   UNL     1      -6.969   7.429  69.389  1.00  0.00    -0.058 OA 
BRANCH  12  15
HETATM   15  O   UNL     1      -8.223   5.447  69.286  1.00  0.00    -0.092 OA 
BRANCH  15  16
HETATM   16  C   UNL     1      -9.248   5.147  68.318  1.00  0.00    -0.117 C  
BRANCH  16  17
HETATM   17  C   UNL     1      -8.727   5.061  66.892  1.00  0.00    -0.107 C  
HETATM   18  O   UNL     1      -9.235   6.152  66.120  1.00  0.00    -0.161 OA 
HETATM   19  C   UNL     1      -8.348   6.322  65.013  1.00  0.00    -0.099 C  
HETATM   20  H   UNL     1      -5.730   3.783  66.713  1.00  0.00     0.000 HD 
HETATM   21  C   UNL     1      -6.957   5.838  65.473  1.00  0.00    -0.068 C  
HETATM   22  H   UNL     1      -5.456   4.688  64.794  1.00  0.00     0.000 HD 
HETATM   23  C   UNL     1      -7.214   5.089  66.778  1.00  0.00    -0.077 C  
HETATM   24  O   UNL     1      -6.313   4.986  64.511  1.00  0.00    -0.032 OA 
HETATM   25  O   UNL     1      -6.678   3.766  66.785  1.00  0.00    -0.044 OA 
BRANCH  19  26
HETATM   26  N   UNL     1      -8.391   7.705  64.532  1.00  0.00    -0.040 N  
HETATM   27  C   UNL     1      -8.731   8.744  65.367  1.00  0.00    -0.183 C  
HETATM   28  C   UNL     1      -8.871   9.981  64.904  1.00  0.00    -0.219 C  
HETATM   29  C   UNL     1      -8.651  10.154  63.457  1.00  0.00    -0.200 C  
HETATM   30  N   UNL     1      -8.328   9.183  62.659  1.00  0.00    -0.179 N  
HETATM   31  N   UNL     1      -8.805  11.394  62.900  1.00  0.00    -0.525 NA 
HETATM   32  H   UNL     1      -8.176   9.363  61.668  1.00  0.00     0.000 HD 
HETATM   33  C   UNL     1      -8.192   7.906  63.161  1.00  0.00    -0.035 C  
HETATM   34  H1  UNL     1      -8.653  11.514  61.899  1.00  0.00     0.000 HD 
HETATM   35  H2  UNL     1      -9.069  12.191  63.480  1.00  0.00     0.000 HD 
HETATM   36  O   UNL     1      -7.904   6.962  62.422  1.00  0.00    -0.105 OA 
ENDBRANCH  19  26
ENDBRANCH  16  17
ENDBRANCH  15  16
ENDBRANCH  12  15
ENDBRANCH  11  12
ENDBRANCH   8  11
ENDBRANCH   7   8
ENDBRANCH   6   7
ENDBRANCH   5   6
ENDBRANCH   2   5
TORSDOF 10
ENDMDL
MODEL      230
REMARK 921   NORMALIZED FREE ENERGY PREDICTED BY IDOCK:   -3.74 KCAL/MOL
REMARK 922        TOTAL FREE ENERGY PREDICTED BY IDOCK:   -6.86 KCAL/MOL
REMARK 923 INTER-LIGAND FREE ENERGY PREDICTED BY IDOCK:   -5.51 KCAL/MOL
REMARK 924 INTRA-LIGAND FREE ENERGY PREDICTED BY IDOCK:   -1.35 KCAL/MOL
REMARK 927      BINDING AFFINITY PREDICTED BY RF-SCORE:    0.00 PKD
ROOT
HETATM    1  C   UNL     1     -11.634  12.105  65.862  1.00  0.00    -0.364 C  
HETATM    2  N   UNL     1     -11.297  12.640  67.238  1.00  0.00    -0.299 N  
HETATM    3  C   UNL     1      -9.792  12.757  67.406  1.00  0.00    -0.210 C  
HETATM    4  C   UNL     1     -11.908  14.043  67.389  1.00  0.00    -0.409 C  
ENDROOT
BRANCH   2   5
HETATM    5  C   UNL     1     -11.897  11.664  68.281  1.00  0.00    -0.265 C  
BRANCH   5   6
HETATM    6  C   UNL     1     -10.921  11.190  69.343  1.00  0.00    -0.244 C  
BRANCH   6   7
HETATM    7  O   UNL     1     -11.165   9.827  69.629  1.00  0.00    -0.234 OA 
BRANCH   7   8
HETATM    8  P   UNL     1      -9.739   9.099  70.285  1.00  0.00    -0.245 P  
HETATM    9  O   UNL     1     -10.339   9.275  71.674  1.00  0.00    -0.340 OA 
HETATM   10  O   UNL     1      -8.928  10.239  69.658  1.00  0.00    -0.190 OA 
BRANCH   8  11
HETATM   11  O   UNL     1      -8.313   8.370  70.941  1.00  0.00    -0.115 OA 
BRANCH  11  12
HETATM   12  P   UNL     1      -8.515   6.653  70.990  1.00  0.00    -0.129 P  
HETATM   13  O   UNL     1      -9.739   6.803  69.898  1.00  0.00    -0.159 OA 
HETATM   14  O   UNL     1      -7.266   6.519  70.094  1.00  0.00    -0.075 OA 
BRANCH  12  15
HETATM   15  O   UNL     1      -8.718   4.936  71.039  1.00  0.00    -0.120 OA 
BRANCH  15  16
HETATM   16  C   UNL     1      -9.811   4.417  70.256  1.00  0.00    -0.214 C  
BRANCH  16  17
HETATM   17  C   UNL     1      -9.363   3.527  69.107  1.00  0.00    -0.172 C  
HETATM   18  O   UNL     1      -9.625   4.172  67.859  1.00  0.00    -0.169 OA 
HETATM   19  C   UNL     1      -8.754   3.576  66.897  1.00  0.00    -0.120 C  
HETATM   20  H   UNL     1      -6.754   1.716  69.852  1.00  0.00     0.000 HD 
HETATM   21  C   UNL     1      -7.501   3.096  67.660  1.00  0.00    -0.061 C  
HETATM   22  H   UNL     1      -6.328   1.468  67.769  1.00  0.00     0.000 HD 
HETATM   23  C   UNL     1      -7.890   3.167  69.134  1.00  0.00    -0.049 C  
HETATM   24  O   UNL     1      -7.100   1.764  67.299  1.00  0.00    -0.038 OA 
HETATM   25  O   UNL     1      -7.676   1.941  69.835  1.00  0.00    -0.042 OA 
BRANCH  19  26
HETATM   26  N   UNL     1      -8.486   4.510  65.801  1.00  0.00    -0.114 N  
HETATM   27  C   UNL     1      -7.626   5.572  65.959  1.00  0.00    -0.087 C  
HETATM   28  C   UNL     1      -7.466   6.476  64.999  1.00  0.00    -0.085 C  
HETATM   29  C   UNL     1      -8.270   6.270  63.782  1.00  0.00     0.022 C  
HETATM   30  N   UNL     1      -9.083   5.272  63.620  1.00  0.00    -0.341 N  
HETATM   31  N   UNL     1      -8.181   7.176  62.760  1.00  0.00    -0.323 NA 
HETATM   32  H   UNL     1      -9.605   5.172  62.750  1.00  0.00     0.000 HD 
HETATM   33  C   UNL     1      -9.237   4.347  64.630  1.00  0.00    -0.156 C  
HETATM   34  H1  UNL     1      -8.738   7.033  61.917  1.00  0.00     0.000 HD 
HETATM   35  H2  UNL     1      -7.565   7.985  62.840  1.00  0.00     0.000 HD 
HETATM   36  O   UNL     1     -10.017   3.400  64.510  1.00  0.00    -0.168 OA 
ENDBRANCH  19  26
ENDBRANCH  16  17
ENDBRANCH  15  16
ENDBRANCH  12  15
ENDBRANCH  11  12
ENDBRANCH   8  11
ENDBRANCH   7   8
ENDBRANCH   6   7
ENDBRANCH   5   6
ENDBRANCH   2   5
TORSDOF 10
ENDMDL
MODEL      231
REMARK 921   NORMALIZED FREE ENERGY PREDICTED BY IDOCK:   -3.74 KCAL/MOL
REMARK 922        TOTAL FREE ENERGY PREDICTED BY IDOCK:   -6.85 KCAL/MOL
REMARK 923 INTER-LIGAND FREE ENERGY PREDICTED BY IDOCK:   -6.33 KCAL/MOL
REMARK 924 INTRA-LIGAND FREE ENERGY PREDICTED BY IDOCK:   -0.52 KCAL/MOL
REMARK 927      BINDING AFFINITY PREDICTED BY RF-SCORE:    0.00 PKD
ROOT
HETATM    1  C   UNL     1     -10.383  13.497  64.502  1.00  0.00    -0.358 C  
HETATM    2  N   UNL     1     -11.703  12.822  64.811  1.00  0.00    -0.335 N  
HETATM    3  C   UNL     1     -12.712  13.839  65.317  1.00  0.00    -0.439 C  
HETATM    4  C   UNL     1     -12.257  12.199  63.519  1.00  0.00    -0.567 C  
ENDROOT
BRANCH   2   5
HETATM    5  C   UNL     1     -11.434  11.731  65.877  1.00  0.00    -0.207 C  
BRANCH   5   6
HETATM    6  C   UNL     1     -10.058  11.095  65.803  1.00  0.00    -0.249 C  
BRANCH   6   7
HETATM    7  O   UNL     1     -10.137   9.890  65.067  1.00  0.00    -0.286 OA 
BRANCH   7   8
HETATM    8  P   UNL     1      -8.560   9.199  64.896  1.00  0.00    -0.159 P  
HETATM    9  O   UNL     1      -8.283   9.577  66.346  1.00  0.00    -0.114 OA 
HETATM   10  O   UNL     1      -8.289  10.216  63.782  1.00  0.00    -0.156 OA 
BRANCH   8  11
HETATM   11  O   UNL     1      -6.983   8.507  64.725  1.00  0.00    -0.071 OA 
BRANCH  11  12
HETATM   12  P   UNL     1      -7.002   6.879  65.308  1.00  0.00    -0.055 P  
HETATM   13  O   UNL     1      -6.392   6.392  63.858  1.00  0.00    -0.029 OA 
HETATM   14  O   UNL     1      -5.733   7.198  66.127  1.00  0.00    -0.029 OA 
BRANCH  12  15
HETATM   15  O   UNL     1      -7.021   5.250  65.890  1.00  0.00    -0.063 OA 
BRANCH  15  16
HETATM   16  C   UNL     1      -6.143   4.977  67.000  1.00  0.00    -0.031 C  
BRANCH  16  17
HETATM   17  C   UNL     1      -6.828   4.254  68.150  1.00  0.00    -0.048 C  
HETATM   18  O   UNL     1      -7.519   5.194  68.976  1.00  0.00    -0.067 OA 
HETATM   19  C   UNL     1      -8.524   4.463  69.680  1.00  0.00    -0.068 C  
HETATM   20  H   UNL     1      -7.847   1.263  67.336  1.00  0.00     0.000 HD 
HETATM   21  C   UNL     1      -8.917   3.266  68.789  1.00  0.00    -0.131 C  
HETATM   22  H   UNL     1      -9.234   1.290  68.965  1.00  0.00     0.000 HD 
HETATM   23  C   UNL     1      -7.834   3.204  67.715  1.00  0.00    -0.075 C  
HETATM   24  O   UNL     1      -8.992   2.027  69.514  1.00  0.00    -0.074 OA 
HETATM   25  O   UNL     1      -7.217   1.921  67.608  1.00  0.00    -0.046 OA 
BRANCH  19  26
HETATM   26  N   UNL     1      -9.633   5.345  70.050  1.00  0.00    -0.158 N  
HETATM   27  C   UNL     1      -9.940   5.596  71.367  1.00  0.00    -0.186 C  
HETATM   28  C   UNL     1     -11.009   6.310  71.701  1.00  0.00    -0.310 C  
HETATM   29  C   UNL     1     -11.832   6.796  70.579  1.00  0.00    -0.362 C  
HETATM   30  N   UNL     1     -11.552   6.569  69.332  1.00  0.00    -0.653 N  
HETATM   31  N   UNL     1     -12.966   7.515  70.843  1.00  0.00    -0.585 NA 
HETATM   32  H   UNL     1     -12.151   6.941  68.596  1.00  0.00     0.000 HD 
HETATM   33  C   UNL     1     -10.440   5.821  69.009  1.00  0.00    -0.266 C  
HETATM   34  H1  UNL     1     -13.535   7.851  70.067  1.00  0.00     0.000 HD 
HETATM   35  H2  UNL     1     -13.238   7.713  71.806  1.00  0.00     0.000 HD 
HETATM   36  O   UNL     1     -10.161   5.574  67.834  1.00  0.00    -0.153 OA 
ENDBRANCH  19  26
ENDBRANCH  16  17
ENDBRANCH  15  16
ENDBRANCH  12  15
ENDBRANCH  11  12
ENDBRANCH   8  11
ENDBRANCH   7   8
ENDBRANCH   6   7
ENDBRANCH   5   6
ENDBRANCH   2   5
TORSDOF 10
ENDMDL
MODEL      232
REMARK 921   NORMALIZED FREE ENERGY PREDICTED BY IDOCK:   -3.72 KCAL/MOL
REMARK 922        TOTAL FREE ENERGY PREDICTED BY IDOCK:   -6.82 KCAL/MOL
REMARK 923 INTER-LIGAND FREE ENERGY PREDICTED BY IDOCK:   -5.94 KCAL/MOL
REMARK 924 INTRA-LIGAND FREE ENERGY PREDICTED BY IDOCK:   -0.88 KCAL/MOL
REMARK 927      BINDING AFFINITY PREDICTED BY RF-SCORE:    0.00 PKD
ROOT
HETATM    1  C   UNL     1      -9.823   6.374  73.435  1.00  0.00    -0.178 C  
HETATM    2  N   UNL     1     -10.491   5.392  72.497  1.00  0.00    -0.205 N  
HETATM    3  C   UNL     1      -9.447   4.587  71.742  1.00  0.00    -0.149 C  
HETATM    4  C   UNL     1     -11.344   4.415  73.324  1.00  0.00    -0.237 C  
ENDROOT
BRANCH   2   5
HETATM    5  C   UNL     1     -11.378   6.204  71.520  1.00  0.00    -0.280 C  
BRANCH   5   6
HETATM    6  C   UNL     1     -10.671   6.677  70.263  1.00  0.00    -0.246 C  
BRANCH   6   7
HETATM    7  O   UNL     1      -9.935   7.850  70.552  1.00  0.00    -0.189 OA 
BRANCH   7   8
HETATM    8  P   UNL     1      -9.189   8.448  69.110  1.00  0.00    -0.150 P  
HETATM    9  O   UNL     1     -10.560   8.431  68.445  1.00  0.00    -0.190 OA 
HETATM   10  O   UNL     1      -8.322   7.184  69.093  1.00  0.00    -0.126 OA 
BRANCH   8  11
HETATM   11  O   UNL     1      -8.443   9.047  67.669  1.00  0.00    -0.116 OA 
BRANCH  11  12
HETATM   12  P   UNL     1      -7.879  10.659  67.939  1.00  0.00    -0.108 P  
HETATM   13  O   UNL     1      -9.353  11.216  67.457  1.00  0.00    -0.165 OA 
HETATM   14  O   UNL     1      -8.074  10.432  69.453  1.00  0.00    -0.151 OA 
BRANCH  12  15
HETATM   15  O   UNL     1      -7.317  12.273  68.209  1.00  0.00    -0.092 OA 
BRANCH  15  16
HETATM   16  C   UNL     1      -7.888  13.281  67.352  1.00  0.00    -0.153 C  
BRANCH  16  17
HETATM   17  C   UNL     1      -8.450  14.473  68.111  1.00  0.00    -0.157 C  
HETATM   18  O   UNL     1      -7.580  15.598  67.967  1.00  0.00    -0.117 OA 
HETATM   19  C   UNL     1      -8.366  16.763  68.226  1.00  0.00    -0.213 C  
HETATM   20  H   UNL     1     -11.712  14.529  68.142  1.00  0.00     0.000 HD 
HETATM   21  C   UNL     1      -9.818  16.422  67.830  1.00  0.00    -0.238 C  
HETATM   22  H   UNL     1     -11.675  16.625  68.572  1.00  0.00     0.000 HD 
HETATM   23  C   UNL     1      -9.832  14.906  67.657  1.00  0.00    -0.217 C  
HETATM   24  O   UNL     1     -10.780  16.834  68.815  1.00  0.00    -0.316 OA 
HETATM   25  O   UNL     1     -10.846  14.258  68.426  1.00  0.00    -0.240 OA 
BRANCH  19  26
HETATM   26  N   UNL     1      -7.798  17.926  67.540  1.00  0.00    -0.211 N  
HETATM   27  C   UNL     1      -7.729  17.985  66.167  1.00  0.00    -0.231 C  
HETATM   28  C   UNL     1      -7.120  18.992  65.552  1.00  0.00    -0.182 C  
HETATM   29  C   UNL     1      -6.524  20.015  66.429  1.00  0.00    -0.201 C  
HETATM   30  N   UNL     1      -6.585  19.972  67.725  1.00  0.00    -0.233 N  
HETATM   31  N   UNL     1      -5.855  21.069  65.870  1.00  0.00    -0.244 NA 
HETATM   32  H   UNL     1      -6.165  20.715  68.282  1.00  0.00     0.000 HD 
HETATM   33  C   UNL     1      -7.219  18.916  68.343  1.00  0.00    -0.280 C  
HETATM   34  H1  UNL     1      -5.443  21.777  66.477  1.00  0.00     0.000 HD 
HETATM   35  H2  UNL     1      -5.768  21.145  64.856  1.00  0.00     0.000 HD 
HETATM   36  O   UNL     1      -7.274  18.841  69.572  1.00  0.00    -0.125 OA 
ENDBRANCH  19  26
ENDBRANCH  16  17
ENDBRANCH  15  16
ENDBRANCH  12  15
ENDBRANCH  11  12
ENDBRANCH   8  11
ENDBRANCH   7   8
ENDBRANCH   6   7
ENDBRANCH   5   6
ENDBRANCH   2   5
TORSDOF 10
ENDMDL
MODEL      233
REMARK 921   NORMALIZED FREE ENERGY PREDICTED BY IDOCK:   -3.71 KCAL/MOL
REMARK 922        TOTAL FREE ENERGY PREDICTED BY IDOCK:   -6.82 KCAL/MOL
REMARK 923 INTER-LIGAND FREE ENERGY PREDICTED BY IDOCK:   -6.47 KCAL/MOL
REMARK 924 INTRA-LIGAND FREE ENERGY PREDICTED BY IDOCK:   -0.35 KCAL/MOL
REMARK 927      BINDING AFFINITY PREDICTED BY RF-SCORE:    0.00 PKD
ROOT
HETATM    1  C   UNL     1      -5.617   6.856  70.888  1.00  0.00    -0.027 C  
HETATM    2  N   UNL     1      -6.259   7.951  70.062  1.00  0.00    -0.030 N  
HETATM    3  C   UNL     1      -6.565   9.159  70.931  1.00  0.00    -0.082 C  
HETATM    4  C   UNL     1      -5.276   8.387  68.964  1.00  0.00    -0.031 C  
ENDROOT
BRANCH   2   5
HETATM    5  C   UNL     1      -7.555   7.372  69.442  1.00  0.00    -0.096 C  
BRANCH   5   6
HETATM    6  C   UNL     1      -7.640   7.479  67.930  1.00  0.00    -0.110 C  
BRANCH   6   7
HETATM    7  O   UNL     1      -8.914   7.972  67.565  1.00  0.00    -0.136 OA 
BRANCH   7   8
HETATM    8  P   UNL     1      -8.761   9.558  66.891  1.00  0.00    -0.128 P  
HETATM    9  O   UNL     1     -10.081   9.329  66.164  1.00  0.00    -0.288 OA 
HETATM   10  O   UNL     1      -7.449   9.103  66.242  1.00  0.00    -0.090 OA 
BRANCH   8  11
HETATM   11  O   UNL     1      -8.609  11.144  66.217  1.00  0.00    -0.173 OA 
BRANCH  11  12
HETATM   12  P   UNL     1      -9.229  12.307  67.337  1.00  0.00    -0.197 P  
HETATM   13  O   UNL     1      -7.680  12.684  67.747  1.00  0.00    -0.120 OA 
HETATM   14  O   UNL     1      -9.511  13.247  66.145  1.00  0.00    -0.235 OA 
BRANCH  12  15
HETATM   15  O   UNL     1      -9.849  13.471  68.457  1.00  0.00    -0.232 OA 
BRANCH  15  16
HETATM   16  C   UNL     1     -11.133  14.032  68.123  1.00  0.00    -0.260 C  
BRANCH  16  17
HETATM   17  C   UNL     1     -12.204  13.757  69.167  1.00  0.00    -0.250 C  
HETATM   18  O   UNL     1     -12.400  12.348  69.306  1.00  0.00    -0.098 OA 
HETATM   19  C   UNL     1     -12.983  12.139  70.593  1.00  0.00     0.200 C  
HETATM   20  H   UNL     1     -12.235  15.972  71.563  1.00  0.00     0.000 HD 
HETATM   21  C   UNL     1     -12.499  13.290  71.500  1.00  0.00    -0.125 C  
HETATM   22  H   UNL     1     -13.258  14.587  72.833  1.00  0.00     0.000 HD 
HETATM   23  C   UNL     1     -11.890  14.312  70.544  1.00  0.00    -0.294 C  
HETATM   24  O   UNL     1     -13.556  13.878  72.275  1.00  0.00    -0.446 OA 
HETATM   25  O   UNL     1     -12.431  15.624  70.700  1.00  0.00    -0.416 OA 
BRANCH  19  26
HETATM   26  N   UNL     1     -12.670  10.795  71.085  1.00  0.00    -0.398 N  
HETATM   27  C   UNL     1     -13.490  10.152  71.983  1.00  0.00    -0.316 C  
HETATM   28  C   UNL     1     -13.151   8.979  72.507  1.00  0.00    -0.450 C  
HETATM   29  C   UNL     1     -11.852   8.434  72.072  1.00  0.00    -0.353 C  
HETATM   30  N   UNL     1     -11.071   9.029  71.224  1.00  0.00    -0.284 N  
HETATM   31  N   UNL     1     -11.420   7.243  72.590  1.00  0.00    -0.448 NA 
HETATM   32  H   UNL     1     -10.189   8.598  70.950  1.00  0.00     0.000 HD 
HETATM   33  C   UNL     1     -11.442  10.247  70.696  1.00  0.00    -0.349 C  
HETATM   34  H1  UNL     1     -10.522   6.865  72.289  1.00  0.00     0.000 HD 
HETATM   35  H2  UNL     1     -11.991   6.738  73.269  1.00  0.00     0.000 HD 
HETATM   36  O   UNL     1     -10.710  10.844  69.903  1.00  0.00    -0.206 OA 
ENDBRANCH  19  26
ENDBRANCH  16  17
ENDBRANCH  15  16
ENDBRANCH  12  15
ENDBRANCH  11  12
ENDBRANCH   8  11
ENDBRANCH   7   8
ENDBRANCH   6   7
ENDBRANCH   5   6
ENDBRANCH   2   5
TORSDOF 10
ENDMDL
MODEL      234
REMARK 921   NORMALIZED FREE ENERGY PREDICTED BY IDOCK:   -3.68 KCAL/MOL
REMARK 922        TOTAL FREE ENERGY PREDICTED BY IDOCK:   -6.77 KCAL/MOL
REMARK 923 INTER-LIGAND FREE ENERGY PREDICTED BY IDOCK:   -5.47 KCAL/MOL
REMARK 924 INTRA-LIGAND FREE ENERGY PREDICTED BY IDOCK:   -1.31 KCAL/MOL
REMARK 927      BINDING AFFINITY PREDICTED BY RF-SCORE:    0.00 PKD
ROOT
HETATM    1  C   UNL     1     -12.489  15.051  64.273  1.00  0.00    -0.107 C  
HETATM    2  N   UNL     1     -11.658  14.142  65.153  1.00  0.00    -0.330 N  
HETATM    3  C   UNL     1     -12.285  14.019  66.531  1.00  0.00    -0.451 C  
HETATM    4  C   UNL     1     -11.614  12.742  64.520  1.00  0.00    -0.347 C  
ENDROOT
BRANCH   2   5
HETATM    5  C   UNL     1     -10.235  14.749  65.245  1.00  0.00    -0.384 C  
BRANCH   5   6
HETATM    6  C   UNL     1     -10.144  16.039  66.041  1.00  0.00    -0.341 C  
BRANCH   6   7
HETATM    7  O   UNL     1      -8.852  16.593  65.889  1.00  0.00    -0.486 OA 
BRANCH   7   8
HETATM    8  P   UNL     1      -7.807  16.002  67.135  1.00  0.00    -0.253 P  
HETATM    9  O   UNL     1      -8.630  16.796  68.142  1.00  0.00    -0.205 OA 
HETATM   10  O   UNL     1      -6.639  16.678  66.408  1.00  0.00    -0.223 OA 
BRANCH   8  11
HETATM   11  O   UNL     1      -6.762  15.410  68.381  1.00  0.00    -0.108 OA 
BRANCH  11  12
HETATM   12  P   UNL     1      -7.075  13.730  68.645  1.00  0.00    -0.110 P  
HETATM   13  O   UNL     1      -7.629  13.628  67.097  1.00  0.00    -0.104 OA 
HETATM   14  O   UNL     1      -5.563  13.464  68.490  1.00  0.00    -0.076 OA 
BRANCH  12  15
HETATM   15  O   UNL     1      -7.389  12.049  68.908  1.00  0.00    -0.110 OA 
BRANCH  15  16
HETATM   16  C   UNL     1      -6.587  11.139  68.131  1.00  0.00    -0.058 C  
BRANCH  16  17
HETATM   17  C   UNL     1      -7.401  10.064  67.427  1.00  0.00    -0.090 C  
HETATM   18  O   UNL     1      -7.071   8.777  67.956  1.00  0.00    -0.077 OA 
HETATM   19  C   UNL     1      -8.174   7.917  67.666  1.00  0.00    -0.124 C  
HETATM   20  H   UNL     1     -10.364  11.099  66.538  1.00  0.00     0.000 HD 
HETATM   21  C   UNL     1      -9.434   8.806  67.608  1.00  0.00    -0.141 C  
HETATM   22  H   UNL     1     -11.044   9.072  66.436  1.00  0.00     0.000 HD 
HETATM   23  C   UNL     1      -8.903  10.236  67.554  1.00  0.00    -0.128 C  
HETATM   24  O   UNL     1     -10.268   8.525  66.472  1.00  0.00    -0.289 OA 
HETATM   25  O   UNL     1      -9.423  10.991  66.459  1.00  0.00    -0.180 OA 
BRANCH  19  26
HETATM   26  N   UNL     1      -8.237   6.822  68.636  1.00  0.00    -0.120 N  
HETATM   27  C   UNL     1      -8.832   6.987  69.865  1.00  0.00    -0.142 C  
HETATM   28  C   UNL     1      -8.796   6.027  70.782  1.00  0.00    -0.139 C  
HETATM   29  C   UNL     1      -8.076   4.799  70.398  1.00  0.00    -0.083 C  
HETATM   30  N   UNL     1      -7.514   4.630  69.241  1.00  0.00    -0.055 N  
HETATM   31  N   UNL     1      -7.971   3.776  71.299  1.00  0.00    -0.063 NA 
HETATM   32  H   UNL     1      -7.040   3.754  69.025  1.00  0.00     0.000 HD 
HETATM   33  C   UNL     1      -7.560   5.641  68.306  1.00  0.00    -0.081 C  
HETATM   34  H1  UNL     1      -7.473   2.926  71.034  1.00  0.00     0.000 HD 
HETATM   35  H2  UNL     1      -8.386   3.861  72.228  1.00  0.00     0.000 HD 
HETATM   36  O   UNL     1      -7.017   5.514  67.206  1.00  0.00    -0.062 OA 
ENDBRANCH  19  26
ENDBRANCH  16  17
ENDBRANCH  15  16
ENDBRANCH  12  15
ENDBRANCH  11  12
ENDBRANCH   8  11
ENDBRANCH   7   8
ENDBRANCH   6   7
ENDBRANCH   5   6
ENDBRANCH   2   5
TORSDOF 10
ENDMDL
MODEL      235
REMARK 921   NORMALIZED FREE ENERGY PREDICTED BY IDOCK:   -3.68 KCAL/MOL
REMARK 922        TOTAL FREE ENERGY PREDICTED BY IDOCK:   -6.77 KCAL/MOL
REMARK 923 INTER-LIGAND FREE ENERGY PREDICTED BY IDOCK:   -6.88 KCAL/MOL
REMARK 924 INTRA-LIGAND FREE ENERGY PREDICTED BY IDOCK:    0.12 KCAL/MOL
REMARK 927      BINDING AFFINITY PREDICTED BY RF-SCORE:    0.00 PKD
ROOT
HETATM    1  C   UNL     1      -8.643   8.572  71.307  1.00  0.00    -0.176 C  
HETATM    2  N   UNL     1      -8.109   7.625  70.253  1.00  0.00    -0.112 N  
HETATM    3  C   UNL     1      -6.780   7.037  70.693  1.00  0.00    -0.053 C  
HETATM    4  C   UNL     1      -9.108   6.469  70.072  1.00  0.00    -0.150 C  
ENDROOT
BRANCH   2   5
HETATM    5  C   UNL     1      -7.952   8.427  68.937  1.00  0.00    -0.115 C  
BRANCH   5   6
HETATM    6  C   UNL     1      -7.686   9.910  69.124  1.00  0.00    -0.098 C  
BRANCH   6   7
HETATM    7  O   UNL     1      -6.542  10.279  68.380  1.00  0.00    -0.056 OA 
BRANCH   7   8
HETATM    8  P   UNL     1      -6.607  11.966  67.998  1.00  0.00    -0.079 P  
HETATM    9  O   UNL     1      -7.971  12.023  68.672  1.00  0.00    -0.138 OA 
HETATM   10  O   UNL     1      -6.507  11.583  66.516  1.00  0.00    -0.121 OA 
BRANCH   8  11
HETATM   11  O   UNL     1      -6.670  13.652  67.616  1.00  0.00    -0.161 OA 
BRANCH  11  12
HETATM   12  P   UNL     1      -7.993  14.383  68.456  1.00  0.00    -0.143 P  
HETATM   13  O   UNL     1      -6.907  15.111  69.458  1.00  0.00    -0.151 OA 
HETATM   14  O   UNL     1      -8.123  15.392  67.295  1.00  0.00    -0.166 OA 
BRANCH  12  15
HETATM   15  O   UNL     1      -9.316  15.115  69.297  1.00  0.00    -0.218 OA 
BRANCH  15  16
HETATM   16  C   UNL     1     -10.441  15.491  68.478  1.00  0.00    -0.238 C  
BRANCH  16  17
HETATM   17  C   UNL     1     -11.378  14.334  68.168  1.00  0.00    -0.288 C  
HETATM   18  O   UNL     1     -11.193  13.905  66.816  1.00  0.00    -0.305 OA 
HETATM   19  C   UNL     1     -11.671  12.561  66.742  1.00  0.00    -0.384 C  
HETATM   20  H   UNL     1     -11.931  12.425  70.755  1.00  0.00     0.000 HD 
HETATM   21  C   UNL     1     -11.484  11.938  68.141  1.00  0.00    -0.320 C  
HETATM   22  H   UNL     1     -12.525  10.832  69.456  1.00  0.00     0.000 HD 
HETATM   23  C   UNL     1     -11.187  13.121  69.060  1.00  0.00    -0.258 C  
HETATM   24  O   UNL     1     -12.640  11.215  68.594  1.00  0.00    -0.318 OA 
HETATM   25  O   UNL     1     -12.049  13.184  70.197  1.00  0.00    -0.338 OA 
BRANCH  19  26
HETATM   26  N   UNL     1     -11.005  11.841  65.654  1.00  0.00    -0.300 N  
HETATM   27  C   UNL     1     -11.107  12.263  64.348  1.00  0.00    -0.330 C  
HETATM   28  C   UNL     1     -10.591  11.550  63.353  1.00  0.00    -0.460 C  
HETATM   29  C   UNL     1      -9.924  10.294  63.741  1.00  0.00    -0.034 C  
HETATM   30  N   UNL     1      -9.820   9.887  64.968  1.00  0.00    -0.380 N  
HETATM   31  N   UNL     1      -9.393   9.492  62.769  1.00  0.00    -0.556 NA 
HETATM   32  H   UNL     1      -9.336   9.015  65.179  1.00  0.00     0.000 HD 
HETATM   33  C   UNL     1     -10.366  10.640  65.985  1.00  0.00    -0.225 C  
HETATM   34  H1  UNL     1      -8.932   8.623  63.037  1.00  0.00     0.000 HD 
HETATM   35  H2  UNL     1      -9.457   9.760  61.786  1.00  0.00     0.000 HD 
HETATM   36  O   UNL     1     -10.298  10.267  67.159  1.00  0.00    -0.212 OA 
ENDBRANCH  19  26
ENDBRANCH  16  17
ENDBRANCH  15  16
ENDBRANCH  12  15
ENDBRANCH  11  12
ENDBRANCH   8  11
ENDBRANCH   7   8
ENDBRANCH   6   7
ENDBRANCH   5   6
ENDBRANCH   2   5
TORSDOF 10
ENDMDL
MODEL      236
REMARK 921   NORMALIZED FREE ENERGY PREDICTED BY IDOCK:   -3.68 KCAL/MOL
REMARK 922        TOTAL FREE ENERGY PREDICTED BY IDOCK:   -6.76 KCAL/MOL
REMARK 923 INTER-LIGAND FREE ENERGY PREDICTED BY IDOCK:   -7.07 KCAL/MOL
REMARK 924 INTRA-LIGAND FREE ENERGY PREDICTED BY IDOCK:    0.31 KCAL/MOL
REMARK 927      BINDING AFFINITY PREDICTED BY RF-SCORE:    0.00 PKD
ROOT
HETATM    1  C   UNL     1      -9.842   6.386  73.333  1.00  0.00    -0.178 C  
HETATM    2  N   UNL     1     -10.598   5.400  72.469  1.00  0.00    -0.217 N  
HETATM    3  C   UNL     1      -9.630   4.481  71.742  1.00  0.00    -0.160 C  
HETATM    4  C   UNL     1     -11.494   4.534  73.371  1.00  0.00    -0.230 C  
ENDROOT
BRANCH   2   5
HETATM    5  C   UNL     1     -11.451   6.213  71.464  1.00  0.00    -0.264 C  
BRANCH   5   6
HETATM    6  C   UNL     1     -10.746   6.557  70.164  1.00  0.00    -0.252 C  
BRANCH   6   7
HETATM    7  O   UNL     1      -9.905   7.675  70.368  1.00  0.00    -0.183 OA 
BRANCH   7   8
HETATM    8  P   UNL     1      -9.211   8.173  68.864  1.00  0.00    -0.146 P  
HETATM    9  O   UNL     1     -10.614   8.187  68.270  1.00  0.00    -0.183 OA 
HETATM   10  O   UNL     1      -8.399   6.873  68.864  1.00  0.00    -0.120 OA 
BRANCH   8  11
HETATM   11  O   UNL     1      -8.517   8.673  67.360  1.00  0.00    -0.121 OA 
BRANCH  11  12
HETATM   12  P   UNL     1      -8.341  10.393  67.349  1.00  0.00    -0.121 P  
HETATM   13  O   UNL     1      -9.867  10.509  66.739  1.00  0.00    -0.180 OA 
HETATM   14  O   UNL     1      -8.578  10.388  68.875  1.00  0.00    -0.131 OA 
BRANCH  12  15
HETATM   15  O   UNL     1      -8.166  12.115  67.339  1.00  0.00    -0.157 OA 
BRANCH  15  16
HETATM   16  C   UNL     1      -8.803  12.796  66.241  1.00  0.00     0.140 C  
BRANCH  16  17
HETATM   17  C   UNL     1      -9.485  14.093  66.647  1.00  0.00    -0.289 C  
HETATM   18  O   UNL     1     -10.687  13.808  67.367  1.00  0.00    -0.270 OA 
HETATM   19  C   UNL     1     -10.987  14.969  68.143  1.00  0.00    -0.279 C  
HETATM   20  H   UNL     1      -7.367  16.495  67.272  1.00  0.00     0.000 HD 
HETATM   21  C   UNL     1      -9.645  15.664  68.452  1.00  0.00    -0.199 C  
HETATM   22  H   UNL     1      -8.857  17.512  68.424  1.00  0.00     0.000 HD 
HETATM   23  C   UNL     1      -8.636  14.998  67.520  1.00  0.00    -0.180 C  
HETATM   24  O   UNL     1      -9.684  17.084  68.234  1.00  0.00    -0.256 OA 
HETATM   25  O   UNL     1      -7.900  15.929  66.726  1.00  0.00    -0.234 OA 
BRANCH  19  26
HETATM   26  N   UNL     1     -11.777  14.605  69.322  1.00  0.00    -0.295 N  
HETATM   27  C   UNL     1     -12.058  15.524  70.307  1.00  0.00    -0.386 C  
HETATM   28  C   UNL     1     -12.683  15.167  71.423  1.00  0.00    -0.443 C  
HETATM   29  C   UNL     1     -13.037  13.740  71.532  1.00  0.00    -0.357 C  
HETATM   30  N   UNL     1     -12.779  12.865  70.610  1.00  0.00    -0.147 N  
HETATM   31  N   UNL     1     -13.657  13.290  72.666  1.00  0.00    -0.662 NA 
HETATM   32  H   UNL     1     -13.059  11.892  70.734  1.00  0.00     0.000 HD 
HETATM   33  C   UNL     1     -12.126  13.257  69.462  1.00  0.00    -0.258 C  
HETATM   34  H1  UNL     1     -13.902  12.303  72.742  1.00  0.00     0.000 HD 
HETATM   35  H2  UNL     1     -13.873  13.934  73.426  1.00  0.00     0.000 HD 
HETATM   36  O   UNL     1     -11.853  12.442  68.577  1.00  0.00    -0.314 OA 
ENDBRANCH  19  26
ENDBRANCH  16  17
ENDBRANCH  15  16
ENDBRANCH  12  15
ENDBRANCH  11  12
ENDBRANCH   8  11
ENDBRANCH   7   8
ENDBRANCH   6   7
ENDBRANCH   5   6
ENDBRANCH   2   5
TORSDOF 10
ENDMDL
MODEL      237
REMARK 921   NORMALIZED FREE ENERGY PREDICTED BY IDOCK:   -3.66 KCAL/MOL
REMARK 922        TOTAL FREE ENERGY PREDICTED BY IDOCK:   -6.73 KCAL/MOL
REMARK 923 INTER-LIGAND FREE ENERGY PREDICTED BY IDOCK:   -6.69 KCAL/MOL
REMARK 924 INTRA-LIGAND FREE ENERGY PREDICTED BY IDOCK:   -0.04 KCAL/MOL
REMARK 927      BINDING AFFINITY PREDICTED BY RF-SCORE:    0.00 PKD
ROOT
HETATM    1  C   UNL     1      -8.911   3.072  64.490  1.00  0.00    -0.116 C  
HETATM    2  N   UNL     1      -9.055   3.702  65.859  1.00  0.00    -0.146 N  
HETATM    3  C   UNL     1     -10.280   4.599  65.905  1.00  0.00    -0.276 C  
HETATM    4  C   UNL     1      -9.239   2.586  66.903  1.00  0.00    -0.076 C  
ENDROOT
BRANCH   2   5
HETATM    5  C   UNL     1      -7.764   4.511  66.142  1.00  0.00    -0.094 C  
BRANCH   5   6
HETATM    6  C   UNL     1      -7.769   5.926  65.593  1.00  0.00    -0.097 C  
BRANCH   6   7
HETATM    7  O   UNL     1      -7.064   6.775  66.477  1.00  0.00    -0.068 OA 
BRANCH   7   8
HETATM    8  P   UNL     1      -8.127   7.349  67.716  1.00  0.00    -0.119 P  
HETATM    9  O   UNL     1      -8.017   8.741  67.107  1.00  0.00    -0.096 OA 
HETATM   10  O   UNL     1      -7.092   6.888  68.749  1.00  0.00    -0.083 OA 
BRANCH   8  11
HETATM   11  O   UNL     1      -9.191   7.922  68.954  1.00  0.00    -0.144 OA 
BRANCH  11  12
HETATM   12  P   UNL     1     -10.247   9.122  68.296  1.00  0.00    -0.212 P  
HETATM   13  O   UNL     1     -11.148   7.912  67.633  1.00  0.00    -0.004 OA 
HETATM   14  O   UNL     1     -10.870   9.288  69.698  1.00  0.00    -0.232 OA 
BRANCH  12  15
HETATM   15  O   UNL     1     -11.306  10.322  67.636  1.00  0.00    -0.335 OA 
BRANCH  15  16
HETATM   16  C   UNL     1     -10.714  11.201  66.660  1.00  0.00    -0.269 C  
BRANCH  16  17
HETATM   17  C   UNL     1     -11.371  12.572  66.604  1.00  0.00    -0.334 C  
HETATM   18  O   UNL     1     -11.965  12.881  67.867  1.00  0.00    -0.349 OA 
HETATM   19  C   UNL     1     -12.088  14.302  67.928  1.00  0.00    -0.261 C  
HETATM   20  H   UNL     1      -9.806  14.646  64.631  1.00  0.00     0.000 HD 
HETATM   21  C   UNL     1     -10.958  14.890  67.057  1.00  0.00    -0.327 C  
HETATM   22  H   UNL     1     -10.713  16.298  65.645  1.00  0.00     0.000 HD 
HETATM   23  C   UNL     1     -10.423  13.704  66.257  1.00  0.00    -0.291 C  
HETATM   24  O   UNL     1     -11.409  15.937  66.181  1.00  0.00    -0.005 OA 
HETATM   25  O   UNL     1     -10.399  13.937  64.849  1.00  0.00    -0.397 OA 
BRANCH  19  26
HETATM   26  N   UNL     1     -12.091  14.757  69.320  1.00  0.00    -0.289 N  
HETATM   27  C   UNL     1     -13.267  14.996  69.993  1.00  0.00     0.272 C  
HETATM   28  C   UNL     1     -13.267  15.508  71.218  1.00  0.00    -0.588 C  
HETATM   29  C   UNL     1     -11.941  15.805  71.790  1.00  0.00    -0.467 C  
HETATM   30  N   UNL     1     -10.825  15.582  71.167  1.00  0.00    -0.362 N  
HETATM   31  N   UNL     1     -11.859  16.361  73.037  1.00  0.00    -0.468 NA 
HETATM   32  H   UNL     1      -9.935  15.796  71.616  1.00  0.00     0.000 HD 
HETATM   33  C   UNL     1     -10.849  15.054  69.894  1.00  0.00    -0.246 C  
HETATM   34  H1  UNL     1     -10.942  16.567  73.433  1.00  0.00     0.000 HD 
HETATM   35  H2  UNL     1     -12.707  16.567  73.567  1.00  0.00     0.000 HD 
HETATM   36  O   UNL     1      -9.804  14.850  69.272  1.00  0.00    -0.211 OA 
ENDBRANCH  19  26
ENDBRANCH  16  17
ENDBRANCH  15  16
ENDBRANCH  12  15
ENDBRANCH  11  12
ENDBRANCH   8  11
ENDBRANCH   7   8
ENDBRANCH   6   7
ENDBRANCH   5   6
ENDBRANCH   2   5
TORSDOF 10
ENDMDL
MODEL      238
REMARK 921   NORMALIZED FREE ENERGY PREDICTED BY IDOCK:   -3.60 KCAL/MOL
REMARK 922        TOTAL FREE ENERGY PREDICTED BY IDOCK:   -6.63 KCAL/MOL
REMARK 923 INTER-LIGAND FREE ENERGY PREDICTED BY IDOCK:   -5.81 KCAL/MOL
REMARK 924 INTRA-LIGAND FREE ENERGY PREDICTED BY IDOCK:   -0.82 KCAL/MOL
REMARK 927      BINDING AFFINITY PREDICTED BY RF-SCORE:    0.00 PKD
ROOT
HETATM    1  C   UNL     1      -8.531   4.998  66.920  1.00  0.00    -0.106 C  
HETATM    2  N   UNL     1      -8.012   4.550  68.269  1.00  0.00    -0.080 N  
HETATM    3  C   UNL     1      -9.144   4.490  69.280  1.00  0.00    -0.113 C  
HETATM    4  C   UNL     1      -7.419   3.138  68.130  1.00  0.00    -0.053 C  
ENDROOT
BRANCH   2   5
HETATM    5  C   UNL     1      -6.925   5.561  68.714  1.00  0.00    -0.060 C  
BRANCH   5   6
HETATM    6  C   UNL     1      -7.391   6.590  69.728  1.00  0.00    -0.079 C  
BRANCH   6   7
HETATM    7  O   UNL     1      -8.085   7.626  69.060  1.00  0.00    -0.122 OA 
BRANCH   7   8
HETATM    8  P   UNL     1      -7.143   9.077  69.085  1.00  0.00    -0.064 P  
HETATM    9  O   UNL     1      -7.801   9.430  70.414  1.00  0.00    -0.131 OA 
HETATM   10  O   UNL     1      -7.821   9.482  67.771  1.00  0.00    -0.094 OA 
BRANCH   8  11
HETATM   11  O   UNL     1      -6.201  10.528  69.111  1.00  0.00    -0.043 OA 
BRANCH  11  12
HETATM   12  P   UNL     1      -7.075  11.796  68.323  1.00  0.00    -0.095 P  
HETATM   13  O   UNL     1      -6.576  12.826  69.508  1.00  0.00    -0.103 OA 
HETATM   14  O   UNL     1      -5.936  11.884  67.286  1.00  0.00    -0.103 OA 
BRANCH  12  15
HETATM   15  O   UNL     1      -7.949  13.065  67.537  1.00  0.00    -0.155 OA 
BRANCH  15  16
HETATM   16  C   UNL     1      -9.264  12.714  67.065  1.00  0.00    -0.212 C  
BRANCH  16  17
HETATM   17  C   UNL     1     -10.102  13.915  66.656  1.00  0.00    -0.273 C  
HETATM   18  O   UNL     1      -9.760  15.046  67.462  1.00  0.00    -0.214 OA 
HETATM   19  C   UNL     1     -10.156  16.207  66.730  1.00  0.00    -0.271 C  
HETATM   20  H   UNL     1     -10.813  13.939  63.472  1.00  0.00     0.000 HD 
HETATM   21  C   UNL     1     -10.078  15.844  65.232  1.00  0.00    -0.171 C  
HETATM   22  H   UNL     1     -11.187  16.043  63.569  1.00  0.00     0.000 HD 
HETATM   23  C   UNL     1      -9.939  14.324  65.204  1.00  0.00    -0.231 C  
HETATM   24  O   UNL     1     -11.235  16.267  64.491  1.00  0.00    -0.626 OA 
HETATM   25  O   UNL     1     -10.914  13.683  64.382  1.00  0.00    -0.386 OA 
BRANCH  19  26
HETATM   26  N   UNL     1      -9.346  17.362  67.126  1.00  0.00    -0.240 N  
HETATM   27  C   UNL     1      -8.183  17.681  66.465  1.00  0.00    -0.273 C  
HETATM   28  C   UNL     1      -7.397  18.663  66.891  1.00  0.00    -0.222 C  
HETATM   29  C   UNL     1      -7.847  19.365  68.106  1.00  0.00    -0.308 C  
HETATM   30  N   UNL     1      -8.943  19.075  68.738  1.00  0.00    -0.343 N  
HETATM   31  N   UNL     1      -7.076  20.370  68.623  1.00  0.00    -0.137 NA 
HETATM   32  H   UNL     1      -9.212  19.603  69.567  1.00  0.00     0.000 HD 
HETATM   33  C   UNL     1      -9.741  18.049  68.280  1.00  0.00    -0.330 C  
HETATM   34  H1  UNL     1      -7.387  20.856  69.464  1.00  0.00     0.000 HD 
HETATM   35  H2  UNL     1      -6.199  20.632  68.172  1.00  0.00     0.000 HD 
HETATM   36  O   UNL     1     -10.778  17.740  68.872  1.00  0.00    -0.173 OA 
ENDBRANCH  19  26
ENDBRANCH  16  17
ENDBRANCH  15  16
ENDBRANCH  12  15
ENDBRANCH  11  12
ENDBRANCH   8  11
ENDBRANCH   7   8
ENDBRANCH   6   7
ENDBRANCH   5   6
ENDBRANCH   2   5
TORSDOF 10
ENDMDL
MODEL      239
REMARK 921   NORMALIZED FREE ENERGY PREDICTED BY IDOCK:   -3.59 KCAL/MOL
REMARK 922        TOTAL FREE ENERGY PREDICTED BY IDOCK:   -6.63 KCAL/MOL
REMARK 923 INTER-LIGAND FREE ENERGY PREDICTED BY IDOCK:   -5.36 KCAL/MOL
REMARK 924 INTRA-LIGAND FREE ENERGY PREDICTED BY IDOCK:   -1.27 KCAL/MOL
REMARK 927      BINDING AFFINITY PREDICTED BY RF-SCORE:    0.00 PKD
ROOT
HETATM    1  C   UNL     1      -8.599   2.516  62.969  1.00  0.00    -0.085 C  
HETATM    2  N   UNL     1      -7.355   2.722  63.805  1.00  0.00    -0.059 N  
HETATM    3  C   UNL     1      -6.160   2.046  63.154  1.00  0.00    -0.009 C  
HETATM    4  C   UNL     1      -7.062   4.229  63.896  1.00  0.00    -0.046 C  
ENDROOT
BRANCH   2   5
HETATM    5  C   UNL     1      -7.629   2.129  65.210  1.00  0.00    -0.071 C  
BRANCH   5   6
HETATM    6  C   UNL     1      -8.879   2.658  65.890  1.00  0.00    -0.135 C  
BRANCH   6   7
HETATM    7  O   UNL     1      -8.507   3.497  66.967  1.00  0.00    -0.100 OA 
BRANCH   7   8
HETATM    8  P   UNL     1      -9.464   4.939  66.948  1.00  0.00    -0.179 P  
HETATM    9  O   UNL     1      -9.876   4.633  68.382  1.00  0.00    -0.149 OA 
HETATM   10  O   UNL     1     -10.260   4.336  65.784  1.00  0.00    -0.229 OA 
BRANCH   8  11
HETATM   11  O   UNL     1     -10.420   6.381  66.928  1.00  0.00    -0.223 OA 
BRANCH  11  12
HETATM   12  P   UNL     1      -9.467   7.710  67.490  1.00  0.00    -0.152 P  
HETATM   13  O   UNL     1      -8.165   7.054  66.723  1.00  0.00    -0.107 OA 
HETATM   14  O   UNL     1     -10.110   8.585  66.392  1.00  0.00    -0.279 OA 
BRANCH  12  15
HETATM   15  O   UNL     1      -8.513   9.040  68.051  1.00  0.00    -0.123 OA 
BRANCH  15  16
HETATM   16  C   UNL     1      -9.204   9.994  68.881  1.00  0.00    -0.169 C  
BRANCH  16  17
HETATM   17  C   UNL     1      -8.900   9.838  70.363  1.00  0.00    -0.072 C  
HETATM   18  O   UNL     1      -9.799   8.894  70.949  1.00  0.00    -0.202 OA 
HETATM   19  C   UNL     1      -9.171   8.409  72.137  1.00  0.00    -0.243 C  
HETATM   20  H   UNL     1      -5.730  10.190  71.049  1.00  0.00     0.000 HD 
HETATM   21  C   UNL     1      -7.647   8.501  71.909  1.00  0.00    -0.103 C  
HETATM   22  H   UNL     1      -6.007   9.128  72.886  1.00  0.00     0.000 HD 
HETATM   23  C   UNL     1      -7.489   9.371  70.665  1.00  0.00    -0.136 C  
HETATM   24  O   UNL     1      -6.945   9.071  73.026  1.00  0.00    -0.326 OA 
HETATM   25  O   UNL     1      -6.614  10.483  70.860  1.00  0.00    -0.347 OA 
BRANCH  19  26
HETATM   26  N   UNL     1      -9.664   7.069  72.466  1.00  0.00    -0.149 N  
HETATM   27  C   UNL     1      -8.893   5.950  72.254  1.00  0.00    -0.138 C  
HETATM   28  C   UNL     1      -9.380   4.731  72.454  1.00  0.00    -0.157 C  
HETATM   29  C   UNL     1     -10.783   4.666  72.901  1.00  0.00    -0.225 C  
HETATM   30  N   UNL     1     -11.520   5.714  73.107  1.00  0.00    -0.510 N  
HETATM   31  N   UNL     1     -11.365   3.444  73.101  1.00  0.00    -0.025 NA 
HETATM   32  H   UNL     1     -12.481   5.609  73.428  1.00  0.00     0.000 HD 
HETATM   33  C   UNL     1     -10.995   6.969  72.888  1.00  0.00    -0.302 C  
HETATM   34  H1  UNL     1     -12.336   3.398  73.410  1.00  0.00     0.000 HD 
HETATM   35  H2  UNL     1     -10.833   2.587  72.944  1.00  0.00     0.000 HD 
HETATM   36  O   UNL     1     -11.679   7.981  73.058  1.00  0.00    -0.309 OA 
ENDBRANCH  19  26
ENDBRANCH  16  17
ENDBRANCH  15  16
ENDBRANCH  12  15
ENDBRANCH  11  12
ENDBRANCH   8  11
ENDBRANCH   7   8
ENDBRANCH   6   7
ENDBRANCH   5   6
ENDBRANCH   2   5
TORSDOF 10
ENDMDL
MODEL      240
REMARK 921   NORMALIZED FREE ENERGY PREDICTED BY IDOCK:   -3.53 KCAL/MOL
REMARK 922        TOTAL FREE ENERGY PREDICTED BY IDOCK:   -6.53 KCAL/MOL
REMARK 923 INTER-LIGAND FREE ENERGY PREDICTED BY IDOCK:   -5.64 KCAL/MOL
REMARK 924 INTRA-LIGAND FREE ENERGY PREDICTED BY IDOCK:   -0.88 KCAL/MOL
REMARK 927      BINDING AFFINITY PREDICTED BY RF-SCORE:    0.00 PKD
ROOT
HETATM    1  C   UNL     1     -10.665  12.655  64.015  1.00  0.00    -0.425 C  
HETATM    2  N   UNL     1     -11.253  13.477  65.141  1.00  0.00    -0.302 N  
HETATM    3  C   UNL     1     -10.153  14.204  65.897  1.00  0.00    -0.321 C  
HETATM    4  C   UNL     1     -12.201  14.531  64.545  1.00  0.00    -0.465 C  
ENDROOT
BRANCH   2   5
HETATM    5  C   UNL     1     -12.022  12.512  66.076  1.00  0.00    -0.392 C  
BRANCH   5   6
HETATM    6  C   UNL     1     -11.251  12.067  67.306  1.00  0.00    -0.311 C  
BRANCH   6   7
HETATM    7  O   UNL     1     -11.756  12.738  68.444  1.00  0.00    -0.302 OA 
BRANCH   7   8
HETATM    8  P   UNL     1     -11.663  11.703  69.827  1.00  0.00    -0.321 P  
HETATM    9  O   UNL     1     -12.191  10.567  68.960  1.00  0.00    -0.272 OA 
HETATM   10  O   UNL     1     -12.650  12.640  70.534  1.00  0.00    -0.216 OA 
BRANCH   8  11
HETATM   11  O   UNL     1     -11.570  10.668  71.211  1.00  0.00    -0.202 OA 
BRANCH  11  12
HETATM   12  P   UNL     1     -10.879   9.151  70.750  1.00  0.00    -0.323 P  
HETATM   13  O   UNL     1      -9.783   9.322  71.968  1.00  0.00    -0.222 OA 
HETATM   14  O   UNL     1     -12.061   8.444  71.445  1.00  0.00    -0.291 OA 
BRANCH  12  15
HETATM   15  O   UNL     1     -10.186   7.634  70.289  1.00  0.00    -0.200 OA 
BRANCH  15  16
HETATM   16  C   UNL     1      -9.850   6.749  71.376  1.00  0.00    -0.178 C  
BRANCH  16  17
HETATM   17  C   UNL     1      -8.534   6.015  71.174  1.00  0.00    -0.125 C  
HETATM   18  O   UNL     1      -8.453   5.516  69.836  1.00  0.00    -0.112 OA 
HETATM   19  C   UNL     1      -7.067   5.320  69.552  1.00  0.00    -0.060 C  
HETATM   20  H   UNL     1      -6.092   7.286  72.925  1.00  0.00     0.000 HD 
HETATM   21  C   UNL     1      -6.284   6.336  70.409  1.00  0.00    -0.035 C  
HETATM   22  H   UNL     1      -4.671   6.379  71.607  1.00  0.00     0.000 HD 
HETATM   23  C   UNL     1      -7.301   6.865  71.417  1.00  0.00    -0.081 C  
HETATM   24  O   UNL     1      -5.154   5.753  71.079  1.00  0.00    -0.008 OA 
HETATM   25  O   UNL     1      -6.864   6.754  72.772  1.00  0.00    -0.066 OA 
BRANCH  19  26
HETATM   26  N   UNL     1      -6.822   5.411  68.111  1.00  0.00    -0.058 N  
HETATM   27  C   UNL     1      -6.313   6.556  67.543  1.00  0.00    -0.043 C  
HETATM   28  C   UNL     1      -6.190   6.675  66.226  1.00  0.00    -0.038 C  
HETATM   29  C   UNL     1      -6.641   5.517  65.432  1.00  0.00    -0.040 C  
HETATM   30  N   UNL     1      -7.121   4.432  65.956  1.00  0.00    -0.070 N  
HETATM   31  N   UNL     1      -6.573   5.575  64.067  1.00  0.00    -0.033 NA 
HETATM   32  H   UNL     1      -7.406   3.657  65.358  1.00  0.00     0.000 HD 
HETATM   33  C   UNL     1      -7.243   4.332  67.325  1.00  0.00    -0.068 C  
HETATM   34  H1  UNL     1      -6.885   4.775  63.518  1.00  0.00     0.000 HD 
HETATM   35  H2  UNL     1      -6.214   6.410  63.603  1.00  0.00     0.000 HD 
HETATM   36  O   UNL     1      -7.714   3.319  67.848  1.00  0.00    -0.063 OA 
ENDBRANCH  19  26
ENDBRANCH  16  17
ENDBRANCH  15  16
ENDBRANCH  12  15
ENDBRANCH  11  12
ENDBRANCH   8  11
ENDBRANCH   7   8
ENDBRANCH   6   7
ENDBRANCH   5   6
ENDBRANCH   2   5
TORSDOF 10
ENDMDL
MODEL      241
REMARK 921   NORMALIZED FREE ENERGY PREDICTED BY IDOCK:   -3.53 KCAL/MOL
REMARK 922        TOTAL FREE ENERGY PREDICTED BY IDOCK:   -6.53 KCAL/MOL
REMARK 923 INTER-LIGAND FREE ENERGY PREDICTED BY IDOCK:   -5.72 KCAL/MOL
REMARK 924 INTRA-LIGAND FREE ENERGY PREDICTED BY IDOCK:   -0.81 KCAL/MOL
REMARK 927      BINDING AFFINITY PREDICTED BY RF-SCORE:    0.00 PKD
ROOT
HETATM    1  C   UNL     1      -7.090  18.860  66.629  1.00  0.00    -0.212 C  
HETATM    2  N   UNL     1      -8.122  17.877  67.138  1.00  0.00    -0.208 N  
HETATM    3  C   UNL     1      -8.293  18.018  68.640  1.00  0.00    -0.272 C  
HETATM    4  C   UNL     1      -9.473  18.185  66.470  1.00  0.00    -0.304 C  
ENDROOT
BRANCH   2   5
HETATM    5  C   UNL     1      -7.637  16.453  66.767  1.00  0.00    -0.255 C  
BRANCH   5   6
HETATM    6  C   UNL     1      -8.000  15.375  67.772  1.00  0.00    -0.146 C  
BRANCH   6   7
HETATM    7  O   UNL     1      -7.994  14.115  67.132  1.00  0.00    -0.168 OA 
BRANCH   7   8
HETATM    8  P   UNL     1      -6.995  13.011  68.013  1.00  0.00    -0.153 P  
HETATM    9  O   UNL     1      -7.931  11.888  67.586  1.00  0.00    -0.129 OA 
HETATM   10  O   UNL     1      -7.304  13.818  69.279  1.00  0.00    -0.040 OA 
BRANCH   8  11
HETATM   11  O   UNL     1      -5.994  11.908  68.894  1.00  0.00    -0.051 OA 
BRANCH  11  12
HETATM   12  P   UNL     1      -6.969  10.630  69.532  1.00  0.00    -0.130 P  
HETATM   13  O   UNL     1      -6.054   9.556  68.683  1.00  0.00    -0.043 OA 
HETATM   14  O   UNL     1      -6.202  10.762  70.865  1.00  0.00    -0.342 OA 
BRANCH  12  15
HETATM   15  O   UNL     1      -7.945   9.351  70.171  1.00  0.00    -0.112 OA 
BRANCH  15  16
HETATM   16  C   UNL     1      -9.103   9.768  70.920  1.00  0.00     0.390 C  
BRANCH  16  17
HETATM   17  C   UNL     1     -10.292   8.832  70.768  1.00  0.00    -0.213 C  
HETATM   18  O   UNL     1     -10.207   8.134  69.523  1.00  0.00    -0.202 OA 
HETATM   19  C   UNL     1     -10.998   6.953  69.659  1.00  0.00    -0.259 C  
HETATM   20  H   UNL     1     -11.315   7.613  73.616  1.00  0.00     0.000 HD 
HETATM   21  C   UNL     1     -10.980   6.568  71.153  1.00  0.00    -0.266 C  
HETATM   22  H   UNL     1     -12.270   5.999  72.584  1.00  0.00     0.000 HD 
HETATM   23  C   UNL     1     -10.410   7.792  71.866  1.00  0.00    -0.207 C  
HETATM   24  O   UNL     1     -12.281   6.236  71.664  1.00  0.00    -0.279 OA 
HETATM   25  O   UNL     1     -11.240   8.264  72.928  1.00  0.00    -0.337 OA 
BRANCH  19  26
HETATM   26  N   UNL     1     -10.520   5.909  68.749  1.00  0.00    -0.222 N  
HETATM   27  C   UNL     1      -9.842   4.807  69.216  1.00  0.00    -0.199 C  
HETATM   28  C   UNL     1      -9.319   3.917  68.381  1.00  0.00    -0.222 C  
HETATM   29  C   UNL     1      -9.503   4.196  66.946  1.00  0.00    -0.191 C  
HETATM   30  N   UNL     1     -10.142   5.230  66.493  1.00  0.00    -0.205 N  
HETATM   31  N   UNL     1      -8.967   3.339  66.023  1.00  0.00    -0.139 NA 
HETATM   32  H   UNL     1     -10.250   5.366  65.488  1.00  0.00     0.000 HD 
HETATM   33  C   UNL     1     -10.674   6.144  67.377  1.00  0.00    -0.322 C  
HETATM   34  H1  UNL     1      -9.094   3.532  65.030  1.00  0.00     0.000 HD 
HETATM   35  H2  UNL     1      -8.446   2.516  66.326  1.00  0.00     0.000 HD 
HETATM   36  O   UNL     1     -11.269   7.145  66.973  1.00  0.00    -0.277 OA 
ENDBRANCH  19  26
ENDBRANCH  16  17
ENDBRANCH  15  16
ENDBRANCH  12  15
ENDBRANCH  11  12
ENDBRANCH   8  11
ENDBRANCH   7   8
ENDBRANCH   6   7
ENDBRANCH   5   6
ENDBRANCH   2   5
TORSDOF 10
ENDMDL
MODEL      242
REMARK 921   NORMALIZED FREE ENERGY PREDICTED BY IDOCK:   -3.50 KCAL/MOL
REMARK 922        TOTAL FREE ENERGY PREDICTED BY IDOCK:   -6.49 KCAL/MOL
REMARK 923 INTER-LIGAND FREE ENERGY PREDICTED BY IDOCK:   -5.47 KCAL/MOL
REMARK 924 INTRA-LIGAND FREE ENERGY PREDICTED BY IDOCK:   -1.02 KCAL/MOL
REMARK 927      BINDING AFFINITY PREDICTED BY RF-SCORE:    0.00 PKD
ROOT
HETATM    1  C   UNL     1     -12.402  14.633  64.293  1.00  0.00    -0.349 C  
HETATM    2  N   UNL     1     -11.356  14.204  65.300  1.00  0.00    -0.317 N  
HETATM    3  C   UNL     1     -11.935  14.219  66.704  1.00  0.00    -0.430 C  
HETATM    4  C   UNL     1     -10.917  12.765  64.977  1.00  0.00    -0.289 C  
ENDROOT
BRANCH   2   5
HETATM    5  C   UNL     1     -10.161  15.182  65.183  1.00  0.00    -0.296 C  
BRANCH   5   6
HETATM    6  C   UNL     1     -10.506  16.640  65.430  1.00  0.00    -0.233 C  
BRANCH   6   7
HETATM    7  O   UNL     1      -9.316  17.373  65.645  1.00  0.00    -0.496 OA 
BRANCH   7   8
HETATM    8  P   UNL     1      -8.679  17.017  67.214  1.00  0.00    -0.209 P  
HETATM    9  O   UNL     1      -9.786  17.877  67.811  1.00  0.00    -0.269 OA 
HETATM   10  O   UNL     1      -7.364  17.670  66.774  1.00  0.00    -0.180 OA 
BRANCH   8  11
HETATM   11  O   UNL     1      -8.042  16.660  68.782  1.00  0.00    -0.226 OA 
BRANCH  11  12
HETATM   12  P   UNL     1      -7.912  14.947  68.975  1.00  0.00    -0.139 P  
HETATM   13  O   UNL     1      -9.383  14.956  69.716  1.00  0.00    -0.002 OA 
HETATM   14  O   UNL     1      -8.277  14.790  67.484  1.00  0.00    -0.158 OA 
BRANCH  12  15
HETATM   15  O   UNL     1      -7.783  13.232  69.169  1.00  0.00     0.092 OA 
BRANCH  15  16
HETATM   16  C   UNL     1      -8.700  12.448  68.380  1.00  0.00    -0.132 C  
BRANCH  16  17
HETATM   17  C   UNL     1      -8.566  10.950  68.608  1.00  0.00    -0.153 C  
HETATM   18  O   UNL     1      -8.784  10.248  67.382  1.00  0.00    -0.128 OA 
HETATM   19  C   UNL     1      -8.156   8.973  67.520  1.00  0.00    -0.108 C  
HETATM   20  H   UNL     1      -6.375  10.211  70.910  1.00  0.00     0.000 HD 
HETATM   21  C   UNL     1      -6.982   9.153  68.505  1.00  0.00    -0.067 C  
HETATM   22  H   UNL     1      -6.200   8.233  70.111  1.00  0.00     0.000 HD 
HETATM   23  C   UNL     1      -7.214  10.519  69.145  1.00  0.00    -0.099 C  
HETATM   24  O   UNL     1      -6.923   8.122  69.505  1.00  0.00    -0.048 OA 
HETATM   25  O   UNL     1      -7.221  10.481  70.573  1.00  0.00    -0.232 OA 
BRANCH  19  26
HETATM   26  N   UNL     1      -7.782   8.441  66.208  1.00  0.00    -0.092 N  
HETATM   27  C   UNL     1      -6.860   9.081  65.412  1.00  0.00    -0.073 C  
HETATM   28  C   UNL     1      -6.601   8.656  64.181  1.00  0.00    -0.071 C  
HETATM   29  C   UNL     1      -7.367   7.478  63.734  1.00  0.00    -0.093 C  
HETATM   30  N   UNL     1      -8.237   6.865  64.475  1.00  0.00    -0.302 N  
HETATM   31  N   UNL     1      -7.176   6.998  62.467  1.00  0.00    -0.061 NA 
HETATM   32  H   UNL     1      -8.728   6.046  64.118  1.00  0.00     0.000 HD 
HETATM   33  C   UNL     1      -8.493   7.326  65.748  1.00  0.00    -0.143 C  
HETATM   34  H1  UNL     1      -7.705   6.183  62.157  1.00  0.00     0.000 HD 
HETATM   35  H2  UNL     1      -6.511   7.450  61.839  1.00  0.00     0.000 HD 
HETATM   36  O   UNL     1      -9.329   6.773  66.467  1.00  0.00    -0.161 OA 
ENDBRANCH  19  26
ENDBRANCH  16  17
ENDBRANCH  15  16
ENDBRANCH  12  15
ENDBRANCH  11  12
ENDBRANCH   8  11
ENDBRANCH   7   8
ENDBRANCH   6   7
ENDBRANCH   5   6
ENDBRANCH   2   5
TORSDOF 10
ENDMDL
MODEL      243
REMARK 921   NORMALIZED FREE ENERGY PREDICTED BY IDOCK:   -3.44 KCAL/MOL
REMARK 922        TOTAL FREE ENERGY PREDICTED BY IDOCK:   -6.38 KCAL/MOL
REMARK 923 INTER-LIGAND FREE ENERGY PREDICTED BY IDOCK:   -6.03 KCAL/MOL
REMARK 924 INTRA-LIGAND FREE ENERGY PREDICTED BY IDOCK:   -0.35 KCAL/MOL
REMARK 927      BINDING AFFINITY PREDICTED BY RF-SCORE:    0.00 PKD
ROOT
HETATM    1  C   UNL     1     -10.880  12.419  64.256  1.00  0.00    -0.355 C  
HETATM    2  N   UNL     1     -10.705  13.246  65.512  1.00  0.00    -0.283 N  
HETATM    3  C   UNL     1      -9.416  12.869  66.221  1.00  0.00    -0.200 C  
HETATM    4  C   UNL     1     -10.621  14.731  65.120  1.00  0.00    -0.417 C  
ENDROOT
BRANCH   2   5
HETATM    5  C   UNL     1     -11.933  12.986  66.420  1.00  0.00    -0.402 C  
BRANCH   5   6
HETATM    6  C   UNL     1     -11.644  12.155  67.657  1.00  0.00    -0.343 C  
BRANCH   6   7
HETATM    7  O   UNL     1     -11.892  12.932  68.812  1.00  0.00    -0.306 OA 
BRANCH   7   8
HETATM    8  P   UNL     1     -11.974  11.908  70.205  1.00  0.00    -0.187 P  
HETATM    9  O   UNL     1     -12.796  10.925  69.381  1.00  0.00    -0.201 OA 
HETATM   10  O   UNL     1     -12.677  13.052  70.944  1.00  0.00    -0.299 OA 
BRANCH   8  11
HETATM   11  O   UNL     1     -12.055  10.884  71.597  1.00  0.00    -0.158 OA 
BRANCH  11  12
HETATM   12  P   UNL     1     -12.038   9.229  71.096  1.00  0.00    -0.292 P  
HETATM   13  O   UNL     1     -10.698   8.999  72.026  1.00  0.00    -0.349 OA 
HETATM   14  O   UNL     1     -13.194   8.959  72.083  1.00  0.00    -0.369 OA 
BRANCH  12  15
HETATM   15  O   UNL     1     -12.020   7.572  70.596  1.00  0.00    -0.241 OA 
BRANCH  15  16
HETATM   16  C   UNL     1     -10.972   6.763  71.165  1.00  0.00    -0.257 C  
BRANCH  16  17
HETATM   17  C   UNL     1      -9.838   6.471  70.194  1.00  0.00    -0.166 C  
HETATM   18  O   UNL     1      -9.477   7.663  69.492  1.00  0.00    -0.153 OA 
HETATM   19  C   UNL     1      -8.142   7.474  69.021  1.00  0.00    -0.127 C  
HETATM   20  H   UNL     1      -7.806   4.161  71.281  1.00  0.00     0.000 HD 
HETATM   21  C   UNL     1      -7.448   6.510  70.007  1.00  0.00    -0.094 C  
HETATM   22  H   UNL     1      -6.284   4.874  69.956  1.00  0.00     0.000 HD 
HETATM   23  C   UNL     1      -8.581   5.929  70.849  1.00  0.00    -0.131 C  
HETATM   24  O   UNL     1      -6.711   5.467  69.349  1.00  0.00    -0.054 OA 
HETATM   25  O   UNL     1      -8.593   4.501  70.871  1.00  0.00    -0.090 OA 
BRANCH  19  26
HETATM   26  N   UNL     1      -7.472   8.766  68.850  1.00  0.00    -0.081 N  
HETATM   27  C   UNL     1      -7.226   9.285  67.600  1.00  0.00    -0.083 C  
HETATM   28  C   UNL     1      -6.527  10.403  67.445  1.00  0.00    -0.066 C  
HETATM   29  C   UNL     1      -6.034  11.030  68.685  1.00  0.00    -0.042 C  
HETATM   30  N   UNL     1      -6.262  10.551  69.870  1.00  0.00    -0.075 N  
HETATM   31  N   UNL     1      -5.282  12.170  68.606  1.00  0.00    -0.050 NA 
HETATM   32  H   UNL     1      -5.906  11.034  70.694  1.00  0.00     0.000 HD 
HETATM   33  C   UNL     1      -6.986   9.387  70.007  1.00  0.00    -0.071 C  
HETATM   34  H1  UNL     1      -4.941  12.603  69.463  1.00  0.00     0.000 HD 
HETATM   35  H2  UNL     1      -5.064  12.582  67.698  1.00  0.00     0.000 HD 
HETATM   36  O   UNL     1      -7.201   8.901  71.120  1.00  0.00    -0.087 OA 
ENDBRANCH  19  26
ENDBRANCH  16  17
ENDBRANCH  15  16
ENDBRANCH  12  15
ENDBRANCH  11  12
ENDBRANCH   8  11
ENDBRANCH   7   8
ENDBRANCH   6   7
ENDBRANCH   5   6
ENDBRANCH   2   5
TORSDOF 10
ENDMDL
MODEL      244
REMARK 921   NORMALIZED FREE ENERGY PREDICTED BY IDOCK:   -3.44 KCAL/MOL
REMARK 922        TOTAL FREE ENERGY PREDICTED BY IDOCK:   -6.38 KCAL/MOL
REMARK 923 INTER-LIGAND FREE ENERGY PREDICTED BY IDOCK:   -6.15 KCAL/MOL
REMARK 924 INTRA-LIGAND FREE ENERGY PREDICTED BY IDOCK:   -0.22 KCAL/MOL
REMARK 927      BINDING AFFINITY PREDICTED BY RF-SCORE:    0.00 PKD
ROOT
HETATM    1  C   UNL     1      -8.168  19.501  65.882  1.00  0.00    -0.164 C  
HETATM    2  N   UNL     1      -9.236  19.403  66.950  1.00  0.00    -0.309 N  
HETATM    3  C   UNL     1      -8.601  19.278  68.325  1.00  0.00    -0.338 C  
HETATM    4  C   UNL     1     -10.080  20.689  66.927  1.00  0.00    -0.116 C  
ENDROOT
BRANCH   2   5
HETATM    5  C   UNL     1     -10.110  18.166  66.629  1.00  0.00    -0.373 C  
BRANCH   5   6
HETATM    6  C   UNL     1     -10.388  17.259  67.813  1.00  0.00    -0.356 C  
BRANCH   6   7
HETATM    7  O   UNL     1      -9.662  16.055  67.663  1.00  0.00    -0.222 OA 
BRANCH   7   8
HETATM    8  P   UNL     1     -10.486  15.002  66.565  1.00  0.00    -0.302 P  
HETATM    9  O   UNL     1     -10.481  13.934  67.651  1.00  0.00    -0.242 OA 
HETATM   10  O   UNL     1      -9.286  15.130  65.619  1.00  0.00    -0.268 OA 
BRANCH   8  11
HETATM   11  O   UNL     1     -11.311  13.951  65.466  1.00  0.00    -0.302 OA 
BRANCH  11  12
HETATM   12  P   UNL     1     -11.282  12.336  66.083  1.00  0.00    -0.357 P  
HETATM   13  O   UNL     1     -12.842  12.156  65.584  1.00  0.00     0.062 OA 
HETATM   14  O   UNL     1     -10.471  11.916  64.840  1.00  0.00    -0.264 OA 
BRANCH  12  15
HETATM   15  O   UNL     1     -11.255  10.719  66.701  1.00  0.00    -0.173 OA 
BRANCH  15  16
HETATM   16  C   UNL     1      -9.944  10.163  66.924  1.00  0.00    -0.207 C  
BRANCH  16  17
HETATM   17  C   UNL     1      -9.611   9.971  68.396  1.00  0.00    -0.145 C  
HETATM   18  O   UNL     1     -10.124   8.717  68.853  1.00  0.00    -0.191 OA 
HETATM   19  C   UNL     1      -9.370   8.362  70.013  1.00  0.00    -0.159 C  
HETATM   20  H   UNL     1      -6.769  11.334  69.238  1.00  0.00     0.000 HD 
HETATM   21  C   UNL     1      -7.974   9.003  69.856  1.00  0.00    -0.103 C  
HETATM   22  H   UNL     1      -6.663  10.058  70.953  1.00  0.00     0.000 HD 
HETATM   23  C   UNL     1      -8.127   9.997  68.707  1.00  0.00    -0.106 C  
HETATM   24  O   UNL     1      -7.522   9.663  71.049  1.00  0.00    -0.327 OA 
HETATM   25  O   UNL     1      -7.699  11.317  69.043  1.00  0.00    -0.135 OA 
BRANCH  19  26
HETATM   26  N   UNL     1      -9.363   6.908  70.194  1.00  0.00    -0.159 N  
HETATM   27  C   UNL     1      -9.743   6.333  71.384  1.00  0.00    -0.173 C  
HETATM   28  C   UNL     1      -9.636   5.024  71.580  1.00  0.00    -0.210 C  
HETATM   29  C   UNL     1      -9.080   4.249  70.456  1.00  0.00    -0.106 C  
HETATM   30  N   UNL     1      -8.719   4.780  69.328  1.00  0.00    -0.082 N  
HETATM   31  N   UNL     1      -8.912   2.898  70.592  1.00  0.00    -0.089 NA 
HETATM   32  H   UNL     1      -8.352   4.193  68.580  1.00  0.00     0.000 HD 
HETATM   33  C   UNL     1      -8.836   6.141  69.148  1.00  0.00    -0.123 C  
HETATM   34  H1  UNL     1      -8.527   2.362  69.815  1.00  0.00     0.000 HD 
HETATM   35  H2  UNL     1      -9.169   2.432  71.463  1.00  0.00     0.000 HD 
HETATM   36  O   UNL     1      -8.483   6.674  68.093  1.00  0.00    -0.116 OA 
ENDBRANCH  19  26
ENDBRANCH  16  17
ENDBRANCH  15  16
ENDBRANCH  12  15
ENDBRANCH  11  12
ENDBRANCH   8  11
ENDBRANCH   7   8
ENDBRANCH   6   7
ENDBRANCH   5   6
ENDBRANCH   2   5
TORSDOF 10
ENDMDL
MODEL      245
REMARK 921   NORMALIZED FREE ENERGY PREDICTED BY IDOCK:   -3.41 KCAL/MOL
REMARK 922        TOTAL FREE ENERGY PREDICTED BY IDOCK:   -6.34 KCAL/MOL
REMARK 923 INTER-LIGAND FREE ENERGY PREDICTED BY IDOCK:   -5.91 KCAL/MOL
REMARK 924 INTRA-LIGAND FREE ENERGY PREDICTED BY IDOCK:   -0.43 KCAL/MOL
REMARK 927      BINDING AFFINITY PREDICTED BY RF-SCORE:    0.00 PKD
ROOT
HETATM    1  C   UNL     1      -9.244   2.058  71.022  1.00  0.00    -0.111 C  
HETATM    2  N   UNL     1      -8.466   3.093  70.237  1.00  0.00    -0.055 N  
HETATM    3  C   UNL     1      -7.904   4.153  71.168  1.00  0.00    -0.071 C  
HETATM    4  C   UNL     1      -7.288   2.400  69.533  1.00  0.00    -0.043 C  
ENDROOT
BRANCH   2   5
HETATM    5  C   UNL     1      -9.433   3.721  69.202  1.00  0.00    -0.172 C  
BRANCH   5   6
HETATM    6  C   UNL     1      -8.875   3.827  67.794  1.00  0.00    -0.114 C  
BRANCH   6   7
HETATM    7  O   UNL     1      -9.726   4.642  67.012  1.00  0.00    -0.166 OA 
BRANCH   7   8
HETATM    8  P   UNL     1      -8.788   5.794  66.126  1.00  0.00    -0.146 P  
HETATM    9  O   UNL     1      -8.533   4.717  65.079  1.00  0.00    -0.122 OA 
HETATM   10  O   UNL     1      -7.863   5.905  67.343  1.00  0.00    -0.100 OA 
BRANCH   8  11
HETATM   11  O   UNL     1      -7.850   6.947  65.239  1.00  0.00    -0.103 OA 
BRANCH  11  12
HETATM   12  P   UNL     1      -8.428   8.541  65.577  1.00  0.00    -0.165 P  
HETATM   13  O   UNL     1      -6.863   9.045  65.684  1.00  0.00    -0.074 OA 
HETATM   14  O   UNL     1      -8.742   8.705  64.075  1.00  0.00    -0.076 OA 
BRANCH  12  15
HETATM   15  O   UNL     1      -9.004  10.137  65.916  1.00  0.00    -0.148 OA 
BRANCH  15  16
HETATM   16  C   UNL     1      -9.774  10.275  67.127  1.00  0.00    -0.173 C  
BRANCH  16  17
HETATM   17  C   UNL     1     -10.959  11.218  66.986  1.00  0.00    -0.294 C  
HETATM   18  O   UNL     1     -11.348  11.708  68.272  1.00  0.00    -0.237 OA 
HETATM   19  C   UNL     1     -12.065  12.923  68.049  1.00  0.00    -0.152 C  
HETATM   20  H   UNL     1     -10.910  12.904  64.194  1.00  0.00     0.000 HD 
HETATM   21  C   UNL     1     -11.515  13.537  66.744  1.00  0.00    -0.346 C  
HETATM   22  H   UNL     1     -12.213  14.369  65.053  1.00  0.00     0.000 HD 
HETATM   23  C   UNL     1     -10.697  12.421  66.100  1.00  0.00    -0.260 C  
HETATM   24  O   UNL     1     -12.551  13.991  65.857  1.00  0.00    -0.488 OA 
HETATM   25  O   UNL     1     -11.074  12.151  64.749  1.00  0.00    -0.299 OA 
BRANCH  19  26
HETATM   26  N   UNL     1     -11.974  13.793  69.224  1.00  0.00    -0.340 N  
HETATM   27  C   UNL     1     -11.282  14.982  69.183  1.00  0.00    -0.281 C  
HETATM   28  C   UNL     1     -11.112  15.716  70.276  1.00  0.00    -0.361 C  
HETATM   29  C   UNL     1     -11.698  15.171  71.514  1.00  0.00    -0.390 C  
HETATM   30  N   UNL     1     -12.354  14.053  71.565  1.00  0.00    -0.323 N  
HETATM   31  N   UNL     1     -11.541  15.857  72.688  1.00  0.00    -0.381 NA 
HETATM   32  H   UNL     1     -12.749  13.731  72.448  1.00  0.00     0.000 HD 
HETATM   33  C   UNL     1     -12.515  13.305  70.419  1.00  0.00    -0.225 C  
HETATM   34  H1  UNL     1     -11.945  15.480  73.544  1.00  0.00     0.000 HD 
HETATM   35  H2  UNL     1     -11.023  16.736  72.706  1.00  0.00     0.000 HD 
HETATM   36  O   UNL     1     -13.118  12.229  70.443  1.00  0.00     0.301 OA 
ENDBRANCH  19  26
ENDBRANCH  16  17
ENDBRANCH  15  16
ENDBRANCH  12  15
ENDBRANCH  11  12
ENDBRANCH   8  11
ENDBRANCH   7   8
ENDBRANCH   6   7
ENDBRANCH   5   6
ENDBRANCH   2   5
TORSDOF 10
ENDMDL
MODEL      246
REMARK 921   NORMALIZED FREE ENERGY PREDICTED BY IDOCK:   -3.40 KCAL/MOL
REMARK 922        TOTAL FREE ENERGY PREDICTED BY IDOCK:   -6.33 KCAL/MOL
REMARK 923 INTER-LIGAND FREE ENERGY PREDICTED BY IDOCK:   -5.46 KCAL/MOL
REMARK 924 INTRA-LIGAND FREE ENERGY PREDICTED BY IDOCK:   -0.87 KCAL/MOL
REMARK 927      BINDING AFFINITY PREDICTED BY RF-SCORE:    0.00 PKD
ROOT
HETATM    1  C   UNL     1     -12.271  15.720  72.314  1.00  0.00    -0.462 C  
HETATM    2  N   UNL     1     -12.117  15.115  70.935  1.00  0.00    -0.305 N  
HETATM    3  C   UNL     1     -12.376  13.619  70.981  1.00  0.00    -0.354 C  
HETATM    4  C   UNL     1     -13.153  15.753  69.994  1.00  0.00     0.575 C  
ENDROOT
BRANCH   2   5
HETATM    5  C   UNL     1     -10.677  15.413  70.450  1.00  0.00    -0.286 C  
BRANCH   5   6
HETATM    6  C   UNL     1     -10.165  14.481  69.367  1.00  0.00    -0.035 C  
BRANCH   6   7
HETATM    7  O   UNL     1     -10.604  14.942  68.105  1.00  0.00    -0.238 OA 
BRANCH   7   8
HETATM    8  P   UNL     1     -10.712  13.617  66.998  1.00  0.00    -0.280 P  
HETATM    9  O   UNL     1     -10.774  14.628  65.859  1.00  0.00    -0.289 OA 
HETATM   10  O   UNL     1     -12.003  13.193  67.708  1.00  0.00    -0.350 OA 
BRANCH   8  11
HETATM   11  O   UNL     1     -10.820  12.291  65.891  1.00  0.00    -0.255 OA 
BRANCH  11  12
HETATM   12  P   UNL     1      -9.591  11.132  66.259  1.00  0.00    -0.225 P  
HETATM   13  O   UNL     1      -8.962  12.199  67.345  1.00  0.00    -0.167 OA 
HETATM   14  O   UNL     1     -10.628  10.356  67.098  1.00  0.00    -0.241 OA 
BRANCH  12  15
HETATM   15  O   UNL     1      -8.360   9.973  66.629  1.00  0.00    -0.124 OA 
BRANCH  15  16
HETATM   16  C   UNL     1      -7.442  10.354  67.673  1.00  0.00    -0.089 C  
BRANCH  16  17
HETATM   17  C   UNL     1      -7.890   9.919  69.060  1.00  0.00    -0.095 C  
HETATM   18  O   UNL     1      -8.652   8.713  68.971  1.00  0.00    -0.127 OA 
HETATM   19  C   UNL     1      -8.593   8.093  70.257  1.00  0.00    -0.131 C  
HETATM   20  H   UNL     1      -5.736  10.693  71.385  1.00  0.00     0.000 HD 
HETATM   21  C   UNL     1      -7.258   8.520  70.902  1.00  0.00    -0.065 C  
HETATM   22  H   UNL     1      -6.580   9.201  72.666  1.00  0.00     0.000 HD 
HETATM   23  C   UNL     1      -6.752   9.669  70.032  1.00  0.00    -0.079 C  
HETATM   24  O   UNL     1      -7.402   8.938  72.269  1.00  0.00    -0.328 OA 
HETATM   25  O   UNL     1      -6.448  10.849  70.776  1.00  0.00    -0.339 OA 
BRANCH  19  26
HETATM   26  N   UNL     1      -8.783   6.646  70.136  1.00  0.00    -0.140 N  
HETATM   27  C   UNL     1      -7.728   5.805  69.871  1.00  0.00    -0.087 C  
HETATM   28  C   UNL     1      -7.918   4.508  69.658  1.00  0.00    -0.061 C  
HETATM   29  C   UNL     1      -9.317   4.046  69.715  1.00  0.00    -0.172 C  
HETATM   30  N   UNL     1     -10.321   4.829  69.966  1.00  0.00    -0.194 N  
HETATM   31  N   UNL     1      -9.597   2.728  69.478  1.00  0.00    -0.067 NA 
HETATM   32  H   UNL     1     -11.267   4.452  70.005  1.00  0.00     0.000 HD 
HETATM   33  C   UNL     1     -10.100   6.173  70.180  1.00  0.00    -0.184 C  
HETATM   34  H1  UNL     1     -10.565   2.409  69.517  1.00  0.00     0.000 HD 
HETATM   35  H2  UNL     1      -8.846   2.072  69.265  1.00  0.00     0.000 HD 
HETATM   36  O   UNL     1     -11.038   6.942  70.402  1.00  0.00    -0.264 OA 
ENDBRANCH  19  26
ENDBRANCH  16  17
ENDBRANCH  15  16
ENDBRANCH  12  15
ENDBRANCH  11  12
ENDBRANCH   8  11
ENDBRANCH   7   8
ENDBRANCH   6   7
ENDBRANCH   5   6
ENDBRANCH   2   5
TORSDOF 10
ENDMDL
MODEL      247
REMARK 921   NORMALIZED FREE ENERGY PREDICTED BY IDOCK:   -3.40 KCAL/MOL
REMARK 922        TOTAL FREE ENERGY PREDICTED BY IDOCK:   -6.32 KCAL/MOL
REMARK 923 INTER-LIGAND FREE ENERGY PREDICTED BY IDOCK:   -5.49 KCAL/MOL
REMARK 924 INTRA-LIGAND FREE ENERGY PREDICTED BY IDOCK:   -0.83 KCAL/MOL
REMARK 927      BINDING AFFINITY PREDICTED BY RF-SCORE:    0.00 PKD
ROOT
HETATM    1  C   UNL     1     -12.423  10.136  69.209  1.00  0.00     0.776 C  
HETATM    2  N   UNL     1     -11.689  10.746  70.384  1.00  0.00    -0.328 N  
HETATM    3  C   UNL     1     -12.319  10.300  71.692  1.00  0.00    -0.349 C  
HETATM    4  C   UNL     1     -10.230  10.261  70.365  1.00  0.00     0.078 C  
ENDROOT
BRANCH   2   5
HETATM    5  C   UNL     1     -11.758  12.286  70.232  1.00  0.00    -0.137 C  
BRANCH   5   6
HETATM    6  C   UNL     1     -11.705  12.787  68.800  1.00  0.00    -0.323 C  
BRANCH   6   7
HETATM    7  O   UNL     1     -10.381  13.172  68.486  1.00  0.00    -0.247 OA 
BRANCH   7   8
HETATM    8  P   UNL     1      -9.852  12.352  67.058  1.00  0.00    -0.219 P  
HETATM    9  O   UNL     1      -8.952  13.544  66.758  1.00  0.00    -0.233 OA 
HETATM   10  O   UNL     1     -11.306  12.358  66.574  1.00  0.00    -0.300 OA 
BRANCH   8  11
HETATM   11  O   UNL     1      -9.321  11.531  65.630  1.00  0.00    -0.224 OA 
BRANCH  11  12
HETATM   12  P   UNL     1      -8.371  10.157  66.076  1.00  0.00    -0.140 P  
HETATM   13  O   UNL     1      -9.737   9.446  66.659  1.00  0.00    -0.186 OA 
HETATM   14  O   UNL     1      -8.364   9.729  64.593  1.00  0.00    -0.141 OA 
BRANCH  12  15
HETATM   15  O   UNL     1      -7.420   8.782  66.522  1.00  0.00    -0.083 OA 
BRANCH  15  16
HETATM   16  C   UNL     1      -6.884   8.805  67.859  1.00  0.00    -0.070 C  
BRANCH  16  17
HETATM   17  C   UNL     1      -7.145   7.525  68.639  1.00  0.00    -0.081 C  
HETATM   18  O   UNL     1      -8.065   7.781  69.703  1.00  0.00    -0.117 OA 
HETATM   19  C   UNL     1      -8.657   6.527  70.045  1.00  0.00    -0.140 C  
HETATM   20  H   UNL     1      -7.031   4.857  66.765  1.00  0.00     0.000 HD 
HETATM   21  C   UNL     1      -8.647   5.660  68.769  1.00  0.00    -0.104 C  
HETATM   22  H   UNL     1      -8.181   3.785  68.218  1.00  0.00     0.000 HD 
HETATM   23  C   UNL     1      -7.716   6.393  67.805  1.00  0.00    -0.103 C  
HETATM   24  O   UNL     1      -8.188   4.319  69.004  1.00  0.00    -0.071 OA 
HETATM   25  O   UNL     1      -6.674   5.566  67.287  1.00  0.00    -0.055 OA 
BRANCH  19  26
HETATM   26  N   UNL     1      -9.981   6.732  70.639  1.00  0.00    -0.187 N  
HETATM   27  C   UNL     1     -10.137   6.919  71.993  1.00  0.00    -0.185 C  
HETATM   28  C   UNL     1     -11.344   6.999  72.542  1.00  0.00    -0.301 C  
HETATM   29  C   UNL     1     -12.481   6.863  71.614  1.00  0.00    -0.375 C  
HETATM   30  N   UNL     1     -12.347   6.688  70.335  1.00  0.00    -0.477 N  
HETATM   31  N   UNL     1     -13.757   6.906  72.108  1.00  0.00    -0.538 NA 
HETATM   32  H   UNL     1     -13.171   6.613  69.739  1.00  0.00     0.000 HD 
HETATM   33  C   UNL     1     -11.085   6.604  69.788  1.00  0.00    -0.342 C  
HETATM   34  H1  UNL     1     -14.543   6.812  71.467  1.00  0.00     0.000 HD 
HETATM   35  H2  UNL     1     -13.918   7.031  73.108  1.00  0.00     0.000 HD 
HETATM   36  O   UNL     1     -10.929   6.420  68.578  1.00  0.00    -0.290 OA 
ENDBRANCH  19  26
ENDBRANCH  16  17
ENDBRANCH  15  16
ENDBRANCH  12  15
ENDBRANCH  11  12
ENDBRANCH   8  11
ENDBRANCH   7   8
ENDBRANCH   6   7
ENDBRANCH   5   6
ENDBRANCH   2   5
TORSDOF 10
ENDMDL
MODEL      248
REMARK 921   NORMALIZED FREE ENERGY PREDICTED BY IDOCK:   -3.40 KCAL/MOL
REMARK 922        TOTAL FREE ENERGY PREDICTED BY IDOCK:   -6.32 KCAL/MOL
REMARK 923 INTER-LIGAND FREE ENERGY PREDICTED BY IDOCK:   -5.86 KCAL/MOL
REMARK 924 INTRA-LIGAND FREE ENERGY PREDICTED BY IDOCK:   -0.46 KCAL/MOL
REMARK 927      BINDING AFFINITY PREDICTED BY RF-SCORE:    0.00 PKD
ROOT
HETATM    1  C   UNL     1      -7.821   7.180  72.216  1.00  0.00    -0.090 C  
HETATM    2  N   UNL     1      -8.509   7.858  71.051  1.00  0.00    -0.120 N  
HETATM    3  C   UNL     1      -9.981   8.074  71.358  1.00  0.00    -0.178 C  
HETATM    4  C   UNL     1      -7.861   9.234  70.823  1.00  0.00    -0.145 C  
ENDROOT
BRANCH   2   5
HETATM    5  C   UNL     1      -8.329   6.952  69.807  1.00  0.00    -0.132 C  
BRANCH   5   6
HETATM    6  C   UNL     1      -8.056   7.696  68.513  1.00  0.00    -0.124 C  
BRANCH   6   7
HETATM    7  O   UNL     1      -9.152   7.530  67.635  1.00  0.00    -0.126 OA 
BRANCH   7   8
HETATM    8  P   UNL     1      -9.290   8.908  66.597  1.00  0.00    -0.221 P  
HETATM    9  O   UNL     1     -10.804   8.751  66.661  1.00  0.00    -0.079 OA 
HETATM   10  O   UNL     1      -8.490   8.133  65.544  1.00  0.00    -0.148 OA 
BRANCH   8  11
HETATM   11  O   UNL     1      -9.428  10.286  65.560  1.00  0.00    -0.189 OA 
BRANCH  11  12
HETATM   12  P   UNL     1      -9.210  11.729  66.487  1.00  0.00    -0.197 P  
HETATM   13  O   UNL     1      -7.581  11.534  66.339  1.00  0.00    -0.091 OA 
HETATM   14  O   UNL     1      -9.576  12.546  65.230  1.00  0.00    -0.114 OA 
BRANCH  12  15
HETATM   15  O   UNL     1      -8.991  13.173  67.415  1.00  0.00    -0.182 OA 
BRANCH  15  16
HETATM   16  C   UNL     1      -9.809  14.293  67.023  1.00  0.00    -0.254 C  
BRANCH  16  17
HETATM   17  C   UNL     1      -9.636  15.511  67.917  1.00  0.00    -0.206 C  
HETATM   18  O   UNL     1      -8.504  16.273  67.490  1.00  0.00    -0.165 OA 
HETATM   19  C   UNL     1      -8.691  17.600  67.984  1.00  0.00    -0.253 C  
HETATM   20  H   UNL     1     -12.474  16.690  69.012  1.00  0.00     0.000 HD 
HETATM   21  C   UNL     1     -10.213  17.832  68.087  1.00  0.00    -0.382 C  
HETATM   22  H   UNL     1     -11.544  18.580  69.394  1.00  0.00     0.000 HD 
HETATM   23  C   UNL     1     -10.832  16.444  67.937  1.00  0.00    -0.328 C  
HETATM   24  O   UNL     1     -10.607  18.437  69.330  1.00  0.00     0.099 OA 
HETATM   25  O   UNL     1     -11.724  16.106  68.999  1.00  0.00    -0.345 OA 
BRANCH  19  26
HETATM   26  N   UNL     1      -7.977  18.564  67.144  1.00  0.00    -0.238 N  
HETATM   27  C   UNL     1      -7.391  18.185  65.958  1.00  0.00    -0.255 C  
HETATM   28  C   UNL     1      -6.656  19.036  65.251  1.00  0.00    -0.270 C  
HETATM   29  C   UNL     1      -6.508  20.386  65.824  1.00  0.00    -0.238 C  
HETATM   30  N   UNL     1      -7.057  20.756  66.939  1.00  0.00    -0.398 N  
HETATM   31  N   UNL     1      -5.742  21.310  65.167  1.00  0.00    -0.192 NA 
HETATM   32  H   UNL     1      -6.931  21.708  67.281  1.00  0.00     0.000 HD 
HETATM   33  C   UNL     1      -7.813  19.856  67.658  1.00  0.00    -0.290 C  
HETATM   34  H1  UNL     1      -5.639  22.244  65.563  1.00  0.00     0.000 HD 
HETATM   35  H2  UNL     1      -5.278  21.068  64.291  1.00  0.00     0.000 HD 
HETATM   36  O   UNL     1      -8.330  20.176  68.731  1.00  0.00    -0.010 OA 
ENDBRANCH  19  26
ENDBRANCH  16  17
ENDBRANCH  15  16
ENDBRANCH  12  15
ENDBRANCH  11  12
ENDBRANCH   8  11
ENDBRANCH   7   8
ENDBRANCH   6   7
ENDBRANCH   5   6
ENDBRANCH   2   5
TORSDOF 10
ENDMDL
MODEL      249
REMARK 921   NORMALIZED FREE ENERGY PREDICTED BY IDOCK:   -3.38 KCAL/MOL
REMARK 922        TOTAL FREE ENERGY PREDICTED BY IDOCK:   -6.30 KCAL/MOL
REMARK 923 INTER-LIGAND FREE ENERGY PREDICTED BY IDOCK:   -6.12 KCAL/MOL
REMARK 924 INTRA-LIGAND FREE ENERGY PREDICTED BY IDOCK:   -0.17 KCAL/MOL
REMARK 927      BINDING AFFINITY PREDICTED BY RF-SCORE:    0.00 PKD
ROOT
HETATM    1  C   UNL     1      -9.579   6.790  68.859  1.00  0.00    -0.137 C  
HETATM    2  N   UNL     1      -9.585   6.128  67.498  1.00  0.00    -0.111 N  
HETATM    3  C   UNL     1     -10.283   4.780  67.568  1.00  0.00    -0.057 C  
HETATM    4  C   UNL     1     -10.363   7.020  66.516  1.00  0.00    -0.037 C  
ENDROOT
BRANCH   2   5
HETATM    5  C   UNL     1      -8.113   5.967  67.047  1.00  0.00    -0.106 C  
BRANCH   5   6
HETATM    6  C   UNL     1      -7.684   6.901  65.929  1.00  0.00    -0.098 C  
BRANCH   6   7
HETATM    7  O   UNL     1      -8.183   8.199  66.186  1.00  0.00    -0.106 OA 
BRANCH   7   8
HETATM    8  P   UNL     1      -7.059   9.081  67.162  1.00  0.00    -0.079 P  
HETATM    9  O   UNL     1      -8.151  10.114  67.411  1.00  0.00    -0.113 OA 
HETATM   10  O   UNL     1      -6.161   9.208  65.926  1.00  0.00    -0.058 OA 
BRANCH   8  11
HETATM   11  O   UNL     1      -5.935   9.961  68.139  1.00  0.00    -0.043 OA 
BRANCH  11  12
HETATM   12  P   UNL     1      -6.648  11.458  68.630  1.00  0.00    -0.074 P  
HETATM   13  O   UNL     1      -6.733  10.872  70.167  1.00  0.00    -0.160 OA 
HETATM   14  O   UNL     1      -5.244  12.098  68.581  1.00  0.00    -0.050 OA 
BRANCH  12  15
HETATM   15  O   UNL     1      -7.362  12.956  69.122  1.00  0.00     0.000 OA 
BRANCH  15  16
HETATM   16  C   UNL     1      -7.623  13.897  68.063  1.00  0.00    -0.144 C  
BRANCH  16  17
HETATM   17  C   UNL     1      -9.103  14.163  67.840  1.00  0.00    -0.189 C  
HETATM   18  O   UNL     1      -9.872  13.037  68.272  1.00  0.00    -0.223 OA 
HETATM   19  C   UNL     1     -11.193  13.515  68.530  1.00  0.00    -0.278 C  
HETATM   20  H   UNL     1      -9.892  17.309  68.197  1.00  0.00     0.000 HD 
HETATM   21  C   UNL     1     -11.064  14.997  68.941  1.00  0.00    -0.266 C  
HETATM   22  H   UNL     1     -11.934  16.761  68.532  1.00  0.00     0.000 HD 
HETATM   23  C   UNL     1      -9.634  15.383  68.569  1.00  0.00    -0.201 C  
HETATM   24  O   UNL     1     -12.013  15.848  68.279  1.00  0.00    -0.193 OA 
HETATM   25  O   UNL     1      -9.560  16.544  67.741  1.00  0.00    -0.229 OA 
BRANCH  19  26
HETATM   26  N   UNL     1     -11.863  12.660  69.513  1.00  0.00    -0.318 N  
HETATM   27  C   UNL     1     -12.155  13.116  70.777  1.00  0.00    -0.203 C  
HETATM   28  C   UNL     1     -12.666  12.308  71.699  1.00  0.00    -0.309 C  
HETATM   29  C   UNL     1     -12.884  10.912  71.279  1.00  0.00    -0.433 C  
HETATM   30  N   UNL     1     -12.615  10.470  70.089  1.00  0.00    -0.498 N  
HETATM   31  N   UNL     1     -13.382  10.011  72.181  1.00  0.00    -0.545 NA 
HETATM   32  H   UNL     1     -12.798   9.496  69.850  1.00  0.00     0.000 HD 
HETATM   33  C   UNL     1     -12.081  11.326  69.150  1.00  0.00    -0.279 C  
HETATM   34  H1  UNL     1     -13.532   9.046  71.892  1.00  0.00     0.000 HD 
HETATM   35  H2  UNL     1     -13.600  10.304  73.134  1.00  0.00     0.000 HD 
HETATM   36  O   UNL     1     -11.799  10.928  68.017  1.00  0.00    -0.585 OA 
ENDBRANCH  19  26
ENDBRANCH  16  17
ENDBRANCH  15  16
ENDBRANCH  12  15
ENDBRANCH  11  12
ENDBRANCH   8  11
ENDBRANCH   7   8
ENDBRANCH   6   7
ENDBRANCH   5   6
ENDBRANCH   2   5
TORSDOF 10
ENDMDL
MODEL      250
REMARK 921   NORMALIZED FREE ENERGY PREDICTED BY IDOCK:   -3.37 KCAL/MOL
REMARK 922        TOTAL FREE ENERGY PREDICTED BY IDOCK:   -6.27 KCAL/MOL
REMARK 923 INTER-LIGAND FREE ENERGY PREDICTED BY IDOCK:   -6.38 KCAL/MOL
REMARK 924 INTRA-LIGAND FREE ENERGY PREDICTED BY IDOCK:    0.11 KCAL/MOL
REMARK 927      BINDING AFFINITY PREDICTED BY RF-SCORE:    0.00 PKD
ROOT
HETATM    1  C   UNL     1      -6.143   6.091  69.819  1.00  0.00    -0.026 C  
HETATM    2  N   UNL     1      -7.216   5.025  69.753  1.00  0.00    -0.054 N  
HETATM    3  C   UNL     1      -6.917   3.910  70.741  1.00  0.00    -0.033 C  
HETATM    4  C   UNL     1      -8.566   5.655  70.134  1.00  0.00    -0.127 C  
ENDROOT
BRANCH   2   5
HETATM    5  C   UNL     1      -7.251   4.484  68.302  1.00  0.00    -0.064 C  
BRANCH   5   6
HETATM    6  C   UNL     1      -8.159   5.253  67.359  1.00  0.00    -0.100 C  
BRANCH   6   7
HETATM    7  O   UNL     1      -7.974   4.780  66.039  1.00  0.00    -0.101 OA 
BRANCH   7   8
HETATM    8  P   UNL     1      -8.005   6.105  64.928  1.00  0.00    -0.116 P  
HETATM    9  O   UNL     1      -6.482   6.078  64.919  1.00  0.00    -0.036 OA 
HETATM   10  O   UNL     1      -8.744   6.920  65.995  1.00  0.00    -0.141 OA 
BRANCH   8  11
HETATM   11  O   UNL     1      -8.036   7.430  63.815  1.00  0.00    -0.111 OA 
BRANCH  11  12
HETATM   12  P   UNL     1      -8.386   8.892  64.671  1.00  0.00    -0.138 P  
HETATM   13  O   UNL     1      -6.819   9.352  64.452  1.00  0.00    -0.085 OA 
HETATM   14  O   UNL     1      -9.083   9.423  63.400  1.00  0.00    -0.198 OA 
BRANCH  12  15
HETATM   15  O   UNL     1      -8.735  10.355  65.526  1.00  0.00    -0.163 OA 
BRANCH  15  16
HETATM   16  C   UNL     1      -9.833  10.283  66.456  1.00  0.00    -0.212 C  
BRANCH  16  17
HETATM   17  C   UNL     1      -9.411  10.459  67.907  1.00  0.00    -0.138 C  
HETATM   18  O   UNL     1     -10.563  10.658  68.730  1.00  0.00    -0.182 OA 
HETATM   19  C   UNL     1     -10.186  10.300  70.060  1.00  0.00    -0.162 C  
HETATM   20  H   UNL     1      -6.752   8.728  68.669  1.00  0.00     0.000 HD 
HETATM   21  C   UNL     1      -9.074   9.236  69.942  1.00  0.00    -0.191 C  
HETATM   22  H   UNL     1      -7.276   8.833  70.741  1.00  0.00     0.000 HD 
HETATM   23  C   UNL     1      -8.641   9.283  68.478  1.00  0.00    -0.128 C  
HETATM   24  O   UNL     1      -7.960   9.488  70.814  1.00  0.00    -0.251 OA 
HETATM   25  O   UNL     1      -7.235   9.464  68.311  1.00  0.00    -0.075 OA 
BRANCH  19  26
HETATM   26  N   UNL     1     -11.360   9.881  70.829  1.00  0.00    -0.326 N  
HETATM   27  C   UNL     1     -12.573  10.512  70.685  1.00  0.00    -0.369 C  
HETATM   28  C   UNL     1     -13.607  10.200  71.458  1.00  0.00    -0.248 C  
HETATM   29  C   UNL     1     -13.361   9.156  72.470  1.00  0.00    -0.417 C  
HETATM   30  N   UNL     1     -12.222   8.552  72.614  1.00  0.00    -0.480 N  
HETATM   31  N   UNL     1     -14.369   8.800  73.323  1.00  0.00    -1.130 NA 
HETATM   32  H   UNL     1     -12.112   7.828  73.323  1.00  0.00     0.000 HD 
HETATM   33  C   UNL     1     -11.161   8.895  71.803  1.00  0.00    -0.362 C  
HETATM   34  H1  UNL     1     -14.199   8.079  74.023  1.00  0.00     0.000 HD 
HETATM   35  H2  UNL     1     -15.282   9.252  73.260  1.00  0.00     0.000 HD 
HETATM   36  O   UNL     1     -10.062   8.350  71.932  1.00  0.00    -0.215 OA 
ENDBRANCH  19  26
ENDBRANCH  16  17
ENDBRANCH  15  16
ENDBRANCH  12  15
ENDBRANCH  11  12
ENDBRANCH   8  11
ENDBRANCH   7   8
ENDBRANCH   6   7
ENDBRANCH   5   6
ENDBRANCH   2   5
TORSDOF 10
ENDMDL
MODEL      251
REMARK 921   NORMALIZED FREE ENERGY PREDICTED BY IDOCK:   -3.37 KCAL/MOL
REMARK 922        TOTAL FREE ENERGY PREDICTED BY IDOCK:   -6.27 KCAL/MOL
REMARK 923 INTER-LIGAND FREE ENERGY PREDICTED BY IDOCK:   -5.17 KCAL/MOL
REMARK 924 INTRA-LIGAND FREE ENERGY PREDICTED BY IDOCK:   -1.10 KCAL/MOL
REMARK 927      BINDING AFFINITY PREDICTED BY RF-SCORE:    0.00 PKD
ROOT
HETATM    1  C   UNL     1     -11.574  13.033  65.195  1.00  0.00    -0.324 C  
HETATM    2  N   UNL     1     -11.010  13.041  66.600  1.00  0.00    -0.275 N  
HETATM    3  C   UNL     1      -9.814  12.109  66.696  1.00  0.00    -0.211 C  
HETATM    4  C   UNL     1     -10.537  14.465  66.937  1.00  0.00    -0.278 C  
ENDROOT
BRANCH   2   5
HETATM    5  C   UNL     1     -12.139  12.595  67.562  1.00  0.00    -0.104 C  
BRANCH   5   6
HETATM    6  C   UNL     1     -11.776  11.437  68.475  1.00  0.00    -0.318 C  
BRANCH   6   7
HETATM    7  O   UNL     1     -12.050  11.793  69.815  1.00  0.00    -0.297 OA 
BRANCH   7   8
HETATM    8  P   UNL     1     -11.846  10.417  70.844  1.00  0.00    -0.346 P  
HETATM    9  O   UNL     1     -12.361   9.543  69.706  1.00  0.00     0.422 OA 
HETATM   10  O   UNL     1     -12.840  11.059  71.818  1.00  0.00    -0.430 OA 
BRANCH   8  11
HETATM   11  O   UNL     1     -11.641   9.040  71.872  1.00  0.00    -0.345 OA 
BRANCH  11  12
HETATM   12  P   UNL     1     -11.406   7.627  70.904  1.00  0.00    -0.267 P  
HETATM   13  O   UNL     1      -9.870   7.525  71.491  1.00  0.00    -0.167 OA 
HETATM   14  O   UNL     1     -12.226   6.828  71.939  1.00  0.00    -0.329 OA 
BRANCH  12  15
HETATM   15  O   UNL     1     -11.169   6.213  69.935  1.00  0.00    -0.375 OA 
BRANCH  15  16
HETATM   16  C   UNL     1     -10.104   5.341  70.359  1.00  0.00    -0.254 C  
BRANCH  16  17
HETATM   17  C   UNL     1      -9.143   4.970  69.240  1.00  0.00    -0.103 C  
HETATM   18  O   UNL     1      -9.157   5.982  68.230  1.00  0.00    -0.113 OA 
HETATM   19  C   UNL     1      -7.926   5.865  67.514  1.00  0.00    -0.102 C  
HETATM   20  H   UNL     1      -6.539   3.317  70.303  1.00  0.00     0.000 HD 
HETATM   21  C   UNL     1      -6.886   5.290  68.498  1.00  0.00    -0.056 C  
HETATM   22  H   UNL     1      -5.464   3.870  68.537  1.00  0.00     0.000 HD 
HETATM   23  C   UNL     1      -7.704   4.791  69.686  1.00  0.00    -0.059 C  
HETATM   24  O   UNL     1      -6.105   4.225  67.931  1.00  0.00    -0.029 OA 
HETATM   25  O   UNL     1      -7.440   3.429  70.023  1.00  0.00    -0.044 OA 
BRANCH  19  26
HETATM   26  N   UNL     1      -7.559   7.150  66.914  1.00  0.00    -0.099 N  
HETATM   27  C   UNL     1      -6.386   7.787  67.245  1.00  0.00    -0.055 C  
HETATM   28  C   UNL     1      -6.106   8.999  66.781  1.00  0.00    -0.061 C  
HETATM   29  C   UNL     1      -7.130   9.606  65.911  1.00  0.00    -0.098 C  
HETATM   30  N   UNL     1      -8.239   9.015  65.589  1.00  0.00    -0.114 N  
HETATM   31  N   UNL     1      -6.926  10.865  65.416  1.00  0.00    -0.368 NA 
HETATM   32  H   UNL     1      -8.906   9.478  64.972  1.00  0.00     0.000 HD 
HETATM   33  C   UNL     1      -8.511   7.759  66.086  1.00  0.00    -0.138 C  
HETATM   34  H1  UNL     1      -7.634  11.285  64.814  1.00  0.00     0.000 HD 
HETATM   35  H2  UNL     1      -6.075  11.379  65.646  1.00  0.00     0.000 HD 
HETATM   36  O   UNL     1      -9.566   7.182  65.811  1.00  0.00     0.169 OA 
ENDBRANCH  19  26
ENDBRANCH  16  17
ENDBRANCH  15  16
ENDBRANCH  12  15
ENDBRANCH  11  12
ENDBRANCH   8  11
ENDBRANCH   7   8
ENDBRANCH   6   7
ENDBRANCH   5   6
ENDBRANCH   2   5
TORSDOF 10
ENDMDL
MODEL      252
REMARK 921   NORMALIZED FREE ENERGY PREDICTED BY IDOCK:   -3.34 KCAL/MOL
REMARK 922        TOTAL FREE ENERGY PREDICTED BY IDOCK:   -6.22 KCAL/MOL
REMARK 923 INTER-LIGAND FREE ENERGY PREDICTED BY IDOCK:   -5.36 KCAL/MOL
REMARK 924 INTRA-LIGAND FREE ENERGY PREDICTED BY IDOCK:   -0.86 KCAL/MOL
REMARK 927      BINDING AFFINITY PREDICTED BY RF-SCORE:    0.00 PKD
ROOT
HETATM    1  C   UNL     1      -7.898  18.828  67.348  1.00  0.00    -0.232 C  
HETATM    2  N   UNL     1      -9.399  19.026  67.347  1.00  0.00    -0.300 N  
HETATM    3  C   UNL     1      -9.936  19.006  68.768  1.00  0.00    -0.411 C  
HETATM    4  C   UNL     1      -9.719  20.399  66.733  1.00  0.00    -0.388 C  
ENDROOT
BRANCH   2   5
HETATM    5  C   UNL     1     -10.023  17.887  66.503  1.00  0.00    -0.357 C  
BRANCH   5   6
HETATM    6  C   UNL     1      -9.533  16.494  66.854  1.00  0.00    -0.237 C  
BRANCH   6   7
HETATM    7  O   UNL     1     -10.237  15.541  66.082  1.00  0.00    -0.271 OA 
BRANCH   7   8
HETATM    8  P   UNL     1     -10.890  14.314  67.112  1.00  0.00    -0.308 P  
HETATM    9  O   UNL     1     -11.880  13.971  66.005  1.00  0.00    -0.355 OA 
HETATM   10  O   UNL     1     -11.233  15.414  68.123  1.00  0.00    -0.298 OA 
BRANCH   8  11
HETATM   11  O   UNL     1     -11.542  13.086  68.142  1.00  0.00    -0.297 OA 
BRANCH  11  12
HETATM   12  P   UNL     1     -10.354  11.856  68.395  1.00  0.00    -0.201 P  
HETATM   13  O   UNL     1     -10.932  11.664  69.926  1.00  0.00    -0.058 OA 
HETATM   14  O   UNL     1     -11.232  10.891  67.571  1.00  0.00    -0.304 OA 
BRANCH  12  15
HETATM   15  O   UNL     1      -9.165  10.624  68.650  1.00  0.00    -0.164 OA 
BRANCH  15  16
HETATM   16  C   UNL     1      -9.343   9.421  67.878  1.00  0.00    -0.129 C  
BRANCH  16  17
HETATM   17  C   UNL     1      -8.303   9.246  66.782  1.00  0.00    -0.123 C  
HETATM   18  O   UNL     1      -7.971   7.863  66.640  1.00  0.00    -0.099 OA 
HETATM   19  C   UNL     1      -7.435   7.701  65.326  1.00  0.00    -0.083 C  
HETATM   20  H   UNL     1      -8.622  11.427  64.376  1.00  0.00     0.000 HD 
HETATM   21  C   UNL     1      -8.080   8.786  64.439  1.00  0.00    -0.155 C  
HETATM   22  H   UNL     1      -7.527  10.140  63.062  1.00  0.00     0.000 HD 
HETATM   23  C   UNL     1      -8.742   9.751  65.420  1.00  0.00    -0.154 C  
HETATM   24  O   UNL     1      -7.129   9.472  63.608  1.00  0.00    -0.100 OA 
HETATM   25  O   UNL     1      -8.347  11.110  65.229  1.00  0.00    -0.024 OA 
BRANCH  19  26
HETATM   26  N   UNL     1      -7.632   6.327  64.859  1.00  0.00    -0.085 N  
HETATM   27  C   UNL     1      -8.888   5.838  64.582  1.00  0.00     0.162 C  
HETATM   28  C   UNL     1      -9.075   4.563  64.260  1.00  0.00    -0.138 C  
HETATM   29  C   UNL     1      -7.863   3.724  64.233  1.00  0.00    -0.085 C  
HETATM   30  N   UNL     1      -6.674   4.173  64.490  1.00  0.00    -0.043 N  
HETATM   31  N   UNL     1      -7.978   2.392  63.938  1.00  0.00    -0.076 NA 
HETATM   32  H   UNL     1      -5.869   3.548  64.444  1.00  0.00     0.000 HD 
HETATM   33  C   UNL     1      -6.504   5.499  64.826  1.00  0.00    -0.038 C  
HETATM   34  H1  UNL     1      -7.141   1.812  63.919  1.00  0.00     0.000 HD 
HETATM   35  H2  UNL     1      -8.893   1.986  63.739  1.00  0.00     0.000 HD 
HETATM   36  O   UNL     1      -5.386   5.947  65.093  1.00  0.00    -0.012 OA 
ENDBRANCH  19  26
ENDBRANCH  16  17
ENDBRANCH  15  16
ENDBRANCH  12  15
ENDBRANCH  11  12
ENDBRANCH   8  11
ENDBRANCH   7   8
ENDBRANCH   6   7
ENDBRANCH   5   6
ENDBRANCH   2   5
TORSDOF 10
ENDMDL
MODEL      253
REMARK 921   NORMALIZED FREE ENERGY PREDICTED BY IDOCK:   -3.32 KCAL/MOL
REMARK 922        TOTAL FREE ENERGY PREDICTED BY IDOCK:   -6.20 KCAL/MOL
REMARK 923 INTER-LIGAND FREE ENERGY PREDICTED BY IDOCK:   -6.66 KCAL/MOL
REMARK 924 INTRA-LIGAND FREE ENERGY PREDICTED BY IDOCK:    0.46 KCAL/MOL
REMARK 927      BINDING AFFINITY PREDICTED BY RF-SCORE:    0.00 PKD
ROOT
HETATM    1  C   UNL     1      -9.240   4.007  64.785  1.00  0.00    -0.152 C  
HETATM    2  N   UNL     1      -8.005   4.869  64.634  1.00  0.00    -0.094 N  
HETATM    3  C   UNL     1      -6.829   4.243  65.365  1.00  0.00    -0.057 C  
HETATM    4  C   UNL     1      -7.645   4.966  63.142  1.00  0.00    -0.063 C  
ENDROOT
BRANCH   2   5
HETATM    5  C   UNL     1      -8.335   6.268  65.212  1.00  0.00    -0.138 C  
BRANCH   5   6
HETATM    6  C   UNL     1      -7.143   7.021  65.775  1.00  0.00    -0.069 C  
BRANCH   6   7
HETATM    7  O   UNL     1      -6.517   6.233  66.769  1.00  0.00    -0.043 OA 
BRANCH   7   8
HETATM    8  P   UNL     1      -6.992   6.781  68.340  1.00  0.00    -0.081 P  
HETATM    9  O   UNL     1      -7.915   5.573  68.437  1.00  0.00    -0.094 OA 
HETATM   10  O   UNL     1      -7.497   8.072  67.684  1.00  0.00    -0.093 OA 
BRANCH   8  11
HETATM   11  O   UNL     1      -7.466   7.329  69.912  1.00  0.00    -0.082 OA 
BRANCH  11  12
HETATM   12  P   UNL     1      -8.285   8.846  69.770  1.00  0.00    -0.137 P  
HETATM   13  O   UNL     1      -9.686   8.087  70.186  1.00  0.00    -0.175 OA 
HETATM   14  O   UNL     1      -7.692   9.250  71.137  1.00  0.00    -0.282 OA 
BRANCH  12  15
HETATM   15  O   UNL     1      -9.105  10.363  69.629  1.00  0.00    -0.163 OA 
BRANCH  15  16
HETATM   16  C   UNL     1      -9.196  10.897  68.293  1.00  0.00    -0.161 C  
BRANCH  16  17
HETATM   17  C   UNL     1     -10.505  11.621  68.019  1.00  0.00    -0.194 C  
HETATM   18  O   UNL     1     -11.194  11.866  69.248  1.00  0.00    -0.245 OA 
HETATM   19  C   UNL     1     -12.092  12.951  69.006  1.00  0.00    -0.154 C  
HETATM   20  H   UNL     1     -10.329  13.628  65.453  1.00  0.00     0.000 HD 
HETATM   21  C   UNL     1     -11.466  13.814  67.890  1.00  0.00    -0.314 C  
HETATM   22  H   UNL     1     -12.023  14.713  66.182  1.00  0.00     0.000 HD 
HETATM   23  C   UNL     1     -10.345  12.954  67.312  1.00  0.00    -0.234 C  
HETATM   24  O   UNL     1     -12.408  14.181  66.869  1.00  0.00    -0.419 OA 
HETATM   25  O   UNL     1     -10.429  12.793  65.896  1.00  0.00    -0.267 OA 
BRANCH  19  26
HETATM   26  N   UNL     1     -12.375  13.667  70.252  1.00  0.00    -0.336 N  
HETATM   27  C   UNL     1     -12.004  14.981  70.423  1.00  0.00    -0.323 C  
HETATM   28  C   UNL     1     -12.167  15.596  71.589  1.00  0.00    -0.493 C  
HETATM   29  C   UNL     1     -12.752  14.781  72.669  1.00  0.00    -0.384 C  
HETATM   30  N   UNL     1     -13.108  13.542  72.519  1.00  0.00    -0.406 N  
HETATM   31  N   UNL     1     -12.925  15.335  73.907  1.00  0.00    -0.625 NA 
HETATM   32  H   UNL     1     -13.520  13.030  73.299  1.00  0.00     0.000 HD 
HETATM   33  C   UNL     1     -12.926  12.923  71.302  1.00  0.00    -0.228 C  
HETATM   34  H1  UNL     1     -13.329  14.772  74.654  1.00  0.00     0.000 HD 
HETATM   35  H2  UNL     1     -12.652  16.303  74.082  1.00  0.00     0.000 HD 
HETATM   36  O   UNL     1     -13.238  11.741  71.138  1.00  0.00    -0.154 OA 
ENDBRANCH  19  26
ENDBRANCH  16  17
ENDBRANCH  15  16
ENDBRANCH  12  15
ENDBRANCH  11  12
ENDBRANCH   8  11
ENDBRANCH   7   8
ENDBRANCH   6   7
ENDBRANCH   5   6
ENDBRANCH   2   5
TORSDOF 10
ENDMDL
MODEL      254
REMARK 921   NORMALIZED FREE ENERGY PREDICTED BY IDOCK:   -3.32 KCAL/MOL
REMARK 922        TOTAL FREE ENERGY PREDICTED BY IDOCK:   -6.19 KCAL/MOL
REMARK 923 INTER-LIGAND FREE ENERGY PREDICTED BY IDOCK:   -6.03 KCAL/MOL
REMARK 924 INTRA-LIGAND FREE ENERGY PREDICTED BY IDOCK:   -0.16 KCAL/MOL
REMARK 927      BINDING AFFINITY PREDICTED BY RF-SCORE:    0.00 PKD
ROOT
HETATM    1  C   UNL     1      -9.771  14.219  67.973  1.00  0.00    -0.223 C  
HETATM    2  N   UNL     1     -11.195  13.819  67.654  1.00  0.00    -0.283 N  
HETATM    3  C   UNL     1     -12.175  14.735  68.368  1.00  0.00    -0.063 C  
HETATM    4  C   UNL     1     -11.424  13.960  66.139  1.00  0.00    -0.345 C  
ENDROOT
BRANCH   2   5
HETATM    5  C   UNL     1     -11.383  12.349  68.104  1.00  0.00    -0.291 C  
BRANCH   5   6
HETATM    6  C   UNL     1     -10.749  12.007  69.440  1.00  0.00     0.076 C  
BRANCH   6   7
HETATM    7  O   UNL     1      -9.670  11.118  69.234  1.00  0.00    -0.098 OA 
BRANCH   7   8
HETATM    8  P   UNL     1     -10.073   9.549  69.843  1.00  0.00    -0.268 P  
HETATM    9  O   UNL     1     -11.371  10.139  70.382  1.00  0.00    -0.278 OA 
HETATM   10  O   UNL     1      -8.801   9.607  70.696  1.00  0.00    -0.200 OA 
BRANCH   8  11
HETATM   11  O   UNL     1     -10.477   7.980  70.450  1.00  0.00    -0.210 OA 
BRANCH  11  12
HETATM   12  P   UNL     1      -9.708   6.772  69.482  1.00  0.00    -0.150 P  
HETATM   13  O   UNL     1      -9.097   6.108  70.860  1.00  0.00    -0.149 OA 
HETATM   14  O   UNL     1     -11.076   6.072  69.337  1.00  0.00    -0.366 OA 
BRANCH  12  15
HETATM   15  O   UNL     1      -8.937   5.562  68.513  1.00  0.00    -0.110 OA 
BRANCH  15  16
HETATM   16  C   UNL     1      -9.121   5.697  67.090  1.00  0.00    -0.111 C  
BRANCH  16  17
HETATM   17  C   UNL     1      -8.082   6.588  66.428  1.00  0.00    -0.113 C  
HETATM   18  O   UNL     1      -8.656   7.250  65.298  1.00  0.00    -0.097 OA 
HETATM   19  C   UNL     1      -7.858   8.408  65.049  1.00  0.00    -0.118 C  
HETATM   20  H   UNL     1      -5.963   7.861  68.557  1.00  0.00     0.000 HD 
HETATM   21  C   UNL     1      -7.257   8.840  66.404  1.00  0.00    -0.084 C  
HETATM   22  H   UNL     1      -5.485   9.409  67.159  1.00  0.00     0.000 HD 
HETATM   23  C   UNL     1      -7.507   7.658  67.337  1.00  0.00    -0.100 C  
HETATM   24  O   UNL     1      -5.855   9.144  66.325  1.00  0.00    -0.055 OA 
HETATM   25  O   UNL     1      -6.324   7.192  67.987  1.00  0.00    -0.040 OA 
BRANCH  19  26
HETATM   26  N   UNL     1      -8.649   9.438  64.371  1.00  0.00    -0.184 N  
HETATM   27  C   UNL     1      -8.204  10.037  63.215  1.00  0.00    -0.162 C  
HETATM   28  C   UNL     1      -8.871  11.042  62.660  1.00  0.00    -0.334 C  
HETATM   29  C   UNL     1     -10.092  11.470  63.366  1.00  0.00    -0.420 C  
HETATM   30  N   UNL     1     -10.523  10.912  64.456  1.00  0.00    -0.349 N  
HETATM   31  N   UNL     1     -10.818  12.519  62.872  1.00  0.00    -0.383 NA 
HETATM   32  H   UNL     1     -11.382  11.242  64.895  1.00  0.00     0.000 HD 
HETATM   33  C   UNL     1      -9.813   9.873  65.016  1.00  0.00    -0.252 C  
HETATM   34  H1  UNL     1     -11.663  12.815  63.360  1.00  0.00     0.000 HD 
HETATM   35  H2  UNL     1     -10.518  13.000  62.024  1.00  0.00     0.000 HD 
HETATM   36  O   UNL     1     -10.190   9.337  66.061  1.00  0.00    -0.269 OA 
ENDBRANCH  19  26
ENDBRANCH  16  17
ENDBRANCH  15  16
ENDBRANCH  12  15
ENDBRANCH  11  12
ENDBRANCH   8  11
ENDBRANCH   7   8
ENDBRANCH   6   7
ENDBRANCH   5   6
ENDBRANCH   2   5
TORSDOF 10
ENDMDL
MODEL      255
REMARK 921   NORMALIZED FREE ENERGY PREDICTED BY IDOCK:   -3.31 KCAL/MOL
REMARK 922        TOTAL FREE ENERGY PREDICTED BY IDOCK:   -6.18 KCAL/MOL
REMARK 923 INTER-LIGAND FREE ENERGY PREDICTED BY IDOCK:   -4.82 KCAL/MOL
REMARK 924 INTRA-LIGAND FREE ENERGY PREDICTED BY IDOCK:   -1.36 KCAL/MOL
REMARK 927      BINDING AFFINITY PREDICTED BY RF-SCORE:    0.00 PKD
ROOT
HETATM    1  C   UNL     1      -9.040  11.165  64.294  1.00  0.00    -0.033 C  
HETATM    2  N   UNL     1      -8.003  10.069  64.177  1.00  0.00    -0.148 N  
HETATM    3  C   UNL     1      -6.852  10.521  63.294  1.00  0.00     0.025 C  
HETATM    4  C   UNL     1      -7.443   9.763  65.576  1.00  0.00    -0.115 C  
ENDROOT
BRANCH   2   5
HETATM    5  C   UNL     1      -8.703   8.823  63.580  1.00  0.00     0.049 C  
BRANCH   5   6
HETATM    6  C   UNL     1      -7.967   8.174  62.421  1.00  0.00    -0.156 C  
BRANCH   6   7
HETATM    7  O   UNL     1      -8.316   6.806  62.351  1.00  0.00    -0.088 OA 
BRANCH   7   8
HETATM    8  P   UNL     1      -7.207   5.865  63.288  1.00  0.00    -0.060 P  
HETATM    9  O   UNL     1      -6.075   6.712  62.721  1.00  0.00    -0.036 OA 
HETATM   10  O   UNL     1      -7.686   4.626  62.522  1.00  0.00    -0.057 OA 
BRANCH   8  11
HETATM   11  O   UNL     1      -6.098   4.924  64.226  1.00  0.00    -0.021 OA 
BRANCH  11  12
HETATM   12  P   UNL     1      -6.660   4.832  65.859  1.00  0.00    -0.046 P  
HETATM   13  O   UNL     1      -5.549   5.978  66.267  1.00  0.00    -0.015 OA 
HETATM   14  O   UNL     1      -7.886   5.673  65.444  1.00  0.00    -0.093 OA 
BRANCH  12  15
HETATM   15  O   UNL     1      -7.221   4.741  67.494  1.00  0.00    -0.068 OA 
BRANCH  15  16
HETATM   16  C   UNL     1      -8.636   4.942  67.677  1.00  0.00    -0.103 C  
BRANCH  16  17
HETATM   17  C   UNL     1      -8.986   5.623  68.991  1.00  0.00    -0.112 C  
HETATM   18  O   UNL     1      -9.035   7.040  68.809  1.00  0.00    -0.132 OA 
HETATM   19  C   UNL     1      -9.842   7.563  69.865  1.00  0.00    -0.187 C  
HETATM   20  H   UNL     1     -10.976   3.831  70.854  1.00  0.00     0.000 HD 
HETATM   21  C   UNL     1     -10.844   6.456  70.256  1.00  0.00    -0.293 C  
HETATM   22  H   UNL     1     -11.568   5.590  71.918  1.00  0.00     0.000 HD 
HETATM   23  C   UNL     1     -10.315   5.193  69.581  1.00  0.00    -0.246 C  
HETATM   24  O   UNL     1     -10.951   6.272  71.677  1.00  0.00    -0.241 OA 
HETATM   25  O   UNL     1     -10.143   4.100  70.484  1.00  0.00    -0.170 OA 
BRANCH  19  26
HETATM   26  N   UNL     1     -10.454   8.832  69.461  1.00  0.00    -0.218 N  
HETATM   27  C   UNL     1     -10.623   9.155  68.135  1.00  0.00    -0.183 C  
HETATM   28  C   UNL     1     -11.080  10.348  67.770  1.00  0.00    -0.365 C  
HETATM   29  C   UNL     1     -11.375  11.285  68.869  1.00  0.00    -0.275 C  
HETATM   30  N   UNL     1     -11.222  10.991  70.123  1.00  0.00    -0.458 N  
HETATM   31  N   UNL     1     -11.823  12.544  68.572  1.00  0.00    -0.315 NA 
HETATM   32  H   UNL     1     -11.455  11.676  70.842  1.00  0.00     0.000 HD 
HETATM   33  C   UNL     1     -10.743   9.749  70.478  1.00  0.00    -0.317 C  
HETATM   34  H1  UNL     1     -12.027  13.192  69.331  1.00  0.00     0.000 HD 
HETATM   35  H2  UNL     1     -11.951  12.830  67.601  1.00  0.00     0.000 HD 
HETATM   36  O   UNL     1     -10.570   9.451  71.663  1.00  0.00    -0.340 OA 
ENDBRANCH  19  26
ENDBRANCH  16  17
ENDBRANCH  15  16
ENDBRANCH  12  15
ENDBRANCH  11  12
ENDBRANCH   8  11
ENDBRANCH   7   8
ENDBRANCH   6   7
ENDBRANCH   5   6
ENDBRANCH   2   5
TORSDOF 10
ENDMDL
MODEL      256
REMARK 921   NORMALIZED FREE ENERGY PREDICTED BY IDOCK:   -3.31 KCAL/MOL
REMARK 922        TOTAL FREE ENERGY PREDICTED BY IDOCK:   -6.17 KCAL/MOL
REMARK 923 INTER-LIGAND FREE ENERGY PREDICTED BY IDOCK:   -4.43 KCAL/MOL
REMARK 924 INTRA-LIGAND FREE ENERGY PREDICTED BY IDOCK:   -1.74 KCAL/MOL
REMARK 927      BINDING AFFINITY PREDICTED BY RF-SCORE:    0.00 PKD
ROOT
HETATM    1  C   UNL     1      -9.413  11.396  63.845  1.00  0.00    -0.153 C  
HETATM    2  N   UNL     1      -8.313  10.357  63.788  1.00  0.00    -0.168 N  
HETATM    3  C   UNL     1      -7.237  10.778  62.802  1.00  0.00     0.066 C  
HETATM    4  C   UNL     1      -7.668  10.239  65.179  1.00  0.00    -0.136 C  
ENDROOT
BRANCH   2   5
HETATM    5  C   UNL     1      -8.957   9.014  63.365  1.00  0.00     0.149 C  
BRANCH   5   6
HETATM    6  C   UNL     1      -8.105   8.163  62.440  1.00  0.00    -0.167 C  
BRANCH   6   7
HETATM    7  O   UNL     1      -8.522   6.815  62.526  1.00  0.00    -0.022 OA 
BRANCH   7   8
HETATM    8  P   UNL     1      -7.570   5.976  63.701  1.00  0.00    -0.089 P  
HETATM    9  O   UNL     1      -6.349   6.731  63.189  1.00  0.00    -0.041 OA 
HETATM   10  O   UNL     1      -7.987   4.662  63.030  1.00  0.00    -0.070 OA 
BRANCH   8  11
HETATM   11  O   UNL     1      -6.618   5.137  64.878  1.00  0.00    -0.041 OA 
BRANCH  11  12
HETATM   12  P   UNL     1      -7.207   5.502  66.462  1.00  0.00    -0.079 P  
HETATM   13  O   UNL     1      -5.892   6.468  66.689  1.00  0.00    -0.016 OA 
HETATM   14  O   UNL     1      -8.232   6.459  65.818  1.00  0.00    -0.120 OA 
BRANCH  12  15
HETATM   15  O   UNL     1      -7.796   5.868  68.048  1.00  0.00    -0.102 OA 
BRANCH  15  16
HETATM   16  C   UNL     1      -9.099   6.481  68.100  1.00  0.00    -0.114 C  
BRANCH  16  17
HETATM   17  C   UNL     1      -9.187   7.633  69.089  1.00  0.00    -0.141 C  
HETATM   18  O   UNL     1      -9.037   8.878  68.403  1.00  0.00    -0.137 OA 
HETATM   19  C   UNL     1      -9.628   9.879  69.233  1.00  0.00    -0.205 C  
HETATM   20  H   UNL     1     -11.205   7.013  71.576  1.00  0.00     0.000 HD 
HETATM   21  C   UNL     1     -10.738   9.187  70.052  1.00  0.00    -0.232 C  
HETATM   22  H   UNL     1     -11.393   9.112  71.950  1.00  0.00     0.000 HD 
HETATM   23  C   UNL     1     -10.491   7.693  69.861  1.00  0.00    -0.231 C  
HETATM   24  O   UNL     1     -10.709   9.538  71.445  1.00  0.00    -0.346 OA 
HETATM   25  O   UNL     1     -10.389   6.976  71.092  1.00  0.00    -0.206 OA 
BRANCH  19  26
HETATM   26  N   UNL     1     -10.077  11.015  68.424  1.00  0.00    -0.177 N  
HETATM   27  C   UNL     1     -11.266  10.976  67.733  1.00  0.00    -0.308 C  
HETATM   28  C   UNL     1     -11.621  11.962  66.918  1.00  0.00    -0.358 C  
HETATM   29  C   UNL     1     -10.661  13.075  66.800  1.00  0.00    -0.262 C  
HETATM   30  N   UNL     1      -9.538  13.124  67.448  1.00  0.00    -0.213 N  
HETATM   31  N   UNL     1     -10.943  14.115  65.958  1.00  0.00    -0.301 NA 
HETATM   32  H   UNL     1      -8.917  13.925  67.337  1.00  0.00     0.000 HD 
HETATM   33  C   UNL     1      -9.188  12.087  68.285  1.00  0.00    -0.192 C  
HETATM   34  H1  UNL     1     -10.279  14.885  65.876  1.00  0.00     0.000 HD 
HETATM   35  H2  UNL     1     -11.808  14.121  65.417  1.00  0.00     0.000 HD 
HETATM   36  O   UNL     1      -8.117  12.100  68.898  1.00  0.00    -0.021 OA 
ENDBRANCH  19  26
ENDBRANCH  16  17
ENDBRANCH  15  16
ENDBRANCH  12  15
ENDBRANCH  11  12
ENDBRANCH   8  11
ENDBRANCH   7   8
ENDBRANCH   6   7
ENDBRANCH   5   6
ENDBRANCH   2   5
TORSDOF 10
ENDMDL
MODEL      257
REMARK 921   NORMALIZED FREE ENERGY PREDICTED BY IDOCK:   -3.28 KCAL/MOL
REMARK 922        TOTAL FREE ENERGY PREDICTED BY IDOCK:   -6.13 KCAL/MOL
REMARK 923 INTER-LIGAND FREE ENERGY PREDICTED BY IDOCK:   -6.19 KCAL/MOL
REMARK 924 INTRA-LIGAND FREE ENERGY PREDICTED BY IDOCK:    0.06 KCAL/MOL
REMARK 927      BINDING AFFINITY PREDICTED BY RF-SCORE:    0.00 PKD
ROOT
HETATM    1  C   UNL     1     -13.449  13.088  72.286  1.00  0.00    -0.547 C  
HETATM    2  N   UNL     1     -13.011  14.389  71.649  1.00  0.00    -0.324 N  
HETATM    3  C   UNL     1     -14.211  15.281  71.384  1.00  0.00    -0.485 C  
HETATM    4  C   UNL     1     -12.072  15.125  72.619  1.00  0.00    -0.385 C  
ENDROOT
BRANCH   2   5
HETATM    5  C   UNL     1     -12.276  14.042  70.330  1.00  0.00    -0.361 C  
BRANCH   5   6
HETATM    6  C   UNL     1     -11.795  15.243  69.535  1.00  0.00    -0.345 C  
BRANCH   6   7
HETATM    7  O   UNL     1     -12.072  15.039  68.164  1.00  0.00    -0.231 OA 
BRANCH   7   8
HETATM    8  P   UNL     1     -11.086  13.758  67.547  1.00  0.00    -0.298 P  
HETATM    9  O   UNL     1     -10.307  14.797  66.750  1.00  0.00    -0.262 OA 
HETATM   10  O   UNL     1     -12.353  13.136  66.950  1.00  0.00    -0.305 OA 
BRANCH   8  11
HETATM   11  O   UNL     1     -10.099  12.476  66.932  1.00  0.00    -0.221 OA 
BRANCH  11  12
HETATM   12  P   UNL     1      -9.512  11.519  68.247  1.00  0.00    -0.184 P  
HETATM   13  O   UNL     1      -9.084  10.357  67.162  1.00  0.00    -0.139 OA 
HETATM   14  O   UNL     1      -8.263  12.424  68.297  1.00  0.00    -0.162 OA 
BRANCH  12  15
HETATM   15  O   UNL     1      -8.925  10.560  69.563  1.00  0.00    -0.145 OA 
BRANCH  15  16
HETATM   16  C   UNL     1      -9.455   9.223  69.641  1.00  0.00    -0.179 C  
BRANCH  16  17
HETATM   17  C   UNL     1      -8.381   8.146  69.656  1.00  0.00    -0.125 C  
HETATM   18  O   UNL     1      -8.328   7.526  70.943  1.00  0.00    -0.112 OA 
HETATM   19  C   UNL     1      -7.723   6.245  70.759  1.00  0.00    -0.102 C  
HETATM   20  H   UNL     1      -8.033   6.666  66.769  1.00  0.00     0.000 HD 
HETATM   21  C   UNL     1      -8.052   5.795  69.320  1.00  0.00    -0.101 C  
HETATM   22  H   UNL     1      -7.114   4.992  67.735  1.00  0.00     0.000 HD 
HETATM   23  C   UNL     1      -8.585   7.047  68.630  1.00  0.00    -0.120 C  
HETATM   24  O   UNL     1      -6.912   5.270  68.621  1.00  0.00    -0.054 OA 
HETATM   25  O   UNL     1      -7.905   7.354  67.412  1.00  0.00    -0.108 OA 
BRANCH  19  26
HETATM   26  N   UNL     1      -8.156   5.320  71.808  1.00  0.00    -0.115 N  
HETATM   27  C   UNL     1      -7.437   4.185  72.103  1.00  0.00    -0.070 C  
HETATM   28  C   UNL     1      -7.887   3.294  72.980  1.00  0.00    -0.061 C  
HETATM   29  C   UNL     1      -9.192   3.599  73.593  1.00  0.00    -0.093 C  
HETATM   30  N   UNL     1      -9.878   4.667  73.325  1.00  0.00    -0.142 N  
HETATM   31  N   UNL     1      -9.735   2.715  74.486  1.00  0.00    -0.093 NA 
HETATM   32  H   UNL     1     -10.771   4.832  73.790  1.00  0.00     0.000 HD 
HETATM   33  C   UNL     1      -9.395   5.575  72.409  1.00  0.00    -0.143 C  
HETATM   34  H1  UNL     1     -10.637   2.925  74.910  1.00  0.00     0.000 HD 
HETATM   35  H2  UNL     1      -9.241   1.854  74.724  1.00  0.00     0.000 HD 
HETATM   36  O   UNL     1     -10.036   6.589  72.121  1.00  0.00    -0.180 OA 
ENDBRANCH  19  26
ENDBRANCH  16  17
ENDBRANCH  15  16
ENDBRANCH  12  15
ENDBRANCH  11  12
ENDBRANCH   8  11
ENDBRANCH   7   8
ENDBRANCH   6   7
ENDBRANCH   5   6
ENDBRANCH   2   5
TORSDOF 10
ENDMDL
MODEL      258
REMARK 921   NORMALIZED FREE ENERGY PREDICTED BY IDOCK:   -3.26 KCAL/MOL
REMARK 922        TOTAL FREE ENERGY PREDICTED BY IDOCK:   -6.10 KCAL/MOL
REMARK 923 INTER-LIGAND FREE ENERGY PREDICTED BY IDOCK:   -5.94 KCAL/MOL
REMARK 924 INTRA-LIGAND FREE ENERGY PREDICTED BY IDOCK:   -0.16 KCAL/MOL
REMARK 927      BINDING AFFINITY PREDICTED BY RF-SCORE:    0.00 PKD
ROOT
HETATM    1  C   UNL     1      -5.834  17.679  68.757  1.00  0.00    -0.174 C  
HETATM    2  N   UNL     1      -6.931  16.893  68.071  1.00  0.00    -0.149 N  
HETATM    3  C   UNL     1      -6.474  15.468  67.805  1.00  0.00    -0.164 C  
HETATM    4  C   UNL     1      -8.157  16.838  68.998  1.00  0.00    -0.179 C  
ENDROOT
BRANCH   2   5
HETATM    5  C   UNL     1      -7.274  17.621  66.748  1.00  0.00    -0.212 C  
BRANCH   5   6
HETATM    6  C   UNL     1      -8.753  17.657  66.407  1.00  0.00    -0.234 C  
BRANCH   6   7
HETATM    7  O   UNL     1      -9.061  16.584  65.539  1.00  0.00    -0.404 OA 
BRANCH   7   8
HETATM    8  P   UNL     1     -10.337  15.629  66.212  1.00  0.00    -0.337 P  
HETATM    9  O   UNL     1      -9.282  14.652  66.717  1.00  0.00    -0.238 OA 
HETATM   10  O   UNL     1     -10.901  15.473  64.795  1.00  0.00    -0.430 OA 
BRANCH   8  11
HETATM   11  O   UNL     1     -11.613  14.675  66.886  1.00  0.00    -0.361 OA 
BRANCH  11  12
HETATM   12  P   UNL     1     -11.047  13.064  67.156  1.00  0.00    -0.297 P  
HETATM   13  O   UNL     1     -11.562  13.183  68.716  1.00  0.00    -0.265 OA 
HETATM   14  O   UNL     1     -12.298  12.541  66.418  1.00  0.00    -0.537 OA 
BRANCH  12  15
HETATM   15  O   UNL     1     -10.480  11.451  67.427  1.00  0.00    -0.192 OA 
BRANCH  15  16
HETATM   16  C   UNL     1     -10.130  10.709  66.243  1.00  0.00    -0.235 C  
BRANCH  16  17
HETATM   17  C   UNL     1      -8.750  10.073  66.313  1.00  0.00    -0.136 C  
HETATM   18  O   UNL     1      -8.619   9.322  67.523  1.00  0.00    -0.116 OA 
HETATM   19  C   UNL     1      -7.580   8.368  67.304  1.00  0.00    -0.097 C  
HETATM   20  H   UNL     1      -7.584   9.253  63.379  1.00  0.00     0.000 HD 
HETATM   21  C   UNL     1      -7.567   8.054  65.793  1.00  0.00    -0.083 C  
HETATM   22  H   UNL     1      -6.237   7.867  64.298  1.00  0.00     0.000 HD 
HETATM   23  C   UNL     1      -8.435   9.138  65.161  1.00  0.00    -0.167 C  
HETATM   24  O   UNL     1      -6.245   8.061  65.229  1.00  0.00    -0.044 OA 
HETATM   25  O   UNL     1      -7.782   9.838  64.101  1.00  0.00    -0.122 OA 
BRANCH  19  26
HETATM   26  N   UNL     1      -7.764   7.203  68.173  1.00  0.00    -0.114 N  
HETATM   27  C   UNL     1      -6.689   6.534  68.711  1.00  0.00    -0.057 C  
HETATM   28  C   UNL     1      -6.854   5.417  69.411  1.00  0.00    -0.057 C  
HETATM   29  C   UNL     1      -8.244   4.951  69.558  1.00  0.00    -0.084 C  
HETATM   30  N   UNL     1      -9.266   5.574  69.057  1.00  0.00    -0.117 N  
HETATM   31  N   UNL     1      -8.493   3.792  70.242  1.00  0.00    -0.059 NA 
HETATM   32  H   UNL     1     -10.208   5.211  69.201  1.00  0.00     0.000 HD 
HETATM   33  C   UNL     1      -9.071   6.728  68.330  1.00  0.00    -0.125 C  
HETATM   34  H1  UNL     1      -9.454   3.469  70.343  1.00  0.00     0.000 HD 
HETATM   35  H2  UNL     1      -7.724   3.257  70.646  1.00  0.00     0.000 HD 
HETATM   36  O   UNL     1     -10.024   7.330  67.828  1.00  0.00    -0.152 OA 
ENDBRANCH  19  26
ENDBRANCH  16  17
ENDBRANCH  15  16
ENDBRANCH  12  15
ENDBRANCH  11  12
ENDBRANCH   8  11
ENDBRANCH   7   8
ENDBRANCH   6   7
ENDBRANCH   5   6
ENDBRANCH   2   5
TORSDOF 10
ENDMDL
MODEL      259
REMARK 921   NORMALIZED FREE ENERGY PREDICTED BY IDOCK:   -3.25 KCAL/MOL
REMARK 922        TOTAL FREE ENERGY PREDICTED BY IDOCK:   -6.08 KCAL/MOL
REMARK 923 INTER-LIGAND FREE ENERGY PREDICTED BY IDOCK:   -7.36 KCAL/MOL
REMARK 924 INTRA-LIGAND FREE ENERGY PREDICTED BY IDOCK:    1.28 KCAL/MOL
REMARK 927      BINDING AFFINITY PREDICTED BY RF-SCORE:    0.00 PKD
ROOT
HETATM    1  C   UNL     1     -10.481  12.671  63.664  1.00  0.00    -0.314 C  
HETATM    2  N   UNL     1     -11.756  12.638  64.478  1.00  0.00    -0.339 N  
HETATM    3  C   UNL     1     -12.873  11.979  63.687  1.00  0.00    -0.346 C  
HETATM    4  C   UNL     1     -11.513  11.806  65.749  1.00  0.00    -0.194 C  
ENDROOT
BRANCH   2   5
HETATM    5  C   UNL     1     -12.121  14.099  64.839  1.00  0.00    -0.428 C  
BRANCH   5   6
HETATM    6  C   UNL     1     -10.961  14.938  65.345  1.00  0.00    -0.364 C  
BRANCH   6   7
HETATM    7  O   UNL     1     -11.159  15.237  66.712  1.00  0.00    -0.320 OA 
BRANCH   7   8
HETATM    8  P   UNL     1      -9.636  15.278  67.533  1.00  0.00    -0.207 P  
HETATM    9  O   UNL     1      -8.969  15.564  66.193  1.00  0.00    -0.316 OA 
HETATM   10  O   UNL     1      -9.884  13.828  67.964  1.00  0.00    -0.225 OA 
BRANCH   8  11
HETATM   11  O   UNL     1      -8.113  15.320  68.354  1.00  0.00    -0.130 OA 
BRANCH  11  12
HETATM   12  P   UNL     1      -7.248  13.857  68.037  1.00  0.00    -0.184 P  
HETATM   13  O   UNL     1      -8.195  13.627  66.710  1.00  0.00    -0.016 OA 
HETATM   14  O   UNL     1      -6.084  14.709  67.489  1.00  0.00    -0.323 OA 
BRANCH  12  15
HETATM   15  O   UNL     1      -6.383  12.392  67.720  1.00  0.00    -0.081 OA 
BRANCH  15  16
HETATM   16  C   UNL     1      -5.772  11.770  68.868  1.00  0.00    -0.050 C  
BRANCH  16  17
HETATM   17  C   UNL     1      -6.776  11.130  69.814  1.00  0.00    -0.121 C  
HETATM   18  O   UNL     1      -7.871  10.588  69.070  1.00  0.00    -0.109 OA 
HETATM   19  C   UNL     1      -8.475   9.591  69.896  1.00  0.00    -0.187 C  
HETATM   20  H   UNL     1      -5.370   9.811  72.446  1.00  0.00     0.000 HD 
HETATM   21  C   UNL     1      -7.366   9.030  70.810  1.00  0.00    -0.106 C  
HETATM   22  H   UNL     1      -7.089   8.572  72.746  1.00  0.00     0.000 HD 
HETATM   23  C   UNL     1      -6.205  10.010  70.664  1.00  0.00    -0.103 C  
HETATM   24  O   UNL     1      -7.773   8.918  72.183  1.00  0.00    -0.341 OA 
HETATM   25  O   UNL     1      -5.728  10.511  71.913  1.00  0.00    -0.306 OA 
BRANCH  19  26
HETATM   26  N   UNL     1      -9.158   8.591  69.072  1.00  0.00    -0.146 N  
HETATM   27  C   UNL     1      -8.541   7.415  68.714  1.00  0.00    -0.129 C  
HETATM   28  C   UNL     1      -9.121   6.558  67.882  1.00  0.00    -0.113 C  
HETATM   29  C   UNL     1     -10.445   6.957  67.370  1.00  0.00    -0.269 C  
HETATM   30  N   UNL     1     -11.038   8.062  67.701  1.00  0.00    -0.435 N  
HETATM   31  N   UNL     1     -11.094   6.140  66.486  1.00  0.00    -0.749 NA 
HETATM   32  H   UNL     1     -11.961   8.281  67.326  1.00  0.00     0.000 HD 
HETATM   33  C   UNL     1     -10.416   8.938  68.563  1.00  0.00    -0.182 C  
HETATM   34  H1  UNL     1     -12.009   6.415  66.131  1.00  0.00     0.000 HD 
HETATM   35  H2  UNL     1     -10.667   5.263  66.184  1.00  0.00     0.000 HD 
HETATM   36  O   UNL     1     -10.949  10.004  68.880  1.00  0.00    -0.225 OA 
ENDBRANCH  19  26
ENDBRANCH  16  17
ENDBRANCH  15  16
ENDBRANCH  12  15
ENDBRANCH  11  12
ENDBRANCH   8  11
ENDBRANCH   7   8
ENDBRANCH   6   7
ENDBRANCH   5   6
ENDBRANCH   2   5
TORSDOF 10
ENDMDL
MODEL      260
REMARK 921   NORMALIZED FREE ENERGY PREDICTED BY IDOCK:   -3.24 KCAL/MOL
REMARK 922        TOTAL FREE ENERGY PREDICTED BY IDOCK:   -6.06 KCAL/MOL
REMARK 923 INTER-LIGAND FREE ENERGY PREDICTED BY IDOCK:   -5.18 KCAL/MOL
REMARK 924 INTRA-LIGAND FREE ENERGY PREDICTED BY IDOCK:   -0.88 KCAL/MOL
REMARK 927      BINDING AFFINITY PREDICTED BY RF-SCORE:    0.00 PKD
ROOT
HETATM    1  C   UNL     1      -6.162  19.728  71.131  1.00  0.00    -0.030 C  
HETATM    2  N   UNL     1      -6.100  19.781  69.620  1.00  0.00    -0.298 N  
HETATM    3  C   UNL     1      -7.498  19.899  69.036  1.00  0.00    -0.170 C  
HETATM    4  C   UNL     1      -5.298  21.024  69.198  1.00  0.00    -0.339 C  
ENDROOT
BRANCH   2   5
HETATM    5  C   UNL     1      -5.404  18.486  69.132  1.00  0.00    -0.198 C  
BRANCH   5   6
HETATM    6  C   UNL     1      -6.210  17.665  68.141  1.00  0.00    -0.167 C  
BRANCH   6   7
HETATM    7  O   UNL     1      -6.917  16.656  68.834  1.00  0.00    -0.175 OA 
BRANCH   7   8
HETATM    8  P   UNL     1      -7.033  15.237  67.850  1.00  0.00    -0.178 P  
HETATM    9  O   UNL     1      -8.014  15.988  66.958  1.00  0.00    -0.182 OA 
HETATM   10  O   UNL     1      -7.550  14.485  69.082  1.00  0.00    -0.131 OA 
BRANCH   8  11
HETATM   11  O   UNL     1      -7.149  13.819  66.866  1.00  0.00     0.158 OA 
BRANCH  11  12
HETATM   12  P   UNL     1      -8.181  12.665  67.637  1.00  0.00    -0.201 P  
HETATM   13  O   UNL     1      -9.296  12.927  66.454  1.00  0.00    -0.243 OA 
HETATM   14  O   UNL     1      -7.305  11.542  67.044  1.00  0.00    -0.130 OA 
BRANCH  12  15
HETATM   15  O   UNL     1      -9.215  11.511  68.408  1.00  0.00    -0.182 OA 
BRANCH  15  16
HETATM   16  C   UNL     1     -10.317  11.036  67.611  1.00  0.00    -0.191 C  
BRANCH  16  17
HETATM   17  C   UNL     1     -10.743   9.616  67.951  1.00  0.00    -0.247 C  
HETATM   18  O   UNL     1     -10.513   8.756  66.833  1.00  0.00    -0.285 OA 
HETATM   19  C   UNL     1     -10.426   7.426  67.347  1.00  0.00    -0.296 C  
HETATM   20  H   UNL     1     -10.288   8.879  71.097  1.00  0.00     0.000 HD 
HETATM   21  C   UNL     1      -9.897   7.536  68.792  1.00  0.00    -0.166 C  
HETATM   22  H   UNL     1     -10.307   6.795  70.614  1.00  0.00     0.000 HD 
HETATM   23  C   UNL     1     -10.019   9.017  69.142  1.00  0.00    -0.185 C  
HETATM   24  O   UNL     1     -10.633   6.727  69.724  1.00  0.00    -0.206 OA 
HETATM   25  O   UNL     1     -10.741   9.254  70.351  1.00  0.00    -0.218 OA 
BRANCH  19  26
HETATM   26  N   UNL     1      -9.619   6.586  66.458  1.00  0.00    -0.160 N  
HETATM   27  C   UNL     1      -8.694   7.134  65.600  1.00  0.00    -0.068 C  
HETATM   28  C   UNL     1      -8.040   6.382  64.723  1.00  0.00    -0.114 C  
HETATM   29  C   UNL     1      -8.380   4.947  64.727  1.00  0.00    -0.136 C  
HETATM   30  N   UNL     1      -9.249   4.419  65.532  1.00  0.00    -0.141 N  
HETATM   31  N   UNL     1      -7.769   4.112  63.832  1.00  0.00    -0.081 NA 
HETATM   32  H   UNL     1      -9.435   3.417  65.499  1.00  0.00     0.000 HD 
HETATM   33  C   UNL     1      -9.919   5.219  66.432  1.00  0.00    -0.203 C  
HETATM   34  H1  UNL     1      -8.004   3.120  63.835  1.00  0.00     0.000 HD 
HETATM   35  H2  UNL     1      -7.085   4.478  63.169  1.00  0.00     0.000 HD 
HETATM   36  O   UNL     1     -10.763   4.745  67.196  1.00  0.00    -0.014 OA 
ENDBRANCH  19  26
ENDBRANCH  16  17
ENDBRANCH  15  16
ENDBRANCH  12  15
ENDBRANCH  11  12
ENDBRANCH   8  11
ENDBRANCH   7   8
ENDBRANCH   6   7
ENDBRANCH   5   6
ENDBRANCH   2   5
TORSDOF 10
ENDMDL
MODEL      261
REMARK 921   NORMALIZED FREE ENERGY PREDICTED BY IDOCK:   -3.21 KCAL/MOL
REMARK 922        TOTAL FREE ENERGY PREDICTED BY IDOCK:   -6.02 KCAL/MOL
REMARK 923 INTER-LIGAND FREE ENERGY PREDICTED BY IDOCK:   -5.83 KCAL/MOL
REMARK 924 INTRA-LIGAND FREE ENERGY PREDICTED BY IDOCK:   -0.19 KCAL/MOL
REMARK 927      BINDING AFFINITY PREDICTED BY RF-SCORE:    0.00 PKD
ROOT
HETATM    1  C   UNL     1     -13.057  13.168  72.281  1.00  0.00    -0.353 C  
HETATM    2  N   UNL     1     -12.983  14.509  71.582  1.00  0.00    -0.319 N  
HETATM    3  C   UNL     1     -14.320  14.848  70.945  1.00  0.00     0.108 C  
HETATM    4  C   UNL     1     -12.658  15.594  72.621  1.00  0.00    -0.433 C  
ENDROOT
BRANCH   2   5
HETATM    5  C   UNL     1     -11.867  14.420  70.512  1.00  0.00    -0.299 C  
BRANCH   5   6
HETATM    6  C   UNL     1     -11.481  15.747  69.883  1.00  0.00    -0.346 C  
BRANCH   6   7
HETATM    7  O   UNL     1     -11.258  15.563  68.499  1.00  0.00    -0.295 OA 
BRANCH   7   8
HETATM    8  P   UNL     1      -9.976  16.596  67.967  1.00  0.00    -0.279 P  
HETATM    9  O   UNL     1     -10.941  17.771  68.064  1.00  0.00    -0.297 OA 
HETATM   10  O   UNL     1      -9.913  15.770  66.677  1.00  0.00    -0.241 OA 
BRANCH   8  11
HETATM   11  O   UNL     1      -8.695  17.629  67.435  1.00  0.00    -0.229 OA 
BRANCH  11  12
HETATM   12  P   UNL     1      -7.179  16.984  67.959  1.00  0.00    -0.178 P  
HETATM   13  O   UNL     1      -6.660  17.029  66.397  1.00  0.00    -0.225 OA 
HETATM   14  O   UNL     1      -6.808  18.385  68.488  1.00  0.00    -0.235 OA 
BRANCH  12  15
HETATM   15  O   UNL     1      -5.662  16.337  68.483  1.00  0.00    -0.105 OA 
BRANCH  15  16
HETATM   16  C   UNL     1      -5.442  14.945  68.181  1.00  0.00    -0.121 C  
BRANCH  16  17
HETATM   17  C   UNL     1      -6.495  14.023  68.777  1.00  0.00    -0.093 C  
HETATM   18  O   UNL     1      -7.607  13.912  67.885  1.00  0.00    -0.123 OA 
HETATM   19  C   UNL     1      -8.280  12.696  68.216  1.00  0.00    -0.164 C  
HETATM   20  H   UNL     1      -5.206  11.634  70.586  1.00  0.00     0.000 HD 
HETATM   21  C   UNL     1      -7.218  11.737  68.795  1.00  0.00    -0.113 C  
HETATM   22  H   UNL     1      -6.997  10.487  70.352  1.00  0.00     0.000 HD 
HETATM   23  C   UNL     1      -6.001  12.618  69.066  1.00  0.00    -0.076 C  
HETATM   24  O   UNL     1      -7.651  11.077  69.995  1.00  0.00     0.112 OA 
HETATM   25  O   UNL     1      -5.515  12.514  70.405  1.00  0.00    -0.118 OA 
BRANCH  19  26
HETATM   26  N   UNL     1      -9.006  12.181  67.053  1.00  0.00    -0.195 N  
HETATM   27  C   UNL     1     -10.367  12.340  66.930  1.00  0.00    -0.216 C  
HETATM   28  C   UNL     1     -11.037  11.782  65.929  1.00  0.00    -0.355 C  
HETATM   29  C   UNL     1     -10.234  10.984  64.984  1.00  0.00    -0.299 C  
HETATM   30  N   UNL     1      -8.951  10.828  65.088  1.00  0.00    -0.198 N  
HETATM   31  N   UNL     1     -10.858  10.354  63.942  1.00  0.00    -0.005 NA 
HETATM   32  H   UNL     1      -8.444  10.275  64.398  1.00  0.00     0.000 HD 
HETATM   33  C   UNL     1      -8.276  11.413  66.138  1.00  0.00    -0.041 C  
HETATM   34  H1  UNL     1     -10.303   9.802  63.289  1.00  0.00     0.000 HD 
HETATM   35  H2  UNL     1     -11.868  10.435  63.821  1.00  0.00     0.000 HD 
HETATM   36  O   UNL     1      -7.058  11.265  66.271  1.00  0.00    -0.095 OA 
ENDBRANCH  19  26
ENDBRANCH  16  17
ENDBRANCH  15  16
ENDBRANCH  12  15
ENDBRANCH  11  12
ENDBRANCH   8  11
ENDBRANCH   7   8
ENDBRANCH   6   7
ENDBRANCH   5   6
ENDBRANCH   2   5
TORSDOF 10
ENDMDL
MODEL      262
REMARK 921   NORMALIZED FREE ENERGY PREDICTED BY IDOCK:   -3.17 KCAL/MOL
REMARK 922        TOTAL FREE ENERGY PREDICTED BY IDOCK:   -5.95 KCAL/MOL
REMARK 923 INTER-LIGAND FREE ENERGY PREDICTED BY IDOCK:   -5.27 KCAL/MOL
REMARK 924 INTRA-LIGAND FREE ENERGY PREDICTED BY IDOCK:   -0.68 KCAL/MOL
REMARK 927      BINDING AFFINITY PREDICTED BY RF-SCORE:    0.00 PKD
ROOT
HETATM    1  C   UNL     1      -7.369  17.121  68.630  1.00  0.00    -0.238 C  
HETATM    2  N   UNL     1      -8.211  17.351  67.393  1.00  0.00    -0.199 N  
HETATM    3  C   UNL     1      -9.375  18.275  67.708  1.00  0.00    -0.271 C  
HETATM    4  C   UNL     1      -7.342  18.024  66.318  1.00  0.00    -0.282 C  
ENDROOT
BRANCH   2   5
HETATM    5  C   UNL     1      -8.717  15.970  66.905  1.00  0.00    -0.229 C  
BRANCH   5   6
HETATM    6  C   UNL     1      -8.944  14.951  68.007  1.00  0.00    -0.172 C  
BRANCH   6   7
HETATM    7  O   UNL     1      -9.335  13.719  67.433  1.00  0.00    -0.210 OA 
BRANCH   7   8
HETATM    8  P   UNL     1     -10.728  13.103  68.254  1.00  0.00    -0.257 P  
HETATM    9  O   UNL     1     -10.901  12.101  67.119  1.00  0.00    -0.228 OA 
HETATM   10  O   UNL     1     -11.353  14.498  68.138  1.00  0.00    -0.271 OA 
BRANCH   8  11
HETATM   11  O   UNL     1     -12.120  12.486  69.076  1.00  0.00    -0.259 OA 
BRANCH  11  12
HETATM   12  P   UNL     1     -11.666  11.119  70.033  1.00  0.00    -0.367 P  
HETATM   13  O   UNL     1     -12.866  11.508  71.092  1.00  0.00    -0.371 OA 
HETATM   14  O   UNL     1     -12.386  10.213  69.012  1.00  0.00     0.140 OA 
BRANCH  12  15
HETATM   15  O   UNL     1     -11.212   9.752  70.991  1.00  0.00    -0.330 OA 
BRANCH  15  16
HETATM   16  C   UNL     1     -10.800   8.585  70.253  1.00  0.00    -0.238 C  
BRANCH  16  17
HETATM   17  C   UNL     1      -9.605   7.872  70.865  1.00  0.00    -0.161 C  
HETATM   18  O   UNL     1      -9.571   6.511  70.427  1.00  0.00    -0.162 OA 
HETATM   19  C   UNL     1      -8.224   6.062  70.583  1.00  0.00    -0.120 C  
HETATM   20  H   UNL     1      -7.039   9.841  71.294  1.00  0.00     0.000 HD 
HETATM   21  C   UNL     1      -7.316   7.301  70.435  1.00  0.00    -0.078 C  
HETATM   22  H   UNL     1      -5.742   8.141  71.358  1.00  0.00     0.000 HD 
HETATM   23  C   UNL     1      -8.264   8.494  70.522  1.00  0.00    -0.115 C  
HETATM   24  O   UNL     1      -6.301   7.378  71.449  1.00  0.00    -0.036 OA 
HETATM   25  O   UNL     1      -7.879   9.451  71.509  1.00  0.00    -0.308 OA 
BRANCH  19  26
HETATM   26  N   UNL     1      -7.937   4.973  69.646  1.00  0.00    -0.071 N  
HETATM   27  C   UNL     1      -8.007   5.161  68.285  1.00  0.00    -0.087 C  
HETATM   28  C   UNL     1      -7.850   4.148  67.441  1.00  0.00    -0.091 C  
HETATM   29  C   UNL     1      -7.609   2.831  68.057  1.00  0.00    -0.056 C  
HETATM   30  N   UNL     1      -7.538   2.641  69.339  1.00  0.00    -0.044 N  
HETATM   31  N   UNL     1      -7.465   1.733  67.254  1.00  0.00    -0.058 NA 
HETATM   32  H   UNL     1      -7.357   1.708  69.709  1.00  0.00     0.000 HD 
HETATM   33  C   UNL     1      -7.709   3.706  70.196  1.00  0.00    -0.047 C  
HETATM   34  H1  UNL     1      -7.299   0.822  67.680  1.00  0.00     0.000 HD 
HETATM   35  H2  UNL     1      -7.523   1.825  66.239  1.00  0.00     0.000 HD 
HETATM   36  O   UNL     1      -7.665   3.550  71.419  1.00  0.00    -0.054 OA 
ENDBRANCH  19  26
ENDBRANCH  16  17
ENDBRANCH  15  16
ENDBRANCH  12  15
ENDBRANCH  11  12
ENDBRANCH   8  11
ENDBRANCH   7   8
ENDBRANCH   6   7
ENDBRANCH   5   6
ENDBRANCH   2   5
TORSDOF 10
ENDMDL
MODEL      263
REMARK 921   NORMALIZED FREE ENERGY PREDICTED BY IDOCK:   -3.16 KCAL/MOL
REMARK 922        TOTAL FREE ENERGY PREDICTED BY IDOCK:   -5.94 KCAL/MOL
REMARK 923 INTER-LIGAND FREE ENERGY PREDICTED BY IDOCK:   -4.95 KCAL/MOL
REMARK 924 INTRA-LIGAND FREE ENERGY PREDICTED BY IDOCK:   -0.99 KCAL/MOL
REMARK 927      BINDING AFFINITY PREDICTED BY RF-SCORE:    0.00 PKD
ROOT
HETATM    1  C   UNL     1     -12.066  15.523  64.102  1.00  0.00    -0.045 C  
HETATM    2  N   UNL     1     -11.711  14.119  64.543  1.00  0.00    -0.405 N  
HETATM    3  C   UNL     1     -12.652  13.654  65.641  1.00  0.00    -0.484 C  
HETATM    4  C   UNL     1     -11.866  13.167  63.345  1.00  0.00    -0.427 C  
ENDROOT
BRANCH   2   5
HETATM    5  C   UNL     1     -10.245  14.140  65.043  1.00  0.00    -0.370 C  
BRANCH   5   6
HETATM    6  C   UNL     1     -10.048  14.768  66.410  1.00  0.00    -0.280 C  
BRANCH   6   7
HETATM    7  O   UNL     1      -8.689  15.125  66.571  1.00  0.00    -0.278 OA 
BRANCH   7   8
HETATM    8  P   UNL     1      -7.947  14.102  67.753  1.00  0.00    -0.204 P  
HETATM    9  O   UNL     1      -8.881  14.702  68.796  1.00  0.00    -0.176 OA 
HETATM   10  O   UNL     1      -6.614  14.792  67.441  1.00  0.00    -0.280 OA 
BRANCH   8  11
HETATM   11  O   UNL     1      -7.205  13.079  68.934  1.00  0.00    -0.103 OA 
BRANCH  11  12
HETATM   12  P   UNL     1      -7.564  11.427  68.572  1.00  0.00    -0.138 P  
HETATM   13  O   UNL     1      -7.851  11.869  67.012  1.00  0.00    -0.158 OA 
HETATM   14  O   UNL     1      -6.049  11.136  68.577  1.00  0.00    -0.043 OA 
BRANCH  12  15
HETATM   15  O   UNL     1      -7.925   9.774  68.209  1.00  0.00    -0.095 OA 
BRANCH  15  16
HETATM   16  C   UNL     1      -9.129   9.255  68.805  1.00  0.00    -0.136 C  
BRANCH  16  17
HETATM   17  C   UNL     1      -8.954   7.876  69.423  1.00  0.00    -0.145 C  
HETATM   18  O   UNL     1      -9.200   6.867  68.441  1.00  0.00    -0.127 OA 
HETATM   19  C   UNL     1      -8.539   5.684  68.893  1.00  0.00    -0.101 C  
HETATM   20  H   UNL     1      -6.665   7.813  71.747  1.00  0.00     0.000 HD 
HETATM   21  C   UNL     1      -7.335   6.137  69.744  1.00  0.00    -0.079 C  
HETATM   22  H   UNL     1      -6.475   5.695  71.505  1.00  0.00     0.000 HD 
HETATM   23  C   UNL     1      -7.574   7.623  70.001  1.00  0.00    -0.087 C  
HETATM   24  O   UNL     1      -7.217   5.416  70.981  1.00  0.00    -0.068 OA 
HETATM   25  O   UNL     1      -7.529   7.971  71.385  1.00  0.00    -0.063 OA 
BRANCH  19  26
HETATM   26  N   UNL     1      -8.201   4.821  67.758  1.00  0.00    -0.100 N  
HETATM   27  C   UNL     1      -8.046   5.334  66.491  1.00  0.00    -0.108 C  
HETATM   28  C   UNL     1      -7.844   4.538  65.447  1.00  0.00    -0.090 C  
HETATM   29  C   UNL     1      -7.809   3.094  65.738  1.00  0.00    -0.085 C  
HETATM   30  N   UNL     1      -7.952   2.598  66.928  1.00  0.00    -0.075 N  
HETATM   31  N   UNL     1      -7.633   2.208  64.710  1.00  0.00    -0.066 NA 
HETATM   32  H   UNL     1      -7.906   1.590  67.073  1.00  0.00     0.000 HD 
HETATM   33  C   UNL     1      -8.165   3.442  67.996  1.00  0.00    -0.079 C  
HETATM   34  H1  UNL     1      -7.610   1.209  64.910  1.00  0.00     0.000 HD 
HETATM   35  H2  UNL     1      -7.527   2.544  63.752  1.00  0.00     0.000 HD 
HETATM   36  O   UNL     1      -8.322   2.997  69.136  1.00  0.00    -0.058 OA 
ENDBRANCH  19  26
ENDBRANCH  16  17
ENDBRANCH  15  16
ENDBRANCH  12  15
ENDBRANCH  11  12
ENDBRANCH   8  11
ENDBRANCH   7   8
ENDBRANCH   6   7
ENDBRANCH   5   6
ENDBRANCH   2   5
TORSDOF 10
ENDMDL
MODEL      264
REMARK 921   NORMALIZED FREE ENERGY PREDICTED BY IDOCK:   -3.15 KCAL/MOL
REMARK 922        TOTAL FREE ENERGY PREDICTED BY IDOCK:   -5.92 KCAL/MOL
REMARK 923 INTER-LIGAND FREE ENERGY PREDICTED BY IDOCK:   -5.03 KCAL/MOL
REMARK 924 INTRA-LIGAND FREE ENERGY PREDICTED BY IDOCK:   -0.89 KCAL/MOL
REMARK 927      BINDING AFFINITY PREDICTED BY RF-SCORE:    0.00 PKD
ROOT
HETATM    1  C   UNL     1      -8.534  14.591  69.506  1.00  0.00     0.290 C  
HETATM    2  N   UNL     1      -7.271  15.209  68.947  1.00  0.00    -0.123 N  
HETATM    3  C   UNL     1      -6.328  15.598  70.073  1.00  0.00    -0.116 C  
HETATM    4  C   UNL     1      -6.559  14.172  68.062  1.00  0.00    -0.151 C  
ENDROOT
BRANCH   2   5
HETATM    5  C   UNL     1      -7.683  16.450  68.117  1.00  0.00    -0.160 C  
BRANCH   5   6
HETATM    6  C   UNL     1      -8.695  17.359  68.791  1.00  0.00    -0.223 C  
BRANCH   6   7
HETATM    7  O   UNL     1      -9.415  18.072  67.805  1.00  0.00    -0.257 OA 
BRANCH   7   8
HETATM    8  P   UNL     1     -10.407  16.983  66.897  1.00  0.00    -0.238 P  
HETATM    9  O   UNL     1      -9.793  17.554  65.624  1.00  0.00    -0.543 OA 
HETATM   10  O   UNL     1     -11.634  17.660  67.518  1.00  0.00     0.530 OA 
BRANCH   8  11
HETATM   11  O   UNL     1     -11.398  15.894  65.989  1.00  0.00    -0.014 OA 
BRANCH  11  12
HETATM   12  P   UNL     1     -11.297  14.312  66.680  1.00  0.00    -0.374 P  
HETATM   13  O   UNL     1      -9.730  14.233  66.179  1.00  0.00    -0.297 OA 
HETATM   14  O   UNL     1     -11.183  14.969  68.072  1.00  0.00    -0.290 OA 
BRANCH  12  15
HETATM   15  O   UNL     1     -11.195  12.729  67.371  1.00  0.00    -0.266 OA 
BRANCH  15  16
HETATM   16  C   UNL     1     -10.941  11.660  66.439  1.00  0.00    -0.295 C  
BRANCH  16  17
HETATM   17  C   UNL     1      -9.752  10.792  66.823  1.00  0.00    -0.187 C  
HETATM   18  O   UNL     1      -9.877  10.368  68.183  1.00  0.00    -0.148 OA 
HETATM   19  C   UNL     1      -9.074   9.195  68.324  1.00  0.00    -0.132 C  
HETATM   20  H   UNL     1      -8.621   9.018  64.329  1.00  0.00     0.000 HD 
HETATM   21  C   UNL     1      -9.037   8.506  66.943  1.00  0.00    -0.146 C  
HETATM   22  H   UNL     1      -7.693   7.669  65.707  1.00  0.00     0.000 HD 
HETATM   23  C   UNL     1      -9.588   9.547  65.972  1.00  0.00    -0.251 C  
HETATM   24  O   UNL     1      -7.716   8.093  66.557  1.00  0.00    -0.090 OA 
HETATM   25  O   UNL     1      -8.724   9.798  64.863  1.00  0.00    -0.157 OA 
BRANCH  19  26
HETATM   26  N   UNL     1      -9.578   8.359  69.416  1.00  0.00    -0.169 N  
HETATM   27  C   UNL     1     -10.920   8.298  69.711  1.00  0.00    -0.129 C  
HETATM   28  C   UNL     1     -11.363   7.623  70.765  1.00  0.00    -0.296 C  
HETATM   29  C   UNL     1     -10.331   6.966  71.586  1.00  0.00    -0.199 C  
HETATM   30  N   UNL     1      -9.063   7.013  71.317  1.00  0.00    -0.151 N  
HETATM   31  N   UNL     1     -10.707   6.274  72.706  1.00  0.00    -0.231 NA 
HETATM   32  H   UNL     1      -8.394   6.528  71.915  1.00  0.00     0.000 HD 
HETATM   33  C   UNL     1      -8.625   7.723  70.220  1.00  0.00    -0.138 C  
HETATM   34  H1  UNL     1      -9.993   5.820  73.274  1.00  0.00     0.000 HD 
HETATM   35  H2  UNL     1     -11.691   6.215  72.969  1.00  0.00     0.000 HD 
HETATM   36  O   UNL     1      -7.424   7.800  69.953  1.00  0.00    -0.078 OA 
ENDBRANCH  19  26
ENDBRANCH  16  17
ENDBRANCH  15  16
ENDBRANCH  12  15
ENDBRANCH  11  12
ENDBRANCH   8  11
ENDBRANCH   7   8
ENDBRANCH   6   7
ENDBRANCH   5   6
ENDBRANCH   2   5
TORSDOF 10
ENDMDL
MODEL      265
REMARK 921   NORMALIZED FREE ENERGY PREDICTED BY IDOCK:   -3.12 KCAL/MOL
REMARK 922        TOTAL FREE ENERGY PREDICTED BY IDOCK:   -5.88 KCAL/MOL
REMARK 923 INTER-LIGAND FREE ENERGY PREDICTED BY IDOCK:   -5.85 KCAL/MOL
REMARK 924 INTRA-LIGAND FREE ENERGY PREDICTED BY IDOCK:   -0.03 KCAL/MOL
REMARK 927      BINDING AFFINITY PREDICTED BY RF-SCORE:    0.00 PKD
ROOT
HETATM    1  C   UNL     1      -5.867   6.988  64.248  1.00  0.00    -0.036 C  
HETATM    2  N   UNL     1      -6.642   8.270  64.035  1.00  0.00    -0.070 N  
HETATM    3  C   UNL     1      -5.694   9.453  63.935  1.00  0.00    -0.079 C  
HETATM    4  C   UNL     1      -7.420   8.167  62.712  1.00  0.00    -0.111 C  
ENDROOT
BRANCH   2   5
HETATM    5  C   UNL     1      -7.612   8.437  65.231  1.00  0.00    -0.090 C  
BRANCH   5   6
HETATM    6  C   UNL     1      -7.347   9.654  66.100  1.00  0.00    -0.098 C  
BRANCH   6   7
HETATM    7  O   UNL     1      -7.388   9.275  67.462  1.00  0.00    -0.086 OA 
BRANCH   7   8
HETATM    8  P   UNL     1      -8.767   9.985  68.229  1.00  0.00    -0.123 P  
HETATM    9  O   UNL     1      -9.552   8.724  67.888  1.00  0.00    -0.140 OA 
HETATM   10  O   UNL     1      -8.685  11.127  67.210  1.00  0.00    -0.136 OA 
BRANCH   8  11
HETATM   11  O   UNL     1     -10.146  10.694  68.997  1.00  0.00    -0.196 OA 
BRANCH  11  12
HETATM   12  P   UNL     1     -10.906  11.801  67.908  1.00  0.00    -0.244 P  
HETATM   13  O   UNL     1     -11.780  10.545  67.298  1.00  0.00    -0.217 OA 
HETATM   14  O   UNL     1     -11.780  12.295  69.080  1.00  0.00    -0.287 OA 
BRANCH  12  15
HETATM   15  O   UNL     1     -11.667  12.909  66.817  1.00  0.00    -0.346 OA 
BRANCH  15  16
HETATM   16  C   UNL     1     -10.821  13.958  66.307  1.00  0.00    -0.290 C  
BRANCH  16  17
HETATM   17  C   UNL     1     -10.123  14.756  67.397  1.00  0.00    -0.231 C  
HETATM   18  O   UNL     1      -8.836  15.182  66.942  1.00  0.00    -0.222 OA 
HETATM   19  C   UNL     1      -8.468  16.307  67.742  1.00  0.00    -0.163 C  
HETATM   20  H   UNL     1     -12.200  16.470  69.238  1.00  0.00     0.000 HD 
HETATM   21  C   UNL     1      -9.778  16.997  68.178  1.00  0.00    -0.268 C  
HETATM   22  H   UNL     1     -10.603  17.761  69.842  1.00  0.00     0.000 HD 
HETATM   23  C   UNL     1     -10.879  15.992  67.846  1.00  0.00    -0.333 C  
HETATM   24  O   UNL     1      -9.797  17.336  69.574  1.00  0.00    -0.040 OA 
HETATM   25  O   UNL     1     -11.726  15.696  68.957  1.00  0.00    -0.364 OA 
BRANCH  19  26
HETATM   26  N   UNL     1      -7.532  17.167  67.014  1.00  0.00    -0.173 N  
HETATM   27  C   UNL     1      -6.191  17.185  67.318  1.00  0.00    -0.161 C  
HETATM   28  C   UNL     1      -5.363  18.041  66.730  1.00  0.00    -0.166 C  
HETATM   29  C   UNL     1      -5.976  18.960  65.755  1.00  0.00    -0.184 C  
HETATM   30  N   UNL     1      -7.239  18.952  65.458  1.00  0.00    -0.158 N  
HETATM   31  N   UNL     1      -5.193  19.891  65.128  1.00  0.00    -0.155 NA 
HETATM   32  H   UNL     1      -7.607  19.604  64.765  1.00  0.00     0.000 HD 
HETATM   33  C   UNL     1      -8.081  18.058  66.083  1.00  0.00    -0.168 C  
HETATM   34  H1  UNL     1      -5.617  20.527  64.454  1.00  0.00     0.000 HD 
HETATM   35  H2  UNL     1      -4.195  19.947  65.334  1.00  0.00     0.000 HD 
HETATM   36  O   UNL     1      -9.288  18.042  65.833  1.00  0.00    -0.520 OA 
ENDBRANCH  19  26
ENDBRANCH  16  17
ENDBRANCH  15  16
ENDBRANCH  12  15
ENDBRANCH  11  12
ENDBRANCH   8  11
ENDBRANCH   7   8
ENDBRANCH   6   7
ENDBRANCH   5   6
ENDBRANCH   2   5
TORSDOF 10
ENDMDL
MODEL      266
REMARK 921   NORMALIZED FREE ENERGY PREDICTED BY IDOCK:   -3.12 KCAL/MOL
REMARK 922        TOTAL FREE ENERGY PREDICTED BY IDOCK:   -5.87 KCAL/MOL
REMARK 923 INTER-LIGAND FREE ENERGY PREDICTED BY IDOCK:   -5.18 KCAL/MOL
REMARK 924 INTRA-LIGAND FREE ENERGY PREDICTED BY IDOCK:   -0.69 KCAL/MOL
REMARK 927      BINDING AFFINITY PREDICTED BY RF-SCORE:    0.00 PKD
ROOT
HETATM    1  C   UNL     1      -5.668   6.815  64.357  1.00  0.00    -0.031 C  
HETATM    2  N   UNL     1      -6.250   8.131  64.827  1.00  0.00    -0.049 N  
HETATM    3  C   UNL     1      -5.252   9.257  64.618  1.00  0.00    -0.049 C  
HETATM    4  C   UNL     1      -7.506   8.444  63.997  1.00  0.00    -0.111 C  
ENDROOT
BRANCH   2   5
HETATM    5  C   UNL     1      -6.606   7.978  66.327  1.00  0.00    -0.047 C  
BRANCH   5   6
HETATM    6  C   UNL     1      -6.044   9.064  67.228  1.00  0.00    -0.058 C  
BRANCH   6   7
HETATM    7  O   UNL     1      -5.478   8.471  68.380  1.00  0.00    -0.033 OA 
BRANCH   7   8
HETATM    8  P   UNL     1      -6.689   8.282  69.601  1.00  0.00    -0.037 P  
HETATM    9  O   UNL     1      -6.943   6.876  69.073  1.00  0.00    -0.076 OA 
HETATM   10  O   UNL     1      -7.430   9.472  68.981  1.00  0.00    -0.071 OA 
BRANCH   8  11
HETATM   11  O   UNL     1      -7.899   8.094  70.823  1.00  0.00    -0.082 OA 
BRANCH  11  12
HETATM   12  P   UNL     1      -9.429   8.610  70.203  1.00  0.00    -0.177 P  
HETATM   13  O   UNL     1      -9.867   7.028  70.070  1.00  0.00    -0.176 OA 
HETATM   14  O   UNL     1      -9.850   8.966  71.645  1.00  0.00    -0.281 OA 
BRANCH  12  15
HETATM   15  O   UNL     1     -10.959   9.126  69.583  1.00  0.00    -0.226 OA 
BRANCH  15  16
HETATM   16  C   UNL     1     -10.919  10.258  68.692  1.00  0.00    -0.244 C  
BRANCH  16  17
HETATM   17  C   UNL     1     -10.778  11.590  69.412  1.00  0.00    -0.068 C  
HETATM   18  O   UNL     1     -10.250  12.574  68.520  1.00  0.00    -0.228 OA 
HETATM   19  C   UNL     1     -10.620  13.849  69.047  1.00  0.00    -0.167 C  
HETATM   20  H   UNL     1     -13.082  12.054  71.676  1.00  0.00     0.000 HD 
HETATM   21  C   UNL     1     -11.935  13.649  69.829  1.00  0.00    -0.341 C  
HETATM   22  H   UNL     1     -12.737  14.165  71.597  1.00  0.00     0.000 HD 
HETATM   23  C   UNL     1     -12.078  12.136  69.973  1.00  0.00    -0.277 C  
HETATM   24  O   UNL     1     -11.927  14.288  71.116  1.00  0.00    -0.336 OA 
HETATM   25  O   UNL     1     -12.268  11.713  71.324  1.00  0.00    -0.234 OA 
BRANCH  19  26
HETATM   26  N   UNL     1     -10.686  14.846  67.976  1.00  0.00    -0.248 N  
HETATM   27  C   UNL     1     -11.520  14.681  66.895  1.00  0.00    -0.363 C  
HETATM   28  C   UNL     1     -11.502  15.531  65.875  1.00  0.00     0.082 C  
HETATM   29  C   UNL     1     -10.534  16.638  65.979  1.00  0.00    -0.298 C  
HETATM   30  N   UNL     1      -9.744  16.806  66.995  1.00  0.00    -0.244 N  
HETATM   31  N   UNL     1     -10.436  17.540  64.955  1.00  0.00    -0.279 NA 
HETATM   32  H   UNL     1      -9.102  17.598  67.019  1.00  0.00     0.000 HD 
HETATM   33  C   UNL     1      -9.777  15.909  68.040  1.00  0.00    -0.216 C  
HETATM   34  H1  UNL     1      -9.766  18.305  65.027  1.00  0.00     0.000 HD 
HETATM   35  H2  UNL     1     -11.027  17.448  64.128  1.00  0.00     0.000 HD 
HETATM   36  O   UNL     1      -9.023  16.034  69.008  1.00  0.00    -0.218 OA 
ENDBRANCH  19  26
ENDBRANCH  16  17
ENDBRANCH  15  16
ENDBRANCH  12  15
ENDBRANCH  11  12
ENDBRANCH   8  11
ENDBRANCH   7   8
ENDBRANCH   6   7
ENDBRANCH   5   6
ENDBRANCH   2   5
TORSDOF 10
ENDMDL
MODEL      267
REMARK 921   NORMALIZED FREE ENERGY PREDICTED BY IDOCK:   -3.08 KCAL/MOL
REMARK 922        TOTAL FREE ENERGY PREDICTED BY IDOCK:   -5.82 KCAL/MOL
REMARK 923 INTER-LIGAND FREE ENERGY PREDICTED BY IDOCK:   -4.52 KCAL/MOL
REMARK 924 INTRA-LIGAND FREE ENERGY PREDICTED BY IDOCK:   -1.30 KCAL/MOL
REMARK 927      BINDING AFFINITY PREDICTED BY RF-SCORE:    0.00 PKD
ROOT
HETATM    1  C   UNL     1     -10.365  14.033  65.253  1.00  0.00    -0.383 C  
HETATM    2  N   UNL     1     -11.470  13.111  65.723  1.00  0.00    -0.315 N  
HETATM    3  C   UNL     1     -12.233  13.743  66.874  1.00  0.00    -0.366 C  
HETATM    4  C   UNL     1     -12.454  12.883  64.563  1.00  0.00    -0.400 C  
ENDROOT
BRANCH   2   5
HETATM    5  C   UNL     1     -10.815  11.777  66.159  1.00  0.00    -0.291 C  
BRANCH   5   6
HETATM    6  C   UNL     1      -9.442  11.518  65.564  1.00  0.00    -0.212 C  
BRANCH   6   7
HETATM    7  O   UNL     1      -9.576  10.724  64.402  1.00  0.00    -0.231 OA 
BRANCH   7   8
HETATM    8  P   UNL     1      -8.607   9.298  64.547  1.00  0.00    -0.156 P  
HETATM    9  O   UNL     1      -7.823   9.995  65.652  1.00  0.00    -0.125 OA 
HETATM   10  O   UNL     1      -8.191   9.491  63.084  1.00  0.00    -0.139 OA 
BRANCH   8  11
HETATM   11  O   UNL     1      -7.638   7.872  64.693  1.00  0.00    -0.094 OA 
BRANCH  11  12
HETATM   12  P   UNL     1      -8.127   6.985  66.094  1.00  0.00    -0.132 P  
HETATM   13  O   UNL     1      -8.591   5.751  65.107  1.00  0.00    -0.149 OA 
HETATM   14  O   UNL     1      -6.640   6.670  66.366  1.00  0.00    -0.042 OA 
BRANCH  12  15
HETATM   15  O   UNL     1      -8.616   6.096  67.496  1.00  0.00    -0.108 OA 
BRANCH  15  16
HETATM   16  C   UNL     1      -7.572   5.354  68.156  1.00  0.00    -0.081 C  
BRANCH  16  17
HETATM   17  C   UNL     1      -7.218   5.899  69.531  1.00  0.00    -0.070 C  
HETATM   18  O   UNL     1      -6.516   7.137  69.400  1.00  0.00    -0.034 OA 
HETATM   19  C   UNL     1      -6.671   7.832  70.638  1.00  0.00    -0.038 C  
HETATM   20  H   UNL     1      -9.444   5.157  71.798  1.00  0.00     0.000 HD 
HETATM   21  C   UNL     1      -8.014   7.374  71.246  1.00  0.00    -0.096 C  
HETATM   22  H   UNL     1      -8.744   6.770  73.017  1.00  0.00     0.000 HD 
HETATM   23  C   UNL     1      -8.415   6.148  70.430  1.00  0.00    -0.133 C  
HETATM   24  O   UNL     1      -7.918   7.052  72.643  1.00  0.00    -0.099 OA 
HETATM   25  O   UNL     1      -8.695   5.002  71.235  1.00  0.00    -0.125 OA 
BRANCH  19  26
HETATM   26  N   UNL     1      -6.551   9.278  70.432  1.00  0.00    -0.059 N  
HETATM   27  C   UNL     1      -7.147   9.901  69.360  1.00  0.00    -0.067 C  
HETATM   28  C   UNL     1      -6.949  11.191  69.117  1.00  0.00    -0.108 C  
HETATM   29  C   UNL     1      -6.052  11.891  70.054  1.00  0.00    -0.153 C  
HETATM   30  N   UNL     1      -5.486  11.315  71.069  1.00  0.00    -0.103 N  
HETATM   31  N   UNL     1      -5.777  13.216  69.853  1.00  0.00    -0.111 NA 
HETATM   32  H   UNL     1      -4.884  11.853  71.693  1.00  0.00     0.000 HD 
HETATM   33  C   UNL     1      -5.702   9.974  71.300  1.00  0.00    -0.037 C  
HETATM   34  H1  UNL     1      -5.157  13.700  70.501  1.00  0.00     0.000 HD 
HETATM   35  H2  UNL     1      -6.188  13.714  69.063  1.00  0.00     0.000 HD 
HETATM   36  O   UNL     1      -5.160   9.398  72.247  1.00  0.00    -0.065 OA 
ENDBRANCH  19  26
ENDBRANCH  16  17
ENDBRANCH  15  16
ENDBRANCH  12  15
ENDBRANCH  11  12
ENDBRANCH   8  11
ENDBRANCH   7   8
ENDBRANCH   6   7
ENDBRANCH   5   6
ENDBRANCH   2   5
TORSDOF 10
ENDMDL
MODEL      268
REMARK 921   NORMALIZED FREE ENERGY PREDICTED BY IDOCK:   -3.07 KCAL/MOL
REMARK 922        TOTAL FREE ENERGY PREDICTED BY IDOCK:   -5.80 KCAL/MOL
REMARK 923 INTER-LIGAND FREE ENERGY PREDICTED BY IDOCK:   -5.71 KCAL/MOL
REMARK 924 INTRA-LIGAND FREE ENERGY PREDICTED BY IDOCK:   -0.09 KCAL/MOL
REMARK 927      BINDING AFFINITY PREDICTED BY RF-SCORE:    0.00 PKD
ROOT
HETATM    1  C   UNL     1      -8.491   7.267  64.219  1.00  0.00     0.256 C  
HETATM    2  N   UNL     1      -8.432   8.774  64.352  1.00  0.00    -0.159 N  
HETATM    3  C   UNL     1      -7.017   9.223  64.671  1.00  0.00    -0.092 C  
HETATM    4  C   UNL     1      -8.846   9.407  63.014  1.00  0.00    -0.195 C  
ENDROOT
BRANCH   2   5
HETATM    5  C   UNL     1      -9.411   9.183  65.480  1.00  0.00    -0.206 C  
BRANCH   5   6
HETATM    6  C   UNL     1      -8.782   9.975  66.613  1.00  0.00    -0.129 C  
BRANCH   6   7
HETATM    7  O   UNL     1      -8.534   9.114  67.706  1.00  0.00    -0.116 OA 
BRANCH   7   8
HETATM    8  P   UNL     1      -9.622   9.477  69.001  1.00  0.00    -0.181 P  
HETATM    9  O   UNL     1     -10.661   8.596  68.319  1.00  0.00    -0.164 OA 
HETATM   10  O   UNL     1      -9.510  10.957  68.615  1.00  0.00    -0.177 OA 
BRANCH   8  11
HETATM   11  O   UNL     1     -10.710   9.840  70.297  1.00  0.00    -0.257 OA 
BRANCH  11  12
HETATM   12  P   UNL     1     -11.498  11.347  69.982  1.00  0.00    -0.105 P  
HETATM   13  O   UNL     1     -12.782  10.507  69.382  1.00  0.00    -0.160 OA 
HETATM   14  O   UNL     1     -11.823  11.448  71.487  1.00  0.00     0.302 OA 
BRANCH  12  15
HETATM   15  O   UNL     1     -12.288  12.854  69.666  1.00  0.00    -0.173 OA 
BRANCH  15  16
HETATM   16  C   UNL     1     -11.576  14.030  70.096  1.00  0.00    -0.204 C  
BRANCH  16  17
HETATM   17  C   UNL     1     -11.572  15.147  69.063  1.00  0.00    -0.330 C  
HETATM   18  O   UNL     1     -10.688  16.191  69.477  1.00  0.00    -0.265 OA 
HETATM   19  C   UNL     1     -10.328  16.916  68.300  1.00  0.00    -0.335 C  
HETATM   20  H   UNL     1     -12.004  14.056  66.019  1.00  0.00     0.000 HD 
HETATM   21  C   UNL     1     -10.402  15.924  67.120  1.00  0.00    -0.300 C  
HETATM   22  H   UNL     1     -11.131  15.852  65.249  1.00  0.00     0.000 HD 
HETATM   23  C   UNL     1     -11.143  14.710  67.675  1.00  0.00    -0.304 C  
HETATM   24  O   UNL     1     -11.085  16.462  65.975  1.00  0.00    -0.049 OA 
HETATM   25  O   UNL     1     -12.272  14.329  66.888  1.00  0.00    -0.438 OA 
BRANCH  19  26
HETATM   26  N   UNL     1      -9.027  17.565  68.477  1.00  0.00    -0.277 N  
HETATM   27  C   UNL     1      -8.772  18.813  67.956  1.00  0.00    -0.297 C  
HETATM   28  C   UNL     1      -7.561  19.354  68.026  1.00  0.00    -0.324 C  
HETATM   29  C   UNL     1      -6.528  18.532  68.681  1.00  0.00    -0.231 C  
HETATM   30  N   UNL     1      -6.756  17.355  69.178  1.00  0.00    -0.242 N  
HETATM   31  N   UNL     1      -5.248  19.009  68.767  1.00  0.00    -0.191 NA 
HETATM   32  H   UNL     1      -6.005  16.836  69.632  1.00  0.00     0.000 HD 
HETATM   33  C   UNL     1      -8.019  16.811  69.090  1.00  0.00    -0.126 C  
HETATM   34  H1  UNL     1      -4.533  18.440  69.220  1.00  0.00     0.000 HD 
HETATM   35  H2  UNL     1      -5.012  19.924  68.382  1.00  0.00     0.000 HD 
HETATM   36  O   UNL     1      -8.259  15.687  69.538  1.00  0.00    -0.242 OA 
ENDBRANCH  19  26
ENDBRANCH  16  17
ENDBRANCH  15  16
ENDBRANCH  12  15
ENDBRANCH  11  12
ENDBRANCH   8  11
ENDBRANCH   7   8
ENDBRANCH   6   7
ENDBRANCH   5   6
ENDBRANCH   2   5
TORSDOF 10
ENDMDL
MODEL      269
REMARK 921   NORMALIZED FREE ENERGY PREDICTED BY IDOCK:   -3.06 KCAL/MOL
REMARK 922        TOTAL FREE ENERGY PREDICTED BY IDOCK:   -5.79 KCAL/MOL
REMARK 923 INTER-LIGAND FREE ENERGY PREDICTED BY IDOCK:   -6.27 KCAL/MOL
REMARK 924 INTRA-LIGAND FREE ENERGY PREDICTED BY IDOCK:    0.48 KCAL/MOL
REMARK 927      BINDING AFFINITY PREDICTED BY RF-SCORE:    0.00 PKD
ROOT
HETATM    1  C   UNL     1     -12.719  15.228  73.245  1.00  0.00    -0.511 C  
HETATM    2  N   UNL     1     -13.102  14.397  72.039  1.00  0.00    -0.339 N  
HETATM    3  C   UNL     1     -13.463  12.984  72.462  1.00  0.00    -0.419 C  
HETATM    4  C   UNL     1     -14.336  15.029  71.373  1.00  0.00    -0.497 C  
ENDROOT
BRANCH   2   5
HETATM    5  C   UNL     1     -11.895  14.394  71.068  1.00  0.00    -0.270 C  
BRANCH   5   6
HETATM    6  C   UNL     1     -12.075  13.530  69.832  1.00  0.00    -0.341 C  
BRANCH   6   7
HETATM    7  O   UNL     1     -11.163  13.944  68.834  1.00  0.00    -0.246 OA 
BRANCH   7   8
HETATM    8  P   UNL     1     -10.977  12.694  67.652  1.00  0.00    -0.268 P  
HETATM    9  O   UNL     1     -11.878  13.497  66.722  1.00  0.00    -0.364 OA 
HETATM   10  O   UNL     1     -11.600  11.718  68.657  1.00  0.00    -0.258 OA 
BRANCH   8  11
HETATM   11  O   UNL     1     -10.790  11.444  66.470  1.00  0.00    -0.271 OA 
BRANCH  11  12
HETATM   12  P   UNL     1      -9.369  10.524  66.824  1.00  0.00    -0.162 P  
HETATM   13  O   UNL     1      -9.086  10.407  65.206  1.00  0.00    -0.171 OA 
HETATM   14  O   UNL     1      -8.659  11.841  67.205  1.00  0.00    -0.149 OA 
BRANCH  12  15
HETATM   15  O   UNL     1      -7.947   9.604  67.178  1.00  0.00    -0.105 OA 
BRANCH  15  16
HETATM   16  C   UNL     1      -6.728  10.093  66.586  1.00  0.00    -0.079 C  
BRANCH  16  17
HETATM   17  C   UNL     1      -6.142   9.155  65.542  1.00  0.00    -0.059 C  
HETATM   18  O   UNL     1      -6.536   7.809  65.820  1.00  0.00    -0.045 OA 
HETATM   19  C   UNL     1      -6.421   7.085  64.594  1.00  0.00    -0.036 C  
HETATM   20  H   UNL     1      -5.885  10.539  62.599  1.00  0.00     0.000 HD 
HETATM   21  C   UNL     1      -6.648   8.097  63.451  1.00  0.00    -0.080 C  
HETATM   22  H   UNL     1      -5.819   8.602  61.692  1.00  0.00     0.000 HD 
HETATM   23  C   UNL     1      -6.561   9.467  64.118  1.00  0.00    -0.101 C  
HETATM   24  O   UNL     1      -5.680   7.979  62.395  1.00  0.00    -0.067 OA 
HETATM   25  O   UNL     1      -5.623  10.343  63.491  1.00  0.00    -0.132 OA 
BRANCH  19  26
HETATM   26  N   UNL     1      -7.333   5.938  64.590  1.00  0.00    -0.066 N  
HETATM   27  C   UNL     1      -7.063   4.812  63.847  1.00  0.00    -0.049 C  
HETATM   28  C   UNL     1      -7.940   3.818  63.761  1.00  0.00    -0.088 C  
HETATM   29  C   UNL     1      -9.203   4.011  64.497  1.00  0.00    -0.151 C  
HETATM   30  N   UNL     1      -9.467   5.067  65.203  1.00  0.00    -0.331 N  
HETATM   31  N   UNL     1     -10.168   3.043  64.435  1.00  0.00    -0.366 NA 
HETATM   32  H   UNL     1     -10.353   5.141  65.702  1.00  0.00     0.000 HD 
HETATM   33  C   UNL     1      -8.545   6.088  65.274  1.00  0.00    -0.099 C  
HETATM   34  H1  UNL     1     -11.041   3.176  64.943  1.00  0.00     0.000 HD 
HETATM   35  H2  UNL     1     -10.015   2.197  63.885  1.00  0.00     0.000 HD 
HETATM   36  O   UNL     1      -8.779   7.111  65.922  1.00  0.00    -0.149 OA 
ENDBRANCH  19  26
ENDBRANCH  16  17
ENDBRANCH  15  16
ENDBRANCH  12  15
ENDBRANCH  11  12
ENDBRANCH   8  11
ENDBRANCH   7   8
ENDBRANCH   6   7
ENDBRANCH   5   6
ENDBRANCH   2   5
TORSDOF 10
ENDMDL
MODEL      270
REMARK 921   NORMALIZED FREE ENERGY PREDICTED BY IDOCK:   -3.01 KCAL/MOL
REMARK 922        TOTAL FREE ENERGY PREDICTED BY IDOCK:   -5.71 KCAL/MOL
REMARK 923 INTER-LIGAND FREE ENERGY PREDICTED BY IDOCK:   -5.36 KCAL/MOL
REMARK 924 INTRA-LIGAND FREE ENERGY PREDICTED BY IDOCK:   -0.35 KCAL/MOL
REMARK 927      BINDING AFFINITY PREDICTED BY RF-SCORE:    0.00 PKD
ROOT
HETATM    1  C   UNL     1      -6.774  16.836  69.816  1.00  0.00     0.029 C  
HETATM    2  N   UNL     1      -6.726  17.380  68.405  1.00  0.00    -0.180 N  
HETATM    3  C   UNL     1      -6.305  18.840  68.414  1.00  0.00    -0.216 C  
HETATM    4  C   UNL     1      -5.684  16.585  67.600  1.00  0.00    -0.138 C  
ENDROOT
BRANCH   2   5
HETATM    5  C   UNL     1      -8.138  17.215  67.789  1.00  0.00    -0.193 C  
BRANCH   5   6
HETATM    6  C   UNL     1      -8.173  16.464  66.471  1.00  0.00    -0.306 C  
BRANCH   6   7
HETATM    7  O   UNL     1      -9.496  16.457  65.970  1.00  0.00    -0.306 OA 
BRANCH   7   8
HETATM    8  P   UNL     1     -10.387  15.153  66.677  1.00  0.00    -0.291 P  
HETATM    9  O   UNL     1     -11.387  15.273  65.534  1.00  0.00    -0.311 OA 
HETATM   10  O   UNL     1     -10.561  16.017  67.932  1.00  0.00    -0.283 OA 
BRANCH   8  11
HETATM   11  O   UNL     1     -11.277  13.849  67.384  1.00  0.00    -0.293 OA 
BRANCH  11  12
HETATM   12  P   UNL     1     -10.208  12.529  67.705  1.00  0.00    -0.227 P  
HETATM   13  O   UNL     1     -11.460  11.738  68.427  1.00  0.00    -0.244 OA 
HETATM   14  O   UNL     1     -10.342  12.110  66.226  1.00  0.00    -0.215 OA 
BRANCH  12  15
HETATM   15  O   UNL     1      -9.138  11.207  68.027  1.00  0.00    -0.143 OA 
BRANCH  15  16
HETATM   16  C   UNL     1      -8.700  11.082  69.394  1.00  0.00     0.220 C  
BRANCH  16  17
HETATM   17  C   UNL     1      -8.866   9.680  69.958  1.00  0.00    -0.232 C  
HETATM   18  O   UNL     1      -9.519   8.843  69.000  1.00  0.00    -0.154 OA 
HETATM   19  C   UNL     1      -9.188   7.495  69.337  1.00  0.00    -0.149 C  
HETATM   20  H   UNL     1      -6.431   8.820  71.952  1.00  0.00     0.000 HD 
HETATM   21  C   UNL     1      -7.808   7.529  70.027  1.00  0.00    -0.099 C  
HETATM   22  H   UNL     1      -6.907   6.756  71.648  1.00  0.00     0.000 HD 
HETATM   23  C   UNL     1      -7.563   9.003  70.340  1.00  0.00    -0.100 C  
HETATM   24  O   UNL     1      -7.757   6.735  71.224  1.00  0.00    -0.091 OA 
HETATM   25  O   UNL     1      -7.247   9.244  71.712  1.00  0.00    -0.328 OA 
BRANCH  19  26
HETATM   26  N   UNL     1      -9.262   6.638  68.152  1.00  0.00    -0.118 N  
HETATM   27  C   UNL     1      -9.030   7.137  66.891  1.00  0.00    -0.134 C  
HETATM   28  C   UNL     1      -9.202   6.384  65.811  1.00  0.00     0.032 C  
HETATM   29  C   UNL     1      -9.660   5.005  66.055  1.00  0.00    -0.168 C  
HETATM   30  N   UNL     1      -9.880   4.521  67.239  1.00  0.00    -0.190 N  
HETATM   31  N   UNL     1      -9.886   4.176  64.990  1.00  0.00    -0.193 NA 
HETATM   32  H   UNL     1     -10.184   3.555  67.349  1.00  0.00     0.000 HD 
HETATM   33  C   UNL     1      -9.700   5.322  68.346  1.00  0.00    -0.141 C  
HETATM   34  H1  UNL     1     -10.204   3.222  65.159  1.00  0.00     0.000 HD 
HETATM   35  H2  UNL     1      -9.739   4.509  64.037  1.00  0.00     0.000 HD 
HETATM   36  O   UNL     1      -9.920   4.894  69.482  1.00  0.00    -0.200 OA 
ENDBRANCH  19  26
ENDBRANCH  16  17
ENDBRANCH  15  16
ENDBRANCH  12  15
ENDBRANCH  11  12
ENDBRANCH   8  11
ENDBRANCH   7   8
ENDBRANCH   6   7
ENDBRANCH   5   6
ENDBRANCH   2   5
TORSDOF 10
ENDMDL
MODEL      271
REMARK 921   NORMALIZED FREE ENERGY PREDICTED BY IDOCK:   -2.99 KCAL/MOL
REMARK 922        TOTAL FREE ENERGY PREDICTED BY IDOCK:   -5.67 KCAL/MOL
REMARK 923 INTER-LIGAND FREE ENERGY PREDICTED BY IDOCK:   -8.13 KCAL/MOL
REMARK 924 INTRA-LIGAND FREE ENERGY PREDICTED BY IDOCK:    2.46 KCAL/MOL
REMARK 927      BINDING AFFINITY PREDICTED BY RF-SCORE:    0.00 PKD
ROOT
HETATM    1  C   UNL     1      -5.764  14.086  70.677  1.00  0.00    -0.177 C  
HETATM    2  N   UNL     1      -5.896  15.162  69.621  1.00  0.00    -0.106 N  
HETATM    3  C   UNL     1      -5.316  14.684  68.301  1.00  0.00    -0.113 C  
HETATM    4  C   UNL     1      -7.389  15.466  69.406  1.00  0.00    -0.213 C  
ENDROOT
BRANCH   2   5
HETATM    5  C   UNL     1      -5.148  16.417  70.133  1.00  0.00    -0.163 C  
BRANCH   5   6
HETATM    6  C   UNL     1      -5.921  17.717  70.001  1.00  0.00    -0.184 C  
BRANCH   6   7
HETATM    7  O   UNL     1      -5.288  18.545  69.045  1.00  0.00    -0.192 OA 
BRANCH   7   8
HETATM    8  P   UNL     1      -6.439  19.070  67.865  1.00  0.00    -0.226 P  
HETATM    9  O   UNL     1      -7.544  18.530  68.765  1.00  0.00    -0.298 OA 
HETATM   10  O   UNL     1      -5.758  18.137  66.857  1.00  0.00    -0.137 OA 
BRANCH   8  11
HETATM   11  O   UNL     1      -7.590  19.595  66.685  1.00  0.00    -0.238 OA 
BRANCH  11  12
HETATM   12  P   UNL     1      -8.471  18.231  66.091  1.00  0.00     0.094 P  
HETATM   13  O   UNL     1      -7.450  17.251  66.935  1.00  0.00    -0.174 OA 
HETATM   14  O   UNL     1      -9.577  18.546  67.120  1.00  0.00    -0.284 OA 
BRANCH  12  15
HETATM   15  O   UNL     1      -9.351  16.864  65.498  1.00  0.00    -0.472 OA 
BRANCH  15  16
HETATM   16  C   UNL     1     -10.786  16.995  65.515  1.00  0.00    -0.138 C  
BRANCH  16  17
HETATM   17  C   UNL     1     -11.501  15.753  66.024  1.00  0.00     0.266 C  
HETATM   18  O   UNL     1     -11.413  14.707  65.053  1.00  0.00    -0.356 OA 
HETATM   19  C   UNL     1     -11.614  13.478  65.753  1.00  0.00    -0.330 C  
HETATM   20  H   UNL     1     -11.309  15.422  69.264  1.00  0.00     0.000 HD 
HETATM   21  C   UNL     1     -11.122  13.698  67.199  1.00  0.00    -0.297 C  
HETATM   22  H   UNL     1     -11.734  13.332  69.078  1.00  0.00     0.000 HD 
HETATM   23  C   UNL     1     -10.953  15.209  67.330  1.00  0.00    -0.327 C  
HETATM   24  O   UNL     1     -12.037  13.197  68.187  1.00  0.00    -0.319 OA 
HETATM   25  O   UNL     1     -11.652  15.762  68.446  1.00  0.00    -0.373 OA 
BRANCH  19  26
HETATM   26  N   UNL     1     -10.965  12.373  65.044  1.00  0.00    -0.289 N  
HETATM   27  C   UNL     1      -9.794  11.817  65.503  1.00  0.00    -0.234 C  
HETATM   28  C   UNL     1      -9.153  10.888  64.803  1.00  0.00    -0.197 C  
HETATM   29  C   UNL     1      -9.770  10.512  63.518  1.00  0.00    -0.319 C  
HETATM   30  N   UNL     1     -10.875  11.028  63.075  1.00  0.00    -0.787 N  
HETATM   31  N   UNL     1      -9.153   9.582  62.726  1.00  0.00    -0.395 NA 
HETATM   32  H   UNL     1     -11.263  10.720  62.184  1.00  0.00     0.000 HD 
HETATM   33  C   UNL     1     -11.521  11.993  63.816  1.00  0.00    -0.461 C  
HETATM   34  H1  UNL     1      -9.580   9.322  61.838  1.00  0.00     0.000 HD 
HETATM   35  H2  UNL     1      -8.276   9.153  63.022  1.00  0.00     0.000 HD 
HETATM   36  O   UNL     1     -12.563  12.513  63.410  1.00  0.00    -0.690 OA 
ENDBRANCH  19  26
ENDBRANCH  16  17
ENDBRANCH  15  16
ENDBRANCH  12  15
ENDBRANCH  11  12
ENDBRANCH   8  11
ENDBRANCH   7   8
ENDBRANCH   6   7
ENDBRANCH   5   6
ENDBRANCH   2   5
TORSDOF 10
ENDMDL
MODEL      272
REMARK 921   NORMALIZED FREE ENERGY PREDICTED BY IDOCK:   -2.97 KCAL/MOL
REMARK 922        TOTAL FREE ENERGY PREDICTED BY IDOCK:   -5.64 KCAL/MOL
REMARK 923 INTER-LIGAND FREE ENERGY PREDICTED BY IDOCK:   -5.76 KCAL/MOL
REMARK 924 INTRA-LIGAND FREE ENERGY PREDICTED BY IDOCK:    0.11 KCAL/MOL
REMARK 927      BINDING AFFINITY PREDICTED BY RF-SCORE:    0.00 PKD
ROOT
HETATM    1  C   UNL     1      -5.871   6.687  69.646  1.00  0.00    -0.015 C  
HETATM    2  N   UNL     1      -6.950   5.630  69.552  1.00  0.00    -0.061 N  
HETATM    3  C   UNL     1      -6.780   4.600  70.657  1.00  0.00    -0.036 C  
HETATM    4  C   UNL     1      -8.321   6.302  69.731  1.00  0.00    -0.125 C  
ENDROOT
BRANCH   2   5
HETATM    5  C   UNL     1      -6.840   4.968  68.156  1.00  0.00    -0.056 C  
BRANCH   5   6
HETATM    6  C   UNL     1      -7.654   5.642  67.067  1.00  0.00    -0.096 C  
BRANCH   6   7
HETATM    7  O   UNL     1      -7.305   5.092  65.812  1.00  0.00    -0.074 OA 
BRANCH   7   8
HETATM    8  P   UNL     1      -7.269   6.338  64.611  1.00  0.00    -0.074 P  
HETATM    9  O   UNL     1      -5.775   6.486  64.871  1.00  0.00    -0.028 OA 
HETATM   10  O   UNL     1      -8.270   7.123  65.467  1.00  0.00    -0.129 OA 
BRANCH   8  11
HETATM   11  O   UNL     1      -7.233   7.583  63.410  1.00  0.00    -0.070 OA 
BRANCH  11  12
HETATM   12  P   UNL     1      -7.960   9.017  64.046  1.00  0.00    -0.161 P  
HETATM   13  O   UNL     1      -6.473   9.725  64.048  1.00  0.00    -0.106 OA 
HETATM   14  O   UNL     1      -8.490   9.330  62.631  1.00  0.00    -0.180 OA 
BRANCH  12  15
HETATM   15  O   UNL     1      -8.686  10.453  64.682  1.00  0.00    -0.174 OA 
BRANCH  15  16
HETATM   16  C   UNL     1      -9.970  10.274  65.311  1.00  0.00    -0.317 C  
BRANCH  16  17
HETATM   17  C   UNL     1      -9.903  10.254  66.830  1.00  0.00    -0.197 C  
HETATM   18  O   UNL     1     -10.094  11.574  67.344  1.00  0.00    -0.188 OA 
HETATM   19  C   UNL     1     -10.533  11.430  68.696  1.00  0.00    -0.201 C  
HETATM   20  H   UNL     1     -11.052   7.482  68.112  1.00  0.00     0.000 HD 
HETATM   21  C   UNL     1     -11.281  10.083  68.785  1.00  0.00    -0.122 C  
HETATM   22  H   UNL     1     -11.360   8.473  69.984  1.00  0.00     0.000 HD 
HETATM   23  C   UNL     1     -10.933   9.356  67.488  1.00  0.00    -0.018 C  
HETATM   24  O   UNL     1     -10.899   9.302  69.929  1.00  0.00    -0.229 OA 
HETATM   25  O   UNL     1     -10.407   8.045  67.700  1.00  0.00    -0.217 OA 
BRANCH  19  26
HETATM   26  N   UNL     1     -11.318  12.597  69.106  1.00  0.00    -0.280 N  
HETATM   27  C   UNL     1     -11.193  13.806  68.462  1.00  0.00    -0.275 C  
HETATM   28  C   UNL     1     -11.825  14.889  68.900  1.00  0.00    -0.334 C  
HETATM   29  C   UNL     1     -12.645  14.706  70.111  1.00  0.00    -0.283 C  
HETATM   30  N   UNL     1     -12.773  13.571  70.726  1.00  0.00    -0.281 N  
HETATM   31  N   UNL     1     -13.305  15.781  70.641  1.00  0.00    -0.763 NA 
HETATM   32  H   UNL     1     -13.365  13.500  71.554  1.00  0.00     0.000 HD 
HETATM   33  C   UNL     1     -12.105  12.462  70.256  1.00  0.00    -0.297 C  
HETATM   34  H1  UNL     1     -13.873  15.655  71.478  1.00  0.00     0.000 HD 
HETATM   35  H2  UNL     1     -13.230  16.700  70.202  1.00  0.00     0.000 HD 
HETATM   36  O   UNL     1     -12.194  11.375  70.832  1.00  0.00    -0.370 OA 
ENDBRANCH  19  26
ENDBRANCH  16  17
ENDBRANCH  15  16
ENDBRANCH  12  15
ENDBRANCH  11  12
ENDBRANCH   8  11
ENDBRANCH   7   8
ENDBRANCH   6   7
ENDBRANCH   5   6
ENDBRANCH   2   5
TORSDOF 10
ENDMDL
MODEL      273
REMARK 921   NORMALIZED FREE ENERGY PREDICTED BY IDOCK:   -2.97 KCAL/MOL
REMARK 922        TOTAL FREE ENERGY PREDICTED BY IDOCK:   -5.64 KCAL/MOL
REMARK 923 INTER-LIGAND FREE ENERGY PREDICTED BY IDOCK:   -6.25 KCAL/MOL
REMARK 924 INTRA-LIGAND FREE ENERGY PREDICTED BY IDOCK:    0.61 KCAL/MOL
REMARK 927      BINDING AFFINITY PREDICTED BY RF-SCORE:    0.00 PKD
ROOT
HETATM    1  C   UNL     1      -9.970  20.474  69.343  1.00  0.00     0.480 C  
HETATM    2  N   UNL     1      -9.683  19.465  68.253  1.00  0.00    -0.370 N  
HETATM    3  C   UNL     1     -10.818  19.438  67.243  1.00  0.00    -0.448 C  
HETATM    4  C   UNL     1      -8.397  19.879  67.518  1.00  0.00    -0.324 C  
ENDROOT
BRANCH   2   5
HETATM    5  C   UNL     1      -9.509  18.081  68.927  1.00  0.00    -0.199 C  
BRANCH   5   6
HETATM    6  C   UNL     1      -8.921  17.006  68.031  1.00  0.00    -0.230 C  
BRANCH   6   7
HETATM    7  O   UNL     1      -9.031  15.750  68.670  1.00  0.00    -0.184 OA 
BRANCH   7   8
HETATM    8  P   UNL     1      -9.690  14.586  67.573  1.00  0.00    -0.216 P  
HETATM    9  O   UNL     1      -8.316  13.931  67.509  1.00  0.00    -0.170 OA 
HETATM   10  O   UNL     1     -10.024  15.742  66.624  1.00  0.00    -0.241 OA 
BRANCH   8  11
HETATM   11  O   UNL     1     -10.350  13.422  66.477  1.00  0.00    -0.274 OA 
BRANCH  11  12
HETATM   12  P   UNL     1     -11.063  12.126  67.373  1.00  0.00    -0.317 P  
HETATM   13  O   UNL     1     -12.357  12.183  66.355  1.00  0.00    -0.489 OA 
HETATM   14  O   UNL     1     -10.102  11.153  66.658  1.00  0.00    -0.204 OA 
BRANCH  12  15
HETATM   15  O   UNL     1     -11.778  10.830  68.269  1.00  0.00    -0.468 OA 
BRANCH  15  16
HETATM   16  C   UNL     1     -10.997  10.335  69.374  1.00  0.00    -0.247 C  
BRANCH  16  17
HETATM   17  C   UNL     1     -10.283   9.026  69.073  1.00  0.00    -0.205 C  
HETATM   18  O   UNL     1      -9.917   8.377  70.293  1.00  0.00    -0.183 OA 
HETATM   19  C   UNL     1      -9.745   6.993  69.987  1.00  0.00    -0.170 C  
HETATM   20  H   UNL     1     -11.373   7.587  66.355  1.00  0.00     0.000 HD 
HETATM   21  C   UNL     1     -10.672   6.677  68.794  1.00  0.00    -0.258 C  
HETATM   22  H   UNL     1     -10.595   5.712  67.033  1.00  0.00     0.000 HD 
HETATM   23  C   UNL     1     -11.103   8.041  68.261  1.00  0.00     0.393 C  
HETATM   24  O   UNL     1     -10.025   5.907  67.768  1.00  0.00    -0.118 OA 
HETATM   25  O   UNL     1     -10.859   8.204  66.864  1.00  0.00    -0.250 OA 
BRANCH  19  26
HETATM   26  N   UNL     1      -9.977   6.173  71.179  1.00  0.00    -0.181 N  
HETATM   27  C   UNL     1     -10.075   4.804  71.099  1.00  0.00    -0.191 C  
HETATM   28  C   UNL     1     -10.389   4.073  72.163  1.00  0.00    -0.155 C  
HETATM   29  C   UNL     1     -10.630   4.823  73.408  1.00  0.00    -0.232 C  
HETATM   30  N   UNL     1     -10.538   6.114  73.498  1.00  0.00    -0.257 N  
HETATM   31  N   UNL     1     -10.986   4.142  74.541  1.00  0.00    -0.136 NA 
HETATM   32  H   UNL     1     -10.704   6.579  74.390  1.00  0.00     0.000 HD 
HETATM   33  C   UNL     1     -10.215   6.853  72.380  1.00  0.00    -0.187 C  
HETATM   34  H1  UNL     1     -11.153   4.661  75.403  1.00  0.00     0.000 HD 
HETATM   35  H2  UNL     1     -11.083   3.127  74.523  1.00  0.00     0.000 HD 
HETATM   36  O   UNL     1     -10.139   8.083  72.433  1.00  0.00    -0.218 OA 
ENDBRANCH  19  26
ENDBRANCH  16  17
ENDBRANCH  15  16
ENDBRANCH  12  15
ENDBRANCH  11  12
ENDBRANCH   8  11
ENDBRANCH   7   8
ENDBRANCH   6   7
ENDBRANCH   5   6
ENDBRANCH   2   5
TORSDOF 10
ENDMDL
MODEL      274
REMARK 921   NORMALIZED FREE ENERGY PREDICTED BY IDOCK:   -2.94 KCAL/MOL
REMARK 922        TOTAL FREE ENERGY PREDICTED BY IDOCK:   -5.59 KCAL/MOL
REMARK 923 INTER-LIGAND FREE ENERGY PREDICTED BY IDOCK:   -4.59 KCAL/MOL
REMARK 924 INTRA-LIGAND FREE ENERGY PREDICTED BY IDOCK:   -1.00 KCAL/MOL
REMARK 927      BINDING AFFINITY PREDICTED BY RF-SCORE:    0.00 PKD
ROOT
HETATM    1  C   UNL     1      -6.265  14.042  70.784  1.00  0.00    -0.074 C  
HETATM    2  N   UNL     1      -6.626  13.410  69.456  1.00  0.00    -0.083 N  
HETATM    3  C   UNL     1      -5.696  13.907  68.363  1.00  0.00    -0.103 C  
HETATM    4  C   UNL     1      -6.459  11.885  69.571  1.00  0.00    -0.113 C  
ENDROOT
BRANCH   2   5
HETATM    5  C   UNL     1      -8.097  13.780  69.144  1.00  0.00     0.290 C  
BRANCH   5   6
HETATM    6  C   UNL     1      -8.282  14.696  67.947  1.00  0.00    -0.150 C  
BRANCH   6   7
HETATM    7  O   UNL     1      -9.662  14.860  67.691  1.00  0.00    -0.210 OA 
BRANCH   7   8
HETATM    8  P   UNL     1     -10.079  14.095  66.195  1.00  0.00    -0.329 P  
HETATM    9  O   UNL     1      -9.151  12.948  66.572  1.00  0.00    -0.213 OA 
HETATM   10  O   UNL     1      -9.515  15.321  65.468  1.00  0.00    -0.281 OA 
BRANCH   8  11
HETATM   11  O   UNL     1     -10.497  13.331  64.701  1.00  0.00    -0.371 OA 
BRANCH  11  12
HETATM   12  P   UNL     1     -10.359  11.616  64.872  1.00  0.00    -0.312 P  
HETATM   13  O   UNL     1     -11.939  11.571  65.334  1.00  0.00    -0.101 OA 
HETATM   14  O   UNL     1     -10.443  11.494  63.336  1.00  0.00    -0.373 OA 
BRANCH  12  15
HETATM   15  O   UNL     1     -10.221   9.899  65.045  1.00  0.00    -0.221 OA 
BRANCH  15  16
HETATM   16  C   UNL     1     -10.528   9.381  66.354  1.00  0.00    -0.095 C  
BRANCH  16  17
HETATM   17  C   UNL     1      -9.560   8.304  66.819  1.00  0.00    -0.224 C  
HETATM   18  O   UNL     1      -8.821   8.768  67.952  1.00  0.00    -0.135 OA 
HETATM   19  C   UNL     1      -8.349   7.608  68.639  1.00  0.00    -0.129 C  
HETATM   20  H   UNL     1     -10.703   5.285  66.347  1.00  0.00     0.000 HD 
HETATM   21  C   UNL     1      -9.359   6.475  68.358  1.00  0.00    -0.122 C  
HETATM   22  H   UNL     1      -9.350   4.538  67.826  1.00  0.00     0.000 HD 
HETATM   23  C   UNL     1     -10.223   6.997  67.213  1.00  0.00    -0.234 C  
HETATM   24  O   UNL     1      -8.728   5.235  67.999  1.00  0.00    -0.104 OA 
HETATM   25  O   UNL     1     -10.288   6.103  66.101  1.00  0.00     0.013 OA 
BRANCH  19  26
HETATM   26  N   UNL     1      -8.137   7.904  70.058  1.00  0.00    -0.115 N  
HETATM   27  C   UNL     1      -9.171   8.315  70.866  1.00  0.00    -0.155 C  
HETATM   28  C   UNL     1      -8.956   8.684  72.124  1.00  0.00    -0.270 C  
HETATM   29  C   UNL     1      -7.555   8.633  72.578  1.00  0.00     0.054 C  
HETATM   30  N   UNL     1      -6.571   8.245  71.826  1.00  0.00    -0.058 N  
HETATM   31  N   UNL     1      -7.250   9.025  73.853  1.00  0.00    -0.310 NA 
HETATM   32  H   UNL     1      -5.622   8.218  72.197  1.00  0.00     0.000 HD 
HETATM   33  C   UNL     1      -6.816   7.871  70.523  1.00  0.00    -0.041 C  
HETATM   34  H1  UNL     1      -6.281   8.990  74.167  1.00  0.00     0.000 HD 
HETATM   35  H2  UNL     1      -7.985   9.349  74.482  1.00  0.00     0.000 HD 
HETATM   36  O   UNL     1      -5.897   7.516  69.781  1.00  0.00    -0.023 OA 
ENDBRANCH  19  26
ENDBRANCH  16  17
ENDBRANCH  15  16
ENDBRANCH  12  15
ENDBRANCH  11  12
ENDBRANCH   8  11
ENDBRANCH   7   8
ENDBRANCH   6   7
ENDBRANCH   5   6
ENDBRANCH   2   5
TORSDOF 10
ENDMDL
MODEL      275
REMARK 921   NORMALIZED FREE ENERGY PREDICTED BY IDOCK:   -2.90 KCAL/MOL
REMARK 922        TOTAL FREE ENERGY PREDICTED BY IDOCK:   -5.52 KCAL/MOL
REMARK 923 INTER-LIGAND FREE ENERGY PREDICTED BY IDOCK:   -6.10 KCAL/MOL
REMARK 924 INTRA-LIGAND FREE ENERGY PREDICTED BY IDOCK:    0.58 KCAL/MOL
REMARK 927      BINDING AFFINITY PREDICTED BY RF-SCORE:    0.00 PKD
ROOT
HETATM    1  C   UNL     1     -11.219   8.787  69.971  1.00  0.00    -0.106 C  
HETATM    2  N   UNL     1     -11.611   8.377  71.374  1.00  0.00    -0.273 N  
HETATM    3  C   UNL     1     -12.823   9.166  71.838  1.00  0.00    -0.393 C  
HETATM    4  C   UNL     1     -11.984   6.884  71.369  1.00  0.00    -0.349 C  
ENDROOT
BRANCH   2   5
HETATM    5  C   UNL     1     -10.394   8.636  72.296  1.00  0.00    -0.306 C  
BRANCH   5   6
HETATM    6  C   UNL     1      -9.163   7.809  71.973  1.00  0.00    -0.144 C  
BRANCH   6   7
HETATM    7  O   UNL     1      -8.834   7.972  70.608  1.00  0.00    -0.139 OA 
BRANCH   7   8
HETATM    8  P   UNL     1      -7.254   8.662  70.461  1.00  0.00    -0.070 P  
HETATM    9  O   UNL     1      -6.957   7.643  69.368  1.00  0.00    -0.060 OA 
HETATM   10  O   UNL     1      -7.010   8.294  71.929  1.00  0.00    -0.072 OA 
BRANCH   8  11
HETATM   11  O   UNL     1      -5.675   9.353  70.313  1.00  0.00    -0.033 OA 
BRANCH  11  12
HETATM   12  P   UNL     1      -5.812  10.998  69.796  1.00  0.00    -0.100 P  
HETATM   13  O   UNL     1      -5.248  10.541  68.317  1.00  0.00    -0.035 OA 
HETATM   14  O   UNL     1      -7.335  10.789  69.664  1.00  0.00    -0.145 OA 
BRANCH  12  15
HETATM   15  O   UNL     1      -5.948  12.643  69.276  1.00  0.00    -0.079 OA 
BRANCH  15  16
HETATM   16  C   UNL     1      -7.277  13.199  69.321  1.00  0.00     0.155 C  
BRANCH  16  17
HETATM   17  C   UNL     1      -7.563  14.174  68.189  1.00  0.00    -0.136 C  
HETATM   18  O   UNL     1      -8.239  13.500  67.124  1.00  0.00    -0.178 OA 
HETATM   19  C   UNL     1      -8.921  14.503  66.370  1.00  0.00    -0.118 C  
HETATM   20  H   UNL     1      -8.135  17.207  69.244  1.00  0.00     0.000 HD 
HETATM   21  C   UNL     1      -9.251  15.653  67.345  1.00  0.00    -0.198 C  
HETATM   22  H   UNL     1      -9.142  17.658  67.410  1.00  0.00     0.000 HD 
HETATM   23  C   UNL     1      -8.417  15.362  68.590  1.00  0.00    -0.170 C  
HETATM   24  O   UNL     1      -8.939  16.950  66.810  1.00  0.00    -0.217 OA 
HETATM   25  O   UNL     1      -7.601  16.463  68.993  1.00  0.00    -0.213 OA 
BRANCH  19  26
HETATM   26  N   UNL     1     -10.080  13.926  65.684  1.00  0.00    -0.319 N  
HETATM   27  C   UNL     1     -11.225  14.659  65.473  1.00  0.00    -0.343 C  
HETATM   28  C   UNL     1     -12.310  14.104  64.946  1.00  0.00    -0.446 C  
HETATM   29  C   UNL     1     -12.205  12.670  64.621  1.00  0.00    -0.452 C  
HETATM   30  N   UNL     1     -11.130  11.969  64.814  1.00  0.00    -0.308 N  
HETATM   31  N   UNL     1     -13.291  12.020  64.101  1.00  0.00    -0.618 NA 
HETATM   32  H   UNL     1     -11.110  10.982  64.558  1.00  0.00     0.000 HD 
HETATM   33  C   UNL     1     -10.017  12.564  65.365  1.00  0.00    -0.219 C  
HETATM   34  H1  UNL     1     -13.218  11.028  63.877  1.00  0.00     0.000 HD 
HETATM   35  H2  UNL     1     -14.164  12.523  63.940  1.00  0.00     0.000 HD 
HETATM   36  O   UNL     1      -8.989  11.916  65.577  1.00  0.00    -0.020 OA 
ENDBRANCH  19  26
ENDBRANCH  16  17
ENDBRANCH  15  16
ENDBRANCH  12  15
ENDBRANCH  11  12
ENDBRANCH   8  11
ENDBRANCH   7   8
ENDBRANCH   6   7
ENDBRANCH   5   6
ENDBRANCH   2   5
TORSDOF 10
ENDMDL
MODEL      276
REMARK 921   NORMALIZED FREE ENERGY PREDICTED BY IDOCK:   -2.88 KCAL/MOL
REMARK 922        TOTAL FREE ENERGY PREDICTED BY IDOCK:   -5.49 KCAL/MOL
REMARK 923 INTER-LIGAND FREE ENERGY PREDICTED BY IDOCK:   -5.30 KCAL/MOL
REMARK 924 INTRA-LIGAND FREE ENERGY PREDICTED BY IDOCK:   -0.20 KCAL/MOL
REMARK 927      BINDING AFFINITY PREDICTED BY RF-SCORE:    0.00 PKD
ROOT
HETATM    1  C   UNL     1      -8.818   4.772  67.776  1.00  0.00    -0.105 C  
HETATM    2  N   UNL     1      -9.188   6.100  68.399  1.00  0.00    -0.112 N  
HETATM    3  C   UNL     1      -9.291   7.176  67.332  1.00  0.00    -0.127 C  
HETATM    4  C   UNL     1     -10.561   5.965  69.078  1.00  0.00    -0.290 C  
ENDROOT
BRANCH   2   5
HETATM    5  C   UNL     1      -8.094   6.453  69.438  1.00  0.00    -0.118 C  
BRANCH   5   6
HETATM    6  C   UNL     1      -7.313   5.263  69.968  1.00  0.00    -0.064 C  
BRANCH   6   7
HETATM    7  O   UNL     1      -6.871   5.540  71.282  1.00  0.00    -0.053 OA 
BRANCH   7   8
HETATM    8  P   UNL     1      -7.005   7.234  71.604  1.00  0.00    -0.060 P  
HETATM    9  O   UNL     1      -5.758   7.124  72.473  1.00  0.00    -0.038 OA 
HETATM   10  O   UNL     1      -8.383   6.960  72.216  1.00  0.00    -0.105 OA 
BRANCH   8  11
HETATM   11  O   UNL     1      -7.138   8.929  71.926  1.00  0.00    -0.248 OA 
BRANCH  11  12
HETATM   12  P   UNL     1      -6.550   9.821  70.566  1.00  0.00    -0.093 P  
HETATM   13  O   UNL     1      -5.846  10.881  71.611  1.00  0.00    -0.308 OA 
HETATM   14  O   UNL     1      -5.461   8.744  70.379  1.00  0.00    -0.024 OA 
BRANCH  12  15
HETATM   15  O   UNL     1      -5.962  10.715  69.205  1.00  0.00    -0.040 OA 
BRANCH  15  16
HETATM   16  C   UNL     1      -6.974  11.257  68.334  1.00  0.00    -0.070 C  
BRANCH  16  17
HETATM   17  C   UNL     1      -6.871  12.763  68.150  1.00  0.00    -0.094 C  
HETATM   18  O   UNL     1      -7.636  13.169  67.013  1.00  0.00    -0.050 OA 
HETATM   19  C   UNL     1      -7.929  14.556  67.188  1.00  0.00    -0.138 C  
HETATM   20  H   UNL     1      -6.585  14.367  70.977  1.00  0.00     0.000 HD 
HETATM   21  C   UNL     1      -7.971  14.819  68.708  1.00  0.00    -0.152 C  
HETATM   22  H   UNL     1      -7.272  16.160  70.031  1.00  0.00     0.000 HD 
HETATM   23  C   UNL     1      -7.357  13.571  69.338  1.00  0.00     0.255 C  
HETATM   24  O   UNL     1      -7.246  15.998  69.095  1.00  0.00    -0.182 OA 
HETATM   25  O   UNL     1      -6.281  13.861  70.232  1.00  0.00    -0.148 OA 
BRANCH  19  26
HETATM   26  N   UNL     1      -9.153  14.916  66.468  1.00  0.00    -0.279 N  
HETATM   27  C   UNL     1     -10.086  13.966  66.124  1.00  0.00    -0.308 C  
HETATM   28  C   UNL     1     -11.142  14.276  65.381  1.00  0.00    -0.327 C  
HETATM   29  C   UNL     1     -11.233  15.683  64.950  1.00  0.00    -0.369 C  
HETATM   30  N   UNL     1     -10.360  16.588  65.269  1.00  0.00    -0.220 N  
HETATM   31  N   UNL     1     -12.277  16.074  64.157  1.00  0.00    -0.865 NA 
HETATM   32  H   UNL     1     -10.480  17.550  64.952  1.00  0.00     0.000 HD 
HETATM   33  C   UNL     1      -9.270  16.243  66.038  1.00  0.00    -0.316 C  
HETATM   34  H1  UNL     1     -12.340  17.046  63.858  1.00  0.00     0.000 HD 
HETATM   35  H2  UNL     1     -12.986  15.399  63.868  1.00  0.00     0.000 HD 
HETATM   36  O   UNL     1      -8.416  17.080  66.340  1.00  0.00    -0.247 OA 
ENDBRANCH  19  26
ENDBRANCH  16  17
ENDBRANCH  15  16
ENDBRANCH  12  15
ENDBRANCH  11  12
ENDBRANCH   8  11
ENDBRANCH   7   8
ENDBRANCH   6   7
ENDBRANCH   5   6
ENDBRANCH   2   5
TORSDOF 10
ENDMDL
MODEL      277
REMARK 921   NORMALIZED FREE ENERGY PREDICTED BY IDOCK:   -2.85 KCAL/MOL
REMARK 922        TOTAL FREE ENERGY PREDICTED BY IDOCK:   -5.45 KCAL/MOL
REMARK 923 INTER-LIGAND FREE ENERGY PREDICTED BY IDOCK:   -5.61 KCAL/MOL
REMARK 924 INTRA-LIGAND FREE ENERGY PREDICTED BY IDOCK:    0.16 KCAL/MOL
REMARK 927      BINDING AFFINITY PREDICTED BY RF-SCORE:    0.00 PKD
ROOT
HETATM    1  C   UNL     1      -6.600  17.621  70.686  1.00  0.00     1.559 C  
HETATM    2  N   UNL     1      -6.029  18.248  69.433  1.00  0.00    -0.238 N  
HETATM    3  C   UNL     1      -5.144  19.431  69.788  1.00  0.00    -0.190 C  
HETATM    4  C   UNL     1      -5.164  17.204  68.705  1.00  0.00    -0.140 C  
ENDROOT
BRANCH   2   5
HETATM    5  C   UNL     1      -7.218  18.692  68.545  1.00  0.00    -0.292 C  
BRANCH   5   6
HETATM    6  C   UNL     1      -7.101  18.302  67.083  1.00  0.00    -0.195 C  
BRANCH   6   7
HETATM    7  O   UNL     1      -8.340  18.521  66.438  1.00  0.00    -0.274 OA 
BRANCH   7   8
HETATM    8  P   UNL     1      -9.381  17.161  66.683  1.00  0.00    -0.277 P  
HETATM    9  O   UNL     1     -10.380  17.808  65.731  1.00  0.00    -0.570 OA 
HETATM   10  O   UNL     1      -9.413  17.516  68.174  1.00  0.00    -0.272 OA 
BRANCH   8  11
HETATM   11  O   UNL     1     -10.421  15.800  66.928  1.00  0.00    -0.304 OA 
BRANCH  11  12
HETATM   12  P   UNL     1      -9.538  14.342  66.642  1.00  0.00    -0.296 P  
HETATM   13  O   UNL     1     -10.795  13.497  67.290  1.00  0.00    -0.271 OA 
HETATM   14  O   UNL     1      -9.923  14.446  65.151  1.00  0.00    -0.354 OA 
BRANCH  12  15
HETATM   15  O   UNL     1      -8.655  12.881  66.356  1.00  0.00     0.031 OA 
BRANCH  15  16
HETATM   16  C   UNL     1      -8.342  12.106  67.530  1.00  0.00    -0.166 C  
BRANCH  16  17
HETATM   17  C   UNL     1      -8.751  10.645  67.417  1.00  0.00    -0.125 C  
HETATM   18  O   UNL     1      -8.654  10.011  68.695  1.00  0.00    -0.114 OA 
HETATM   19  C   UNL     1      -9.507   8.866  68.652  1.00  0.00    -0.151 C  
HETATM   20  H   UNL     1     -11.061  10.147  65.168  1.00  0.00     0.000 HD 
HETATM   21  C   UNL     1     -10.637   9.183  67.650  1.00  0.00    -0.242 C  
HETATM   22  H   UNL     1     -11.589   8.303  66.116  1.00  0.00     0.000 HD 
HETATM   23  C   UNL     1     -10.163  10.430  66.908  1.00  0.00    -0.227 C  
HETATM   24  O   UNL     1     -10.893   8.107  66.732  1.00  0.00    -0.197 OA 
HETATM   25  O   UNL     1     -10.176  10.282  65.488  1.00  0.00    -0.284 OA 
BRANCH  19  26
HETATM   26  N   UNL     1      -9.960   8.514  70.000  1.00  0.00    -0.185 N  
HETATM   27  C   UNL     1     -10.730   9.378  70.744  1.00  0.00    -0.305 C  
HETATM   28  C   UNL     1     -11.051   9.102  72.003  1.00  0.00    -0.285 C  
HETATM   29  C   UNL     1     -10.523   7.834  72.537  1.00  0.00    -0.284 C  
HETATM   30  N   UNL     1      -9.798   7.010  71.845  1.00  0.00    -0.164 N  
HETATM   31  N   UNL     1     -10.788   7.493  73.836  1.00  0.00    -0.493 NA 
HETATM   32  H   UNL     1      -9.471   6.140  72.263  1.00  0.00     0.000 HD 
HETATM   33  C   UNL     1      -9.474   7.318  70.541  1.00  0.00    -0.165 C  
HETATM   34  H1  UNL     1     -10.423   6.616  74.206  1.00  0.00     0.000 HD 
HETATM   35  H2  UNL     1     -11.344   8.110  74.428  1.00  0.00     0.000 HD 
HETATM   36  O   UNL     1      -8.771   6.562  69.867  1.00  0.00    -0.137 OA 
ENDBRANCH  19  26
ENDBRANCH  16  17
ENDBRANCH  15  16
ENDBRANCH  12  15
ENDBRANCH  11  12
ENDBRANCH   8  11
ENDBRANCH   7   8
ENDBRANCH   6   7
ENDBRANCH   5   6
ENDBRANCH   2   5
TORSDOF 10
ENDMDL
MODEL      278
REMARK 921   NORMALIZED FREE ENERGY PREDICTED BY IDOCK:   -2.85 KCAL/MOL
REMARK 922        TOTAL FREE ENERGY PREDICTED BY IDOCK:   -5.45 KCAL/MOL
REMARK 923 INTER-LIGAND FREE ENERGY PREDICTED BY IDOCK:   -4.70 KCAL/MOL
REMARK 924 INTRA-LIGAND FREE ENERGY PREDICTED BY IDOCK:   -0.76 KCAL/MOL
REMARK 927      BINDING AFFINITY PREDICTED BY RF-SCORE:    0.00 PKD
ROOT
HETATM    1  C   UNL     1      -7.248  19.792  71.925  1.00  0.00     1.686 C  
HETATM    2  N   UNL     1      -6.234  19.820  70.802  1.00  0.00    -0.195 N  
HETATM    3  C   UNL     1      -6.890  20.267  69.506  1.00  0.00    -0.063 C  
HETATM    4  C   UNL     1      -5.130  20.832  71.154  1.00  0.00    -0.165 C  
ENDROOT
BRANCH   2   5
HETATM    5  C   UNL     1      -5.647  18.394  70.662  1.00  0.00    -0.169 C  
BRANCH   5   6
HETATM    6  C   UNL     1      -5.424  17.934  69.232  1.00  0.00    -0.196 C  
BRANCH   6   7
HETATM    7  O   UNL     1      -6.606  17.330  68.744  1.00  0.00    -0.177 OA 
BRANCH   7   8
HETATM    8  P   UNL     1      -6.255  15.739  68.160  1.00  0.00    -0.146 P  
HETATM    9  O   UNL     1      -5.919  16.356  66.808  1.00  0.00    -0.326 OA 
HETATM   10  O   UNL     1      -7.704  15.355  68.481  1.00  0.00    -0.123 OA 
BRANCH   8  11
HETATM   11  O   UNL     1      -5.904  14.148  67.577  1.00  0.00    -0.343 OA 
BRANCH  11  12
HETATM   12  P   UNL     1      -7.070  13.035  68.203  1.00  0.00    -0.144 P  
HETATM   13  O   UNL     1      -6.748  12.039  66.931  1.00  0.00    -0.129 OA 
HETATM   14  O   UNL     1      -6.030  12.598  69.257  1.00  0.00    -0.079 OA 
BRANCH  12  15
HETATM   15  O   UNL     1      -8.236  11.920  68.829  1.00  0.00    -0.106 OA 
BRANCH  15  16
HETATM   16  C   UNL     1      -7.708  10.658  69.280  1.00  0.00    -0.142 C  
BRANCH  16  17
HETATM   17  C   UNL     1      -8.603   9.474  68.948  1.00  0.00    -0.128 C  
HETATM   18  O   UNL     1      -9.374   9.107  70.095  1.00  0.00    -0.178 OA 
HETATM   19  C   UNL     1     -10.513   8.392  69.614  1.00  0.00    -0.221 C  
HETATM   20  H   UNL     1      -9.617   9.485  65.847  1.00  0.00     0.000 HD 
HETATM   21  C   UNL     1     -10.813   8.922  68.197  1.00  0.00    -0.002 C  
HETATM   22  H   UNL     1     -11.247   8.201  66.372  1.00  0.00     0.000 HD 
HETATM   23  C   UNL     1      -9.574   9.726  67.809  1.00  0.00    -0.135 C  
HETATM   24  O   UNL     1     -11.062   7.875  67.245  1.00  0.00    -0.079 OA 
HETATM   25  O   UNL     1      -9.010   9.327  66.560  1.00  0.00    -0.140 OA 
BRANCH  19  26
HETATM   26  N   UNL     1     -11.624   8.504  70.562  1.00  0.00    -0.194 N  
HETATM   27  C   UNL     1     -12.373   9.655  70.654  1.00  0.00    -0.128 C  
HETATM   28  C   UNL     1     -13.311   9.793  71.584  1.00  0.00    -0.487 C  
HETATM   29  C   UNL     1     -13.480   8.650  72.500  1.00  0.00    -0.287 C  
HETATM   30  N   UNL     1     -12.782   7.559  72.422  1.00  0.00    -0.512 N  
HETATM   31  N   UNL     1     -14.407   8.728  73.503  1.00  0.00    -0.832 NA 
HETATM   32  H   UNL     1     -12.951   6.795  73.075  1.00  0.00     0.000 HD 
HETATM   33  C   UNL     1     -11.811   7.439  71.451  1.00  0.00    -0.300 C  
HETATM   34  H1  UNL     1     -14.524   7.938  74.137  1.00  0.00     0.000 HD 
HETATM   35  H2  UNL     1     -14.975   9.568  73.616  1.00  0.00     0.000 HD 
HETATM   36  O   UNL     1     -11.121   6.421  71.366  1.00  0.00    -0.255 OA 
ENDBRANCH  19  26
ENDBRANCH  16  17
ENDBRANCH  15  16
ENDBRANCH  12  15
ENDBRANCH  11  12
ENDBRANCH   8  11
ENDBRANCH   7   8
ENDBRANCH   6   7
ENDBRANCH   5   6
ENDBRANCH   2   5
TORSDOF 10
ENDMDL
MODEL      279
REMARK 921   NORMALIZED FREE ENERGY PREDICTED BY IDOCK:   -2.82 KCAL/MOL
REMARK 922        TOTAL FREE ENERGY PREDICTED BY IDOCK:   -5.41 KCAL/MOL
REMARK 923 INTER-LIGAND FREE ENERGY PREDICTED BY IDOCK:   -5.38 KCAL/MOL
REMARK 924 INTRA-LIGAND FREE ENERGY PREDICTED BY IDOCK:   -0.02 KCAL/MOL
REMARK 927      BINDING AFFINITY PREDICTED BY RF-SCORE:    0.00 PKD
ROOT
HETATM    1  C   UNL     1     -10.256  13.732  65.864  1.00  0.00    -0.313 C  
HETATM    2  N   UNL     1     -11.085  12.919  64.892  1.00  0.00    -0.288 N  
HETATM    3  C   UNL     1     -12.363  13.660  64.537  1.00  0.00    -0.356 C  
HETATM    4  C   UNL     1     -10.276  12.712  63.601  1.00  0.00    -0.162 C  
ENDROOT
BRANCH   2   5
HETATM    5  C   UNL     1     -11.401  11.561  65.567  1.00  0.00    -0.083 C  
BRANCH   5   6
HETATM    6  C   UNL     1     -10.185  10.712  65.889  1.00  0.00    -0.251 C  
BRANCH   6   7
HETATM    7  O   UNL     1      -9.174  10.957  64.931  1.00  0.00    -0.200 OA 
BRANCH   7   8
HETATM    8  P   UNL     1      -8.400   9.472  64.498  1.00  0.00    -0.192 P  
HETATM    9  O   UNL     1      -8.852   8.896  65.834  1.00  0.00    -0.156 OA 
HETATM   10  O   UNL     1      -7.078  10.243  64.413  1.00  0.00    -0.131 OA 
BRANCH   8  11
HETATM   11  O   UNL     1      -7.626   7.986  64.065  1.00  0.00    -0.108 OA 
BRANCH  11  12
HETATM   12  P   UNL     1      -8.119   6.740  65.157  1.00  0.00    -0.084 P  
HETATM   13  O   UNL     1      -8.375   5.756  63.862  1.00  0.00    -0.112 OA 
HETATM   14  O   UNL     1      -6.631   6.495  65.489  1.00  0.00    -0.041 OA 
BRANCH  12  15
HETATM   15  O   UNL     1      -8.613   5.492  66.250  1.00  0.00    -0.118 OA 
BRANCH  15  16
HETATM   16  C   UNL     1      -7.606   5.048  67.181  1.00  0.00    -0.088 C  
BRANCH  16  17
HETATM   17  C   UNL     1      -7.957   5.333  68.633  1.00  0.00    -0.087 C  
HETATM   18  O   UNL     1      -7.996   6.744  68.858  1.00  0.00    -0.112 OA 
HETATM   19  C   UNL     1      -8.804   6.954  70.017  1.00  0.00    -0.142 C  
HETATM   20  H   UNL     1      -9.967   3.103  69.910  1.00  0.00     0.000 HD 
HETATM   21  C   UNL     1      -9.815   5.790  70.078  1.00  0.00    -0.180 C  
HETATM   22  H   UNL     1     -10.552   4.496  71.426  1.00  0.00     0.000 HD 
HETATM   23  C   UNL     1      -9.292   4.764  69.075  1.00  0.00    -0.135 C  
HETATM   24  O   UNL     1      -9.930   5.213  71.389  1.00  0.00    -0.174 OA 
HETATM   25  O   UNL     1      -9.131   3.460  69.633  1.00  0.00    -0.104 OA 
BRANCH  19  26
HETATM   26  N   UNL     1      -9.405   8.290  69.986  1.00  0.00    -0.161 N  
HETATM   27  C   UNL     1     -10.770   8.462  70.002  1.00  0.00    -0.236 C  
HETATM   28  C   UNL     1     -11.313   9.666  69.868  1.00  0.00    -0.200 C  
HETATM   29  C   UNL     1     -10.366  10.782  69.693  1.00  0.00    -0.101 C  
HETATM   30  N   UNL     1      -9.077  10.633  69.678  1.00  0.00    -0.396 N  
HETATM   31  N   UNL     1     -10.851  12.050  69.520  1.00  0.00    -0.452 NA 
HETATM   32  H   UNL     1      -8.469  11.444  69.566  1.00  0.00     0.000 HD 
HETATM   33  C   UNL     1      -8.535   9.374  69.815  1.00  0.00    -0.165 C  
HETATM   34  H1  UNL     1     -10.196  12.822  69.399  1.00  0.00     0.000 HD 
HETATM   35  H2  UNL     1     -11.856  12.221  69.513  1.00  0.00     0.000 HD 
HETATM   36  O   UNL     1      -7.314   9.202  69.785  1.00  0.00    -0.057 OA 
ENDBRANCH  19  26
ENDBRANCH  16  17
ENDBRANCH  15  16
ENDBRANCH  12  15
ENDBRANCH  11  12
ENDBRANCH   8  11
ENDBRANCH   7   8
ENDBRANCH   6   7
ENDBRANCH   5   6
ENDBRANCH   2   5
TORSDOF 10
ENDMDL
MODEL      280
REMARK 921   NORMALIZED FREE ENERGY PREDICTED BY IDOCK:   -2.79 KCAL/MOL
REMARK 922        TOTAL FREE ENERGY PREDICTED BY IDOCK:   -5.35 KCAL/MOL
REMARK 923 INTER-LIGAND FREE ENERGY PREDICTED BY IDOCK:   -5.40 KCAL/MOL
REMARK 924 INTRA-LIGAND FREE ENERGY PREDICTED BY IDOCK:    0.04 KCAL/MOL
REMARK 927      BINDING AFFINITY PREDICTED BY RF-SCORE:    0.00 PKD
ROOT
HETATM    1  C   UNL     1     -12.328   6.269  72.814  1.00  0.00     0.424 C  
HETATM    2  N   UNL     1     -11.216   6.721  71.892  1.00  0.00    -0.250 N  
HETATM    3  C   UNL     1     -11.715   7.805  70.951  1.00  0.00    -0.265 C  
HETATM    4  C   UNL     1     -10.076   7.309  72.739  1.00  0.00    -0.210 C  
ENDROOT
BRANCH   2   5
HETATM    5  C   UNL     1     -10.729   5.482  71.100  1.00  0.00    -0.210 C  
BRANCH   5   6
HETATM    6  C   UNL     1      -9.707   5.780  70.017  1.00  0.00    -0.169 C  
BRANCH   6   7
HETATM    7  O   UNL     1      -9.392   7.158  70.036  1.00  0.00    -0.155 OA 
BRANCH   7   8
HETATM    8  P   UNL     1      -8.129   7.489  68.901  1.00  0.00    -0.129 P  
HETATM    9  O   UNL     1      -7.319   6.368  69.540  1.00  0.00    -0.082 OA 
HETATM   10  O   UNL     1      -8.049   8.907  69.478  1.00  0.00    -0.096 OA 
BRANCH   8  11
HETATM   11  O   UNL     1      -6.866   7.820  67.765  1.00  0.00    -0.065 OA 
BRANCH  11  12
HETATM   12  P   UNL     1      -7.558   8.364  66.277  1.00  0.00    -0.088 P  
HETATM   13  O   UNL     1      -6.090   8.156  65.560  1.00  0.00    -0.044 OA 
HETATM   14  O   UNL     1      -8.218   6.978  66.121  1.00  0.00    -0.112 OA 
BRANCH  12  15
HETATM   15  O   UNL     1      -8.250   8.909  64.787  1.00  0.00    -0.145 OA 
BRANCH  15  16
HETATM   16  C   UNL     1      -9.377   9.798  64.914  1.00  0.00    -0.265 C  
BRANCH  16  17
HETATM   17  C   UNL     1      -9.459  10.482  66.270  1.00  0.00    -0.177 C  
HETATM   18  O   UNL     1      -9.065  11.851  66.151  1.00  0.00    -0.214 OA 
HETATM   19  C   UNL     1      -9.638  12.542  67.262  1.00  0.00    -0.205 C  
HETATM   20  H   UNL     1     -11.859   9.303  68.139  1.00  0.00     0.000 HD 
HETATM   21  C   UNL     1     -10.925  11.785  67.648  1.00  0.00    -0.233 C  
HETATM   22  H   UNL     1     -11.839  11.100  69.302  1.00  0.00     0.000 HD 
HETATM   23  C   UNL     1     -10.839  10.458  66.898  1.00  0.00    -0.161 C  
HETATM   24  O   UNL     1     -11.046  11.566  69.064  1.00  0.00    -0.215 OA 
HETATM   25  O   UNL     1     -10.995   9.319  67.745  1.00  0.00    -0.186 OA 
BRANCH  19  26
HETATM   26  N   UNL     1      -9.830  13.958  66.940  1.00  0.00    -0.260 N  
HETATM   27  C   UNL     1     -11.075  14.462  66.642  1.00  0.00    -0.326 C  
HETATM   28  C   UNL     1     -11.231  15.721  66.248  1.00  0.00     0.033 C  
HETATM   29  C   UNL     1      -9.997  16.519  66.144  1.00  0.00    -0.343 C  
HETATM   30  N   UNL     1      -8.817  16.056  66.424  1.00  0.00    -0.299 N  
HETATM   31  N   UNL     1     -10.073  17.817  65.717  1.00  0.00    -0.581 NA 
HETATM   32  H   UNL     1      -7.999  16.658  66.345  1.00  0.00     0.000 HD 
HETATM   33  C   UNL     1      -8.678  14.746  66.827  1.00  0.00    -0.224 C  
HETATM   34  H1  UNL     1      -9.219  18.369  65.645  1.00  0.00     0.000 HD 
HETATM   35  H2  UNL     1     -10.975  18.227  65.474  1.00  0.00     0.000 HD 
HETATM   36  O   UNL     1      -7.567  14.275  67.081  1.00  0.00    -0.145 OA 
ENDBRANCH  19  26
ENDBRANCH  16  17
ENDBRANCH  15  16
ENDBRANCH  12  15
ENDBRANCH  11  12
ENDBRANCH   8  11
ENDBRANCH   7   8
ENDBRANCH   6   7
ENDBRANCH   5   6
ENDBRANCH   2   5
TORSDOF 10
ENDMDL
MODEL      281
REMARK 921   NORMALIZED FREE ENERGY PREDICTED BY IDOCK:   -2.75 KCAL/MOL
REMARK 922        TOTAL FREE ENERGY PREDICTED BY IDOCK:   -5.29 KCAL/MOL
REMARK 923 INTER-LIGAND FREE ENERGY PREDICTED BY IDOCK:   -4.39 KCAL/MOL
REMARK 924 INTRA-LIGAND FREE ENERGY PREDICTED BY IDOCK:   -0.90 KCAL/MOL
REMARK 927      BINDING AFFINITY PREDICTED BY RF-SCORE:    0.00 PKD
ROOT
HETATM    1  C   UNL     1      -6.826  19.481  67.685  1.00  0.00    -0.232 C  
HETATM    2  N   UNL     1      -7.373  18.084  67.894  1.00  0.00    -0.219 N  
HETATM    3  C   UNL     1      -8.419  18.084  68.995  1.00  0.00    -0.005 C  
HETATM    4  C   UNL     1      -8.046  17.615  66.593  1.00  0.00    -0.254 C  
ENDROOT
BRANCH   2   5
HETATM    5  C   UNL     1      -6.182  17.164  68.260  1.00  0.00    -0.144 C  
BRANCH   5   6
HETATM    6  C   UNL     1      -6.575  15.789  68.770  1.00  0.00    -0.113 C  
BRANCH   6   7
HETATM    7  O   UNL     1      -6.404  14.838  67.738  1.00  0.00    -0.149 OA 
BRANCH   7   8
HETATM    8  P   UNL     1      -6.390  13.241  68.403  1.00  0.00    -0.116 P  
HETATM    9  O   UNL     1      -7.433  12.846  67.365  1.00  0.00    -0.148 OA 
HETATM   10  O   UNL     1      -6.839  13.846  69.738  1.00  0.00    -0.058 OA 
BRANCH   8  11
HETATM   11  O   UNL     1      -6.376  11.644  69.068  1.00  0.00    -0.060 OA 
BRANCH  11  12
HETATM   12  P   UNL     1      -7.409  10.621  68.132  1.00  0.00    -0.093 P  
HETATM   13  O   UNL     1      -6.505   9.330  68.613  1.00  0.00    -0.052 OA 
HETATM   14  O   UNL     1      -8.469  10.736  69.248  1.00  0.00    -0.135 OA 
BRANCH  12  15
HETATM   15  O   UNL     1      -8.441   9.596  67.195  1.00  0.00    -0.129 OA 
BRANCH  15  16
HETATM   16  C   UNL     1      -9.842   9.654  67.530  1.00  0.00    -0.169 C  
BRANCH  16  17
HETATM   17  C   UNL     1     -10.444   8.295  67.852  1.00  0.00    -0.198 C  
HETATM   18  O   UNL     1      -9.979   7.320  66.915  1.00  0.00    -0.198 OA 
HETATM   19  C   UNL     1     -10.131   6.044  67.539  1.00  0.00    -0.159 C  
HETATM   20  H   UNL     1     -10.920   7.848  71.049  1.00  0.00     0.000 HD 
HETATM   21  C   UNL     1     -10.010   6.270  69.061  1.00  0.00    -0.146 C  
HETATM   22  H   UNL     1     -10.954   5.729  70.750  1.00  0.00     0.000 HD 
HETATM   23  C   UNL     1     -10.117   7.782  69.242  1.00  0.00    -0.199 C  
HETATM   24  O   UNL     1     -11.028   5.590  69.813  1.00  0.00    -0.310 OA 
HETATM   25  O   UNL     1     -11.124   8.169  70.178  1.00  0.00    -0.250 OA 
BRANCH  19  26
HETATM   26  N   UNL     1      -9.174   5.086  66.982  1.00  0.00    -0.117 N  
HETATM   27  C   UNL     1      -7.936   4.895  67.552  1.00  0.00    -0.095 C  
HETATM   28  C   UNL     1      -7.032   4.104  66.985  1.00  0.00    -0.063 C  
HETATM   29  C   UNL     1      -7.439   3.468  65.720  1.00  0.00    -0.077 C  
HETATM   30  N   UNL     1      -8.603   3.638  65.173  1.00  0.00    -0.112 N  
HETATM   31  N   UNL     1      -6.551   2.661  65.061  1.00  0.00    -0.034 NA 
HETATM   32  H   UNL     1      -8.835   3.161  64.302  1.00  0.00     0.000 HD 
HETATM   33  C   UNL     1      -9.525   4.466  65.777  1.00  0.00    -0.174 C  
HETATM   34  H1  UNL     1      -6.832   2.221  64.185  1.00  0.00     0.000 HD 
HETATM   35  H2  UNL     1      -5.618   2.502  65.441  1.00  0.00     0.000 HD 
HETATM   36  O   UNL     1     -10.632   4.660  65.269  1.00  0.00    -0.186 OA 
ENDBRANCH  19  26
ENDBRANCH  16  17
ENDBRANCH  15  16
ENDBRANCH  12  15
ENDBRANCH  11  12
ENDBRANCH   8  11
ENDBRANCH   7   8
ENDBRANCH   6   7
ENDBRANCH   5   6
ENDBRANCH   2   5
TORSDOF 10
ENDMDL
MODEL      282
REMARK 921   NORMALIZED FREE ENERGY PREDICTED BY IDOCK:   -2.74 KCAL/MOL
REMARK 922        TOTAL FREE ENERGY PREDICTED BY IDOCK:   -5.28 KCAL/MOL
REMARK 923 INTER-LIGAND FREE ENERGY PREDICTED BY IDOCK:   -4.39 KCAL/MOL
REMARK 924 INTRA-LIGAND FREE ENERGY PREDICTED BY IDOCK:   -0.89 KCAL/MOL
REMARK 927      BINDING AFFINITY PREDICTED BY RF-SCORE:    0.00 PKD
ROOT
HETATM    1  C   UNL     1      -5.452   8.556  64.210  1.00  0.00    -0.059 C  
HETATM    2  N   UNL     1      -6.797   9.032  64.716  1.00  0.00    -0.080 N  
HETATM    3  C   UNL     1      -6.625  10.235  65.626  1.00  0.00    -0.122 C  
HETATM    4  C   UNL     1      -7.657   9.458  63.514  1.00  0.00    -0.115 C  
ENDROOT
BRANCH   2   5
HETATM    5  C   UNL     1      -7.458   7.853  65.474  1.00  0.00    -0.079 C  
BRANCH   5   6
HETATM    6  C   UNL     1      -6.958   7.651  66.893  1.00  0.00    -0.079 C  
BRANCH   6   7
HETATM    7  O   UNL     1      -6.073   6.549  66.926  1.00  0.00    -0.027 OA 
BRANCH   7   8
HETATM    8  P   UNL     1      -6.846   5.194  67.674  1.00  0.00    -0.062 P  
HETATM    9  O   UNL     1      -5.668   5.107  68.636  1.00  0.00    -0.014 OA 
HETATM   10  O   UNL     1      -6.779   4.472  66.324  1.00  0.00    -0.047 OA 
BRANCH   8  11
HETATM   11  O   UNL     1      -7.620   3.839  68.423  1.00  0.00    -0.061 OA 
BRANCH  11  12
HETATM   12  P   UNL     1      -9.127   4.342  69.106  1.00  0.00    -0.152 P  
HETATM   13  O   UNL     1      -8.374   4.490  70.564  1.00  0.00    -0.076 OA 
HETATM   14  O   UNL     1      -8.912   5.729  68.464  1.00  0.00    -0.113 OA 
BRANCH  12  15
HETATM   15  O   UNL     1     -10.634   4.846  69.792  1.00  0.00    -0.152 OA 
BRANCH  15  16
HETATM   16  C   UNL     1     -10.658   4.951  71.229  1.00  0.00    -0.023 C  
BRANCH  16  17
HETATM   17  C   UNL     1     -11.012   6.343  71.728  1.00  0.00    -0.255 C  
HETATM   18  O   UNL     1      -9.903   7.226  71.539  1.00  0.00    -0.174 OA 
HETATM   19  C   UNL     1     -10.432   8.553  71.522  1.00  0.00    -0.248 C  
HETATM   20  H   UNL     1     -14.167   7.068  71.326  1.00  0.00     0.000 HD 
HETATM   21  C   UNL     1     -11.879   8.454  70.994  1.00  0.00    -0.252 C  
HETATM   22  H   UNL     1     -13.706   9.154  71.450  1.00  0.00     0.000 HD 
HETATM   23  C   UNL     1     -12.212   6.965  71.041  1.00  0.00    -0.377 C  
HETATM   24  O   UNL     1     -12.815   9.214  71.775  1.00  0.00    -0.329 OA 
HETATM   25  O   UNL     1     -13.415   6.678  71.756  1.00  0.00    -0.215 OA 
BRANCH  19  26
HETATM   26  N   UNL     1      -9.556   9.443  70.756  1.00  0.00    -0.269 N  
HETATM   27  C   UNL     1     -10.031  10.170  69.689  1.00  0.00    -0.232 C  
HETATM   28  C   UNL     1      -9.215  10.894  68.932  1.00  0.00    -0.168 C  
HETATM   29  C   UNL     1      -7.789  10.853  69.304  1.00  0.00    -0.092 C  
HETATM   30  N   UNL     1      -7.329  10.173  70.309  1.00  0.00    -0.200 N  
HETATM   31  N   UNL     1      -6.882  11.551  68.555  1.00  0.00    -0.069 NA 
HETATM   32  H   UNL     1      -6.334  10.192  70.528  1.00  0.00     0.000 HD 
HETATM   33  C   UNL     1      -8.194   9.426  71.079  1.00  0.00     0.041 C  
HETATM   34  H1  UNL     1      -5.896  11.522  68.812  1.00  0.00     0.000 HD 
HETATM   35  H2  UNL     1      -7.189  12.093  67.747  1.00  0.00     0.000 HD 
HETATM   36  O   UNL     1      -7.781   8.755  72.028  1.00  0.00    -0.290 OA 
ENDBRANCH  19  26
ENDBRANCH  16  17
ENDBRANCH  15  16
ENDBRANCH  12  15
ENDBRANCH  11  12
ENDBRANCH   8  11
ENDBRANCH   7   8
ENDBRANCH   6   7
ENDBRANCH   5   6
ENDBRANCH   2   5
TORSDOF 10
ENDMDL
MODEL      283
REMARK 921   NORMALIZED FREE ENERGY PREDICTED BY IDOCK:   -2.74 KCAL/MOL
REMARK 922        TOTAL FREE ENERGY PREDICTED BY IDOCK:   -5.27 KCAL/MOL
REMARK 923 INTER-LIGAND FREE ENERGY PREDICTED BY IDOCK:   -4.87 KCAL/MOL
REMARK 924 INTRA-LIGAND FREE ENERGY PREDICTED BY IDOCK:   -0.41 KCAL/MOL
REMARK 927      BINDING AFFINITY PREDICTED BY RF-SCORE:    0.00 PKD
ROOT
HETATM    1  C   UNL     1     -10.336  13.975  65.450  1.00  0.00    -0.359 C  
HETATM    2  N   UNL     1     -11.754  14.264  65.007  1.00  0.00    -0.365 N  
HETATM    3  C   UNL     1     -12.229  13.204  64.027  1.00  0.00    -0.414 C  
HETATM    4  C   UNL     1     -12.676  14.226  66.237  1.00  0.00    -0.044 C  
ENDROOT
BRANCH   2   5
HETATM    5  C   UNL     1     -11.766  15.668  64.354  1.00  0.00    -0.218 C  
BRANCH   5   6
HETATM    6  C   UNL     1     -10.686  16.611  64.854  1.00  0.00    -0.082 C  
BRANCH   6   7
HETATM    7  O   UNL     1     -10.793  16.745  66.257  1.00  0.00    -0.161 OA 
BRANCH   7   8
HETATM    8  P   UNL     1      -9.363  17.486  66.889  1.00  0.00    -0.288 P  
HETATM    9  O   UNL     1      -9.270  18.302  65.605  1.00  0.00    -0.295 OA 
HETATM   10  O   UNL     1      -8.727  16.092  66.951  1.00  0.00    -0.189 OA 
BRANCH   8  11
HETATM   11  O   UNL     1      -7.933  18.228  67.521  1.00  0.00    -0.228 OA 
BRANCH  11  12
HETATM   12  P   UNL     1      -6.637  17.083  67.509  1.00  0.00    -0.172 P  
HETATM   13  O   UNL     1      -6.359  17.470  65.932  1.00  0.00    -0.205 OA 
HETATM   14  O   UNL     1      -5.775  18.109  68.274  1.00  0.00    -0.163 OA 
BRANCH  12  15
HETATM   15  O   UNL     1      -5.340  15.938  67.496  1.00  0.00    -0.199 OA 
BRANCH  15  16
HETATM   16  C   UNL     1      -5.200  15.144  68.690  1.00  0.00    -0.093 C  
BRANCH  16  17
HETATM   17  C   UNL     1      -6.016  13.861  68.663  1.00  0.00    -0.088 C  
HETATM   18  O   UNL     1      -7.214  14.028  69.425  1.00  0.00    -0.078 OA 
HETATM   19  C   UNL     1      -8.141  13.048  68.955  1.00  0.00     0.206 C  
HETATM   20  H   UNL     1      -5.706  12.223  65.859  1.00  0.00     0.000 HD 
HETATM   21  C   UNL     1      -7.792  12.771  67.477  1.00  0.00    -0.171 C  
HETATM   22  H   UNL     1      -7.543  11.198  66.252  1.00  0.00     0.000 HD 
HETATM   23  C   UNL     1      -6.420  13.408  67.273  1.00  0.00     0.188 C  
HETATM   24  O   UNL     1      -7.758  11.369  67.161  1.00  0.00    -0.136 OA 
HETATM   25  O   UNL     1      -5.454  12.507  66.729  1.00  0.00    -0.315 OA 
BRANCH  19  26
HETATM   26  N   UNL     1      -9.517  13.492  69.189  1.00  0.00     0.334 N  
HETATM   27  C   UNL     1      -9.801  14.791  69.541  1.00  0.00     0.012 C  
HETATM   28  C   UNL     1     -11.036  15.165  69.855  1.00  0.00    -0.291 C  
HETATM   29  C   UNL     1     -12.059  14.105  69.810  1.00  0.00    -0.354 C  
HETATM   30  N   UNL     1     -11.805  12.877  69.477  1.00  0.00    -0.323 N  
HETATM   31  N   UNL     1     -13.350  14.406  70.148  1.00  0.00    -0.279 NA 
HETATM   32  H   UNL     1     -12.555  12.187  69.450  1.00  0.00     0.000 HD 
HETATM   33  C   UNL     1     -10.515  12.510  69.159  1.00  0.00     0.110 C  
HETATM   34  H1  UNL     1     -14.058  13.673  70.117  1.00  0.00     0.000 HD 
HETATM   35  H2  UNL     1     -13.602  15.355  70.428  1.00  0.00     0.000 HD 
HETATM   36  O   UNL     1     -10.242  11.346  68.857  1.00  0.00    -0.207 OA 
ENDBRANCH  19  26
ENDBRANCH  16  17
ENDBRANCH  15  16
ENDBRANCH  12  15
ENDBRANCH  11  12
ENDBRANCH   8  11
ENDBRANCH   7   8
ENDBRANCH   6   7
ENDBRANCH   5   6
ENDBRANCH   2   5
TORSDOF 10
ENDMDL
MODEL      284
REMARK 921   NORMALIZED FREE ENERGY PREDICTED BY IDOCK:   -2.74 KCAL/MOL
REMARK 922        TOTAL FREE ENERGY PREDICTED BY IDOCK:   -5.27 KCAL/MOL
REMARK 923 INTER-LIGAND FREE ENERGY PREDICTED BY IDOCK:   -4.06 KCAL/MOL
REMARK 924 INTRA-LIGAND FREE ENERGY PREDICTED BY IDOCK:   -1.21 KCAL/MOL
REMARK 927      BINDING AFFINITY PREDICTED BY RF-SCORE:    0.00 PKD
ROOT
HETATM    1  C   UNL     1     -11.089  16.052  67.830  1.00  0.00    -0.307 C  
HETATM    2  N   UNL     1     -10.421  14.798  67.307  1.00  0.00    -0.262 N  
HETATM    3  C   UNL     1     -11.366  14.035  66.395  1.00  0.00    -0.333 C  
HETATM    4  C   UNL     1      -9.183  15.200  66.487  1.00  0.00    -0.287 C  
ENDROOT
BRANCH   2   5
HETATM    5  C   UNL     1     -10.015  13.938  68.529  1.00  0.00    -0.221 C  
BRANCH   5   6
HETATM    6  C   UNL     1     -10.534  12.511  68.504  1.00  0.00    -0.231 C  
BRANCH   6   7
HETATM    7  O   UNL     1     -10.167  11.857  69.702  1.00  0.00     0.400 OA 
BRANCH   7   8
HETATM    8  P   UNL     1     -11.336  10.642  70.092  1.00  0.00    -0.286 P  
HETATM    9  O   UNL     1     -11.968  10.872  68.724  1.00  0.00    -0.441 OA 
HETATM   10  O   UNL     1     -11.766  11.508  71.282  1.00  0.00     0.301 OA 
BRANCH   8  11
HETATM   11  O   UNL     1     -12.505   9.427  70.482  1.00  0.00    -0.069 OA 
BRANCH  11  12
HETATM   12  P   UNL     1     -11.698   8.031  71.106  1.00  0.00    -0.251 P  
HETATM   13  O   UNL     1     -13.048   7.148  70.777  1.00  0.00    -0.157 OA 
HETATM   14  O   UNL     1     -10.901   7.950  69.787  1.00  0.00    -0.249 OA 
BRANCH  12  15
HETATM   15  O   UNL     1     -10.891   6.633  71.731  1.00  0.00    -0.224 OA 
BRANCH  15  16
HETATM   16  C   UNL     1      -9.783   6.899  72.613  1.00  0.00    -0.149 C  
BRANCH  16  17
HETATM   17  C   UNL     1      -8.458   6.356  72.102  1.00  0.00    -0.111 C  
HETATM   18  O   UNL     1      -8.680   5.170  71.335  1.00  0.00    -0.125 OA 
HETATM   19  C   UNL     1      -7.544   5.012  70.482  1.00  0.00    -0.070 C  
HETATM   20  H   UNL     1      -6.289   8.708  71.463  1.00  0.00     0.000 HD 
HETATM   21  C   UNL     1      -6.987   6.425  70.209  1.00  0.00    -0.063 C  
HETATM   22  H   UNL     1      -5.216   7.373  70.180  1.00  0.00     0.000 HD 
HETATM   23  C   UNL     1      -7.683   7.325  71.228  1.00  0.00    -0.088 C  
HETATM   24  O   UNL     1      -5.559   6.503  70.348  1.00  0.00    -0.018 OA 
HETATM   25  O   UNL     1      -6.774   8.101  72.009  1.00  0.00    -0.061 OA 
BRANCH  19  26
HETATM   26  N   UNL     1      -7.906   4.251  69.284  1.00  0.00    -0.057 N  
HETATM   27  C   UNL     1      -9.139   4.393  68.691  1.00  0.00    -0.124 C  
HETATM   28  C   UNL     1      -9.503   3.626  67.669  1.00  0.00    -0.234 C  
HETATM   29  C   UNL     1      -8.513   2.625  67.233  1.00  0.00    -0.097 C  
HETATM   30  N   UNL     1      -7.347   2.483  67.783  1.00  0.00    -0.052 N  
HETATM   31  N   UNL     1      -8.826   1.779  66.204  1.00  0.00    -0.120 NA 
HETATM   32  H   UNL     1      -6.696   1.781  67.431  1.00  0.00     0.000 HD 
HETATM   33  C   UNL     1      -6.991   3.287  68.844  1.00  0.00    -0.048 C  
HETATM   34  H1  UNL     1      -8.142   1.086  65.903  1.00  0.00     0.000 HD 
HETATM   35  H2  UNL     1      -9.735   1.841  65.744  1.00  0.00     0.000 HD 
HETATM   36  O   UNL     1      -5.896   3.160  69.397  1.00  0.00    -0.021 OA 
ENDBRANCH  19  26
ENDBRANCH  16  17
ENDBRANCH  15  16
ENDBRANCH  12  15
ENDBRANCH  11  12
ENDBRANCH   8  11
ENDBRANCH   7   8
ENDBRANCH   6   7
ENDBRANCH   5   6
ENDBRANCH   2   5
TORSDOF 10
ENDMDL
MODEL      285
REMARK 921   NORMALIZED FREE ENERGY PREDICTED BY IDOCK:   -2.70 KCAL/MOL
REMARK 922        TOTAL FREE ENERGY PREDICTED BY IDOCK:   -5.21 KCAL/MOL
REMARK 923 INTER-LIGAND FREE ENERGY PREDICTED BY IDOCK:   -4.80 KCAL/MOL
REMARK 924 INTRA-LIGAND FREE ENERGY PREDICTED BY IDOCK:   -0.41 KCAL/MOL
REMARK 927      BINDING AFFINITY PREDICTED BY RF-SCORE:    0.00 PKD
ROOT
HETATM    1  C   UNL     1      -8.281   5.552  64.677  1.00  0.00    -0.130 C  
HETATM    2  N   UNL     1      -8.117   4.853  63.345  1.00  0.00    -0.094 N  
HETATM    3  C   UNL     1      -9.351   5.059  62.483  1.00  0.00     0.087 C  
HETATM    4  C   UNL     1      -6.911   5.462  62.610  1.00  0.00    -0.033 C  
ENDROOT
BRANCH   2   5
HETATM    5  C   UNL     1      -7.884   3.349  63.629  1.00  0.00    -0.080 C  
BRANCH   5   6
HETATM    6  C   UNL     1      -7.412   3.033  65.037  1.00  0.00    -0.075 C  
BRANCH   6   7
HETATM    7  O   UNL     1      -8.316   2.132  65.645  1.00  0.00    -0.085 OA 
BRANCH   7   8
HETATM    8  P   UNL     1      -8.305   2.354  67.361  1.00  0.00    -0.095 P  
HETATM    9  O   UNL     1      -9.703   2.950  67.251  1.00  0.00    -0.043 OA 
HETATM   10  O   UNL     1      -7.078   3.256  67.187  1.00  0.00    -0.056 OA 
BRANCH   8  11
HETATM   11  O   UNL     1      -8.294   2.574  69.077  1.00  0.00    -0.054 OA 
BRANCH  11  12
HETATM   12  P   UNL     1      -9.351   3.876  69.498  1.00  0.00    -0.184 P  
HETATM   13  O   UNL     1      -9.219   3.425  71.076  1.00  0.00    -0.102 OA 
HETATM   14  O   UNL     1      -8.166   4.847  69.315  1.00  0.00    -0.081 OA 
BRANCH  12  15
HETATM   15  O   UNL     1     -10.410   5.178  69.920  1.00  0.00    -0.279 OA 
BRANCH  15  16
HETATM   16  C   UNL     1      -9.947   6.035  70.981  1.00  0.00    -0.187 C  
BRANCH  16  17
HETATM   17  C   UNL     1      -8.973   7.106  70.514  1.00  0.00    -0.155 C  
HETATM   18  O   UNL     1      -9.507   7.788  69.377  1.00  0.00    -0.156 OA 
HETATM   19  C   UNL     1      -8.851   9.055  69.311  1.00  0.00    -0.139 C  
HETATM   20  H   UNL     1      -7.285   8.439  72.967  1.00  0.00     0.000 HD 
HETATM   21  C   UNL     1      -8.462   9.436  70.755  1.00  0.00    -0.135 C  
HETATM   22  H   UNL     1      -6.874  10.154  71.755  1.00  0.00     0.000 HD 
HETATM   23  C   UNL     1      -8.648   8.153  71.562  1.00  0.00    -0.139 C  
HETATM   24  O   UNL     1      -7.113   9.920  70.866  1.00  0.00    -0.323 OA 
HETATM   25  O   UNL     1      -7.489   7.784  72.310  1.00  0.00    -0.073 OA 
BRANCH  19  26
HETATM   26  N   UNL     1      -9.696  10.034  68.623  1.00  0.00    -0.154 N  
HETATM   27  C   UNL     1     -10.698  10.706  69.284  1.00  0.00    -0.238 C  
HETATM   28  C   UNL     1     -11.529  11.513  68.636  1.00  0.00    -0.354 C  
HETATM   29  C   UNL     1     -11.311  11.626  67.183  1.00  0.00    -0.306 C  
HETATM   30  N   UNL     1     -10.369  11.000  66.548  1.00  0.00    -0.238 N  
HETATM   31  N   UNL     1     -12.145  12.417  66.440  1.00  0.00    -0.614 NA 
HETATM   32  H   UNL     1     -10.257  11.126  65.542  1.00  0.00     0.000 HD 
HETATM   33  C   UNL     1      -9.520  10.164  67.240  1.00  0.00    -0.154 C  
HETATM   34  H1  UNL     1     -11.995  12.495  65.435  1.00  0.00     0.000 HD 
HETATM   35  H2  UNL     1     -12.910  12.923  66.888  1.00  0.00     0.000 HD 
HETATM   36  O   UNL     1      -8.627   9.542  66.659  1.00  0.00    -0.131 OA 
ENDBRANCH  19  26
ENDBRANCH  16  17
ENDBRANCH  15  16
ENDBRANCH  12  15
ENDBRANCH  11  12
ENDBRANCH   8  11
ENDBRANCH   7   8
ENDBRANCH   6   7
ENDBRANCH   5   6
ENDBRANCH   2   5
TORSDOF 10
ENDMDL
MODEL      286
REMARK 921   NORMALIZED FREE ENERGY PREDICTED BY IDOCK:   -2.61 KCAL/MOL
REMARK 922        TOTAL FREE ENERGY PREDICTED BY IDOCK:   -5.07 KCAL/MOL
REMARK 923 INTER-LIGAND FREE ENERGY PREDICTED BY IDOCK:   -4.09 KCAL/MOL
REMARK 924 INTRA-LIGAND FREE ENERGY PREDICTED BY IDOCK:   -0.98 KCAL/MOL
REMARK 927      BINDING AFFINITY PREDICTED BY RF-SCORE:    0.00 PKD
ROOT
HETATM    1  C   UNL     1      -6.951   7.116  62.460  1.00  0.00    -0.068 C  
HETATM    2  N   UNL     1      -7.420   8.011  63.587  1.00  0.00    -0.110 N  
HETATM    3  C   UNL     1      -6.231   8.647  64.288  1.00  0.00    -0.067 C  
HETATM    4  C   UNL     1      -8.288   9.136  63.000  1.00  0.00    -0.196 C  
ENDROOT
BRANCH   2   5
HETATM    5  C   UNL     1      -8.240   7.139  64.570  1.00  0.00     0.000 C  
BRANCH   5   6
HETATM    6  C   UNL     1      -7.592   5.817  64.940  1.00  0.00    -0.088 C  
BRANCH   6   7
HETATM    7  O   UNL     1      -8.448   4.755  64.566  1.00  0.00    -0.128 OA 
BRANCH   7   8
HETATM    8  P   UNL     1      -8.629   3.652  65.887  1.00  0.00    -0.124 P  
HETATM    9  O   UNL     1      -7.130   3.391  65.821  1.00  0.00    -0.063 OA 
HETATM   10  O   UNL     1      -9.582   2.833  65.008  1.00  0.00    -0.123 OA 
BRANCH   8  11
HETATM   11  O   UNL     1      -8.812   2.550  67.208  1.00  0.00    -0.114 OA 
BRANCH  11  12
HETATM   12  P   UNL     1      -9.480   3.385  68.567  1.00  0.00     0.010 P  
HETATM   13  O   UNL     1      -8.010   3.287  69.304  1.00  0.00    -0.050 OA 
HETATM   14  O   UNL     1      -9.376   4.698  67.762  1.00  0.00    -0.127 OA 
BRANCH  12  15
HETATM   15  O   UNL     1     -10.147   4.221  69.927  1.00  0.00    -0.194 OA 
BRANCH  15  16
HETATM   16  C   UNL     1      -9.447   4.038  71.173  1.00  0.00    -0.160 C  
BRANCH  16  17
HETATM   17  C   UNL     1      -9.311   5.317  71.985  1.00  0.00    -0.137 C  
HETATM   18  O   UNL     1      -8.847   6.379  71.148  1.00  0.00    -0.137 OA 
HETATM   19  C   UNL     1      -9.227   7.600  71.784  1.00  0.00    -0.137 C  
HETATM   20  H   UNL     1     -11.527   5.545  74.369  1.00  0.00     0.000 HD 
HETATM   21  C   UNL     1     -10.502   7.304  72.601  1.00  0.00    -0.246 C  
HETATM   22  H   UNL     1     -11.241   7.665  74.434  1.00  0.00     0.000 HD 
HETATM   23  C   UNL     1     -10.599   5.781  72.638  1.00  0.00    -0.223 C  
HETATM   24  O   UNL     1     -10.456   7.847  73.931  1.00  0.00     0.119 OA 
HETATM   25  O   UNL     1     -10.720   5.254  73.959  1.00  0.00    -0.282 OA 
BRANCH  19  26
HETATM   26  N   UNL     1      -9.365   8.671  70.794  1.00  0.00    -0.177 N  
HETATM   27  C   UNL     1     -10.533   9.388  70.673  1.00  0.00    -0.290 C  
HETATM   28  C   UNL     1     -10.693  10.285  69.706  1.00  0.00    -0.328 C  
HETATM   29  C   UNL     1      -9.554  10.445  68.784  1.00  0.00    -0.177 C  
HETATM   30  N   UNL     1      -8.447   9.776  68.889  1.00  0.00    -0.123 N  
HETATM   31  N   UNL     1      -9.653  11.330  67.746  1.00  0.00    -0.171 NA 
HETATM   32  H   UNL     1      -7.686   9.938  68.230  1.00  0.00     0.000 HD 
HETATM   33  C   UNL     1      -8.304   8.848  69.897  1.00  0.00    -0.128 C  
HETATM   34  H1  UNL     1      -8.866  11.441  67.108  1.00  0.00     0.000 HD 
HETATM   35  H2  UNL     1     -10.506  11.873  67.611  1.00  0.00     0.000 HD 
HETATM   36  O   UNL     1      -7.270   8.185  70.009  1.00  0.00    -0.055 OA 
ENDBRANCH  19  26
ENDBRANCH  16  17
ENDBRANCH  15  16
ENDBRANCH  12  15
ENDBRANCH  11  12
ENDBRANCH   8  11
ENDBRANCH   7   8
ENDBRANCH   6   7
ENDBRANCH   5   6
ENDBRANCH   2   5
TORSDOF 10
ENDMDL
MODEL      287
REMARK 921   NORMALIZED FREE ENERGY PREDICTED BY IDOCK:   -2.60 KCAL/MOL
REMARK 922        TOTAL FREE ENERGY PREDICTED BY IDOCK:   -5.05 KCAL/MOL
REMARK 923 INTER-LIGAND FREE ENERGY PREDICTED BY IDOCK:   -4.46 KCAL/MOL
REMARK 924 INTRA-LIGAND FREE ENERGY PREDICTED BY IDOCK:   -0.59 KCAL/MOL
REMARK 927      BINDING AFFINITY PREDICTED BY RF-SCORE:    0.00 PKD
ROOT
HETATM    1  C   UNL     1      -6.967  18.555  66.741  1.00  0.00    -0.194 C  
HETATM    2  N   UNL     1      -8.183  17.687  66.986  1.00  0.00    -0.213 N  
HETATM    3  C   UNL     1      -8.786  17.991  68.347  1.00  0.00    -0.293 C  
HETATM    4  C   UNL     1      -9.240  17.998  65.913  1.00  0.00     0.167 C  
ENDROOT
BRANCH   2   5
HETATM    5  C   UNL     1      -7.730  16.208  66.899  1.00  0.00    -0.249 C  
BRANCH   5   6
HETATM    6  C   UNL     1      -8.267  15.312  68.001  1.00  0.00    -0.141 C  
BRANCH   6   7
HETATM    7  O   UNL     1      -8.700  14.088  67.441  1.00  0.00    -0.184 OA 
BRANCH   7   8
HETATM    8  P   UNL     1      -7.628  12.813  67.911  1.00  0.00    -0.173 P  
HETATM    9  O   UNL     1      -8.845  12.013  68.357  1.00  0.00    -0.178 OA 
HETATM   10  O   UNL     1      -6.966  13.795  68.884  1.00  0.00    -0.104 OA 
BRANCH   8  11
HETATM   11  O   UNL     1      -6.557  11.538  68.380  1.00  0.00    -0.056 OA 
BRANCH  11  12
HETATM   12  P   UNL     1      -7.445  10.324  69.232  1.00  0.00    -0.140 P  
HETATM   13  O   UNL     1      -6.356   9.207  68.701  1.00  0.00    -0.048 OA 
HETATM   14  O   UNL     1      -6.809  10.832  70.543  1.00  0.00    -0.285 OA 
BRANCH  12  15
HETATM   15  O   UNL     1      -8.333   9.107  70.084  1.00  0.00    -0.129 OA 
BRANCH  15  16
HETATM   16  C   UNL     1      -9.741   9.040  69.781  1.00  0.00    -0.175 C  
BRANCH  16  17
HETATM   17  C   UNL     1     -10.394   7.740  70.225  1.00  0.00    -0.215 C  
HETATM   18  O   UNL     1      -9.572   6.630  69.856  1.00  0.00    -0.155 OA 
HETATM   19  C   UNL     1      -9.935   5.546  70.713  1.00  0.00    -0.201 C  
HETATM   20  H   UNL     1     -12.105   8.062  72.985  1.00  0.00     0.000 HD 
HETATM   21  C   UNL     1     -10.441   6.166  72.033  1.00  0.00    -0.211 C  
HETATM   22  H   UNL     1     -11.973   5.952  73.315  1.00  0.00     0.000 HD 
HETATM   23  C   UNL     1     -10.643   7.646  71.719  1.00  0.00    -0.214 C  
HETATM   24  O   UNL     1     -11.662   5.570  72.502  1.00  0.00    -0.272 OA 
HETATM   25  O   UNL     1     -11.949   8.121  72.049  1.00  0.00    -0.301 OA 
BRANCH  19  26
HETATM   26  N   UNL     1      -8.816   4.613  70.861  1.00  0.00    -0.112 N  
HETATM   27  C   UNL     1      -8.158   4.468  72.060  1.00  0.00    -0.100 C  
HETATM   28  C   UNL     1      -7.078   3.701  72.164  1.00  0.00    -0.046 C  
HETATM   29  C   UNL     1      -6.639   3.040  70.922  1.00  0.00    -0.031 C  
HETATM   30  N   UNL     1      -7.252   3.167  69.786  1.00  0.00    -0.041 N  
HETATM   31  N   UNL     1      -5.517   2.256  70.943  1.00  0.00    -0.008 NA 
HETATM   32  H   UNL     1      -6.909   2.675  68.961  1.00  0.00     0.000 HD 
HETATM   33  C   UNL     1      -8.368   3.971  69.700  1.00  0.00    -0.057 C  
HETATM   34  H1  UNL     1      -5.213   1.798  70.085  1.00  0.00     0.000 HD 
HETATM   35  H2  UNL     1      -4.992   2.131  71.809  1.00  0.00     0.000 HD 
HETATM   36  O   UNL     1      -8.958   4.125  68.628  1.00  0.00    -0.099 OA 
ENDBRANCH  19  26
ENDBRANCH  16  17
ENDBRANCH  15  16
ENDBRANCH  12  15
ENDBRANCH  11  12
ENDBRANCH   8  11
ENDBRANCH   7   8
ENDBRANCH   6   7
ENDBRANCH   5   6
ENDBRANCH   2   5
TORSDOF 10
ENDMDL
MODEL      288
REMARK 921   NORMALIZED FREE ENERGY PREDICTED BY IDOCK:   -2.48 KCAL/MOL
REMARK 922        TOTAL FREE ENERGY PREDICTED BY IDOCK:   -4.86 KCAL/MOL
REMARK 923 INTER-LIGAND FREE ENERGY PREDICTED BY IDOCK:   -5.25 KCAL/MOL
REMARK 924 INTRA-LIGAND FREE ENERGY PREDICTED BY IDOCK:    0.39 KCAL/MOL
REMARK 927      BINDING AFFINITY PREDICTED BY RF-SCORE:    0.00 PKD
ROOT
HETATM    1  C   UNL     1      -7.262  19.828  70.141  1.00  0.00     0.285 C  
HETATM    2  N   UNL     1      -5.812  20.084  69.792  1.00  0.00    -0.285 N  
HETATM    3  C   UNL     1      -5.711  20.990  68.577  1.00  0.00    -0.336 C  
HETATM    4  C   UNL     1      -5.134  20.793  70.977  1.00  0.00    -0.183 C  
ENDROOT
BRANCH   2   5
HETATM    5  C   UNL     1      -5.145  18.713  69.518  1.00  0.00    -0.186 C  
BRANCH   5   6
HETATM    6  C   UNL     1      -5.912  17.811  68.567  1.00  0.00    -0.178 C  
BRANCH   6   7
HETATM    7  O   UNL     1      -7.047  18.500  68.082  1.00  0.00    -0.236 OA 
BRANCH   7   8
HETATM    8  P   UNL     1      -8.085  17.402  67.237  1.00  0.00    -0.214 P  
HETATM    9  O   UNL     1      -6.842  16.742  66.654  1.00  0.00    -0.215 OA 
HETATM   10  O   UNL     1      -8.706  18.611  66.529  1.00  0.00    -0.294 OA 
BRANCH   8  11
HETATM   11  O   UNL     1      -9.123  16.304  66.394  1.00  0.00    -0.248 OA 
BRANCH  11  12
HETATM   12  P   UNL     1     -10.075  15.419  67.535  1.00  0.00    -0.237 P  
HETATM   13  O   UNL     1      -8.926  15.725  68.675  1.00  0.00    -0.184 OA 
HETATM   14  O   UNL     1     -11.008  16.643  67.647  1.00  0.00    -0.296 OA 
BRANCH  12  15
HETATM   15  O   UNL     1     -11.026  14.534  68.678  1.00  0.00    -0.234 OA 
BRANCH  15  16
HETATM   16  C   UNL     1     -11.238  13.144  68.364  1.00  0.00    -0.271 C  
BRANCH  16  17
HETATM   17  C   UNL     1     -10.076  12.508  67.618  1.00  0.00    -0.217 C  
HETATM   18  O   UNL     1      -9.167  11.911  68.547  1.00  0.00    -0.193 OA 
HETATM   19  C   UNL     1      -8.427  10.926  67.824  1.00  0.00    -0.124 C  
HETATM   20  H   UNL     1     -10.941  11.317  64.706  1.00  0.00     0.000 HD 
HETATM   21  C   UNL     1      -9.338  10.427  66.682  1.00  0.00    -0.158 C  
HETATM   22  H   UNL     1      -9.222  10.043  64.713  1.00  0.00     0.000 HD 
HETATM   23  C   UNL     1     -10.484  11.434  66.627  1.00  0.00    -0.243 C  
HETATM   24  O   UNL     1      -8.661  10.350  65.417  1.00  0.00    -0.166 OA 
HETATM   25  O   UNL     1     -10.685  11.990  65.327  1.00  0.00    -0.269 OA 
BRANCH  19  26
HETATM   26  N   UNL     1      -7.948   9.880  68.730  1.00  0.00    -0.089 N  
HETATM   27  C   UNL     1      -8.741   8.810  69.073  1.00  0.00    -0.133 C  
HETATM   28  C   UNL     1      -8.345   7.919  69.975  1.00  0.00    -0.121 C  
HETATM   29  C   UNL     1      -7.022   8.163  70.579  1.00  0.00    -0.037 C  
HETATM   30  N   UNL     1      -6.264   9.167  70.263  1.00  0.00    -0.042 N  
HETATM   31  N   UNL     1      -6.556   7.305  71.537  1.00  0.00    -0.047 NA 
HETATM   32  H   UNL     1      -5.352   9.279  70.704  1.00  0.00     0.000 HD 
HETATM   33  C   UNL     1      -6.697  10.081  69.327  1.00  0.00    -0.057 C  
HETATM   34  H1  UNL     1      -5.642   7.473  71.955  1.00  0.00     0.000 HD 
HETATM   35  H2  UNL     1      -7.118   6.505  71.831  1.00  0.00     0.000 HD 
HETATM   36  O   UNL     1      -6.004  11.054  69.022  1.00  0.00    -0.040 OA 
ENDBRANCH  19  26
ENDBRANCH  16  17
ENDBRANCH  15  16
ENDBRANCH  12  15
ENDBRANCH  11  12
ENDBRANCH   8  11
ENDBRANCH   7   8
ENDBRANCH   6   7
ENDBRANCH   5   6
ENDBRANCH   2   5
TORSDOF 10
ENDMDL
MODEL      289
REMARK 921   NORMALIZED FREE ENERGY PREDICTED BY IDOCK:   -2.48 KCAL/MOL
REMARK 922        TOTAL FREE ENERGY PREDICTED BY IDOCK:   -4.86 KCAL/MOL
REMARK 923 INTER-LIGAND FREE ENERGY PREDICTED BY IDOCK:   -4.93 KCAL/MOL
REMARK 924 INTRA-LIGAND FREE ENERGY PREDICTED BY IDOCK:    0.08 KCAL/MOL
REMARK 927      BINDING AFFINITY PREDICTED BY RF-SCORE:    0.00 PKD
ROOT
HETATM    1  C   UNL     1      -5.140   6.031  69.602  1.00  0.00    -0.005 C  
HETATM    2  N   UNL     1      -5.978   5.167  68.684  1.00  0.00    -0.020 N  
HETATM    3  C   UNL     1      -6.326   5.926  67.414  1.00  0.00    -0.042 C  
HETATM    4  C   UNL     1      -5.164   3.923  68.292  1.00  0.00    -0.012 C  
ENDROOT
BRANCH   2   5
HETATM    5  C   UNL     1      -7.259   4.765  69.457  1.00  0.00    -0.055 C  
BRANCH   5   6
HETATM    6  C   UNL     1      -7.096   3.570  70.379  1.00  0.00    -0.037 C  
BRANCH   6   7
HETATM    7  O   UNL     1      -8.150   3.557  71.321  1.00  0.00    -0.059 OA 
BRANCH   7   8
HETATM    8  P   UNL     1      -8.023   4.929  72.367  1.00  0.00    -0.105 P  
HETATM    9  O   UNL     1      -8.389   5.814  71.182  1.00  0.00    -0.120 OA 
HETATM   10  O   UNL     1      -6.558   4.549  72.608  1.00  0.00    -0.042 OA 
BRANCH   8  11
HETATM   11  O   UNL     1      -7.897   6.301  73.414  1.00  0.00    -0.098 OA 
BRANCH  11  12
HETATM   12  P   UNL     1      -8.970   7.542  72.869  1.00  0.00    -0.198 P  
HETATM   13  O   UNL     1      -9.252   7.939  74.443  1.00  0.00     0.052 OA 
HETATM   14  O   UNL     1      -7.737   8.398  72.512  1.00  0.00    -0.181 OA 
BRANCH  12  15
HETATM   15  O   UNL     1     -10.045   8.785  72.325  1.00  0.00    -0.311 OA 
BRANCH  15  16
HETATM   16  C   UNL     1     -11.289   8.326  71.761  1.00  0.00    -0.288 C  
BRANCH  16  17
HETATM   17  C   UNL     1     -11.355   8.463  70.248  1.00  0.00    -0.129 C  
HETATM   18  O   UNL     1     -10.774   9.705  69.844  1.00  0.00    -0.221 OA 
HETATM   19  C   UNL     1     -10.394   9.556  68.475  1.00  0.00    -0.207 C  
HETATM   20  H   UNL     1     -11.090   5.600  68.706  1.00  0.00     0.000 HD 
HETATM   21  C   UNL     1     -10.086   8.060  68.254  1.00  0.00    -0.196 C  
HETATM   22  H   UNL     1     -10.492   6.614  66.919  1.00  0.00     0.000 HD 
HETATM   23  C   UNL     1     -10.640   7.359  69.491  1.00  0.00    -0.237 C  
HETATM   24  O   UNL     1     -10.682   7.535  67.056  1.00  0.00    -0.346 OA 
HETATM   25  O   UNL     1     -11.536   6.291  69.181  1.00  0.00    -0.324 OA 
BRANCH  19  26
HETATM   26  N   UNL     1      -9.293  10.466  68.148  1.00  0.00    -0.143 N  
HETATM   27  C   UNL     1      -8.313  10.763  69.067  1.00  0.00    -0.136 C  
HETATM   28  C   UNL     1      -7.376  11.668  68.805  1.00  0.00    -0.118 C  
HETATM   29  C   UNL     1      -7.469  12.325  67.489  1.00  0.00    -0.149 C  
HETATM   30  N   UNL     1      -8.387  12.052  66.614  1.00  0.00    -0.338 N  
HETATM   31  N   UNL     1      -6.556  13.289  67.157  1.00  0.00    -0.459 NA 
HETATM   32  H   UNL     1      -8.395  12.530  65.713  1.00  0.00     0.000 HD 
HETATM   33  C   UNL     1      -9.351  11.113  66.908  1.00  0.00    -0.175 C  
HETATM   34  H1  UNL     1      -6.620  13.745  66.247  1.00  0.00     0.000 HD 
HETATM   35  H2  UNL     1      -5.820  13.550  67.813  1.00  0.00     0.000 HD 
HETATM   36  O   UNL     1     -10.246  10.848  66.102  1.00  0.00    -0.235 OA 
ENDBRANCH  19  26
ENDBRANCH  16  17
ENDBRANCH  15  16
ENDBRANCH  12  15
ENDBRANCH  11  12
ENDBRANCH   8  11
ENDBRANCH   7   8
ENDBRANCH   6   7
ENDBRANCH   5   6
ENDBRANCH   2   5
TORSDOF 10
ENDMDL
MODEL      290
REMARK 921   NORMALIZED FREE ENERGY PREDICTED BY IDOCK:   -2.38 KCAL/MOL
REMARK 922        TOTAL FREE ENERGY PREDICTED BY IDOCK:   -4.70 KCAL/MOL
REMARK 923 INTER-LIGAND FREE ENERGY PREDICTED BY IDOCK:   -4.46 KCAL/MOL
REMARK 924 INTRA-LIGAND FREE ENERGY PREDICTED BY IDOCK:   -0.24 KCAL/MOL
REMARK 927      BINDING AFFINITY PREDICTED BY RF-SCORE:    0.00 PKD
ROOT
HETATM    1  C   UNL     1      -6.814   5.383  64.568  1.00  0.00    -0.048 C  
HETATM    2  N   UNL     1      -6.402   4.260  63.640  1.00  0.00    -0.029 N  
HETATM    3  C   UNL     1      -7.530   3.927  62.678  1.00  0.00    -0.049 C  
HETATM    4  C   UNL     1      -5.188   4.719  62.814  1.00  0.00    -0.009 C  
ENDROOT
BRANCH   2   5
HETATM    5  C   UNL     1      -6.041   3.035  64.515  1.00  0.00    -0.022 C  
BRANCH   5   6
HETATM    6  C   UNL     1      -5.896   3.333  65.997  1.00  0.00    -0.023 C  
BRANCH   6   7
HETATM    7  O   UNL     1      -6.540   2.319  66.744  1.00  0.00    -0.037 OA 
BRANCH   7   8
HETATM    8  P   UNL     1      -7.033   2.942  68.281  1.00  0.00    -0.049 P  
HETATM    9  O   UNL     1      -8.415   3.190  67.689  1.00  0.00    -0.084 OA 
HETATM   10  O   UNL     1      -5.944   4.012  68.142  1.00  0.00    -0.025 OA 
BRANCH   8  11
HETATM   11  O   UNL     1      -7.526   3.565  69.818  1.00  0.00    -0.045 OA 
BRANCH  11  12
HETATM   12  P   UNL     1      -8.839   4.669  69.598  1.00  0.00    -0.093 P  
HETATM   13  O   UNL     1      -9.277   4.402  71.163  1.00  0.00    -0.123 OA 
HETATM   14  O   UNL     1      -7.830   5.831  69.715  1.00  0.00    -0.091 OA 
BRANCH  12  15
HETATM   15  O   UNL     1     -10.153   5.773  69.379  1.00  0.00    -0.179 OA 
BRANCH  15  16
HETATM   16  C   UNL     1     -11.229   5.653  70.329  1.00  0.00    -0.004 C  
BRANCH  16  17
HETATM   17  C   UNL     1     -11.429   6.898  71.179  1.00  0.00    -0.304 C  
HETATM   18  O   UNL     1     -10.936   8.047  70.485  1.00  0.00    -0.242 OA 
HETATM   19  C   UNL     1     -11.592   9.183  71.050  1.00  0.00    -0.306 C  
HETATM   20  H   UNL     1     -14.109   6.749  73.033  1.00  0.00     0.000 HD 
HETATM   21  C   UNL     1     -12.964   8.700  71.567  1.00  0.00    -0.312 C  
HETATM   22  H   UNL     1     -14.112   8.882  73.205  1.00  0.00     0.000 HD 
HETATM   23  C   UNL     1     -12.874   7.176  71.548  1.00  0.00    -0.391 C  
HETATM   24  O   UNL     1     -13.268   9.179  72.887  1.00  0.00    -0.312 OA 
HETATM   25  O   UNL     1     -13.204   6.575  72.801  1.00  0.00     0.656 OA 
BRANCH  19  26
HETATM   26  N   UNL     1     -11.651  10.276  70.077  1.00  0.00    -0.269 N  
HETATM   27  C   UNL     1     -11.139  10.134  68.809  1.00  0.00    -0.203 C  
HETATM   28  C   UNL     1     -11.099  11.159  67.964  1.00  0.00    -0.334 C  
HETATM   29  C   UNL     1     -11.623  12.436  68.480  1.00  0.00    -0.313 C  
HETATM   30  N   UNL     1     -12.111  12.582  69.673  1.00  0.00    -0.251 N  
HETATM   31  N   UNL     1     -11.590  13.545  67.678  1.00  0.00    -0.318 NA 
HETATM   32  H   UNL     1     -12.472  13.488  69.972  1.00  0.00     0.000 HD 
HETATM   33  C   UNL     1     -12.139  11.507  70.534  1.00  0.00    -0.378 C  
HETATM   34  H1  UNL     1     -11.952  14.429  68.034  1.00  0.00     0.000 HD 
HETATM   35  H2  UNL     1     -11.206  13.488  66.735  1.00  0.00     0.000 HD 
HETATM   36  O   UNL     1     -12.580  11.622  71.680  1.00  0.00    -0.277 OA 
ENDBRANCH  19  26
ENDBRANCH  16  17
ENDBRANCH  15  16
ENDBRANCH  12  15
ENDBRANCH  11  12
ENDBRANCH   8  11
ENDBRANCH   7   8
ENDBRANCH   6   7
ENDBRANCH   5   6
ENDBRANCH   2   5
TORSDOF 10
ENDMDL
MODEL      291
REMARK 921   NORMALIZED FREE ENERGY PREDICTED BY IDOCK:   -2.35 KCAL/MOL
REMARK 922        TOTAL FREE ENERGY PREDICTED BY IDOCK:   -4.66 KCAL/MOL
REMARK 923 INTER-LIGAND FREE ENERGY PREDICTED BY IDOCK:   -5.42 KCAL/MOL
REMARK 924 INTRA-LIGAND FREE ENERGY PREDICTED BY IDOCK:    0.76 KCAL/MOL
REMARK 927      BINDING AFFINITY PREDICTED BY RF-SCORE:    0.00 PKD
ROOT
HETATM    1  C   UNL     1     -13.449  13.088  72.286  1.00  0.00    -0.547 C  
HETATM    2  N   UNL     1     -13.011  14.389  71.649  1.00  0.00    -0.324 N  
HETATM    3  C   UNL     1     -14.211  15.281  71.384  1.00  0.00    -0.485 C  
HETATM    4  C   UNL     1     -12.072  15.125  72.619  1.00  0.00    -0.385 C  
ENDROOT
BRANCH   2   5
HETATM    5  C   UNL     1     -12.276  14.042  70.330  1.00  0.00    -0.361 C  
BRANCH   5   6
HETATM    6  C   UNL     1     -11.795  15.243  69.535  1.00  0.00    -0.345 C  
BRANCH   6   7
HETATM    7  O   UNL     1     -12.072  15.039  68.164  1.00  0.00    -0.231 OA 
BRANCH   7   8
HETATM    8  P   UNL     1     -11.086  13.758  67.547  1.00  0.00    -0.298 P  
HETATM    9  O   UNL     1     -10.307  14.797  66.750  1.00  0.00    -0.262 OA 
HETATM   10  O   UNL     1     -12.353  13.136  66.950  1.00  0.00    -0.305 OA 
BRANCH   8  11
HETATM   11  O   UNL     1     -10.099  12.476  66.932  1.00  0.00    -0.221 OA 
BRANCH  11  12
HETATM   12  P   UNL     1      -9.512  11.519  68.247  1.00  0.00    -0.184 P  
HETATM   13  O   UNL     1      -9.084  10.357  67.162  1.00  0.00    -0.139 OA 
HETATM   14  O   UNL     1      -8.263  12.424  68.297  1.00  0.00    -0.162 OA 
BRANCH  12  15
HETATM   15  O   UNL     1      -8.925  10.560  69.563  1.00  0.00    -0.145 OA 
BRANCH  15  16
HETATM   16  C   UNL     1      -9.455   9.223  69.641  1.00  0.00    -0.179 C  
BRANCH  16  17
HETATM   17  C   UNL     1      -8.381   8.146  69.656  1.00  0.00    -0.125 C  
HETATM   18  O   UNL     1      -8.350   7.470  68.396  1.00  0.00    -0.124 OA 
HETATM   19  C   UNL     1      -7.056   6.878  68.278  1.00  0.00    -0.086 C  
HETATM   20  H   UNL     1      -5.809   8.948  71.496  1.00  0.00     0.000 HD 
HETATM   21  C   UNL     1      -6.083   7.756  69.094  1.00  0.00    -0.035 C  
HETATM   22  H   UNL     1      -4.606   7.530  70.437  1.00  0.00     0.000 HD 
HETATM   23  C   UNL     1      -6.981   8.664  69.928  1.00  0.00    -0.043 C  
HETATM   24  O   UNL     1      -5.205   6.990  69.935  1.00  0.00    -0.014 OA 
HETATM   25  O   UNL     1      -6.686   8.623  71.325  1.00  0.00    -0.058 OA 
BRANCH  19  26
HETATM   26  N   UNL     1      -6.697   6.709  66.868  1.00  0.00    -0.055 N  
HETATM   27  C   UNL     1      -5.722   5.820  66.479  1.00  0.00    -0.017 C  
HETATM   28  C   UNL     1      -5.326   5.744  65.214  1.00  0.00    -0.010 C  
HETATM   29  C   UNL     1      -5.985   6.672  64.277  1.00  0.00    -0.035 C  
HETATM   30  N   UNL     1      -6.907   7.513  64.632  1.00  0.00    -0.050 N  
HETATM   31  N   UNL     1      -5.610   6.673  62.961  1.00  0.00    -0.030 NA 
HETATM   32  H   UNL     1      -7.338   8.123  63.938  1.00  0.00     0.000 HD 
HETATM   33  C   UNL     1      -7.300   7.578  65.951  1.00  0.00    -0.074 C  
HETATM   34  H1  UNL     1      -6.066   7.315  62.314  1.00  0.00     0.000 HD 
HETATM   35  H2  UNL     1      -4.882   6.039  62.632  1.00  0.00     0.000 HD 
HETATM   36  O   UNL     1      -8.161   8.381  66.318  1.00  0.00    -0.099 OA 
ENDBRANCH  19  26
ENDBRANCH  16  17
ENDBRANCH  15  16
ENDBRANCH  12  15
ENDBRANCH  11  12
ENDBRANCH   8  11
ENDBRANCH   7   8
ENDBRANCH   6   7
ENDBRANCH   5   6
ENDBRANCH   2   5
TORSDOF 10
ENDMDL
MODEL      292
REMARK 921   NORMALIZED FREE ENERGY PREDICTED BY IDOCK:   -2.34 KCAL/MOL
REMARK 922        TOTAL FREE ENERGY PREDICTED BY IDOCK:   -4.63 KCAL/MOL
REMARK 923 INTER-LIGAND FREE ENERGY PREDICTED BY IDOCK:   -4.28 KCAL/MOL
REMARK 924 INTRA-LIGAND FREE ENERGY PREDICTED BY IDOCK:   -0.35 KCAL/MOL
REMARK 927      BINDING AFFINITY PREDICTED BY RF-SCORE:    0.00 PKD
ROOT
HETATM    1  C   UNL     1     -10.104  13.376  67.951  1.00  0.00    -0.238 C  
HETATM    2  N   UNL     1     -11.503  13.143  67.423  1.00  0.00    -0.312 N  
HETATM    3  C   UNL     1     -12.457  14.192  67.967  1.00  0.00     0.253 C  
HETATM    4  C   UNL     1     -11.482  13.264  65.889  1.00  0.00    -0.332 C  
ENDROOT
BRANCH   2   5
HETATM    5  C   UNL     1     -11.938  11.721  67.856  1.00  0.00    -0.098 C  
BRANCH   5   6
HETATM    6  C   UNL     1     -11.953  11.490  69.356  1.00  0.00    -0.325 C  
BRANCH   6   7
HETATM    7  O   UNL     1     -10.886  10.632  69.710  1.00  0.00    -0.259 OA 
BRANCH   7   8
HETATM    8  P   UNL     1     -11.469   9.350  70.716  1.00  0.00    -0.320 P  
HETATM    9  O   UNL     1     -12.737  10.163  70.944  1.00  0.00    -0.335 OA 
HETATM   10  O   UNL     1     -10.251   9.572  71.620  1.00  0.00    -0.191 OA 
BRANCH   8  11
HETATM   11  O   UNL     1     -12.052   8.068  71.721  1.00  0.00    -0.280 OA 
BRANCH  11  12
HETATM   12  P   UNL     1     -11.127   6.638  71.424  1.00  0.00    -0.290 P  
HETATM   13  O   UNL     1     -10.836   6.534  73.042  1.00  0.00    -0.246 OA 
HETATM   14  O   UNL     1     -12.451   5.862  71.260  1.00  0.00     0.515 OA 
BRANCH  12  15
HETATM   15  O   UNL     1     -10.201   5.206  71.129  1.00  0.00    -0.210 OA 
BRANCH  15  16
HETATM   16  C   UNL     1     -10.219   4.724  69.771  1.00  0.00    -0.148 C  
BRANCH  16  17
HETATM   17  C   UNL     1      -8.910   4.950  69.030  1.00  0.00    -0.092 C  
HETATM   18  O   UNL     1      -9.171   5.230  67.652  1.00  0.00    -0.112 OA 
HETATM   19  C   UNL     1      -8.027   5.922  67.150  1.00  0.00    -0.102 C  
HETATM   20  H   UNL     1      -6.623   6.337  70.898  1.00  0.00     0.000 HD 
HETATM   21  C   UNL     1      -7.400   6.680  68.339  1.00  0.00    -0.087 C  
HETATM   22  H   UNL     1      -5.586   6.994  69.145  1.00  0.00     0.000 HD 
HETATM   23  C   UNL     1      -8.074   6.092  69.576  1.00  0.00    -0.112 C  
HETATM   24  O   UNL     1      -5.973   6.528  68.412  1.00  0.00    -0.019 OA 
HETATM   25  O   UNL     1      -7.147   5.622  70.555  1.00  0.00    -0.062 OA 
BRANCH  19  26
HETATM   26  N   UNL     1      -8.399   6.765  66.011  1.00  0.00    -0.128 N  
HETATM   27  C   UNL     1      -7.930   6.505  64.744  1.00  0.00    -0.120 C  
HETATM   28  C   UNL     1      -8.183   7.330  63.734  1.00  0.00     0.079 C  
HETATM   29  C   UNL     1      -8.977   8.526  64.066  1.00  0.00     0.521 C  
HETATM   30  N   UNL     1      -9.427   8.781  65.255  1.00  0.00    -0.427 N  
HETATM   31  N   UNL     1      -9.255   9.438  63.084  1.00  0.00    -0.480 NA 
HETATM   32  H   UNL     1      -9.983   9.619  65.424  1.00  0.00     0.000 HD 
HETATM   33  C   UNL     1      -9.149   7.914  66.289  1.00  0.00    -0.179 C  
HETATM   34  H1  UNL     1      -9.804  10.266  63.313  1.00  0.00     0.000 HD 
HETATM   35  H2  UNL     1      -8.916   9.291  62.133  1.00  0.00     0.000 HD 
HETATM   36  O   UNL     1      -9.549   8.142  67.434  1.00  0.00    -0.148 OA 
ENDBRANCH  19  26
ENDBRANCH  16  17
ENDBRANCH  15  16
ENDBRANCH  12  15
ENDBRANCH  11  12
ENDBRANCH   8  11
ENDBRANCH   7   8
ENDBRANCH   6   7
ENDBRANCH   5   6
ENDBRANCH   2   5
TORSDOF 10
ENDMDL
MODEL      293
REMARK 921   NORMALIZED FREE ENERGY PREDICTED BY IDOCK:   -2.31 KCAL/MOL
REMARK 922        TOTAL FREE ENERGY PREDICTED BY IDOCK:   -4.59 KCAL/MOL
REMARK 923 INTER-LIGAND FREE ENERGY PREDICTED BY IDOCK:   -4.25 KCAL/MOL
REMARK 924 INTRA-LIGAND FREE ENERGY PREDICTED BY IDOCK:   -0.34 KCAL/MOL
REMARK 927      BINDING AFFINITY PREDICTED BY RF-SCORE:    0.00 PKD
ROOT
HETATM    1  C   UNL     1      -5.125  16.375  69.822  1.00  0.00    -0.134 C  
HETATM    2  N   UNL     1      -5.983  15.140  69.648  1.00  0.00    -0.110 N  
HETATM    3  C   UNL     1      -5.993  14.317  70.925  1.00  0.00    -0.200 C  
HETATM    4  C   UNL     1      -7.427  15.575  69.348  1.00  0.00    -0.219 C  
ENDROOT
BRANCH   2   5
HETATM    5  C   UNL     1      -5.398  14.324  68.468  1.00  0.00    -0.099 C  
BRANCH   5   6
HETATM    6  C   UNL     1      -6.414  13.901  67.422  1.00  0.00     0.105 C  
BRANCH   6   7
HETATM    7  O   UNL     1      -6.784  12.554  67.646  1.00  0.00    -0.105 OA 
BRANCH   7   8
HETATM    8  P   UNL     1      -8.475  12.350  67.344  1.00  0.00    -0.196 P  
HETATM    9  O   UNL     1      -8.752  13.011  68.689  1.00  0.00    -0.084 OA 
HETATM   10  O   UNL     1      -8.231  10.838  67.277  1.00  0.00    -0.119 OA 
BRANCH   8  11
HETATM   11  O   UNL     1     -10.167  12.147  67.041  1.00  0.00    -0.206 OA 
BRANCH  11  12
HETATM   12  P   UNL     1     -10.805  10.953  68.118  1.00  0.00    -0.282 P  
HETATM   13  O   UNL     1     -11.181  12.159  69.174  1.00  0.00    -0.239 OA 
HETATM   14  O   UNL     1     -12.059  10.872  67.223  1.00  0.00     0.046 OA 
BRANCH  12  15
HETATM   15  O   UNL     1     -11.443   9.759  69.195  1.00  0.00    -0.066 OA 
BRANCH  15  16
HETATM   16  C   UNL     1     -10.638   9.477  70.357  1.00  0.00    -0.276 C  
BRANCH  16  17
HETATM   17  C   UNL     1     -10.708   8.025  70.804  1.00  0.00    -0.223 C  
HETATM   18  O   UNL     1     -10.044   7.189  69.853  1.00  0.00    -0.187 OA 
HETATM   19  C   UNL     1      -9.688   5.988  70.539  1.00  0.00    -0.174 C  
HETATM   20  H   UNL     1     -10.663   7.697  74.050  1.00  0.00     0.000 HD 
HETATM   21  C   UNL     1      -9.490   6.359  72.024  1.00  0.00    -0.151 C  
HETATM   22  H   UNL     1     -10.012   5.669  73.838  1.00  0.00     0.000 HD 
HETATM   23  C   UNL     1     -10.082   7.759  72.160  1.00  0.00    -0.210 C  
HETATM   24  O   UNL     1     -10.134   5.441  72.923  1.00  0.00    -0.169 OA 
HETATM   25  O   UNL     1     -11.055   7.863  73.200  1.00  0.00    -0.382 OA 
BRANCH  19  26
HETATM   26  N   UNL     1      -8.528   5.359  69.902  1.00  0.00    -0.102 N  
HETATM   27  C   UNL     1      -7.550   6.111  69.295  1.00  0.00    -0.098 C  
HETATM   28  C   UNL     1      -6.555   5.537  68.628  1.00  0.00    -0.048 C  
HETATM   29  C   UNL     1      -6.583   4.064  68.577  1.00  0.00    -0.045 C  
HETATM   30  N   UNL     1      -7.499   3.343  69.148  1.00  0.00    -0.049 N  
HETATM   31  N   UNL     1      -5.607   3.400  67.884  1.00  0.00    -0.017 NA 
HETATM   32  H   UNL     1      -7.460   2.326  69.090  1.00  0.00     0.000 HD 
HETATM   33  C   UNL     1      -8.524   3.961  69.831  1.00  0.00    -0.060 C  
HETATM   34  H1  UNL     1      -5.626   2.381  67.849  1.00  0.00     0.000 HD 
HETATM   35  H2  UNL     1      -4.869   3.919  67.408  1.00  0.00     0.000 HD 
HETATM   36  O   UNL     1      -9.417   3.301  70.366  1.00  0.00    -0.155 OA 
ENDBRANCH  19  26
ENDBRANCH  16  17
ENDBRANCH  15  16
ENDBRANCH  12  15
ENDBRANCH  11  12
ENDBRANCH   8  11
ENDBRANCH   7   8
ENDBRANCH   6   7
ENDBRANCH   5   6
ENDBRANCH   2   5
TORSDOF 10
ENDMDL
MODEL      294
REMARK 921   NORMALIZED FREE ENERGY PREDICTED BY IDOCK:   -2.27 KCAL/MOL
REMARK 922        TOTAL FREE ENERGY PREDICTED BY IDOCK:   -4.52 KCAL/MOL
REMARK 923 INTER-LIGAND FREE ENERGY PREDICTED BY IDOCK:   -4.43 KCAL/MOL
REMARK 924 INTRA-LIGAND FREE ENERGY PREDICTED BY IDOCK:   -0.10 KCAL/MOL
REMARK 927      BINDING AFFINITY PREDICTED BY RF-SCORE:    0.00 PKD
ROOT
HETATM    1  C   UNL     1      -8.813   1.667  63.445  1.00  0.00    -0.087 C  
HETATM    2  N   UNL     1      -7.398   2.200  63.520  1.00  0.00    -0.051 N  
HETATM    3  C   UNL     1      -6.522   1.527  62.477  1.00  0.00    -0.009 C  
HETATM    4  C   UNL     1      -7.420   3.709  63.227  1.00  0.00    -0.054 C  
ENDROOT
BRANCH   2   5
HETATM    5  C   UNL     1      -6.868   1.925  64.949  1.00  0.00    -0.042 C  
BRANCH   5   6
HETATM    6  C   UNL     1      -7.879   2.156  66.058  1.00  0.00    -0.076 C  
BRANCH   6   7
HETATM    7  O   UNL     1      -7.463   3.249  66.853  1.00  0.00    -0.073 OA 
BRANCH   7   8
HETATM    8  P   UNL     1      -8.842   4.138  67.401  1.00  0.00    -0.134 P  
HETATM    9  O   UNL     1      -8.707   3.436  68.746  1.00  0.00    -0.086 OA 
HETATM   10  O   UNL     1      -9.652   3.479  66.278  1.00  0.00    -0.171 OA 
BRANCH   8  11
HETATM   11  O   UNL     1     -10.221   5.028  67.949  1.00  0.00    -0.148 OA 
BRANCH  11  12
HETATM   12  P   UNL     1     -10.073   6.680  67.458  1.00  0.00    -0.209 P  
HETATM   13  O   UNL     1      -8.957   6.209  66.341  1.00  0.00    -0.141 OA 
HETATM   14  O   UNL     1     -11.407   6.534  66.697  1.00  0.00    -0.171 OA 
BRANCH  12  15
HETATM   15  O   UNL     1      -9.923   8.332  66.966  1.00  0.00    -0.203 OA 
BRANCH  15  16
HETATM   16  C   UNL     1     -10.633   9.288  67.778  1.00  0.00    -0.246 C  
BRANCH  16  17
HETATM   17  C   UNL     1      -9.843   9.762  68.987  1.00  0.00    -0.181 C  
HETATM   18  O   UNL     1     -10.227   9.016  70.144  1.00  0.00    -0.181 OA 
HETATM   19  C   UNL     1      -9.148   9.115  71.075  1.00  0.00    -0.237 C  
HETATM   20  H   UNL     1      -6.829  10.750  68.221  1.00  0.00     0.000 HD 
HETATM   21  C   UNL     1      -7.857   9.302  70.250  1.00  0.00    -0.141 C  
HETATM   22  H   UNL     1      -6.216  10.461  70.251  1.00  0.00     0.000 HD 
HETATM   23  C   UNL     1      -8.339   9.631  68.839  1.00  0.00    -0.116 C  
HETATM   24  O   UNL     1      -7.011  10.346  70.759  1.00  0.00    -0.313 OA 
HETATM   25  O   UNL     1      -7.771  10.831  68.314  1.00  0.00    -0.100 OA 
BRANCH  19  26
HETATM   26  N   UNL     1      -9.141   7.960  71.976  1.00  0.00    -0.137 N  
HETATM   27  C   UNL     1      -9.618   8.052  73.263  1.00  0.00    -0.252 C  
HETATM   28  C   UNL     1      -9.514   7.034  74.109  1.00  0.00    -0.285 C  
HETATM   29  C   UNL     1      -8.853   5.826  73.583  1.00  0.00    -0.121 C  
HETATM   30  N   UNL     1      -8.401   5.726  72.371  1.00  0.00    -0.117 N  
HETATM   31  N   UNL     1      -8.683   4.745  74.404  1.00  0.00    -0.112 NA 
HETATM   32  H   UNL     1      -7.964   4.861  72.057  1.00  0.00     0.000 HD 
HETATM   33  C   UNL     1      -8.516   6.796  71.511  1.00  0.00    -0.119 C  
HETATM   34  H1  UNL     1      -8.226   3.909  74.041  1.00  0.00     0.000 HD 
HETATM   35  H2  UNL     1      -9.010   4.775  75.370  1.00  0.00     0.000 HD 
HETATM   36  O   UNL     1      -8.078   6.735  70.359  1.00  0.00    -0.113 OA 
ENDBRANCH  19  26
ENDBRANCH  16  17
ENDBRANCH  15  16
ENDBRANCH  12  15
ENDBRANCH  11  12
ENDBRANCH   8  11
ENDBRANCH   7   8
ENDBRANCH   6   7
ENDBRANCH   5   6
ENDBRANCH   2   5
TORSDOF 10
ENDMDL
MODEL      295
REMARK 921   NORMALIZED FREE ENERGY PREDICTED BY IDOCK:   -2.25 KCAL/MOL
REMARK 922        TOTAL FREE ENERGY PREDICTED BY IDOCK:   -4.49 KCAL/MOL
REMARK 923 INTER-LIGAND FREE ENERGY PREDICTED BY IDOCK:   -6.46 KCAL/MOL
REMARK 924 INTRA-LIGAND FREE ENERGY PREDICTED BY IDOCK:    1.97 KCAL/MOL
REMARK 927      BINDING AFFINITY PREDICTED BY RF-SCORE:    0.00 PKD
ROOT
HETATM    1  C   UNL     1      -9.683   3.418  64.466  1.00  0.00    -0.167 C  
HETATM    2  N   UNL     1      -9.415   3.997  65.839  1.00  0.00    -0.168 N  
HETATM    3  C   UNL     1     -10.582   4.861  66.286  1.00  0.00    -0.255 C  
HETATM    4  C   UNL     1      -9.261   2.843  66.844  1.00  0.00    -0.136 C  
ENDROOT
BRANCH   2   5
HETATM    5  C   UNL     1      -8.111   4.828  65.752  1.00  0.00    -0.111 C  
BRANCH   5   6
HETATM    6  C   UNL     1      -8.076   5.840  64.621  1.00  0.00    -0.132 C  
BRANCH   6   7
HETATM    7  O   UNL     1      -7.436   7.019  65.067  1.00  0.00    -0.081 OA 
BRANCH   7   8
HETATM    8  P   UNL     1      -7.834   7.316  66.724  1.00  0.00    -0.118 P  
HETATM    9  O   UNL     1      -8.941   8.248  66.247  1.00  0.00    -0.162 OA 
HETATM   10  O   UNL     1      -6.414   7.860  66.917  1.00  0.00    -0.053 OA 
BRANCH   8  11
HETATM   11  O   UNL     1      -8.233   7.612  68.382  1.00  0.00    -0.122 OA 
BRANCH  11  12
HETATM   12  P   UNL     1      -7.946   9.276  68.755  1.00  0.00    -0.102 P  
HETATM   13  O   UNL     1      -6.769   8.800  69.805  1.00  0.00    -0.044 OA 
HETATM   14  O   UNL     1      -7.186   9.405  67.418  1.00  0.00    -0.085 OA 
BRANCH  12  15
HETATM   15  O   UNL     1      -7.659  10.940  69.130  1.00  0.00    -0.125 OA 
BRANCH  15  16
HETATM   16  C   UNL     1      -7.986  11.877  68.085  1.00  0.00    -0.151 C  
BRANCH  16  17
HETATM   17  C   UNL     1      -9.429  12.356  68.132  1.00  0.00    -0.214 C  
HETATM   18  O   UNL     1      -9.472  13.738  68.496  1.00  0.00    -0.210 OA 
HETATM   19  C   UNL     1     -10.723  14.248  68.031  1.00  0.00    -0.238 C  
HETATM   20  H   UNL     1     -11.332  10.860  65.946  1.00  0.00     0.000 HD 
HETATM   21  C   UNL     1     -11.119  13.409  66.797  1.00  0.00    -0.292 C  
HETATM   22  H   UNL     1     -12.737  12.470  66.062  1.00  0.00     0.000 HD 
HETATM   23  C   UNL     1     -10.179  12.207  66.822  1.00  0.00    -0.203 C  
HETATM   24  O   UNL     1     -12.493  12.987  66.822  1.00  0.00    -0.324 OA 
HETATM   25  O   UNL     1     -10.862  10.954  66.766  1.00  0.00    -0.261 OA 
BRANCH  19  26
HETATM   26  N   UNL     1     -10.631  15.690  67.791  1.00  0.00    -0.275 N  
HETATM   27  C   UNL     1     -10.350  16.191  66.541  1.00  0.00    -0.308 C  
HETATM   28  C   UNL     1     -10.163  17.492  66.348  1.00  0.00    -0.354 C  
HETATM   29  C   UNL     1     -10.265  18.341  67.548  1.00  0.00    -0.369 C  
HETATM   30  N   UNL     1     -10.532  17.880  68.732  1.00  0.00    -0.376 N  
HETATM   31  N   UNL     1     -10.058  19.688  67.435  1.00  0.00    -0.381 NA 
HETATM   32  H   UNL     1     -10.604  18.516  69.525  1.00  0.00     0.000 HD 
HETATM   33  C   UNL     1     -10.719  16.526  68.910  1.00  0.00    -0.337 C  
HETATM   34  H1  UNL     1     -10.128  20.276  68.265  1.00  0.00     0.000 HD 
HETATM   35  H2  UNL     1      -9.834  20.101  66.529  1.00  0.00     0.000 HD 
HETATM   36  O   UNL     1     -10.955  16.060  70.027  1.00  0.00    -0.312 OA 
ENDBRANCH  19  26
ENDBRANCH  16  17
ENDBRANCH  15  16
ENDBRANCH  12  15
ENDBRANCH  11  12
ENDBRANCH   8  11
ENDBRANCH   7   8
ENDBRANCH   6   7
ENDBRANCH   5   6
ENDBRANCH   2   5
TORSDOF 10
ENDMDL
MODEL      296
REMARK 921   NORMALIZED FREE ENERGY PREDICTED BY IDOCK:   -2.22 KCAL/MOL
REMARK 922        TOTAL FREE ENERGY PREDICTED BY IDOCK:   -4.44 KCAL/MOL
REMARK 923 INTER-LIGAND FREE ENERGY PREDICTED BY IDOCK:   -4.82 KCAL/MOL
REMARK 924 INTRA-LIGAND FREE ENERGY PREDICTED BY IDOCK:    0.38 KCAL/MOL
REMARK 927      BINDING AFFINITY PREDICTED BY RF-SCORE:    0.00 PKD
ROOT
HETATM    1  C   UNL     1     -11.173  11.710  63.801  1.00  0.00    -0.414 C  
HETATM    2  N   UNL     1     -11.012  12.670  64.960  1.00  0.00    -0.281 N  
HETATM    3  C   UNL     1     -10.437  13.991  64.478  1.00  0.00    -0.259 C  
HETATM    4  C   UNL     1     -12.395  12.945  65.573  1.00  0.00    -0.461 C  
ENDROOT
BRANCH   2   5
HETATM    5  C   UNL     1     -10.074  12.003  65.997  1.00  0.00    -0.230 C  
BRANCH   5   6
HETATM    6  C   UNL     1     -10.131  10.486  66.023  1.00  0.00    -0.256 C  
BRANCH   6   7
HETATM    7  O   UNL     1     -11.189  10.071  66.864  1.00  0.00    -0.031 OA 
BRANCH   7   8
HETATM    8  P   UNL     1     -10.731  10.259  68.522  1.00  0.00    -0.252 P  
HETATM    9  O   UNL     1     -11.062   8.787  68.736  1.00  0.00     0.051 OA 
HETATM   10  O   UNL     1     -11.837  11.313  68.657  1.00  0.00    -0.382 OA 
BRANCH   8  11
HETATM   11  O   UNL     1     -10.273  10.447  70.180  1.00  0.00    -0.186 OA 
BRANCH  11  12
HETATM   12  P   UNL     1      -8.908   9.441  70.518  1.00  0.00    -0.128 P  
HETATM   13  O   UNL     1      -9.947   8.242  70.962  1.00  0.00    -0.180 OA 
HETATM   14  O   UNL     1      -8.747   9.215  68.999  1.00  0.00    -0.130 OA 
BRANCH  12  15
HETATM   15  O   UNL     1      -7.542   8.433  70.856  1.00  0.00    -0.066 OA 
BRANCH  15  16
HETATM   16  C   UNL     1      -7.118   7.579  69.776  1.00  0.00    -0.068 C  
BRANCH  16  17
HETATM   17  C   UNL     1      -7.574   6.136  69.931  1.00  0.00    -0.088 C  
HETATM   18  O   UNL     1      -8.282   5.720  68.761  1.00  0.00    -0.100 OA 
HETATM   19  C   UNL     1      -8.222   4.293  68.729  1.00  0.00    -0.079 C  
HETATM   20  H   UNL     1      -5.499   4.337  71.692  1.00  0.00     0.000 HD 
HETATM   21  C   UNL     1      -6.918   3.881  69.446  1.00  0.00    -0.046 C  
HETATM   22  H   UNL     1      -6.304   2.554  70.823  1.00  0.00     0.000 HD 
HETATM   23  C   UNL     1      -6.445   5.147  70.156  1.00  0.00    -0.031 C  
HETATM   24  O   UNL     1      -7.107   2.808  70.382  1.00  0.00    -0.033 OA 
HETATM   25  O   UNL     1      -6.206   4.956  71.551  1.00  0.00    -0.023 OA 
BRANCH  19  26
HETATM   26  N   UNL     1      -8.348   3.806  67.353  1.00  0.00    -0.094 N  
HETATM   27  C   UNL     1      -7.750   4.464  66.303  1.00  0.00    -0.094 C  
HETATM   28  C   UNL     1      -7.952   4.082  65.048  1.00  0.00    -0.093 C  
HETATM   29  C   UNL     1      -8.855   2.931  64.864  1.00  0.00    -0.117 C  
HETATM   30  N   UNL     1      -9.424   2.302  65.846  1.00  0.00    -0.359 N  
HETATM   31  N   UNL     1      -9.136   2.496  63.597  1.00  0.00    -0.093 NA 
HETATM   32  H   UNL     1     -10.030   1.504  65.660  1.00  0.00     0.000 HD 
HETATM   33  C   UNL     1      -9.203   2.718  67.141  1.00  0.00    -0.146 C  
HETATM   34  H1  UNL     1      -9.760   1.701  63.470  1.00  0.00     0.000 HD 
HETATM   35  H2  UNL     1      -8.723   2.963  62.789  1.00  0.00     0.000 HD 
HETATM   36  O   UNL     1      -9.745   2.149  68.091  1.00  0.00    -0.152 OA 
ENDBRANCH  19  26
ENDBRANCH  16  17
ENDBRANCH  15  16
ENDBRANCH  12  15
ENDBRANCH  11  12
ENDBRANCH   8  11
ENDBRANCH   7   8
ENDBRANCH   6   7
ENDBRANCH   5   6
ENDBRANCH   2   5
TORSDOF 10
ENDMDL
MODEL      297
REMARK 921   NORMALIZED FREE ENERGY PREDICTED BY IDOCK:   -2.21 KCAL/MOL
REMARK 922        TOTAL FREE ENERGY PREDICTED BY IDOCK:   -4.44 KCAL/MOL
REMARK 923 INTER-LIGAND FREE ENERGY PREDICTED BY IDOCK:   -6.23 KCAL/MOL
REMARK 924 INTRA-LIGAND FREE ENERGY PREDICTED BY IDOCK:    1.79 KCAL/MOL
REMARK 927      BINDING AFFINITY PREDICTED BY RF-SCORE:    0.00 PKD
ROOT
HETATM    1  C   UNL     1      -9.644  10.419  69.562  1.00  0.00    -0.157 C  
HETATM    2  N   UNL     1      -9.259   8.987  69.867  1.00  0.00    -0.163 N  
HETATM    3  C   UNL     1      -9.553   8.657  71.320  1.00  0.00    -0.225 C  
HETATM    4  C   UNL     1     -10.097   8.048  68.983  1.00  0.00    -0.201 C  
ENDROOT
BRANCH   2   5
HETATM    5  C   UNL     1      -7.749   8.831  69.558  1.00  0.00    -0.089 C  
BRANCH   5   6
HETATM    6  C   UNL     1      -6.860   9.893  70.178  1.00  0.00    -0.125 C  
BRANCH   6   7
HETATM    7  O   UNL     1      -5.889  10.301  69.235  1.00  0.00    -0.038 OA 
BRANCH   7   8
HETATM    8  P   UNL     1      -6.551  11.517  68.197  1.00  0.00    -0.064 P  
HETATM    9  O   UNL     1      -6.827  10.427  67.168  1.00  0.00    -0.079 OA 
HETATM   10  O   UNL     1      -5.184  12.211  68.220  1.00  0.00    -0.050 OA 
BRANCH   8  11
HETATM   11  O   UNL     1      -7.214  12.733  67.159  1.00  0.00    -0.117 OA 
BRANCH  11  12
HETATM   12  P   UNL     1      -7.205  14.256  67.978  1.00  0.00    -0.184 P  
HETATM   13  O   UNL     1      -8.840  14.138  68.137  1.00  0.00    -0.168 OA 
HETATM   14  O   UNL     1      -6.682  13.532  69.237  1.00  0.00    -0.106 OA 
BRANCH  12  15
HETATM   15  O   UNL     1      -7.198  15.780  68.798  1.00  0.00    -0.123 OA 
BRANCH  15  16
HETATM   16  C   UNL     1      -6.785  16.909  68.004  1.00  0.00    -0.148 C  
BRANCH  16  17
HETATM   17  C   UNL     1      -7.938  17.608  67.300  1.00  0.00    -0.207 C  
HETATM   18  O   UNL     1      -8.619  16.685  66.445  1.00  0.00    -0.256 OA 
HETATM   19  C   UNL     1      -9.931  17.209  66.235  1.00  0.00    -0.304 C  
HETATM   20  H   UNL     1      -9.306  19.943  69.122  1.00  0.00     0.000 HD 
HETATM   21  C   UNL     1     -10.290  18.038  67.487  1.00  0.00    -0.385 C  
HETATM   22  H   UNL     1     -11.086  19.826  67.939  1.00  0.00     0.000 HD 
HETATM   23  C   UNL     1      -8.970  18.206  68.237  1.00  0.00    -0.296 C  
HETATM   24  O   UNL     1     -10.865  19.316  67.169  1.00  0.00    -0.475 OA 
HETATM   25  O   UNL     1      -8.660  19.568  68.535  1.00  0.00    -0.348 OA 
BRANCH  19  26
HETATM   26  N   UNL     1     -10.869  16.129  65.924  1.00  0.00    -0.234 N  
HETATM   27  C   UNL     1     -11.198  15.818  64.624  1.00  0.00    -0.363 C  
HETATM   28  C   UNL     1     -12.126  14.910  64.348  1.00  0.00    -0.417 C  
HETATM   29  C   UNL     1     -12.775  14.280  65.512  1.00  0.00    -0.380 C  
HETATM   30  N   UNL     1     -12.473  14.563  66.741  1.00  0.00    -0.457 N  
HETATM   31  N   UNL     1     -13.763  13.355  65.308  1.00  0.00     0.294 NA 
HETATM   32  H   UNL     1     -12.947  14.086  67.508  1.00  0.00     0.000 HD 
HETATM   33  C   UNL     1     -11.509  15.511  67.005  1.00  0.00    -0.036 C  
HETATM   34  H1  UNL     1     -14.212  12.919  66.112  1.00  0.00     0.000 HD 
HETATM   35  H2  UNL     1     -14.046  13.104  64.360  1.00  0.00     0.000 HD 
HETATM   36  O   UNL     1     -11.216  15.812  68.165  1.00  0.00    -0.329 OA 
ENDBRANCH  19  26
ENDBRANCH  16  17
ENDBRANCH  15  16
ENDBRANCH  12  15
ENDBRANCH  11  12
ENDBRANCH   8  11
ENDBRANCH   7   8
ENDBRANCH   6   7
ENDBRANCH   5   6
ENDBRANCH   2   5
TORSDOF 10
ENDMDL
MODEL      298
REMARK 921   NORMALIZED FREE ENERGY PREDICTED BY IDOCK:   -2.21 KCAL/MOL
REMARK 922        TOTAL FREE ENERGY PREDICTED BY IDOCK:   -4.44 KCAL/MOL
REMARK 923 INTER-LIGAND FREE ENERGY PREDICTED BY IDOCK:   -5.21 KCAL/MOL
REMARK 924 INTRA-LIGAND FREE ENERGY PREDICTED BY IDOCK:    0.77 KCAL/MOL
REMARK 927      BINDING AFFINITY PREDICTED BY RF-SCORE:    0.00 PKD
ROOT
HETATM    1  C   UNL     1      -9.480   6.868  68.849  1.00  0.00    -0.136 C  
HETATM    2  N   UNL     1      -9.472   6.493  67.382  1.00  0.00    -0.123 N  
HETATM    3  C   UNL     1     -10.417   5.331  67.128  1.00  0.00    -0.199 C  
HETATM    4  C   UNL     1      -9.960   7.697  66.559  1.00  0.00    -0.155 C  
ENDROOT
BRANCH   2   5
HETATM    5  C   UNL     1      -8.018   6.119  67.001  1.00  0.00    -0.102 C  
BRANCH   5   6
HETATM    6  C   UNL     1      -7.330   7.105  66.074  1.00  0.00    -0.075 C  
BRANCH   6   7
HETATM    7  O   UNL     1      -7.856   8.399  66.292  1.00  0.00    -0.094 OA 
BRANCH   7   8
HETATM    8  P   UNL     1      -6.815   9.287  67.351  1.00  0.00    -0.078 P  
HETATM    9  O   UNL     1      -7.959  10.265  67.587  1.00  0.00    -0.102 OA 
HETATM   10  O   UNL     1      -5.868   9.499  66.164  1.00  0.00    -0.055 OA 
BRANCH   8  11
HETATM   11  O   UNL     1      -5.774  10.175  68.411  1.00  0.00    -0.042 OA 
BRANCH  11  12
HETATM   12  P   UNL     1      -6.534  11.665  68.850  1.00  0.00    -0.086 P  
HETATM   13  O   UNL     1      -6.867  11.016  70.328  1.00  0.00    -0.217 OA 
HETATM   14  O   UNL     1      -5.132  12.277  69.049  1.00  0.00    -0.055 OA 
BRANCH  12  15
HETATM   15  O   UNL     1      -7.295  13.155  69.291  1.00  0.00     0.054 OA 
BRANCH  15  16
HETATM   16  C   UNL     1      -7.514  14.084  68.212  1.00  0.00    -0.123 C  
BRANCH  16  17
HETATM   17  C   UNL     1      -8.983  14.379  67.954  1.00  0.00    -0.186 C  
HETATM   18  O   UNL     1      -9.746  14.123  69.136  1.00  0.00    -0.065 OA 
HETATM   19  C   UNL     1     -10.953  14.878  69.018  1.00  0.00    -0.245 C  
HETATM   20  H   UNL     1      -9.433  16.822  65.840  1.00  0.00     0.000 HD 
HETATM   21  C   UNL     1     -10.629  16.111  68.149  1.00  0.00    -0.290 C  
HETATM   22  H   UNL     1     -11.414  17.114  66.595  1.00  0.00     0.000 HD 
HETATM   23  C   UNL     1      -9.267  15.807  67.529  1.00  0.00    -0.204 C  
HETATM   24  O   UNL     1     -11.613  16.355  67.130  1.00  0.00     0.310 OA 
HETATM   25  O   UNL     1      -9.255  15.927  66.106  1.00  0.00    -0.299 OA 
BRANCH  19  26
HETATM   26  N   UNL     1     -11.495  15.185  70.344  1.00  0.00    -0.266 N  
HETATM   27  C   UNL     1     -11.402  16.448  70.881  1.00  0.00    -0.182 C  
HETATM   28  C   UNL     1     -11.799  16.699  72.123  1.00  0.00    -0.169 C  
HETATM   29  C   UNL     1     -12.327  15.546  72.874  1.00  0.00    -0.429 C  
HETATM   30  N   UNL     1     -12.422  14.351  72.378  1.00  0.00    -0.267 N  
HETATM   31  N   UNL     1     -12.730  15.718  74.170  1.00  0.00    -0.744 NA 
HETATM   32  H   UNL     1     -12.808  13.592  72.940  1.00  0.00     0.000 HD 
HETATM   33  C   UNL     1     -12.000  14.112  71.088  1.00  0.00    -0.239 C  
HETATM   34  H1  UNL     1     -13.095  14.921  74.689  1.00  0.00     0.000 HD 
HETATM   35  H2  UNL     1     -12.666  16.636  74.612  1.00  0.00     0.000 HD 
HETATM   36  O   UNL     1     -12.062  12.982  70.598  1.00  0.00    -0.348 OA 
ENDBRANCH  19  26
ENDBRANCH  16  17
ENDBRANCH  15  16
ENDBRANCH  12  15
ENDBRANCH  11  12
ENDBRANCH   8  11
ENDBRANCH   7   8
ENDBRANCH   6   7
ENDBRANCH   5   6
ENDBRANCH   2   5
TORSDOF 10
ENDMDL
MODEL      299
REMARK 921   NORMALIZED FREE ENERGY PREDICTED BY IDOCK:   -2.20 KCAL/MOL
REMARK 922        TOTAL FREE ENERGY PREDICTED BY IDOCK:   -4.43 KCAL/MOL
REMARK 923 INTER-LIGAND FREE ENERGY PREDICTED BY IDOCK:   -4.52 KCAL/MOL
REMARK 924 INTRA-LIGAND FREE ENERGY PREDICTED BY IDOCK:    0.09 KCAL/MOL
REMARK 927      BINDING AFFINITY PREDICTED BY RF-SCORE:    0.00 PKD
ROOT
HETATM    1  C   UNL     1     -11.486  12.363  65.434  1.00  0.00    -0.358 C  
HETATM    2  N   UNL     1     -10.933  12.599  66.823  1.00  0.00    -0.254 N  
HETATM    3  C   UNL     1      -9.489  12.136  66.905  1.00  0.00    -0.210 C  
HETATM    4  C   UNL     1     -10.971  14.107  67.124  1.00  0.00    -0.299 C  
ENDROOT
BRANCH   2   5
HETATM    5  C   UNL     1     -11.823  11.817  67.821  1.00  0.00    -0.196 C  
BRANCH   5   6
HETATM    6  C   UNL     1     -11.060  10.999  68.848  1.00  0.00    -0.239 C  
BRANCH   6   7
HETATM    7  O   UNL     1     -11.897   9.975  69.348  1.00  0.00    -0.043 OA 
BRANCH   7   8
HETATM    8  P   UNL     1     -11.383   9.516  70.935  1.00  0.00    -0.398 P  
HETATM    9  O   UNL     1     -12.430  10.467  71.502  1.00  0.00    -0.380 OA 
HETATM   10  O   UNL     1      -9.988  10.045  70.583  1.00  0.00    -0.131 OA 
BRANCH   8  11
HETATM   11  O   UNL     1     -10.870   9.057  72.523  1.00  0.00    -0.060 OA 
BRANCH  11  12
HETATM   12  P   UNL     1     -10.371   7.402  72.510  1.00  0.00    -0.277 P  
HETATM   13  O   UNL     1     -11.038   7.250  71.011  1.00  0.00    -0.248 OA 
HETATM   14  O   UNL     1      -8.935   7.877  72.204  1.00  0.00    -0.125 OA 
BRANCH  12  15
HETATM   15  O   UNL     1      -9.873   5.745  72.497  1.00  0.00    -0.162 OA 
BRANCH  15  16
HETATM   16  C   UNL     1     -10.289   4.980  71.348  1.00  0.00    -0.181 C  
BRANCH  16  17
HETATM   17  C   UNL     1      -9.151   4.228  70.677  1.00  0.00    -0.112 C  
HETATM   18  O   UNL     1      -8.994   4.681  69.330  1.00  0.00    -0.090 OA 
HETATM   19  C   UNL     1      -7.659   4.356  68.940  1.00  0.00    -0.059 C  
HETATM   20  H   UNL     1      -6.764   3.429  72.752  1.00  0.00     0.000 HD 
HETATM   21  C   UNL     1      -6.801   4.361  70.222  1.00  0.00    -0.034 C  
HETATM   22  H   UNL     1      -5.404   3.223  71.112  1.00  0.00     0.000 HD 
HETATM   23  C   UNL     1      -7.809   4.380  71.368  1.00  0.00    -0.081 C  
HETATM   24  O   UNL     1      -5.932   3.220  70.322  1.00  0.00    -0.017 OA 
HETATM   25  O   UNL     1      -7.604   3.334  72.319  1.00  0.00    -0.054 OA 
BRANCH  19  26
HETATM   26  N   UNL     1      -7.198   5.264  67.887  1.00  0.00    -0.070 N  
HETATM   27  C   UNL     1      -5.949   5.135  67.325  1.00  0.00    -0.026 C  
HETATM   28  C   UNL     1      -5.494   6.022  66.448  1.00  0.00    -0.009 C  
HETATM   29  C   UNL     1      -6.402   7.140  66.135  1.00  0.00    -0.044 C  
HETATM   30  N   UNL     1      -7.582   7.272  66.657  1.00  0.00    -0.091 N  
HETATM   31  N   UNL     1      -5.993   8.110  65.262  1.00  0.00    -0.045 NA 
HETATM   32  H   UNL     1      -8.173   8.060  66.394  1.00  0.00     0.000 HD 
HETATM   33  C   UNL     1      -8.033   6.342  67.568  1.00  0.00    -0.109 C  
HETATM   34  H1  UNL     1      -6.620   8.884  65.045  1.00  0.00     0.000 HD 
HETATM   35  H2  UNL     1      -5.069   8.060  64.831  1.00  0.00     0.000 HD 
HETATM   36  O   UNL     1      -9.143   6.454  68.093  1.00  0.00    -0.116 OA 
ENDBRANCH  19  26
ENDBRANCH  16  17
ENDBRANCH  15  16
ENDBRANCH  12  15
ENDBRANCH  11  12
ENDBRANCH   8  11
ENDBRANCH   7   8
ENDBRANCH   6   7
ENDBRANCH   5   6
ENDBRANCH   2   5
TORSDOF 10
ENDMDL
MODEL      300
REMARK 921   NORMALIZED FREE ENERGY PREDICTED BY IDOCK:   -2.09 KCAL/MOL
REMARK 922        TOTAL FREE ENERGY PREDICTED BY IDOCK:   -4.25 KCAL/MOL
REMARK 923 INTER-LIGAND FREE ENERGY PREDICTED BY IDOCK:   -5.12 KCAL/MOL
REMARK 924 INTRA-LIGAND FREE ENERGY PREDICTED BY IDOCK:    0.87 KCAL/MOL
REMARK 927      BINDING AFFINITY PREDICTED BY RF-SCORE:    0.00 PKD
ROOT
HETATM    1  C   UNL     1      -6.820  16.926  70.007  1.00  0.00     0.540 C  
HETATM    2  N   UNL     1      -6.399  17.218  68.582  1.00  0.00    -0.166 N  
HETATM    3  C   UNL     1      -5.564  18.486  68.526  1.00  0.00    -0.188 C  
HETATM    4  C   UNL     1      -5.536  16.053  68.070  1.00  0.00    -0.120 C  
ENDROOT
BRANCH   2   5
HETATM    5  C   UNL     1      -7.686  17.364  67.733  1.00  0.00    -0.195 C  
BRANCH   5   6
HETATM    6  C   UNL     1      -7.615  16.727  66.356  1.00  0.00    -0.290 C  
BRANCH   6   7
HETATM    7  O   UNL     1      -8.913  16.671  65.798  1.00  0.00    -0.498 OA 
BRANCH   7   8
HETATM    8  P   UNL     1      -9.762  15.296  66.417  1.00  0.00    -0.332 P  
HETATM    9  O   UNL     1     -10.932  15.665  65.513  1.00  0.00    -0.335 OA 
HETATM   10  O   UNL     1      -9.655  15.920  67.813  1.00  0.00    -0.216 OA 
BRANCH   8  11
HETATM   11  O   UNL     1     -10.611  13.921  67.035  1.00  0.00    -0.276 OA 
BRANCH  11  12
HETATM   12  P   UNL     1      -9.686  12.491  66.735  1.00  0.00    -0.243 P  
HETATM   13  O   UNL     1     -10.859  11.617  67.492  1.00  0.00    -0.213 OA 
HETATM   14  O   UNL     1     -10.173  12.529  65.271  1.00  0.00    -0.279 OA 
BRANCH  12  15
HETATM   15  O   UNL     1      -8.761  11.059  66.436  1.00  0.00    -0.161 OA 
BRANCH  15  16
HETATM   16  C   UNL     1      -8.181  10.440  67.601  1.00  0.00    -0.110 C  
BRANCH  16  17
HETATM   17  C   UNL     1      -8.623   8.999  67.803  1.00  0.00    -0.121 C  
HETATM   18  O   UNL     1      -7.864   8.399  68.855  1.00  0.00    -0.108 OA 
HETATM   19  C   UNL     1      -8.632   7.296  69.339  1.00  0.00    -0.134 C  
HETATM   20  H   UNL     1     -11.796   8.549  67.192  1.00  0.00     0.000 HD 
HETATM   21  C   UNL     1     -10.116   7.639  69.095  1.00  0.00    -0.194 C  
HETATM   22  H   UNL     1     -11.771   6.762  68.368  1.00  0.00     0.000 HD 
HETATM   23  C   UNL     1     -10.090   8.839  68.151  1.00  0.00    -0.190 C  
HETATM   24  O   UNL     1     -10.857   6.551  68.519  1.00  0.00    -0.247 OA 
HETATM   25  O   UNL     1     -10.876   8.649  66.974  1.00  0.00    -0.197 OA 
BRANCH  19  26
HETATM   26  N   UNL     1      -8.289   7.007  70.734  1.00  0.00    -0.128 N  
HETATM   27  C   UNL     1      -7.585   7.907  71.500  1.00  0.00    -0.081 C  
HETATM   28  C   UNL     1      -7.184   7.600  72.728  1.00  0.00    -0.087 C  
HETATM   29  C   UNL     1      -7.533   6.247  73.198  1.00  0.00    -0.092 C  
HETATM   30  N   UNL     1      -8.198   5.390  72.486  1.00  0.00    -0.113 N  
HETATM   31  N   UNL     1      -7.130   5.847  74.443  1.00  0.00    -0.087 NA 
HETATM   32  H   UNL     1      -8.422   4.472  72.868  1.00  0.00     0.000 HD 
HETATM   33  C   UNL     1      -8.600   5.729  71.213  1.00  0.00    -0.129 C  
HETATM   34  H1  UNL     1      -7.371   4.911  74.768  1.00  0.00     0.000 HD 
HETATM   35  H2  UNL     1      -6.595   6.478  75.040  1.00  0.00     0.000 HD 
HETATM   36  O   UNL     1      -9.217   4.926  70.508  1.00  0.00    -0.130 OA 
ENDBRANCH  19  26
ENDBRANCH  16  17
ENDBRANCH  15  16
ENDBRANCH  12  15
ENDBRANCH  11  12
ENDBRANCH   8  11
ENDBRANCH   7   8
ENDBRANCH   6   7
ENDBRANCH   5   6
ENDBRANCH   2   5
TORSDOF 10
ENDMDL
MODEL      301
REMARK 921   NORMALIZED FREE ENERGY PREDICTED BY IDOCK:   -2.01 KCAL/MOL
REMARK 922        TOTAL FREE ENERGY PREDICTED BY IDOCK:   -4.11 KCAL/MOL
REMARK 923 INTER-LIGAND FREE ENERGY PREDICTED BY IDOCK:   -3.31 KCAL/MOL
REMARK 924 INTRA-LIGAND FREE ENERGY PREDICTED BY IDOCK:   -0.80 KCAL/MOL
REMARK 927      BINDING AFFINITY PREDICTED BY RF-SCORE:    0.00 PKD
ROOT
HETATM    1  C   UNL     1     -11.671  12.463  65.350  1.00  0.00    -0.402 C  
HETATM    2  N   UNL     1     -11.204  12.945  66.708  1.00  0.00    -0.286 N  
HETATM    3  C   UNL     1      -9.687  12.954  66.774  1.00  0.00    -0.246 C  
HETATM    4  C   UNL     1     -11.702  14.384  66.922  1.00  0.00    -0.402 C  
ENDROOT
BRANCH   2   5
HETATM    5  C   UNL     1     -11.800  11.992  67.774  1.00  0.00    -0.238 C  
BRANCH   5   6
HETATM    6  C   UNL     1     -10.830  11.571  68.863  1.00  0.00    -0.218 C  
BRANCH   6   7
HETATM    7  O   UNL     1     -11.262  10.349  69.429  1.00  0.00    -0.233 OA 
BRANCH   7   8
HETATM    8  P   UNL     1     -10.046   9.730  70.494  1.00  0.00    -0.030 P  
HETATM    9  O   UNL     1     -11.016   9.935  71.651  1.00  0.00    -0.137 OA 
HETATM   10  O   UNL     1      -9.140  10.884  70.050  1.00  0.00     0.602 OA 
BRANCH   8  11
HETATM   11  O   UNL     1      -8.831   9.111  71.558  1.00  0.00    -0.330 OA 
BRANCH  11  12
HETATM   12  P   UNL     1      -8.605   7.424  71.254  1.00  0.00    -0.118 P  
HETATM   13  O   UNL     1      -9.420   7.608  69.835  1.00  0.00    -0.161 OA 
HETATM   14  O   UNL     1      -7.145   7.730  70.857  1.00  0.00    -0.052 OA 
BRANCH  12  15
HETATM   15  O   UNL     1      -8.380   5.735  70.949  1.00  0.00    -0.121 OA 
BRANCH  15  16
HETATM   16  C   UNL     1      -9.072   5.215  69.798  1.00  0.00    -0.116 C  
BRANCH  16  17
HETATM   17  C   UNL     1      -8.147   4.583  68.769  1.00  0.00    -0.081 C  
HETATM   18  O   UNL     1      -8.291   5.246  67.511  1.00  0.00    -0.107 OA 
HETATM   19  C   UNL     1      -7.095   4.993  66.773  1.00  0.00    -0.069 C  
HETATM   20  H   UNL     1      -5.372   3.472  70.076  1.00  0.00     0.000 HD 
HETATM   21  C   UNL     1      -5.963   4.797  67.803  1.00  0.00    -0.023 C  
HETATM   22  H   UNL     1      -4.437   3.537  68.152  1.00  0.00     0.000 HD 
HETATM   23  C   UNL     1      -6.677   4.628  69.142  1.00  0.00    -0.046 C  
HETATM   24  O   UNL     1      -5.134   3.658  67.518  1.00  0.00    -0.007 OA 
HETATM   25  O   UNL     1      -6.292   3.445  69.843  1.00  0.00    -0.027 OA 
BRANCH  19  26
HETATM   26  N   UNL     1      -6.860   6.060  65.797  1.00  0.00    -0.055 N  
HETATM   27  C   UNL     1      -6.688   5.784  64.461  1.00  0.00    -0.046 C  
HETATM   28  C   UNL     1      -6.371   6.740  63.595  1.00  0.00    -0.042 C  
HETATM   29  C   UNL     1      -6.210   8.091  64.162  1.00  0.00    -0.061 C  
HETATM   30  N   UNL     1      -6.371   8.365  65.420  1.00  0.00    -0.048 N  
HETATM   31  N   UNL     1      -5.856   9.124  63.338  1.00  0.00    -0.086 NA 
HETATM   32  H   UNL     1      -6.259   9.321  65.755  1.00  0.00     0.000 HD 
HETATM   33  C   UNL     1      -6.696   7.356  66.301  1.00  0.00    -0.060 C  
HETATM   34  H1  UNL     1      -5.744  10.059  63.730  1.00  0.00     0.000 HD 
HETATM   35  H2  UNL     1      -5.705   8.961  62.342  1.00  0.00     0.000 HD 
HETATM   36  O   UNL     1      -6.837   7.586  67.504  1.00  0.00    -0.067 OA 
ENDBRANCH  19  26
ENDBRANCH  16  17
ENDBRANCH  15  16
ENDBRANCH  12  15
ENDBRANCH  11  12
ENDBRANCH   8  11
ENDBRANCH   7   8
ENDBRANCH   6   7
ENDBRANCH   5   6
ENDBRANCH   2   5
TORSDOF 10
ENDMDL
MODEL      302
REMARK 921   NORMALIZED FREE ENERGY PREDICTED BY IDOCK:   -1.97 KCAL/MOL
REMARK 922        TOTAL FREE ENERGY PREDICTED BY IDOCK:   -4.05 KCAL/MOL
REMARK 923 INTER-LIGAND FREE ENERGY PREDICTED BY IDOCK:   -3.87 KCAL/MOL
REMARK 924 INTRA-LIGAND FREE ENERGY PREDICTED BY IDOCK:   -0.18 KCAL/MOL
REMARK 927      BINDING AFFINITY PREDICTED BY RF-SCORE:    0.00 PKD
ROOT
HETATM    1  C   UNL     1      -5.132  16.339  69.787  1.00  0.00    -0.125 C  
HETATM    2  N   UNL     1      -5.879  15.035  69.600  1.00  0.00    -0.104 N  
HETATM    3  C   UNL     1      -5.799  14.193  70.862  1.00  0.00    -0.213 C  
HETATM    4  C   UNL     1      -7.360  15.346  69.324  1.00  0.00    -0.197 C  
ENDROOT
BRANCH   2   5
HETATM    5  C   UNL     1      -5.240  14.295  68.399  1.00  0.00    -0.105 C  
BRANCH   5   6
HETATM    6  C   UNL     1      -6.227  13.801  67.358  1.00  0.00     0.151 C  
BRANCH   6   7
HETATM    7  O   UNL     1      -6.610  12.475  67.666  1.00  0.00    -0.104 OA 
BRANCH   7   8
HETATM    8  P   UNL     1      -8.313  12.283  67.429  1.00  0.00    -0.194 P  
HETATM    9  O   UNL     1      -8.498  12.451  68.932  1.00  0.00     0.072 OA 
HETATM   10  O   UNL     1      -8.026  10.893  66.850  1.00  0.00    -0.126 OA 
BRANCH   8  11
HETATM   11  O   UNL     1     -10.016  12.092  67.192  1.00  0.00    -0.194 OA 
BRANCH  11  12
HETATM   12  P   UNL     1     -10.526  10.582  67.864  1.00  0.00    -0.249 P  
HETATM   13  O   UNL     1     -10.691  11.330  69.323  1.00  0.00    -0.219 OA 
HETATM   14  O   UNL     1     -11.905  10.798  67.207  1.00  0.00    -0.298 OA 
BRANCH  12  15
HETATM   15  O   UNL     1     -11.035   9.072  68.539  1.00  0.00    -0.073 OA 
BRANCH  15  16
HETATM   16  C   UNL     1     -10.054   8.388  69.342  1.00  0.00    -0.198 C  
BRANCH  16  17
HETATM   17  C   UNL     1     -10.190   6.874  69.305  1.00  0.00    -0.186 C  
HETATM   18  O   UNL     1      -9.850   6.385  68.006  1.00  0.00    -0.120 OA 
HETATM   19  C   UNL     1      -9.494   5.011  68.164  1.00  0.00    -0.132 C  
HETATM   20  H   UNL     1      -9.474   5.469  72.162  1.00  0.00     0.000 HD 
HETATM   21  C   UNL     1      -8.934   4.852  69.593  1.00  0.00    -0.099 C  
HETATM   22  H   UNL     1      -9.122   3.610  71.161  1.00  0.00     0.000 HD 
HETATM   23  C   UNL     1      -9.317   6.145  70.309  1.00  0.00    -0.160 C  
HETATM   24  O   UNL     1      -9.466   3.708  70.281  1.00  0.00    -0.160 OA 
HETATM   25  O   UNL     1     -10.021   5.926  71.533  1.00  0.00    -0.175 OA 
BRANCH  19  26
HETATM   26  N   UNL     1      -8.581   4.593  67.096  1.00  0.00    -0.105 N  
HETATM   27  C   UNL     1      -7.220   4.748  67.216  1.00  0.00    -0.073 C  
HETATM   28  C   UNL     1      -6.404   4.467  66.207  1.00  0.00    -0.036 C  
HETATM   29  C   UNL     1      -7.051   3.996  64.969  1.00  0.00    -0.062 C  
HETATM   30  N   UNL     1      -8.334   3.844  64.845  1.00  0.00    -0.103 N  
HETATM   31  N   UNL     1      -6.279   3.713  63.876  1.00  0.00    -0.018 NA 
HETATM   32  H   UNL     1      -8.726   3.503  63.968  1.00  0.00     0.000 HD 
HETATM   33  C   UNL     1      -9.162   4.146  65.904  1.00  0.00    -0.148 C  
HETATM   34  H1  UNL     1      -6.727   3.388  63.020  1.00  0.00     0.000 HD 
HETATM   35  H2  UNL     1      -5.266   3.827  63.917  1.00  0.00     0.000 HD 
HETATM   36  O   UNL     1     -10.386   4.028  65.805  1.00  0.00    -0.116 OA 
ENDBRANCH  19  26
ENDBRANCH  16  17
ENDBRANCH  15  16
ENDBRANCH  12  15
ENDBRANCH  11  12
ENDBRANCH   8  11
ENDBRANCH   7   8
ENDBRANCH   6   7
ENDBRANCH   5   6
ENDBRANCH   2   5
TORSDOF 10
ENDMDL
MODEL      303
REMARK 921   NORMALIZED FREE ENERGY PREDICTED BY IDOCK:   -1.83 KCAL/MOL
REMARK 922        TOTAL FREE ENERGY PREDICTED BY IDOCK:   -3.83 KCAL/MOL
REMARK 923 INTER-LIGAND FREE ENERGY PREDICTED BY IDOCK:   -5.06 KCAL/MOL
REMARK 924 INTRA-LIGAND FREE ENERGY PREDICTED BY IDOCK:    1.23 KCAL/MOL
REMARK 927      BINDING AFFINITY PREDICTED BY RF-SCORE:    0.00 PKD
ROOT
HETATM    1  C   UNL     1     -10.028  13.994  64.835  1.00  0.00    -0.126 C  
HETATM    2  N   UNL     1     -11.500  13.685  64.665  1.00  0.00    -0.350 N  
HETATM    3  C   UNL     1     -12.295  14.968  64.492  1.00  0.00    -0.262 C  
HETATM    4  C   UNL     1     -11.686  12.832  63.399  1.00  0.00    -0.488 C  
ENDROOT
BRANCH   2   5
HETATM    5  C   UNL     1     -11.965  12.911  65.924  1.00  0.00    -0.448 C  
BRANCH   5   6
HETATM    6  C   UNL     1     -10.853  12.530  66.884  1.00  0.00    -0.248 C  
BRANCH   6   7
HETATM    7  O   UNL     1      -9.813  11.894  66.169  1.00  0.00    -0.220 OA 
BRANCH   7   8
HETATM    8  P   UNL     1     -10.120  10.194  66.071  1.00  0.00    -0.187 P  
HETATM    9  O   UNL     1     -10.717  10.264  67.471  1.00  0.00    -0.255 OA 
HETATM   10  O   UNL     1      -8.611   9.981  65.899  1.00  0.00    -0.133 OA 
BRANCH   8  11
HETATM   11  O   UNL     1     -10.427   8.494  65.973  1.00  0.00     0.249 OA 
BRANCH  11  12
HETATM   12  P   UNL     1     -10.532   7.834  67.568  1.00  0.00    -0.229 P  
HETATM   13  O   UNL     1     -11.053   6.418  66.908  1.00  0.00    -0.384 OA 
HETATM   14  O   UNL     1      -8.997   7.675  67.561  1.00  0.00    -0.126 OA 
BRANCH  12  15
HETATM   15  O   UNL     1     -10.637   7.173  69.164  1.00  0.00    -0.210 OA 
BRANCH  15  16
HETATM   16  C   UNL     1      -9.557   6.300  69.547  1.00  0.00    -0.147 C  
BRANCH  16  17
HETATM   17  C   UNL     1      -8.486   6.990  70.377  1.00  0.00    -0.141 C  
HETATM   18  O   UNL     1      -7.599   7.717  69.524  1.00  0.00    -0.095 OA 
HETATM   19  C   UNL     1      -6.979   8.719  70.332  1.00  0.00    -0.047 C  
HETATM   20  H   UNL     1      -9.568   7.927  73.310  1.00  0.00     0.000 HD 
HETATM   21  C   UNL     1      -7.975   9.069  71.458  1.00  0.00     0.016 C  
HETATM   22  H   UNL     1      -7.971   9.345  73.448  1.00  0.00     0.000 HD 
HETATM   23  C   UNL     1      -9.027   7.964  71.407  1.00  0.00    -0.136 C  
HETATM   24  O   UNL     1      -7.358   9.130  72.754  1.00  0.00    -0.204 OA 
HETATM   25  O   UNL     1      -9.229   7.318  72.664  1.00  0.00    -0.135 OA 
BRANCH  19  26
HETATM   26  N   UNL     1      -6.560   9.855  69.506  1.00  0.00    -0.047 N  
HETATM   27  C   UNL     1      -7.115  11.103  69.671  1.00  0.00    -0.048 C  
HETATM   28  C   UNL     1      -6.810  12.104  68.853  1.00  0.00    -0.100 C  
HETATM   29  C   UNL     1      -5.862  11.784  67.771  1.00  0.00    -0.057 C  
HETATM   30  N   UNL     1      -5.330  10.612  67.607  1.00  0.00    -0.043 N  
HETATM   31  N   UNL     1      -5.521  12.756  66.871  1.00  0.00    -0.388 NA 
HETATM   32  H   UNL     1      -4.670  10.451  66.848  1.00  0.00     0.000 HD 
HETATM   33  C   UNL     1      -5.664   9.586  68.465  1.00  0.00    -0.040 C  
HETATM   34  H1  UNL     1      -4.865  12.535  66.123  1.00  0.00     0.000 HD 
HETATM   35  H2  UNL     1      -5.919  13.693  66.948  1.00  0.00     0.000 HD 
HETATM   36  O   UNL     1      -5.188   8.458  68.320  1.00  0.00    -0.032 OA 
ENDBRANCH  19  26
ENDBRANCH  16  17
ENDBRANCH  15  16
ENDBRANCH  12  15
ENDBRANCH  11  12
ENDBRANCH   8  11
ENDBRANCH   7   8
ENDBRANCH   6   7
ENDBRANCH   5   6
ENDBRANCH   2   5
TORSDOF 10
ENDMDL
MODEL      304
REMARK 921   NORMALIZED FREE ENERGY PREDICTED BY IDOCK:   -1.72 KCAL/MOL
REMARK 922        TOTAL FREE ENERGY PREDICTED BY IDOCK:   -3.65 KCAL/MOL
REMARK 923 INTER-LIGAND FREE ENERGY PREDICTED BY IDOCK:   -4.21 KCAL/MOL
REMARK 924 INTRA-LIGAND FREE ENERGY PREDICTED BY IDOCK:    0.55 KCAL/MOL
REMARK 927      BINDING AFFINITY PREDICTED BY RF-SCORE:    0.00 PKD
ROOT
HETATM    1  C   UNL     1     -10.825  11.695  65.429  1.00  0.00    -0.280 C  
HETATM    2  N   UNL     1     -10.591  11.910  66.909  1.00  0.00    -0.222 N  
HETATM    3  C   UNL     1      -9.107  12.068  67.194  1.00  0.00    -0.186 C  
HETATM    4  C   UNL     1     -11.303  13.203  67.341  1.00  0.00    -0.306 C  
ENDROOT
BRANCH   2   5
HETATM    5  C   UNL     1     -11.172  10.686  67.660  1.00  0.00    -0.290 C  
BRANCH   5   6
HETATM    6  C   UNL     1     -10.200   9.996  68.599  1.00  0.00    -0.180 C  
BRANCH   6   7
HETATM    7  O   UNL     1     -10.882   8.994  69.327  1.00  0.00    -0.206 OA 
BRANCH   7   8
HETATM    8  P   UNL     1     -10.042   8.662  70.803  1.00  0.00    -0.229 P  
HETATM    9  O   UNL     1     -11.117   9.449  71.542  1.00  0.00    -0.355 OA 
HETATM   10  O   UNL     1      -8.829   9.395  70.220  1.00  0.00    -0.199 OA 
BRANCH   8  11
HETATM   11  O   UNL     1      -9.202   8.329  72.278  1.00  0.00    -0.181 OA 
BRANCH  11  12
HETATM   12  P   UNL     1      -9.068   6.618  72.491  1.00  0.00    -0.131 P  
HETATM   13  O   UNL     1      -9.965   6.414  71.125  1.00  0.00    -0.179 OA 
HETATM   14  O   UNL     1      -7.626   6.702  71.949  1.00  0.00    -0.094 OA 
BRANCH  12  15
HETATM   15  O   UNL     1      -8.935   4.906  72.704  1.00  0.00    -0.126 OA 
BRANCH  15  16
HETATM   16  C   UNL     1      -9.594   4.103  71.704  1.00  0.00    -0.164 C  
BRANCH  16  17
HETATM   17  C   UNL     1      -8.655   3.158  70.971  1.00  0.00    -0.068 C  
HETATM   18  O   UNL     1      -8.971   3.140  69.577  1.00  0.00    -0.085 OA 
HETATM   19  C   UNL     1      -7.800   2.689  68.895  1.00  0.00    -0.049 C  
HETATM   20  H   UNL     1      -5.672   3.063  72.290  1.00  0.00     0.000 HD 
HETATM   21  C   UNL     1      -6.589   3.108  69.755  1.00  0.00    -0.033 C  
HETATM   22  H   UNL     1      -4.880   2.312  70.450  1.00  0.00     0.000 HD 
HETATM   23  C   UNL     1      -7.186   3.515  71.100  1.00  0.00    -0.033 C  
HETATM   24  O   UNL     1      -5.625   2.054  69.920  1.00  0.00    -0.015 OA 
HETATM   25  O   UNL     1      -6.592   2.839  72.209  1.00  0.00    -0.014 OA 
BRANCH  19  26
HETATM   26  N   UNL     1      -7.782   3.194  67.520  1.00  0.00    -0.075 N  
HETATM   27  C   UNL     1      -8.880   3.077  66.700  1.00  0.00    -0.147 C  
HETATM   28  C   UNL     1      -8.827   3.440  65.424  1.00  0.00    -0.132 C  
HETATM   29  C   UNL     1      -7.528   3.957  64.956  1.00  0.00    -0.077 C  
HETATM   30  N   UNL     1      -6.487   4.075  65.721  1.00  0.00    -0.032 N  
HETATM   31  N   UNL     1      -7.387   4.325  63.646  1.00  0.00    -0.053 NA 
HETATM   32  H   UNL     1      -5.616   4.451  65.346  1.00  0.00     0.000 HD 
HETATM   33  C   UNL     1      -6.563   3.688  67.041  1.00  0.00    -0.045 C  
HETATM   34  H1  UNL     1      -6.489   4.682  63.323  1.00  0.00     0.000 HD 
HETATM   35  H2  UNL     1      -8.172   4.243  63.000  1.00  0.00     0.000 HD 
HETATM   36  O   UNL     1      -5.582   3.771  67.784  1.00  0.00    -0.019 OA 
ENDBRANCH  19  26
ENDBRANCH  16  17
ENDBRANCH  15  16
ENDBRANCH  12  15
ENDBRANCH  11  12
ENDBRANCH   8  11
ENDBRANCH   7   8
ENDBRANCH   6   7
ENDBRANCH   5   6
ENDBRANCH   2   5
TORSDOF 10
ENDMDL
MODEL      305
REMARK 921   NORMALIZED FREE ENERGY PREDICTED BY IDOCK:   -1.66 KCAL/MOL
REMARK 922        TOTAL FREE ENERGY PREDICTED BY IDOCK:   -3.56 KCAL/MOL
REMARK 923 INTER-LIGAND FREE ENERGY PREDICTED BY IDOCK:   -5.03 KCAL/MOL
REMARK 924 INTRA-LIGAND FREE ENERGY PREDICTED BY IDOCK:    1.48 KCAL/MOL
REMARK 927      BINDING AFFINITY PREDICTED BY RF-SCORE:    0.00 PKD
ROOT
HETATM    1  C   UNL     1      -6.347  19.040  66.970  1.00  0.00    -0.186 C  
HETATM    2  N   UNL     1      -6.788  17.657  67.401  1.00  0.00    -0.162 N  
HETATM    3  C   UNL     1      -7.275  17.680  68.840  1.00  0.00    -0.256 C  
HETATM    4  C   UNL     1      -7.955  17.206  66.507  1.00  0.00    -0.289 C  
ENDROOT
BRANCH   2   5
HETATM    5  C   UNL     1      -5.575  16.707  67.243  1.00  0.00    -0.152 C  
BRANCH   5   6
HETATM    6  C   UNL     1      -5.602  15.485  68.143  1.00  0.00    -0.123 C  
BRANCH   6   7
HETATM    7  O   UNL     1      -5.814  14.328  67.358  1.00  0.00    -0.348 OA 
BRANCH   7   8
HETATM    8  P   UNL     1      -5.501  12.911  68.300  1.00  0.00    -0.092 P  
HETATM    9  O   UNL     1      -6.459  12.149  67.393  1.00  0.00    -0.118 OA 
HETATM   10  O   UNL     1      -6.045  13.661  69.520  1.00  0.00    -0.101 OA 
BRANCH   8  11
HETATM   11  O   UNL     1      -5.186  11.494  69.241  1.00  0.00    -0.048 OA 
BRANCH  11  12
HETATM   12  P   UNL     1      -6.657  10.610  69.459  1.00  0.00    -0.122 P  
HETATM   13  O   UNL     1      -6.303  10.489  71.063  1.00  0.00    -0.340 OA 
HETATM   14  O   UNL     1      -7.427  11.944  69.374  1.00  0.00     0.065 OA 
BRANCH  12  15
HETATM   15  O   UNL     1      -8.127   9.725  69.679  1.00  0.00    -0.120 OA 
BRANCH  15  16
HETATM   16  C   UNL     1      -8.302   9.123  70.976  1.00  0.00    -0.152 C  
BRANCH  16  17
HETATM   17  C   UNL     1      -8.803   7.688  70.916  1.00  0.00    -0.146 C  
HETATM   18  O   UNL     1      -9.324   7.408  69.614  1.00  0.00    -0.150 OA 
HETATM   19  C   UNL     1      -9.286   5.989  69.452  1.00  0.00    -0.132 C  
HETATM   20  H   UNL     1      -7.069   5.662  72.795  1.00  0.00     0.000 HD 
HETATM   21  C   UNL     1      -8.121   5.468  70.320  1.00  0.00    -0.102 C  
HETATM   22  H   UNL     1      -7.758   3.997  71.640  1.00  0.00     0.000 HD 
HETATM   23  C   UNL     1      -7.743   6.645  71.216  1.00  0.00    -0.094 C  
HETATM   24  O   UNL     1      -8.475   4.318  71.106  1.00  0.00    -0.086 OA 
HETATM   25  O   UNL     1      -7.732   6.316  72.606  1.00  0.00    -0.100 OA 
BRANCH  19  26
HETATM   26  N   UNL     1      -9.200   5.638  68.033  1.00  0.00    -0.107 N  
HETATM   27  C   UNL     1      -8.037   5.151  67.484  1.00  0.00    -0.099 C  
HETATM   28  C   UNL     1      -7.930   4.933  66.178  1.00  0.00    -0.107 C  
HETATM   29  C   UNL     1      -9.122   5.256  65.374  1.00  0.00    -0.117 C  
HETATM   30  N   UNL     1     -10.226   5.713  65.880  1.00  0.00    -0.413 N  
HETATM   31  N   UNL     1      -9.081   5.085  64.017  1.00  0.00    -0.344 NA 
HETATM   32  H   UNL     1     -11.025   5.907  65.276  1.00  0.00     0.000 HD 
HETATM   33  C   UNL     1     -10.313   5.935  67.237  1.00  0.00    -0.226 C  
HETATM   34  H1  UNL     1      -9.905   5.308  63.461  1.00  0.00     0.000 HD 
HETATM   35  H2  UNL     1      -8.233   4.738  63.567  1.00  0.00     0.000 HD 
HETATM   36  O   UNL     1     -11.344   6.387  67.741  1.00  0.00    -0.266 OA 
ENDBRANCH  19  26
ENDBRANCH  16  17
ENDBRANCH  15  16
ENDBRANCH  12  15
ENDBRANCH  11  12
ENDBRANCH   8  11
ENDBRANCH   7   8
ENDBRANCH   6   7
ENDBRANCH   5   6
ENDBRANCH   2   5
TORSDOF 10
ENDMDL
MODEL      306
REMARK 921   NORMALIZED FREE ENERGY PREDICTED BY IDOCK:   -1.62 KCAL/MOL
REMARK 922        TOTAL FREE ENERGY PREDICTED BY IDOCK:   -3.51 KCAL/MOL
REMARK 923 INTER-LIGAND FREE ENERGY PREDICTED BY IDOCK:   -3.04 KCAL/MOL
REMARK 924 INTRA-LIGAND FREE ENERGY PREDICTED BY IDOCK:   -0.47 KCAL/MOL
REMARK 927      BINDING AFFINITY PREDICTED BY RF-SCORE:    0.00 PKD
ROOT
HETATM    1  C   UNL     1      -7.661  18.838  69.735  1.00  0.00     0.552 C  
HETATM    2  N   UNL     1      -8.599  19.128  68.583  1.00  0.00    -0.360 N  
HETATM    3  C   UNL     1      -9.821  19.886  69.072  1.00  0.00    -0.262 C  
HETATM    4  C   UNL     1      -7.867  20.009  67.557  1.00  0.00    -0.301 C  
ENDROOT
BRANCH   2   5
HETATM    5  C   UNL     1      -9.003  17.772  67.954  1.00  0.00    -0.255 C  
BRANCH   5   6
HETATM    6  C   UNL     1      -7.883  17.049  67.227  1.00  0.00    -0.174 C  
BRANCH   6   7
HETATM    7  O   UNL     1      -7.444  15.957  68.010  1.00  0.00    -0.120 OA 
BRANCH   7   8
HETATM    8  P   UNL     1      -8.492  14.601  67.772  1.00  0.00    -0.203 P  
HETATM    9  O   UNL     1      -7.409  13.712  68.371  1.00  0.00    -0.100 OA 
HETATM   10  O   UNL     1      -8.474  14.913  66.271  1.00  0.00    -0.012 OA 
BRANCH   8  11
HETATM   11  O   UNL     1      -9.541  13.245  67.534  1.00  0.00    -0.207 OA 
BRANCH  11  12
HETATM   12  P   UNL     1      -8.609  11.788  67.539  1.00  0.00    -0.175 P  
HETATM   13  O   UNL     1      -9.777  11.088  68.466  1.00  0.00    -0.176 OA 
HETATM   14  O   UNL     1      -9.099  11.516  66.101  1.00  0.00    -0.206 OA 
BRANCH  12  15
HETATM   15  O   UNL     1      -7.678  10.330  67.545  1.00  0.00    -0.094 OA 
BRANCH  15  16
HETATM   16  C   UNL     1      -8.162   9.288  68.415  1.00  0.00    -0.115 C  
BRANCH  16  17
HETATM   17  C   UNL     1      -9.175   8.368  67.751  1.00  0.00    -0.131 C  
HETATM   18  O   UNL     1      -8.533   7.581  66.744  1.00  0.00    -0.118 OA 
HETATM   19  C   UNL     1      -9.353   6.429  66.538  1.00  0.00    -0.155 C  
HETATM   20  H   UNL     1     -11.516   7.377  69.796  1.00  0.00     0.000 HD 
HETATM   21  C   UNL     1     -10.083   6.152  67.869  1.00  0.00    -0.153 C  
HETATM   22  H   UNL     1     -11.934   5.714  68.515  1.00  0.00     0.000 HD 
HETATM   23  C   UNL     1      -9.867   7.412  68.704  1.00  0.00    -0.163 C  
HETATM   24  O   UNL     1     -11.484   5.885  67.696  1.00  0.00     0.250 OA 
HETATM   25  O   UNL     1     -11.082   7.976  69.199  1.00  0.00     0.002 OA 
BRANCH  19  26
HETATM   26  N   UNL     1      -8.548   5.313  66.033  1.00  0.00    -0.120 N  
HETATM   27  C   UNL     1      -7.989   4.391  66.886  1.00  0.00    -0.101 C  
HETATM   28  C   UNL     1      -7.175   3.443  66.436  1.00  0.00    -0.063 C  
HETATM   29  C   UNL     1      -6.911   3.458  64.986  1.00  0.00    -0.060 C  
HETATM   30  N   UNL     1      -7.434   4.322  64.171  1.00  0.00    -0.069 N  
HETATM   31  N   UNL     1      -6.060   2.530  64.451  1.00  0.00    -0.018 NA 
HETATM   32  H   UNL     1      -7.226   4.277  63.174  1.00  0.00     0.000 HD 
HETATM   33  C   UNL     1      -8.273   5.299  64.661  1.00  0.00    -0.134 C  
HETATM   34  H1  UNL     1      -5.877   2.541  63.448  1.00  0.00     0.000 HD 
HETATM   35  H2  UNL     1      -5.613   1.835  65.049  1.00  0.00     0.000 HD 
HETATM   36  O   UNL     1      -8.769   6.144  63.911  1.00  0.00     0.201 OA 
ENDBRANCH  19  26
ENDBRANCH  16  17
ENDBRANCH  15  16
ENDBRANCH  12  15
ENDBRANCH  11  12
ENDBRANCH   8  11
ENDBRANCH   7   8
ENDBRANCH   6   7
ENDBRANCH   5   6
ENDBRANCH   2   5
TORSDOF 10
ENDMDL
MODEL      307
REMARK 921   NORMALIZED FREE ENERGY PREDICTED BY IDOCK:   -1.31 KCAL/MOL
REMARK 922        TOTAL FREE ENERGY PREDICTED BY IDOCK:   -3.01 KCAL/MOL
REMARK 923 INTER-LIGAND FREE ENERGY PREDICTED BY IDOCK:   -4.99 KCAL/MOL
REMARK 924 INTRA-LIGAND FREE ENERGY PREDICTED BY IDOCK:    1.98 KCAL/MOL
REMARK 927      BINDING AFFINITY PREDICTED BY RF-SCORE:    0.00 PKD
ROOT
HETATM    1  C   UNL     1      -9.986  15.123  70.129  1.00  0.00     0.050 C  
HETATM    2  N   UNL     1     -11.488  15.242  70.277  1.00  0.00    -0.273 N  
HETATM    3  C   UNL     1     -12.110  13.872  70.486  1.00  0.00    -0.356 C  
HETATM    4  C   UNL     1     -11.798  16.103  71.513  1.00  0.00    -0.463 C  
ENDROOT
BRANCH   2   5
HETATM    5  C   UNL     1     -12.035  15.909  68.991  1.00  0.00    -0.230 C  
BRANCH   5   6
HETATM    6  C   UNL     1     -11.898  15.072  67.732  1.00  0.00    -0.204 C  
BRANCH   6   7
HETATM    7  O   UNL     1     -10.658  14.392  67.754  1.00  0.00    -0.244 OA 
BRANCH   7   8
HETATM    8  P   UNL     1     -10.686  13.080  66.627  1.00  0.00    -0.280 P  
HETATM    9  O   UNL     1     -11.572  12.316  67.604  1.00  0.00    -0.319 OA 
HETATM   10  O   UNL     1      -9.161  12.997  66.760  1.00  0.00    -0.229 OA 
BRANCH   8  11
HETATM   11  O   UNL     1     -10.715  11.767  65.500  1.00  0.00    -0.265 OA 
BRANCH  11  12
HETATM   12  P   UNL     1      -9.250  10.858  65.637  1.00  0.00    -0.213 P  
HETATM   13  O   UNL     1      -9.724  10.393  67.145  1.00  0.00    -0.165 OA 
HETATM   14  O   UNL     1      -9.879   9.780  64.729  1.00  0.00    -0.258 OA 
BRANCH  12  15
HETATM   15  O   UNL     1      -7.785   9.948  65.776  1.00  0.00    -0.104 OA 
BRANCH  15  16
HETATM   16  C   UNL     1      -7.427   9.548  67.113  1.00  0.00    -0.091 C  
BRANCH  16  17
HETATM   17  C   UNL     1      -7.548   8.050  67.349  1.00  0.00    -0.097 C  
HETATM   18  O   UNL     1      -6.841   7.685  68.537  1.00  0.00    -0.062 OA 
HETATM   19  C   UNL     1      -7.397   6.447  68.983  1.00  0.00    -0.089 C  
HETATM   20  H   UNL     1     -10.399   6.834  66.330  1.00  0.00     0.000 HD 
HETATM   21  C   UNL     1      -8.866   6.416  68.508  1.00  0.00    -0.119 C  
HETATM   22  H   UNL     1     -10.141   5.144  67.618  1.00  0.00     0.000 HD 
HETATM   23  C   UNL     1      -8.974   7.555  67.498  1.00  0.00    -0.126 C  
HETATM   24  O   UNL     1      -9.237   5.163  67.910  1.00  0.00    -0.110 OA 
HETATM   25  O   UNL     1      -9.505   7.144  66.237  1.00  0.00    -0.153 OA 
BRANCH  19  26
HETATM   26  N   UNL     1      -7.215   6.295  70.428  1.00  0.00    -0.080 N  
HETATM   27  C   UNL     1      -6.879   5.082  70.984  1.00  0.00    -0.043 C  
HETATM   28  C   UNL     1      -6.818   4.922  72.301  1.00  0.00    -0.057 C  
HETATM   29  C   UNL     1      -7.139   6.113  73.108  1.00  0.00    -0.084 C  
HETATM   30  N   UNL     1      -7.455   7.263  72.596  1.00  0.00    -0.075 N  
HETATM   31  N   UNL     1      -7.125   6.020  74.473  1.00  0.00    -0.090 NA 
HETATM   32  H   UNL     1      -7.655   8.056  73.203  1.00  0.00     0.000 HD 
HETATM   33  C   UNL     1      -7.517   7.405  71.226  1.00  0.00    -0.081 C  
HETATM   34  H1  UNL     1      -7.348   6.843  75.031  1.00  0.00     0.000 HD 
HETATM   35  H2  UNL     1      -6.894   5.136  74.927  1.00  0.00     0.000 HD 
HETATM   36  O   UNL     1      -7.832   8.481  70.714  1.00  0.00    -0.079 OA 
ENDBRANCH  19  26
ENDBRANCH  16  17
ENDBRANCH  15  16
ENDBRANCH  12  15
ENDBRANCH  11  12
ENDBRANCH   8  11
ENDBRANCH   7   8
ENDBRANCH   6   7
ENDBRANCH   5   6
ENDBRANCH   2   5
TORSDOF 10
ENDMDL
MODEL      308
REMARK 921   NORMALIZED FREE ENERGY PREDICTED BY IDOCK:   -1.30 KCAL/MOL
REMARK 922        TOTAL FREE ENERGY PREDICTED BY IDOCK:   -2.99 KCAL/MOL
REMARK 923 INTER-LIGAND FREE ENERGY PREDICTED BY IDOCK:   -5.14 KCAL/MOL
REMARK 924 INTRA-LIGAND FREE ENERGY PREDICTED BY IDOCK:    2.15 KCAL/MOL
REMARK 927      BINDING AFFINITY PREDICTED BY RF-SCORE:    0.00 PKD
ROOT
HETATM    1  C   UNL     1      -8.288   5.841  64.941  1.00  0.00    -0.127 C  
HETATM    2  N   UNL     1      -7.123   5.098  64.324  1.00  0.00    -0.049 N  
HETATM    3  C   UNL     1      -7.500   4.568  62.951  1.00  0.00    -0.052 C  
HETATM    4  C   UNL     1      -5.946   6.073  64.154  1.00  0.00    -0.025 C  
ENDROOT
BRANCH   2   5
HETATM    5  C   UNL     1      -6.745   3.940  65.281  1.00  0.00    -0.048 C  
BRANCH   5   6
HETATM    6  C   UNL     1      -6.883   4.264  66.757  1.00  0.00    -0.052 C  
BRANCH   6   7
HETATM    7  O   UNL     1      -7.904   3.464  67.320  1.00  0.00    -0.077 OA 
BRANCH   7   8
HETATM    8  P   UNL     1      -8.458   4.169  68.800  1.00  0.00    -0.088 P  
HETATM    9  O   UNL     1      -9.863   4.196  68.212  1.00  0.00    -0.115 OA 
HETATM   10  O   UNL     1      -7.504   5.341  68.541  1.00  0.00    -0.070 OA 
BRANCH   8  11
HETATM   11  O   UNL     1      -9.011   4.873  70.280  1.00  0.00    -0.103 OA 
BRANCH  11  12
HETATM   12  P   UNL     1     -10.331   5.941  69.952  1.00  0.00    -0.297 P  
HETATM   13  O   UNL     1      -9.951   6.773  71.322  1.00  0.00    -0.178 OA 
HETATM   14  O   UNL     1      -9.459   6.627  68.878  1.00  0.00    -0.132 OA 
BRANCH  12  15
HETATM   15  O   UNL     1     -11.651   7.010  69.625  1.00  0.00    -0.134 OA 
BRANCH  15  16
HETATM   16  C   UNL     1     -11.380   8.411  69.825  1.00  0.00     0.143 C  
BRANCH  16  17
HETATM   17  C   UNL     1     -10.315   8.962  68.890  1.00  0.00    -0.212 C  
HETATM   18  O   UNL     1     -10.931   9.588  67.762  1.00  0.00    -0.244 OA 
HETATM   19  C   UNL     1      -9.974  10.501  67.224  1.00  0.00    -0.186 C  
HETATM   20  H   UNL     1      -7.652   9.989  70.471  1.00  0.00     0.000 HD 
HETATM   21  C   UNL     1      -9.076  10.954  68.395  1.00  0.00    -0.164 C  
HETATM   22  H   UNL     1      -7.123  11.208  68.793  1.00  0.00     0.000 HD 
HETATM   23  C   UNL     1      -9.391   9.982  69.529  1.00  0.00    -0.229 C  
HETATM   24  O   UNL     1      -7.676  10.929  68.072  1.00  0.00    -0.097 OA 
HETATM   25  O   UNL     1      -8.231   9.351  70.071  1.00  0.00    -0.124 OA 
BRANCH  19  26
HETATM   26  N   UNL     1     -10.648  11.588  66.510  1.00  0.00    -0.248 N  
HETATM   27  C   UNL     1     -10.681  11.629  65.136  1.00  0.00    -0.296 C  
HETATM   28  C   UNL     1     -11.201  12.668  64.491  1.00  0.00    -0.375 C  
HETATM   29  C   UNL     1     -11.719  13.756  65.339  1.00  0.00    -0.335 C  
HETATM   30  N   UNL     1     -11.696  13.728  66.636  1.00  0.00    -0.372 N  
HETATM   31  N   UNL     1     -12.245  14.872  64.748  1.00  0.00    -0.338 NA 
HETATM   32  H   UNL     1     -12.081  14.504  67.172  1.00  0.00     0.000 HD 
HETATM   33  C   UNL     1     -11.149  12.642  67.284  1.00  0.00    -0.278 C  
HETATM   34  H1  UNL     1     -12.603  15.625  65.334  1.00  0.00     0.000 HD 
HETATM   35  H2  UNL     1     -12.277  14.951  63.731  1.00  0.00     0.000 HD 
HETATM   36  O   UNL     1     -11.097  12.598  68.515  1.00  0.00    -0.237 OA 
ENDBRANCH  19  26
ENDBRANCH  16  17
ENDBRANCH  15  16
ENDBRANCH  12  15
ENDBRANCH  11  12
ENDBRANCH   8  11
ENDBRANCH   7   8
ENDBRANCH   6   7
ENDBRANCH   5   6
ENDBRANCH   2   5
TORSDOF 10
ENDMDL
MODEL      309
REMARK 921   NORMALIZED FREE ENERGY PREDICTED BY IDOCK:   -1.18 KCAL/MOL
REMARK 922        TOTAL FREE ENERGY PREDICTED BY IDOCK:   -2.80 KCAL/MOL
REMARK 923 INTER-LIGAND FREE ENERGY PREDICTED BY IDOCK:   -2.24 KCAL/MOL
REMARK 924 INTRA-LIGAND FREE ENERGY PREDICTED BY IDOCK:   -0.56 KCAL/MOL
REMARK 927      BINDING AFFINITY PREDICTED BY RF-SCORE:    0.00 PKD
ROOT
HETATM    1  C   UNL     1      -7.152  19.814  72.657  1.00  0.00     2.456 C  
HETATM    2  N   UNL     1      -6.198  19.841  71.483  1.00  0.00    -0.046 N  
HETATM    3  C   UNL     1      -6.938  20.201  70.206  1.00  0.00     0.191 C  
HETATM    4  C   UNL     1      -5.128  20.917  71.736  1.00  0.00    -0.112 C  
ENDROOT
BRANCH   2   5
HETATM    5  C   UNL     1      -5.551  18.438  71.371  1.00  0.00     0.120 C  
BRANCH   5   6
HETATM    6  C   UNL     1      -5.145  18.035  69.965  1.00  0.00    -0.205 C  
BRANCH   6   7
HETATM    7  O   UNL     1      -6.258  17.474  69.298  1.00  0.00    -0.215 OA 
BRANCH   7   8
HETATM    8  P   UNL     1      -5.827  15.946  68.612  1.00  0.00    -0.108 P  
HETATM    9  O   UNL     1      -5.367  16.685  67.361  1.00  0.00    -0.122 OA 
HETATM   10  O   UNL     1      -7.294  15.525  68.749  1.00  0.00    -0.126 OA 
BRANCH   8  11
HETATM   11  O   UNL     1      -5.394  14.417  67.926  1.00  0.00    -0.183 OA 
BRANCH  11  12
HETATM   12  P   UNL     1      -6.572  13.232  68.371  1.00  0.00    -0.125 P  
HETATM   13  O   UNL     1      -6.142  12.359  67.042  1.00  0.00    -0.228 OA 
HETATM   14  O   UNL     1      -5.595  12.722  69.451  1.00  0.00    -0.076 OA 
BRANCH  12  15
HETATM   15  O   UNL     1      -7.751  12.046  68.815  1.00  0.00    -0.118 OA 
BRANCH  15  16
HETATM   16  C   UNL     1      -8.124  11.122  67.774  1.00  0.00    -0.117 C  
BRANCH  16  17
HETATM   17  C   UNL     1      -9.569  10.655  67.868  1.00  0.00    -0.162 C  
HETATM   18  O   UNL     1      -9.619   9.324  68.387  1.00  0.00    -0.145 OA 
HETATM   19  C   UNL     1     -10.928   9.143  68.929  1.00  0.00     0.017 C  
HETATM   20  H   UNL     1     -11.642  13.084  68.538  1.00  0.00     0.000 HD 
HETATM   21  C   UNL     1     -11.424  10.532  69.381  1.00  0.00    -0.262 C  
HETATM   22  H   UNL     1     -13.079  11.665  69.247  1.00  0.00     0.000 HD 
HETATM   23  C   UNL     1     -10.448  11.521  68.751  1.00  0.00    -0.204 C  
HETATM   24  O   UNL     1     -12.773  10.809  68.968  1.00  0.00    -0.188 OA 
HETATM   25  O   UNL     1     -11.091  12.541  67.985  1.00  0.00    -0.220 OA 
BRANCH  19  26
HETATM   26  N   UNL     1     -10.909   8.124  69.981  1.00  0.00    -0.247 N  
HETATM   27  C   UNL     1     -10.718   8.460  71.301  1.00  0.00    -0.230 C  
HETATM   28  C   UNL     1     -10.597   7.528  72.239  1.00  0.00    -0.280 C  
HETATM   29  C   UNL     1     -10.669   6.132  71.769  1.00  0.00    -0.242 C  
HETATM   30  N   UNL     1     -10.851   5.802  70.528  1.00  0.00    -0.290 N  
HETATM   31  N   UNL     1     -10.524   5.114  72.672  1.00  0.00    -0.203 NA 
HETATM   32  H   UNL     1     -10.905   4.819  70.262  1.00  0.00     0.000 HD 
HETATM   33  C   UNL     1     -10.970   6.786  69.571  1.00  0.00    -0.279 C  
HETATM   34  H1  UNL     1     -10.573   4.149  72.347  1.00  0.00     0.000 HD 
HETATM   35  H2  UNL     1     -10.367   5.319  73.659  1.00  0.00     0.000 HD 
HETATM   36  O   UNL     1     -11.125   6.500  68.381  1.00  0.00    -0.293 OA 
ENDBRANCH  19  26
ENDBRANCH  16  17
ENDBRANCH  15  16
ENDBRANCH  12  15
ENDBRANCH  11  12
ENDBRANCH   8  11
ENDBRANCH   7   8
ENDBRANCH   6   7
ENDBRANCH   5   6
ENDBRANCH   2   5
TORSDOF 10
ENDMDL
MODEL      310
REMARK 921   NORMALIZED FREE ENERGY PREDICTED BY IDOCK:   -1.18 KCAL/MOL
REMARK 922        TOTAL FREE ENERGY PREDICTED BY IDOCK:   -2.80 KCAL/MOL
REMARK 923 INTER-LIGAND FREE ENERGY PREDICTED BY IDOCK:   -2.84 KCAL/MOL
REMARK 924 INTRA-LIGAND FREE ENERGY PREDICTED BY IDOCK:    0.04 KCAL/MOL
REMARK 927      BINDING AFFINITY PREDICTED BY RF-SCORE:    0.00 PKD
ROOT
HETATM    1  C   UNL     1      -7.230  19.795  71.918  1.00  0.00     1.686 C  
HETATM    2  N   UNL     1      -6.233  19.842  70.780  1.00  0.00    -0.246 N  
HETATM    3  C   UNL     1      -6.910  20.307  69.501  1.00  0.00    -0.063 C  
HETATM    4  C   UNL     1      -5.127  20.852  71.130  1.00  0.00    -0.116 C  
ENDROOT
BRANCH   2   5
HETATM    5  C   UNL     1      -5.645  18.419  70.610  1.00  0.00    -0.169 C  
BRANCH   5   6
HETATM    6  C   UNL     1      -5.474  17.969  69.170  1.00  0.00    -0.196 C  
BRANCH   6   7
HETATM    7  O   UNL     1      -6.661  17.339  68.732  1.00  0.00    -0.182 OA 
BRANCH   7   8
HETATM    8  P   UNL     1      -6.295  15.777  68.085  1.00  0.00    -0.148 P  
HETATM    9  O   UNL     1      -6.099  16.433  66.724  1.00  0.00    -0.314 OA 
HETATM   10  O   UNL     1      -7.694  15.324  68.515  1.00  0.00    -0.119 OA 
BRANCH   8  11
HETATM   11  O   UNL     1      -5.927  14.214  67.438  1.00  0.00    -0.348 OA 
BRANCH  11  12
HETATM   12  P   UNL     1      -6.959  13.033  68.166  1.00  0.00    -0.145 P  
HETATM   13  O   UNL     1      -8.037  13.276  66.945  1.00  0.00    -0.068 OA 
HETATM   14  O   UNL     1      -6.036  11.934  67.599  1.00  0.00    -0.062 OA 
BRANCH  12  15
HETATM   15  O   UNL     1      -7.992  11.851  68.894  1.00  0.00    -0.079 OA 
BRANCH  15  16
HETATM   16  C   UNL     1      -8.225  10.663  68.111  1.00  0.00    -0.116 C  
BRANCH  16  17
HETATM   17  C   UNL     1      -9.165   9.672  68.779  1.00  0.00    -0.141 C  
HETATM   18  O   UNL     1      -8.415   8.605  69.362  1.00  0.00    -0.122 OA 
HETATM   19  C   UNL     1      -9.241   8.026  70.374  1.00  0.00    -0.155 C  
HETATM   20  H   UNL     1     -11.821  11.095  70.031  1.00  0.00     0.000 HD 
HETATM   21  C   UNL     1     -10.170   9.144  70.890  1.00  0.00    -0.282 C  
HETATM   22  H   UNL     1     -12.113   9.415  71.325  1.00  0.00     0.000 HD 
HETATM   23  C   UNL     1     -10.029  10.272  69.872  1.00  0.00    -0.135 C  
HETATM   24  O   UNL     1     -11.541   8.727  71.007  1.00  0.00    -0.277 OA 
HETATM   25  O   UNL     1     -11.280  10.719  69.346  1.00  0.00    -0.233 OA 
BRANCH  19  26
HETATM   26  N   UNL     1      -8.417   7.386  71.402  1.00  0.00    -0.113 N  
HETATM   27  C   UNL     1      -7.080   7.679  71.534  1.00  0.00    -0.062 C  
HETATM   28  C   UNL     1      -6.313   7.022  72.396  1.00  0.00    -0.052 C  
HETATM   29  C   UNL     1      -6.984   5.968  73.179  1.00  0.00    -0.084 C  
HETATM   30  N   UNL     1      -8.244   5.683  73.065  1.00  0.00    -0.118 N  
HETATM   31  N   UNL     1      -6.253   5.228  74.068  1.00  0.00    -0.056 NA 
HETATM   32  H   UNL     1      -8.658   4.952  73.642  1.00  0.00     0.000 HD 
HETATM   33  C   UNL     1      -9.020   6.375  72.161  1.00  0.00    -0.136 C  
HETATM   34  H1  UNL     1      -6.717   4.498  74.609  1.00  0.00     0.000 HD 
HETATM   35  H2  UNL     1      -5.255   5.403  74.188  1.00  0.00     0.000 HD 
HETATM   36  O   UNL     1     -10.217   6.112  72.020  1.00  0.00    -0.191 OA 
ENDBRANCH  19  26
ENDBRANCH  16  17
ENDBRANCH  15  16
ENDBRANCH  12  15
ENDBRANCH  11  12
ENDBRANCH   8  11
ENDBRANCH   7   8
ENDBRANCH   6   7
ENDBRANCH   5   6
ENDBRANCH   2   5
TORSDOF 10
ENDMDL
MODEL      311
REMARK 921   NORMALIZED FREE ENERGY PREDICTED BY IDOCK:   -0.97 KCAL/MOL
REMARK 922        TOTAL FREE ENERGY PREDICTED BY IDOCK:   -2.46 KCAL/MOL
REMARK 923 INTER-LIGAND FREE ENERGY PREDICTED BY IDOCK:   -2.97 KCAL/MOL
REMARK 924 INTRA-LIGAND FREE ENERGY PREDICTED BY IDOCK:    0.51 KCAL/MOL
REMARK 927      BINDING AFFINITY PREDICTED BY RF-SCORE:    0.00 PKD
ROOT
HETATM    1  C   UNL     1      -7.230  19.795  71.918  1.00  0.00     1.686 C  
HETATM    2  N   UNL     1      -6.233  19.842  70.780  1.00  0.00    -0.246 N  
HETATM    3  C   UNL     1      -6.910  20.307  69.501  1.00  0.00    -0.063 C  
HETATM    4  C   UNL     1      -5.127  20.852  71.130  1.00  0.00    -0.116 C  
ENDROOT
BRANCH   2   5
HETATM    5  C   UNL     1      -5.645  18.419  70.610  1.00  0.00    -0.169 C  
BRANCH   5   6
HETATM    6  C   UNL     1      -5.474  17.969  69.170  1.00  0.00    -0.196 C  
BRANCH   6   7
HETATM    7  O   UNL     1      -6.661  17.339  68.732  1.00  0.00    -0.182 OA 
BRANCH   7   8
HETATM    8  P   UNL     1      -6.295  15.777  68.085  1.00  0.00    -0.148 P  
HETATM    9  O   UNL     1      -5.907  16.456  66.777  1.00  0.00    -0.336 OA 
HETATM   10  O   UNL     1      -7.756  15.385  68.332  1.00  0.00    -0.115 OA 
BRANCH   8  11
HETATM   11  O   UNL     1      -5.927  14.214  67.438  1.00  0.00    -0.348 OA 
BRANCH  11  12
HETATM   12  P   UNL     1      -7.094  13.069  68.002  1.00  0.00    -0.156 P  
HETATM   13  O   UNL     1      -8.134  13.616  66.848  1.00  0.00    -0.059 OA 
HETATM   14  O   UNL     1      -6.308  11.964  67.264  1.00  0.00    -0.112 OA 
BRANCH  12  15
HETATM   15  O   UNL     1      -8.262  11.923  68.566  1.00  0.00    -0.154 OA 
BRANCH  15  16
HETATM   16  C   UNL     1      -8.721  10.972  67.586  1.00  0.00    -0.128 C  
BRANCH  16  17
HETATM   17  C   UNL     1      -9.770  10.010  68.121  1.00  0.00    -0.140 C  
HETATM   18  O   UNL     1      -9.484   8.681  67.680  1.00  0.00    -0.138 OA 
HETATM   19  C   UNL     1     -10.140   7.795  68.590  1.00  0.00    -0.199 C  
HETATM   20  H   UNL     1     -10.912  10.885  71.050  1.00  0.00     0.000 HD 
HETATM   21  C   UNL     1     -10.220   8.524  69.948  1.00  0.00    -0.204 C  
HETATM   22  H   UNL     1     -11.566   8.877  71.397  1.00  0.00     0.000 HD 
HETATM   23  C   UNL     1      -9.871   9.976  69.635  1.00  0.00    -0.235 C  
HETATM   24  O   UNL     1     -11.516   8.429  70.561  1.00  0.00    -0.259 OA 
HETATM   25  O   UNL     1     -10.849  10.906  70.102  1.00  0.00    -0.186 OA 
BRANCH  19  26
HETATM   26  N   UNL     1      -9.456   6.500  68.625  1.00  0.00    -0.124 N  
HETATM   27  C   UNL     1      -8.171   6.356  68.155  1.00  0.00    -0.116 C  
HETATM   28  C   UNL     1      -7.592   5.162  68.092  1.00  0.00    -0.080 C  
HETATM   29  C   UNL     1      -8.414   4.025  68.542  1.00  0.00    -0.091 C  
HETATM   30  N   UNL     1      -9.626   4.148  68.989  1.00  0.00    -0.175 N  
HETATM   31  N   UNL     1      -7.897   2.760  68.479  1.00  0.00    -0.054 NA 
HETATM   32  H   UNL     1     -10.144   3.327  69.299  1.00  0.00     0.000 HD 
HETATM   33  C   UNL     1     -10.208   5.396  69.043  1.00  0.00    -0.221 C  
HETATM   34  H1  UNL     1      -8.466   1.973  68.790  1.00  0.00     0.000 HD 
HETATM   35  H2  UNL     1      -6.953   2.605  68.126  1.00  0.00     0.000 HD 
HETATM   36  O   UNL     1     -11.365   5.539  69.446  1.00  0.00     0.088 OA 
ENDBRANCH  19  26
ENDBRANCH  16  17
ENDBRANCH  15  16
ENDBRANCH  12  15
ENDBRANCH  11  12
ENDBRANCH   8  11
ENDBRANCH   7   8
ENDBRANCH   6   7
ENDBRANCH   5   6
ENDBRANCH   2   5
TORSDOF 10
ENDMDL
MODEL      312
REMARK 921   NORMALIZED FREE ENERGY PREDICTED BY IDOCK:   -0.64 KCAL/MOL
REMARK 922        TOTAL FREE ENERGY PREDICTED BY IDOCK:   -1.94 KCAL/MOL
REMARK 923 INTER-LIGAND FREE ENERGY PREDICTED BY IDOCK:   -5.31 KCAL/MOL
REMARK 924 INTRA-LIGAND FREE ENERGY PREDICTED BY IDOCK:    3.37 KCAL/MOL
REMARK 927      BINDING AFFINITY PREDICTED BY RF-SCORE:    0.00 PKD
ROOT
HETATM    1  C   UNL     1     -10.295  13.026  64.397  1.00  0.00    -0.374 C  
HETATM    2  N   UNL     1     -11.697  13.520  64.684  1.00  0.00    -0.365 N  
HETATM    3  C   UNL     1     -12.658  13.042  63.609  1.00  0.00    -0.194 C  
HETATM    4  C   UNL     1     -12.161  12.943  66.032  1.00  0.00    -0.422 C  
ENDROOT
BRANCH   2   5
HETATM    5  C   UNL     1     -11.649  15.067  64.736  1.00  0.00    -0.395 C  
BRANCH   5   6
HETATM    6  C   UNL     1     -10.345  15.646  65.258  1.00  0.00    -0.375 C  
BRANCH   6   7
HETATM    7  O   UNL     1     -10.584  16.312  66.481  1.00  0.00    -0.308 OA 
BRANCH   7   8
HETATM    8  P   UNL     1      -9.305  15.974  67.596  1.00  0.00    -0.215 P  
HETATM    9  O   UNL     1      -8.554  15.289  66.461  1.00  0.00    -0.276 OA 
HETATM   10  O   UNL     1     -10.311  15.174  68.432  1.00  0.00    -0.222 OA 
BRANCH   8  11
HETATM   11  O   UNL     1      -8.025  15.636  68.711  1.00  0.00    -0.148 OA 
BRANCH  11  12
HETATM   12  P   UNL     1      -7.271  14.140  68.286  1.00  0.00    -0.153 P  
HETATM   13  O   UNL     1      -8.736  13.589  67.774  1.00  0.00    -0.165 OA 
HETATM   14  O   UNL     1      -6.701  14.828  67.027  1.00  0.00    -0.156 OA 
BRANCH  12  15
HETATM   15  O   UNL     1      -6.517  12.641  67.860  1.00  0.00    -0.084 OA 
BRANCH  15  16
HETATM   16  C   UNL     1      -6.097  11.821  68.968  1.00  0.00    -0.066 C  
BRANCH  16  17
HETATM   17  C   UNL     1      -7.041  10.664  69.256  1.00  0.00    -0.107 C  
HETATM   18  O   UNL     1      -7.455  10.055  68.030  1.00  0.00    -0.086 OA 
HETATM   19  C   UNL     1      -7.878   8.729  68.352  1.00  0.00    -0.104 C  
HETATM   20  H   UNL     1      -6.350   9.133  72.053  1.00  0.00     0.000 HD 
HETATM   21  C   UNL     1      -7.079   8.291  69.598  1.00  0.00    -0.056 C  
HETATM   22  H   UNL     1      -7.407   7.403  71.370  1.00  0.00     0.000 HD 
HETATM   23  C   UNL     1      -6.445   9.575  70.127  1.00  0.00    -0.067 C  
HETATM   24  O   UNL     1      -7.899   7.672  70.603  1.00  0.00    -0.094 OA 
HETATM   25  O   UNL     1      -6.724   9.815  71.507  1.00  0.00    -0.318 OA 
BRANCH  19  26
HETATM   26  N   UNL     1      -7.735   7.850  67.189  1.00  0.00    -0.099 N  
HETATM   27  C   UNL     1      -8.834   7.389  66.501  1.00  0.00    -0.148 C  
HETATM   28  C   UNL     1      -8.707   6.509  65.514  1.00  0.00    -0.063 C  
HETATM   29  C   UNL     1      -7.333   6.064  65.223  1.00  0.00    -0.076 C  
HETATM   30  N   UNL     1      -6.289   6.493  65.863  1.00  0.00    -0.038 N  
HETATM   31  N   UNL     1      -7.124   5.137  64.238  1.00  0.00    -0.049 NA 
HETATM   32  H   UNL     1      -5.360   6.159  65.610  1.00  0.00     0.000 HD 
HETATM   33  C   UNL     1      -6.444   7.402  66.887  1.00  0.00    -0.056 C  
HETATM   34  H1  UNL     1      -6.174   4.828  64.036  1.00  0.00     0.000 HD 
HETATM   35  H2  UNL     1      -7.912   4.759  63.711  1.00  0.00     0.000 HD 
HETATM   36  O   UNL     1      -5.471   7.812  67.524  1.00  0.00    -0.033 OA 
ENDBRANCH  19  26
ENDBRANCH  16  17
ENDBRANCH  15  16
ENDBRANCH  12  15
ENDBRANCH  11  12
ENDBRANCH   8  11
ENDBRANCH   7   8
ENDBRANCH   6   7
ENDBRANCH   5   6
ENDBRANCH   2   5
TORSDOF 10
ENDMDL
MODEL      313
REMARK 921   NORMALIZED FREE ENERGY PREDICTED BY IDOCK:   -0.43 KCAL/MOL
REMARK 922        TOTAL FREE ENERGY PREDICTED BY IDOCK:   -1.61 KCAL/MOL
REMARK 923 INTER-LIGAND FREE ENERGY PREDICTED BY IDOCK:   -2.33 KCAL/MOL
REMARK 924 INTRA-LIGAND FREE ENERGY PREDICTED BY IDOCK:    0.72 KCAL/MOL
REMARK 927      BINDING AFFINITY PREDICTED BY RF-SCORE:    0.00 PKD
ROOT
HETATM    1  C   UNL     1     -11.334  11.849  70.662  1.00  0.00     0.912 C  
HETATM    2  N   UNL     1     -11.927  13.222  70.431  1.00  0.00    -0.314 N  
HETATM    3  C   UNL     1     -13.354  13.104  69.923  1.00  0.00     1.682 C  
HETATM    4  C   UNL     1     -11.956  13.982  71.768  1.00  0.00     0.227 C  
ENDROOT
BRANCH   2   5
HETATM    5  C   UNL     1     -11.030  13.954  69.401  1.00  0.00    -0.126 C  
BRANCH   5   6
HETATM    6  C   UNL     1     -11.593  15.268  68.889  1.00  0.00    -0.347 C  
BRANCH   6   7
HETATM    7  O   UNL     1     -10.678  15.847  67.980  1.00  0.00    -0.280 OA 
BRANCH   7   8
HETATM    8  P   UNL     1      -9.109  15.945  68.704  1.00  0.00    -0.233 P  
HETATM    9  O   UNL     1      -9.759  16.592  69.921  1.00  0.00     0.084 OA 
HETATM   10  O   UNL     1      -8.672  16.819  67.523  1.00  0.00    -0.196 OA 
BRANCH   8  11
HETATM   11  O   UNL     1      -7.541  16.043  69.429  1.00  0.00    -0.232 OA 
BRANCH  11  12
HETATM   12  P   UNL     1      -6.646  14.610  69.060  1.00  0.00    -0.119 P  
HETATM   13  O   UNL     1      -6.214  15.293  67.625  1.00  0.00    -0.149 OA 
HETATM   14  O   UNL     1      -5.542  15.098  70.022  1.00  0.00    -0.112 OA 
BRANCH  12  15
HETATM   15  O   UNL     1      -5.751  13.176  68.689  1.00  0.00    -0.069 OA 
BRANCH  15  16
HETATM   16  C   UNL     1      -5.842  12.722  67.325  1.00  0.00    -0.013 C  
BRANCH  16  17
HETATM   17  C   UNL     1      -7.146  12.004  67.012  1.00  0.00    -0.091 C  
HETATM   18  O   UNL     1      -8.211  12.951  66.903  1.00  0.00    -0.124 OA 
HETATM   19  C   UNL     1      -9.237  12.329  66.127  1.00  0.00    -0.132 C  
HETATM   20  H   UNL     1      -6.714   9.340  65.178  1.00  0.00     0.000 HD 
HETATM   21  C   UNL     1      -8.542  11.323  65.186  1.00  0.00     0.164 C  
HETATM   22  H   UNL     1      -8.765   9.423  64.572  1.00  0.00     0.000 HD 
HETATM   23  C   UNL     1      -7.120  11.196  65.728  1.00  0.00     0.195 C  
HETATM   24  O   UNL     1      -9.193  10.042  65.152  1.00  0.00    -0.185 OA 
HETATM   25  O   UNL     1      -6.730   9.846  65.982  1.00  0.00    -0.085 OA 
BRANCH  19  26
HETATM   26  N   UNL     1     -10.052  13.341  65.452  1.00  0.00    -0.281 N  
HETATM   27  C   UNL     1      -9.724  14.676  65.503  1.00  0.00    -0.212 C  
HETATM   28  C   UNL     1     -10.521  15.601  64.980  1.00  0.00    -0.364 C  
HETATM   29  C   UNL     1     -11.764  15.103  64.363  1.00  0.00    -0.295 C  
HETATM   30  N   UNL     1     -12.083  13.847  64.307  1.00  0.00    -0.502 N  
HETATM   31  N   UNL     1     -12.650  15.998  63.828  1.00  0.00    -0.590 NA 
HETATM   32  H   UNL     1     -12.951  13.559  63.856  1.00  0.00     0.000 HD 
HETATM   33  C   UNL     1     -11.244  12.905  64.860  1.00  0.00    -0.300 C  
HETATM   34  H1  UNL     1     -13.510  15.654  63.402  1.00  0.00     0.000 HD 
HETATM   35  H2  UNL     1     -12.452  16.999  63.856  1.00  0.00     0.000 HD 
HETATM   36  O   UNL     1     -11.532  11.706  64.836  1.00  0.00    -0.244 OA 
ENDBRANCH  19  26
ENDBRANCH  16  17
ENDBRANCH  15  16
ENDBRANCH  12  15
ENDBRANCH  11  12
ENDBRANCH   8  11
ENDBRANCH   7   8
ENDBRANCH   6   7
ENDBRANCH   5   6
ENDBRANCH   2   5
TORSDOF 10
ENDMDL
MODEL      314
REMARK 921   NORMALIZED FREE ENERGY PREDICTED BY IDOCK:   -0.39 KCAL/MOL
REMARK 922        TOTAL FREE ENERGY PREDICTED BY IDOCK:   -1.55 KCAL/MOL
REMARK 923 INTER-LIGAND FREE ENERGY PREDICTED BY IDOCK:   -4.67 KCAL/MOL
REMARK 924 INTRA-LIGAND FREE ENERGY PREDICTED BY IDOCK:    3.11 KCAL/MOL
REMARK 927      BINDING AFFINITY PREDICTED BY RF-SCORE:    0.00 PKD
ROOT
HETATM    1  C   UNL     1      -9.279   3.227  64.407  1.00  0.00    -0.134 C  
HETATM    2  N   UNL     1      -8.959   4.127  65.581  1.00  0.00    -0.125 N  
HETATM    3  C   UNL     1     -10.208   4.856  66.047  1.00  0.00    -0.257 C  
HETATM    4  C   UNL     1      -8.447   3.261  66.745  1.00  0.00    -0.106 C  
ENDROOT
BRANCH   2   5
HETATM    5  C   UNL     1      -7.871   5.129  65.123  1.00  0.00    -0.091 C  
BRANCH   5   6
HETATM    6  C   UNL     1      -8.113   5.751  63.759  1.00  0.00    -0.108 C  
BRANCH   6   7
HETATM    7  O   UNL     1      -7.811   7.131  63.811  1.00  0.00    -0.124 OA 
BRANCH   7   8
HETATM    8  P   UNL     1      -7.522   7.609  65.449  1.00  0.00    -0.088 P  
HETATM    9  O   UNL     1      -8.730   8.532  65.348  1.00  0.00    -0.175 OA 
HETATM   10  O   UNL     1      -6.143   8.111  65.008  1.00  0.00    -0.045 OA 
BRANCH   8  11
HETATM   11  O   UNL     1      -7.234   8.086  67.087  1.00  0.00    -0.083 OA 
BRANCH  11  12
HETATM   12  P   UNL     1      -7.161   9.811  67.180  1.00  0.00    -0.087 P  
HETATM   13  O   UNL     1      -5.613   9.739  66.622  1.00  0.00    -0.045 OA 
HETATM   14  O   UNL     1      -7.995   9.878  65.883  1.00  0.00    -0.109 OA 
BRANCH  12  15
HETATM   15  O   UNL     1      -7.087  11.538  67.273  1.00  0.00    -0.109 OA 
BRANCH  15  16
HETATM   16  C   UNL     1      -8.203  12.239  66.691  1.00  0.00     0.025 C  
BRANCH  16  17
HETATM   17  C   UNL     1      -8.775  13.322  67.593  1.00  0.00    -0.195 C  
HETATM   18  O   UNL     1      -7.794  14.338  67.817  1.00  0.00    -0.135 OA 
HETATM   19  C   UNL     1      -8.504  15.518  68.198  1.00  0.00    -0.147 C  
HETATM   20  H   UNL     1     -11.977  13.770  67.160  1.00  0.00     0.000 HD 
HETATM   21  C   UNL     1      -9.894  15.441  67.532  1.00  0.00    -0.217 C  
HETATM   22  H   UNL     1     -11.823  15.723  68.022  1.00  0.00     0.000 HD 
HETATM   23  C   UNL     1     -10.016  14.000  67.044  1.00  0.00    -0.257 C  
HETATM   24  O   UNL     1     -10.967  15.770  68.431  1.00  0.00    -0.290 OA 
HETATM   25  O   UNL     1     -11.199  13.345  67.503  1.00  0.00    -0.266 OA 
BRANCH  19  26
HETATM   26  N   UNL     1      -7.727  16.713  67.862  1.00  0.00    -0.159 N  
HETATM   27  C   UNL     1      -8.071  17.517  66.801  1.00  0.00    -0.244 C  
HETATM   28  C   UNL     1      -7.306  18.539  66.434  1.00  0.00    -0.277 C  
HETATM   29  C   UNL     1      -6.079  18.738  67.226  1.00  0.00    -0.170 C  
HETATM   30  N   UNL     1      -5.744  17.988  68.230  1.00  0.00    -0.160 N  
HETATM   31  N   UNL     1      -5.225  19.753  66.892  1.00  0.00    -0.161 NA 
HETATM   32  H   UNL     1      -4.888  18.180  68.750  1.00  0.00     0.000 HD 
HETATM   33  C   UNL     1      -6.551  16.931  68.590  1.00  0.00    -0.173 C  
HETATM   34  H1  UNL     1      -4.375  19.891  67.439  1.00  0.00     0.000 HD 
HETATM   35  H2  UNL     1      -5.435  20.366  66.103  1.00  0.00     0.000 HD 
HETATM   36  O   UNL     1      -6.246  16.191  69.529  1.00  0.00    -0.159 OA 
ENDBRANCH  19  26
ENDBRANCH  16  17
ENDBRANCH  15  16
ENDBRANCH  12  15
ENDBRANCH  11  12
ENDBRANCH   8  11
ENDBRANCH   7   8
ENDBRANCH   6   7
ENDBRANCH   5   6
ENDBRANCH   2   5
TORSDOF 10
ENDMDL
MODEL      315
REMARK 921   NORMALIZED FREE ENERGY PREDICTED BY IDOCK:   -0.30 KCAL/MOL
REMARK 922        TOTAL FREE ENERGY PREDICTED BY IDOCK:   -1.40 KCAL/MOL
REMARK 923 INTER-LIGAND FREE ENERGY PREDICTED BY IDOCK:   -5.05 KCAL/MOL
REMARK 924 INTRA-LIGAND FREE ENERGY PREDICTED BY IDOCK:    3.65 KCAL/MOL
REMARK 927      BINDING AFFINITY PREDICTED BY RF-SCORE:    0.00 PKD
ROOT
HETATM    1  C   UNL     1     -10.332  13.201  64.280  1.00  0.00    -0.339 C  
HETATM    2  N   UNL     1     -11.436  14.191  64.585  1.00  0.00    -0.378 N  
HETATM    3  C   UNL     1     -12.475  14.184  63.476  1.00  0.00     0.331 C  
HETATM    4  C   UNL     1     -12.129  13.775  65.894  1.00  0.00    -0.433 C  
ENDROOT
BRANCH   2   5
HETATM    5  C   UNL     1     -10.786  15.590  64.727  1.00  0.00    -0.363 C  
BRANCH   5   6
HETATM    6  C   UNL     1      -9.453  15.601  65.452  1.00  0.00     0.018 C  
BRANCH   6   7
HETATM    7  O   UNL     1      -9.542  16.440  66.586  1.00  0.00    -0.232 OA 
BRANCH   7   8
HETATM    8  P   UNL     1      -8.783  15.681  67.943  1.00  0.00    -0.170 P  
HETATM    9  O   UNL     1      -8.235  14.625  66.991  1.00  0.00    -0.206 OA 
HETATM   10  O   UNL     1     -10.176  15.499  68.558  1.00  0.00    -0.209 OA 
BRANCH   8  11
HETATM   11  O   UNL     1      -8.024  14.922  69.300  1.00  0.00    -0.176 OA 
BRANCH  11  12
HETATM   12  P   UNL     1      -7.907  13.220  69.017  1.00  0.00     0.447 P  
HETATM   13  O   UNL     1      -9.283  13.313  68.115  1.00  0.00    -0.203 OA 
HETATM   14  O   UNL     1      -6.797  13.507  67.984  1.00  0.00    -0.101 OA 
BRANCH  12  15
HETATM   15  O   UNL     1      -7.792  11.517  68.733  1.00  0.00    -0.140 OA 
BRANCH  15  16
HETATM   16  C   UNL     1      -8.099  10.677  69.863  1.00  0.00     0.286 C  
BRANCH  16  17
HETATM   17  C   UNL     1      -9.421   9.937  69.726  1.00  0.00    -0.226 C  
HETATM   18  O   UNL     1      -9.565   9.439  68.394  1.00  0.00    -0.144 OA 
HETATM   19  C   UNL     1     -10.503   8.363  68.456  1.00  0.00    -0.164 C  
HETATM   20  H   UNL     1     -10.317   8.427  72.475  1.00  0.00     0.000 HD 
HETATM   21  C   UNL     1     -10.390   7.749  69.867  1.00  0.00    -0.223 C  
HETATM   22  H   UNL     1     -11.597   7.133  71.350  1.00  0.00     0.000 HD 
HETATM   23  C   UNL     1      -9.578   8.761  70.671  1.00  0.00    -0.199 C  
HETATM   24  O   UNL     1     -11.667   7.511  70.481  1.00  0.00    -0.254 OA 
HETATM   25  O   UNL     1     -10.219   9.163  71.883  1.00  0.00    -0.332 OA 
BRANCH  19  26
HETATM   26  N   UNL     1     -10.276   7.423  67.355  1.00  0.00    -0.220 N  
HETATM   27  C   UNL     1     -10.886   6.191  67.330  1.00  0.00    -0.352 C  
HETATM   28  C   UNL     1     -10.598   5.300  66.387  1.00  0.00    -0.338 C  
HETATM   29  C   UNL     1      -9.589   5.717  65.397  1.00  0.00     0.277 C  
HETATM   30  N   UNL     1      -9.009   6.877  65.409  1.00  0.00    -0.368 N  
HETATM   31  N   UNL     1      -9.219   4.843  64.411  1.00  0.00    -0.340 NA 
HETATM   32  H   UNL     1      -8.326   7.116  64.690  1.00  0.00     0.000 HD 
HETATM   33  C   UNL     1      -9.320   7.784  66.399  1.00  0.00    -0.181 C  
HETATM   34  H1  UNL     1      -8.521   5.131  63.726  1.00  0.00     0.000 HD 
HETATM   35  H2  UNL     1      -9.636   3.914  64.362  1.00  0.00     0.000 HD 
HETATM   36  O   UNL     1      -8.769   8.887  66.445  1.00  0.00    -0.120 OA 
ENDBRANCH  19  26
ENDBRANCH  16  17
ENDBRANCH  15  16
ENDBRANCH  12  15
ENDBRANCH  11  12
ENDBRANCH   8  11
ENDBRANCH   7   8
ENDBRANCH   6   7
ENDBRANCH   5   6
ENDBRANCH   2   5
TORSDOF 10
ENDMDL
MODEL      316
REMARK 921   NORMALIZED FREE ENERGY PREDICTED BY IDOCK:   -0.20 KCAL/MOL
REMARK 922        TOTAL FREE ENERGY PREDICTED BY IDOCK:   -1.24 KCAL/MOL
REMARK 923 INTER-LIGAND FREE ENERGY PREDICTED BY IDOCK:   -4.10 KCAL/MOL
REMARK 924 INTRA-LIGAND FREE ENERGY PREDICTED BY IDOCK:    2.85 KCAL/MOL
REMARK 927      BINDING AFFINITY PREDICTED BY RF-SCORE:    0.00 PKD
ROOT
HETATM    1  C   UNL     1      -6.098   6.499  66.161  1.00  0.00    -0.033 C  
HETATM    2  N   UNL     1      -6.551   5.288  66.947  1.00  0.00    -0.051 N  
HETATM    3  C   UNL     1      -7.605   4.516  66.172  1.00  0.00    -0.090 C  
HETATM    4  C   UNL     1      -5.345   4.360  67.169  1.00  0.00    -0.012 C  
ENDROOT
BRANCH   2   5
HETATM    5  C   UNL     1      -7.115   5.789  68.300  1.00  0.00    -0.074 C  
BRANCH   5   6
HETATM    6  C   UNL     1      -6.843   4.875  69.481  1.00  0.00    -0.053 C  
BRANCH   6   7
HETATM    7  O   UNL     1      -8.010   4.770  70.271  1.00  0.00    -0.066 OA 
BRANCH   7   8
HETATM    8  P   UNL     1      -8.575   6.348  70.701  1.00  0.00    -0.140 P  
HETATM    9  O   UNL     1      -9.445   6.330  69.451  1.00  0.00    -0.139 OA 
HETATM   10  O   UNL     1      -7.125   6.838  70.611  1.00  0.00    -0.065 OA 
BRANCH   8  11
HETATM   11  O   UNL     1      -9.140   7.925  71.132  1.00  0.00    -0.139 OA 
BRANCH  11  12
HETATM   12  P   UNL     1     -10.090   8.570  69.838  1.00  0.00    -0.205 P  
HETATM   13  O   UNL     1     -11.319   7.572  70.292  1.00  0.00    -0.268 OA 
HETATM   14  O   UNL     1     -10.332   9.830  70.695  1.00  0.00    -0.289 OA 
BRANCH  12  15
HETATM   15  O   UNL     1     -11.041   9.214  68.543  1.00  0.00    -0.015 OA 
BRANCH  15  16
HETATM   16  C   UNL     1     -10.429   9.164  67.239  1.00  0.00    -0.265 C  
BRANCH  16  17
HETATM   17  C   UNL     1     -10.053  10.532  66.694  1.00  0.00    -0.222 C  
HETATM   18  O   UNL     1     -10.907  11.533  67.255  1.00  0.00    -0.227 OA 
HETATM   19  C   UNL     1     -10.215  12.777  67.139  1.00  0.00    -0.233 C  
HETATM   20  H   UNL     1      -6.861  10.819  66.085  1.00  0.00     0.000 HD 
HETATM   21  C   UNL     1      -8.706  12.457  67.173  1.00  0.00    -0.195 C  
HETATM   22  H   UNL     1      -7.033  12.950  66.176  1.00  0.00     0.000 HD 
HETATM   23  C   UNL     1      -8.621  10.945  66.978  1.00  0.00    -0.136 C  
HETATM   24  O   UNL     1      -7.962  13.147  66.155  1.00  0.00     1.029 OA 
HETATM   25  O   UNL     1      -7.758  10.561  65.907  1.00  0.00    -0.141 OA 
BRANCH  19  26
HETATM   26  N   UNL     1     -10.669  13.712  68.171  1.00  0.00    -0.242 N  
HETATM   27  C   UNL     1     -11.940  13.642  68.693  1.00  0.00    -0.360 C  
HETATM   28  C   UNL     1     -12.383  14.554  69.550  1.00  0.00    -0.247 C  
HETATM   29  C   UNL     1     -11.437  15.633  69.886  1.00  0.00    -0.338 C  
HETATM   30  N   UNL     1     -10.235  15.709  69.403  1.00  0.00    -0.242 N  
HETATM   31  N   UNL     1     -11.830  16.626  70.741  1.00  0.00    -0.263 NA 
HETATM   32  H   UNL     1      -9.619  16.472  69.681  1.00  0.00     0.000 HD 
HETATM   33  C   UNL     1      -9.797  14.754  68.512  1.00  0.00    -0.218 C  
HETATM   34  H1  UNL     1     -11.176  17.372  70.974  1.00  0.00     0.000 HD 
HETATM   35  H2  UNL     1     -12.769  16.620  71.142  1.00  0.00     0.000 HD 
HETATM   36  O   UNL     1      -8.667  14.813  68.022  1.00  0.00    -0.158 OA 
ENDBRANCH  19  26
ENDBRANCH  16  17
ENDBRANCH  15  16
ENDBRANCH  12  15
ENDBRANCH  11  12
ENDBRANCH   8  11
ENDBRANCH   7   8
ENDBRANCH   6   7
ENDBRANCH   5   6
ENDBRANCH   2   5
TORSDOF 10
ENDMDL
MODEL      317
REMARK 921   NORMALIZED FREE ENERGY PREDICTED BY IDOCK:   -0.02 KCAL/MOL
REMARK 922        TOTAL FREE ENERGY PREDICTED BY IDOCK:   -0.96 KCAL/MOL
REMARK 923 INTER-LIGAND FREE ENERGY PREDICTED BY IDOCK:   -3.38 KCAL/MOL
REMARK 924 INTRA-LIGAND FREE ENERGY PREDICTED BY IDOCK:    2.43 KCAL/MOL
REMARK 927      BINDING AFFINITY PREDICTED BY RF-SCORE:    0.00 PKD
ROOT
HETATM    1  C   UNL     1     -11.758  15.240  70.994  1.00  0.00    -0.348 C  
HETATM    2  N   UNL     1     -11.320  15.406  69.554  1.00  0.00    -0.278 N  
HETATM    3  C   UNL     1     -12.528  15.435  68.633  1.00  0.00     0.398 C  
HETATM    4  C   UNL     1     -10.577  16.745  69.412  1.00  0.00    -0.318 C  
ENDROOT
BRANCH   2   5
HETATM    5  C   UNL     1     -10.387  14.220  69.208  1.00  0.00    -0.057 C  
BRANCH   5   6
HETATM    6  C   UNL     1      -9.342  14.521  68.148  1.00  0.00    -0.197 C  
BRANCH   6   7
HETATM    7  O   UNL     1      -8.909  13.311  67.558  1.00  0.00    -0.184 OA 
BRANCH   7   8
HETATM    8  P   UNL     1     -10.193  12.152  67.582  1.00  0.00    -0.205 P  
HETATM    9  O   UNL     1     -10.908  12.984  66.525  1.00  0.00    -0.275 OA 
HETATM   10  O   UNL     1     -10.393  12.476  69.067  1.00  0.00    -0.098 OA 
BRANCH   8  11
HETATM   11  O   UNL     1     -11.476  10.991  67.606  1.00  0.00    -0.445 OA 
BRANCH  11  12
HETATM   12  P   UNL     1     -10.970   9.591  68.485  1.00  0.00     0.100 P  
HETATM   13  O   UNL     1     -11.252   8.688  67.136  1.00  0.00     0.264 OA 
HETATM   14  O   UNL     1      -9.508  10.048  68.295  1.00  0.00    -0.138 OA 
BRANCH  12  15
HETATM   15  O   UNL     1     -10.463   8.188  69.363  1.00  0.00    -0.220 OA 
BRANCH  15  16
HETATM   16  C   UNL     1      -9.288   8.358  70.179  1.00  0.00    -0.163 C  
BRANCH  16  17
HETATM   17  C   UNL     1      -8.261   7.251  69.999  1.00  0.00    -0.132 C  
HETATM   18  O   UNL     1      -8.671   6.371  68.949  1.00  0.00    -0.125 OA 
HETATM   19  C   UNL     1      -7.494   5.709  68.484  1.00  0.00    -0.080 C  
HETATM   20  H   UNL     1      -5.216   8.234  70.636  1.00  0.00     0.000 HD 
HETATM   21  C   UNL     1      -6.309   6.667  68.734  1.00  0.00    -0.035 C  
HETATM   22  H   UNL     1      -4.446   6.604  69.482  1.00  0.00     0.000 HD 
HETATM   23  C   UNL     1      -6.866   7.744  69.662  1.00  0.00    -0.043 C  
HETATM   24  O   UNL     1      -5.175   6.014  69.328  1.00  0.00    -0.004 OA 
HETATM   25  O   UNL     1      -6.089   7.925  70.846  1.00  0.00    -0.034 OA 
BRANCH  19  26
HETATM   26  N   UNL     1      -7.660   5.288  67.091  1.00  0.00    -0.091 N  
HETATM   27  C   UNL     1      -7.168   6.042  66.051  1.00  0.00    -0.075 C  
HETATM   28  C   UNL     1      -7.411   5.713  64.787  1.00  0.00    -0.079 C  
HETATM   29  C   UNL     1      -8.240   4.511  64.585  1.00  0.00    -0.109 C  
HETATM   30  N   UNL     1      -8.708   3.790  65.557  1.00  0.00    -0.115 N  
HETATM   31  N   UNL     1      -8.558   4.124  63.311  1.00  0.00    -0.098 NA 
HETATM   32  H   UNL     1      -9.266   2.961  65.357  1.00  0.00     0.000 HD 
HETATM   33  C   UNL     1      -8.447   4.153  66.860  1.00  0.00    -0.100 C  
HETATM   34  H1  UNL     1      -9.131   3.293  63.171  1.00  0.00     0.000 HD 
HETATM   35  H2  UNL     1      -8.225   4.662  62.511  1.00  0.00     0.000 HD 
HETATM   36  O   UNL     1      -8.895   3.496  67.804  1.00  0.00    -0.102 OA 
ENDBRANCH  19  26
ENDBRANCH  16  17
ENDBRANCH  15  16
ENDBRANCH  12  15
ENDBRANCH  11  12
ENDBRANCH   8  11
ENDBRANCH   7   8
ENDBRANCH   6   7
ENDBRANCH   5   6
ENDBRANCH   2   5
TORSDOF 10
ENDMDL
MODEL      318
REMARK 921   NORMALIZED FREE ENERGY PREDICTED BY IDOCK:    0.14 KCAL/MOL
REMARK 922        TOTAL FREE ENERGY PREDICTED BY IDOCK:   -0.72 KCAL/MOL
REMARK 923 INTER-LIGAND FREE ENERGY PREDICTED BY IDOCK:   -3.84 KCAL/MOL
REMARK 924 INTRA-LIGAND FREE ENERGY PREDICTED BY IDOCK:    3.12 KCAL/MOL
REMARK 927      BINDING AFFINITY PREDICTED BY RF-SCORE:    0.00 PKD
ROOT
HETATM    1  C   UNL     1      -9.963  15.151  70.114  1.00  0.00     0.050 C  
HETATM    2  N   UNL     1     -11.327  15.790  70.266  1.00  0.00    -0.329 N  
HETATM    3  C   UNL     1     -12.415  14.729  70.242  1.00  0.00    -0.340 C  
HETATM    4  C   UNL     1     -11.390  16.509  71.624  1.00  0.00     0.106 C  
ENDROOT
BRANCH   2   5
HETATM    5  C   UNL     1     -11.508  16.796  69.103  1.00  0.00     0.204 C  
BRANCH   5   6
HETATM    6  C   UNL     1     -11.198  16.237  67.725  1.00  0.00    -0.163 C  
BRANCH   6   7
HETATM    7  O   UNL     1     -10.266  15.181  67.846  1.00  0.00    -0.229 OA 
BRANCH   7   8
HETATM    8  P   UNL     1     -10.635  13.936  66.702  1.00  0.00    -0.278 P  
HETATM    9  O   UNL     1     -11.588  13.335  67.728  1.00  0.00    -0.300 OA 
HETATM   10  O   UNL     1      -9.153  13.546  66.722  1.00  0.00    -0.243 OA 
BRANCH   8  11
HETATM   11  O   UNL     1     -11.005  12.692  65.557  1.00  0.00    -0.270 OA 
BRANCH  11  12
HETATM   12  P   UNL     1      -9.696  11.564  65.490  1.00  0.00    -0.217 P  
HETATM   13  O   UNL     1      -9.916  11.270  67.096  1.00  0.00    -0.188 OA 
HETATM   14  O   UNL     1     -10.651  10.554  64.820  1.00  0.00    -0.253 OA 
BRANCH  12  15
HETATM   15  O   UNL     1      -8.386  10.435  65.425  1.00  0.00    -0.157 OA 
BRANCH  15  16
HETATM   16  C   UNL     1      -8.230   9.598  66.587  1.00  0.00    -0.120 C  
BRANCH  16  17
HETATM   17  C   UNL     1      -9.014   8.297  66.506  1.00  0.00    -0.156 C  
HETATM   18  O   UNL     1      -8.118   7.197  66.329  1.00  0.00    -0.109 OA 
HETATM   19  C   UNL     1      -8.810   6.028  66.773  1.00  0.00    -0.120 C  
HETATM   20  H   UNL     1     -11.714   8.332  68.337  1.00  0.00     0.000 HD 
HETATM   21  C   UNL     1      -9.814   6.482  67.853  1.00  0.00    -0.123 C  
HETATM   22  H   UNL     1     -11.741   6.192  68.343  1.00  0.00     0.000 HD 
HETATM   23  C   UNL     1      -9.861   8.003  67.730  1.00  0.00    -0.165 C  
HETATM   24  O   UNL     1     -11.122   5.913  67.678  1.00  0.00    -0.243 OA 
HETATM   25  O   UNL     1     -11.184   8.516  67.571  1.00  0.00     0.218 OA 
BRANCH  19  26
HETATM   26  N   UNL     1      -7.856   5.005  67.210  1.00  0.00    -0.095 N  
HETATM   27  C   UNL     1      -8.146   3.665  67.105  1.00  0.00    -0.091 C  
HETATM   28  C   UNL     1      -7.327   2.743  67.598  1.00  0.00    -0.053 C  
HETATM   29  C   UNL     1      -6.113   3.252  68.262  1.00  0.00    -0.031 C  
HETATM   30  N   UNL     1      -5.828   4.513  68.365  1.00  0.00    -0.024 N  
HETATM   31  N   UNL     1      -5.234   2.365  68.820  1.00  0.00    -0.012 NA 
HETATM   32  H   UNL     1      -4.966   4.808  68.825  1.00  0.00     0.000 HD 
HETATM   33  C   UNL     1      -6.694   5.453  67.850  1.00  0.00    -0.055 C  
HETATM   34  H1  UNL     1      -4.395   2.716  69.280  1.00  0.00     0.000 HD 
HETATM   35  H2  UNL     1      -5.416   1.362  68.777  1.00  0.00     0.000 HD 
HETATM   36  O   UNL     1      -6.456   6.659  67.951  1.00  0.00    -0.051 OA 
ENDBRANCH  19  26
ENDBRANCH  16  17
ENDBRANCH  15  16
ENDBRANCH  12  15
ENDBRANCH  11  12
ENDBRANCH   8  11
ENDBRANCH   7   8
ENDBRANCH   6   7
ENDBRANCH   5   6
ENDBRANCH   2   5
TORSDOF 10
ENDMDL
MODEL      319
REMARK 921   NORMALIZED FREE ENERGY PREDICTED BY IDOCK:    0.23 KCAL/MOL
REMARK 922        TOTAL FREE ENERGY PREDICTED BY IDOCK:   -0.57 KCAL/MOL
REMARK 923 INTER-LIGAND FREE ENERGY PREDICTED BY IDOCK:   -5.36 KCAL/MOL
REMARK 924 INTRA-LIGAND FREE ENERGY PREDICTED BY IDOCK:    4.79 KCAL/MOL
REMARK 927      BINDING AFFINITY PREDICTED BY RF-SCORE:    0.00 PKD
ROOT
HETATM    1  C   UNL     1      -5.954  14.330  70.947  1.00  0.00    -0.200 C  
HETATM    2  N   UNL     1      -6.255  15.059  69.654  1.00  0.00    -0.123 N  
HETATM    3  C   UNL     1      -5.159  14.804  68.634  1.00  0.00    -0.096 C  
HETATM    4  C   UNL     1      -7.578  14.524  69.079  1.00  0.00    -0.124 C  
ENDROOT
BRANCH   2   5
HETATM    5  C   UNL     1      -6.369  16.568  69.981  1.00  0.00    -0.015 C  
BRANCH   5   6
HETATM    6  C   UNL     1      -7.075  17.397  68.923  1.00  0.00    -0.251 C  
BRANCH   6   7
HETATM    7  O   UNL     1      -7.301  16.601  67.777  1.00  0.00    -0.141 OA 
BRANCH   7   8
HETATM    8  P   UNL     1      -8.582  17.278  66.832  1.00  0.00    -0.268 P  
HETATM    9  O   UNL     1      -9.566  16.770  67.878  1.00  0.00    -0.230 OA 
HETATM   10  O   UNL     1      -8.154  16.359  65.682  1.00  0.00     0.080 OA 
BRANCH   8  11
HETATM   11  O   UNL     1      -9.863  17.956  65.887  1.00  0.00    -0.529 OA 
BRANCH  11  12
HETATM   12  P   UNL     1     -10.772  16.683  65.150  1.00  0.00     0.144 P  
HETATM   13  O   UNL     1      -9.654  15.611  65.711  1.00  0.00    -0.332 OA 
HETATM   14  O   UNL     1     -11.777  16.777  66.318  1.00  0.00     1.082 OA 
BRANCH  12  15
HETATM   15  O   UNL     1     -11.681  15.408  64.413  1.00  0.00    -0.387 OA 
BRANCH  15  16
HETATM   16  C   UNL     1     -12.822  14.946  65.162  1.00  0.00     0.296 C  
BRANCH  16  17
HETATM   17  C   UNL     1     -12.630  13.565  65.769  1.00  0.00    -0.434 C  
HETATM   18  O   UNL     1     -12.143  12.659  64.776  1.00  0.00    -0.387 OA 
HETATM   19  C   UNL     1     -11.507  11.587  65.474  1.00  0.00    -0.004 C  
HETATM   20  H   UNL     1     -11.740  13.675  68.906  1.00  0.00     0.000 HD 
HETATM   21  C   UNL     1     -10.982  12.165  66.805  1.00  0.00    -0.280 C  
HETATM   22  H   UNL     1     -10.959  11.688  68.756  1.00  0.00     0.000 HD 
HETATM   23  C   UNL     1     -11.660  13.526  66.935  1.00  0.00    -0.363 C  
HETATM   24  O   UNL     1     -11.282  11.332  67.936  1.00  0.00    -0.244 OA 
HETATM   25  O   UNL     1     -12.347  13.699  68.175  1.00  0.00    -0.233 OA 
BRANCH  19  26
HETATM   26  N   UNL     1     -10.486  10.962  64.629  1.00  0.00    -0.337 N  
HETATM   27  C   UNL     1     -10.247  11.404  63.348  1.00  0.00    -0.411 C  
HETATM   28  C   UNL     1      -9.397  10.770  62.549  1.00  0.00    -0.310 C  
HETATM   29  C   UNL     1      -8.749   9.575  63.119  1.00  0.00    -0.226 C  
HETATM   30  N   UNL     1      -8.964   9.150  64.326  1.00  0.00    -0.418 N  
HETATM   31  N   UNL     1      -7.881   8.852  62.347  1.00  0.00    -0.122 NA 
HETATM   32  H   UNL     1      -8.478   8.323  64.672  1.00  0.00     0.000 HD 
HETATM   33  C   UNL     1      -9.854   9.821  65.136  1.00  0.00    -0.224 C  
HETATM   34  H1  UNL     1      -7.433   8.025  62.741  1.00  0.00     0.000 HD 
HETATM   35  H2  UNL     1      -7.685   9.137  61.387  1.00  0.00     0.000 HD 
HETATM   36  O   UNL     1     -10.091   9.427  66.281  1.00  0.00    -0.276 OA 
ENDBRANCH  19  26
ENDBRANCH  16  17
ENDBRANCH  15  16
ENDBRANCH  12  15
ENDBRANCH  11  12
ENDBRANCH   8  11
ENDBRANCH   7   8
ENDBRANCH   6   7
ENDBRANCH   5   6
ENDBRANCH   2   5
TORSDOF 10
ENDMDL
MODEL      320
REMARK 921   NORMALIZED FREE ENERGY PREDICTED BY IDOCK:    0.60 KCAL/MOL
REMARK 922        TOTAL FREE ENERGY PREDICTED BY IDOCK:    0.02 KCAL/MOL
REMARK 923 INTER-LIGAND FREE ENERGY PREDICTED BY IDOCK:   -3.17 KCAL/MOL
REMARK 924 INTRA-LIGAND FREE ENERGY PREDICTED BY IDOCK:    3.19 KCAL/MOL
REMARK 927      BINDING AFFINITY PREDICTED BY RF-SCORE:    0.00 PKD
ROOT
HETATM    1  C   UNL     1     -10.521  14.228  70.025  1.00  0.00     0.454 C  
HETATM    2  N   UNL     1     -10.798  14.265  68.538  1.00  0.00    -0.245 N  
HETATM    3  C   UNL     1     -12.290  14.155  68.274  1.00  0.00     0.008 C  
HETATM    4  C   UNL     1     -10.309  15.610  67.974  1.00  0.00    -0.246 C  
ENDROOT
BRANCH   2   5
HETATM    5  C   UNL     1     -10.033  13.086  67.888  1.00  0.00    -0.230 C  
BRANCH   5   6
HETATM    6  C   UNL     1      -9.697  13.278  66.420  1.00  0.00    -0.276 C  
BRANCH   6   7
HETATM    7  O   UNL     1      -9.703  12.023  65.769  1.00  0.00    -0.240 OA 
BRANCH   7   8
HETATM    8  P   UNL     1     -10.568  10.868  66.724  1.00  0.00    -0.219 P  
HETATM    9  O   UNL     1     -11.862  11.561  66.314  1.00  0.00    -0.354 OA 
HETATM   10  O   UNL     1      -9.792  11.371  67.946  1.00  0.00    -0.171 OA 
BRANCH   8  11
HETATM   11  O   UNL     1     -11.433   9.713  67.679  1.00  0.00     0.106 OA 
BRANCH  11  12
HETATM   12  P   UNL     1     -10.411   8.357  68.008  1.00  0.00    -0.158 P  
HETATM   13  O   UNL     1     -11.500   7.394  67.235  1.00  0.00     0.243 OA 
HETATM   14  O   UNL     1      -9.487   8.824  66.863  1.00  0.00    -0.155 OA 
BRANCH  12  15
HETATM   15  O   UNL     1      -9.389   7.000  68.338  1.00  0.00    -0.132 OA 
BRANCH  15  16
HETATM   16  C   UNL     1      -7.980   7.218  68.125  1.00  0.00    -0.123 C  
BRANCH  16  17
HETATM   17  C   UNL     1      -7.269   6.023  67.511  1.00  0.00    -0.076 C  
HETATM   18  O   UNL     1      -8.212   4.987  67.226  1.00  0.00    -0.106 OA 
HETATM   19  C   UNL     1      -7.623   4.158  66.223  1.00  0.00    -0.089 C  
HETATM   20  H   UNL     1      -4.706   6.877  65.682  1.00  0.00     0.000 HD 
HETATM   21  C   UNL     1      -6.671   5.053  65.401  1.00  0.00    -0.052 C  
HETATM   22  H   UNL     1      -4.804   4.998  64.663  1.00  0.00     0.000 HD 
HETATM   23  C   UNL     1      -6.528   6.331  66.223  1.00  0.00    -0.047 C  
HETATM   24  O   UNL     1      -5.389   4.447  65.169  1.00  0.00    -0.012 OA 
HETATM   25  O   UNL     1      -5.170   6.684  66.488  1.00  0.00    -0.015 OA 
BRANCH  19  26
HETATM   26  N   UNL     1      -8.662   3.484  65.441  1.00  0.00    -0.116 N  
HETATM   27  C   UNL     1      -8.589   2.139  65.162  1.00  0.00    -0.110 C  
HETATM   28  C   UNL     1      -9.476   1.552  64.366  1.00  0.00    -0.128 C  
HETATM   29  C   UNL     1     -10.516   2.432  63.805  1.00  0.00    -0.093 C  
HETATM   30  N   UNL     1     -10.596   3.702  64.061  1.00  0.00    -0.321 N  
HETATM   31  N   UNL     1     -11.449   1.907  62.953  1.00  0.00    -0.305 NA 
HETATM   32  H   UNL     1     -11.346   4.260  63.654  1.00  0.00     0.000 HD 
HETATM   33  C   UNL     1      -9.663   4.290  64.887  1.00  0.00    -0.176 C  
HETATM   34  H1  UNL     1     -12.168   2.515  62.564  1.00  0.00     0.000 HD 
HETATM   35  H2  UNL     1     -11.425   0.916  62.709  1.00  0.00     0.000 HD 
HETATM   36  O   UNL     1      -9.706   5.498  65.132  1.00  0.00     0.219 OA 
ENDBRANCH  19  26
ENDBRANCH  16  17
ENDBRANCH  15  16
ENDBRANCH  12  15
ENDBRANCH  11  12
ENDBRANCH   8  11
ENDBRANCH   7   8
ENDBRANCH   6   7
ENDBRANCH   5   6
ENDBRANCH   2   5
TORSDOF 10
ENDMDL
MODEL      321
REMARK 921   NORMALIZED FREE ENERGY PREDICTED BY IDOCK:    0.70 KCAL/MOL
REMARK 922        TOTAL FREE ENERGY PREDICTED BY IDOCK:    0.17 KCAL/MOL
REMARK 923 INTER-LIGAND FREE ENERGY PREDICTED BY IDOCK:   -2.62 KCAL/MOL
REMARK 924 INTRA-LIGAND FREE ENERGY PREDICTED BY IDOCK:    2.79 KCAL/MOL
REMARK 927      BINDING AFFINITY PREDICTED BY RF-SCORE:    0.00 PKD
ROOT
HETATM    1  C   UNL     1     -11.039   8.911  68.534  1.00  0.00     0.251 C  
HETATM    2  N   UNL     1     -11.271   9.167  70.008  1.00  0.00    -0.199 N  
HETATM    3  C   UNL     1     -12.527   9.999  70.209  1.00  0.00    -0.032 C  
HETATM    4  C   UNL     1     -11.469   7.820  70.721  1.00  0.00    -0.272 C  
ENDROOT
BRANCH   2   5
HETATM    5  C   UNL     1     -10.025   9.904  70.558  1.00  0.00    -0.098 C  
BRANCH   5   6
HETATM    6  C   UNL     1      -8.754   9.073  70.583  1.00  0.00    -0.213 C  
BRANCH   6   7
HETATM    7  O   UNL     1      -8.895   7.974  69.704  1.00  0.00    -0.139 OA 
BRANCH   7   8
HETATM    8  P   UNL     1      -7.454   7.782  68.766  1.00  0.00    -0.099 P  
HETATM    9  O   UNL     1      -6.746   7.308  70.029  1.00  0.00    -0.048 OA 
HETATM   10  O   UNL     1      -7.519   9.280  68.448  1.00  0.00    -0.077 OA 
BRANCH   8  11
HETATM   11  O   UNL     1      -6.014   7.588  67.827  1.00  0.00    -0.036 OA 
BRANCH  11  12
HETATM   12  P   UNL     1      -6.436   7.345  66.168  1.00  0.00    -0.046 P  
HETATM   13  O   UNL     1      -5.540   5.963  66.181  1.00  0.00    -0.012 OA 
HETATM   14  O   UNL     1      -7.826   6.861  66.632  1.00  0.00    -0.103 OA 
BRANCH  12  15
HETATM   15  O   UNL     1      -6.857   7.101  64.507  1.00  0.00    -0.048 OA 
BRANCH  15  16
HETATM   16  C   UNL     1      -8.147   6.501  64.276  1.00  0.00    -0.051 C  
BRANCH  16  17
HETATM   17  C   UNL     1      -8.112   4.981  64.254  1.00  0.00    -0.118 C  
HETATM   18  O   UNL     1      -7.446   4.491  65.421  1.00  0.00    -0.078 OA 
HETATM   19  C   UNL     1      -7.886   3.145  65.611  1.00  0.00    -0.085 C  
HETATM   20  H   UNL     1     -10.733   3.675  62.817  1.00  0.00     0.000 HD 
HETATM   21  C   UNL     1      -9.307   3.048  65.017  1.00  0.00    -0.142 C  
HETATM   22  H   UNL     1     -10.369   1.825  63.829  1.00  0.00     0.000 HD 
HETATM   23  C   UNL     1      -9.479   4.326  64.201  1.00  0.00    -0.134 C  
HETATM   24  O   UNL     1      -9.494   1.885  64.194  1.00  0.00    -0.125 OA 
HETATM   25  O   UNL     1      -9.877   4.085  62.851  1.00  0.00    -0.147 OA 
BRANCH  19  26
HETATM   26  N   UNL     1      -7.781   2.767  67.022  1.00  0.00    -0.070 N  
HETATM   27  C   UNL     1      -6.701   2.059  67.496  1.00  0.00    -0.039 C  
HETATM   28  C   UNL     1      -6.658   1.627  68.751  1.00  0.00    -0.029 C  
HETATM   29  C   UNL     1      -7.834   1.946  69.580  1.00  0.00    -0.042 C  
HETATM   30  N   UNL     1      -8.858   2.615  69.146  1.00  0.00    -0.086 N  
HETATM   31  N   UNL     1      -7.877   1.510  70.876  1.00  0.00    -0.035 NA 
HETATM   32  H   UNL     1      -9.639   2.818  69.769  1.00  0.00     0.000 HD 
HETATM   33  C   UNL     1      -8.883   3.050  67.839  1.00  0.00    -0.131 C  
HETATM   34  H1  UNL     1      -8.690   1.731  71.450  1.00  0.00     0.000 HD 
HETATM   35  H2  UNL     1      -7.103   0.970  71.265  1.00  0.00     0.000 HD 
HETATM   36  O   UNL     1      -9.851   3.672  67.395  1.00  0.00    -0.134 OA 
ENDBRANCH  19  26
ENDBRANCH  16  17
ENDBRANCH  15  16
ENDBRANCH  12  15
ENDBRANCH  11  12
ENDBRANCH   8  11
ENDBRANCH   7   8
ENDBRANCH   6   7
ENDBRANCH   5   6
ENDBRANCH   2   5
TORSDOF 10
ENDMDL
MODEL      322
REMARK 921   NORMALIZED FREE ENERGY PREDICTED BY IDOCK:    1.01 KCAL/MOL
REMARK 922        TOTAL FREE ENERGY PREDICTED BY IDOCK:    0.67 KCAL/MOL
REMARK 923 INTER-LIGAND FREE ENERGY PREDICTED BY IDOCK:   -1.21 KCAL/MOL
REMARK 924 INTRA-LIGAND FREE ENERGY PREDICTED BY IDOCK:    1.89 KCAL/MOL
REMARK 927      BINDING AFFINITY PREDICTED BY RF-SCORE:    0.00 PKD
ROOT
HETATM    1  C   UNL     1     -11.957   9.616  69.316  1.00  0.00     0.686 C  
HETATM    2  N   UNL     1     -12.513   9.421  70.710  1.00  0.00    -0.153 N  
HETATM    3  C   UNL     1     -13.795  10.218  70.886  1.00  0.00     0.520 C  
HETATM    4  C   UNL     1     -12.844   7.932  70.909  1.00  0.00     0.101 C  
ENDROOT
BRANCH   2   5
HETATM    5  C   UNL     1     -11.431   9.883  71.717  1.00  0.00     0.073 C  
BRANCH   5   6
HETATM    6  C   UNL     1     -10.178   9.027  71.741  1.00  0.00    -0.319 C  
BRANCH   6   7
HETATM    7  O   UNL     1      -9.952   8.489  70.453  1.00  0.00    -0.179 OA 
BRANCH   7   8
HETATM    8  P   UNL     1      -8.258   8.491  70.103  1.00  0.00    -0.136 P  
HETATM    9  O   UNL     1      -8.539   7.539  68.947  1.00  0.00    -0.129 OA 
HETATM   10  O   UNL     1      -8.016   7.928  71.508  1.00  0.00    -0.090 OA 
BRANCH   8  11
HETATM   11  O   UNL     1      -6.563   8.494  69.752  1.00  0.00    -0.038 OA 
BRANCH  11  12
HETATM   12  P   UNL     1      -5.874  10.000  70.251  1.00  0.00    -0.085 P  
HETATM   13  O   UNL     1      -5.466  10.290  68.681  1.00  0.00    -0.039 OA 
HETATM   14  O   UNL     1      -7.303  10.576  70.349  1.00  0.00    -0.205 OA 
BRANCH  12  15
HETATM   15  O   UNL     1      -5.185  11.506  70.748  1.00  0.00    -0.107 OA 
BRANCH  15  16
HETATM   16  C   UNL     1      -6.099  12.618  70.808  1.00  0.00     0.297 C  
BRANCH  16  17
HETATM   17  C   UNL     1      -6.264  13.338  69.478  1.00  0.00    -0.115 C  
HETATM   18  O   UNL     1      -6.543  12.393  68.443  1.00  0.00    -0.056 OA 
HETATM   19  C   UNL     1      -7.182  13.114  67.388  1.00  0.00    -0.110 C  
HETATM   20  H   UNL     1      -7.570  16.311  69.802  1.00  0.00     0.000 HD 
HETATM   21  C   UNL     1      -7.923  14.301  68.039  1.00  0.00    -0.142 C  
HETATM   22  H   UNL     1      -8.168  16.274  67.747  1.00  0.00     0.000 HD 
HETATM   23  C   UNL     1      -7.375  14.372  69.462  1.00  0.00    -0.011 C  
HETATM   24  O   UNL     1      -7.713  15.543  67.347  1.00  0.00    -0.157 OA 
HETATM   25  O   UNL     1      -6.875  15.663  69.812  1.00  0.00    -0.183 OA 
BRANCH  19  26
HETATM   26  N   UNL     1      -8.030  12.219  66.597  1.00  0.00     0.015 N  
HETATM   27  C   UNL     1      -9.402  12.253  66.702  1.00  0.00    -0.228 C  
HETATM   28  C   UNL     1     -10.163  11.372  66.064  1.00  0.00    -0.289 C  
HETATM   29  C   UNL     1      -9.445  10.366  65.261  1.00  0.00    -0.237 C  
HETATM   30  N   UNL     1      -8.153  10.324  65.153  1.00  0.00    -0.149 N  
HETATM   31  N   UNL     1     -10.159   9.406  64.598  1.00  0.00    -0.026 NA 
HETATM   32  H   UNL     1      -7.710   9.612  64.572  1.00  0.00     0.000 HD 
HETATM   33  C   UNL     1      -7.382  11.246  65.827  1.00  0.00     0.295 C  
HETATM   34  H1  UNL     1      -9.663   8.709  64.042  1.00  0.00     0.000 HD 
HETATM   35  H2  UNL     1     -11.177   9.386  64.658  1.00  0.00     0.000 HD 
HETATM   36  O   UNL     1      -6.151  11.217  65.756  1.00  0.00    -0.020 OA 
ENDBRANCH  19  26
ENDBRANCH  16  17
ENDBRANCH  15  16
ENDBRANCH  12  15
ENDBRANCH  11  12
ENDBRANCH   8  11
ENDBRANCH   7   8
ENDBRANCH   6   7
ENDBRANCH   5   6
ENDBRANCH   2   5
TORSDOF 10
ENDMDL
MODEL      323
REMARK 921   NORMALIZED FREE ENERGY PREDICTED BY IDOCK:    1.25 KCAL/MOL
REMARK 922        TOTAL FREE ENERGY PREDICTED BY IDOCK:    1.05 KCAL/MOL
REMARK 923 INTER-LIGAND FREE ENERGY PREDICTED BY IDOCK:   -4.56 KCAL/MOL
REMARK 924 INTRA-LIGAND FREE ENERGY PREDICTED BY IDOCK:    5.61 KCAL/MOL
REMARK 927      BINDING AFFINITY PREDICTED BY RF-SCORE:    0.00 PKD
ROOT
HETATM    1  C   UNL     1      -9.012  11.806  65.798  1.00  0.00    -0.010 C  
HETATM    2  N   UNL     1      -7.931  10.749  65.716  1.00  0.00    -0.151 N  
HETATM    3  C   UNL     1      -6.966  11.064  64.586  1.00  0.00     0.731 C  
HETATM    4  C   UNL     1      -7.141  10.743  67.035  1.00  0.00    -0.104 C  
ENDROOT
BRANCH   2   5
HETATM    5  C   UNL     1      -8.626   9.384  65.485  1.00  0.00    -0.151 C  
BRANCH   5   6
HETATM    6  C   UNL     1      -8.376   8.765  64.121  1.00  0.00    -0.149 C  
BRANCH   6   7
HETATM    7  O   UNL     1      -8.596   7.370  64.192  1.00  0.00     0.187 OA 
BRANCH   7   8
HETATM    8  P   UNL     1      -7.966   6.748  65.678  1.00  0.00    -0.127 P  
HETATM    9  O   UNL     1      -8.020   5.353  65.068  1.00  0.00    -0.098 OA 
HETATM   10  O   UNL     1      -9.202   7.317  66.384  1.00  0.00    -0.165 OA 
BRANCH   8  11
HETATM   11  O   UNL     1      -7.334   6.127  67.164  1.00  0.00    -0.074 OA 
BRANCH  11  12
HETATM   12  P   UNL     1      -8.142   6.881  68.494  1.00  0.00    -0.121 P  
HETATM   13  O   UNL     1      -7.174   8.198  68.287  1.00  0.00    -0.088 OA 
HETATM   14  O   UNL     1      -9.331   7.175  67.554  1.00  0.00    -0.124 OA 
BRANCH  12  15
HETATM   15  O   UNL     1      -8.950   7.638  69.824  1.00  0.00    -0.140 OA 
BRANCH  15  16
HETATM   16  C   UNL     1     -10.389   7.565  69.799  1.00  0.00    -0.221 C  
BRANCH  16  17
HETATM   17  C   UNL     1     -11.058   8.473  70.819  1.00  0.00    -0.254 C  
HETATM   18  O   UNL     1     -10.717   9.837  70.557  1.00  0.00    -0.275 OA 
HETATM   19  C   UNL     1     -11.731  10.639  71.164  1.00  0.00    -0.154 C  
HETATM   20  H   UNL     1     -13.958   7.349  71.803  1.00  0.00     0.000 HD 
HETATM   21  C   UNL     1     -13.026   9.798  71.172  1.00  0.00    -0.348 C  
HETATM   22  H   UNL     1     -14.508   9.317  72.439  1.00  0.00     0.000 HD 
HETATM   23  C   UNL     1     -12.572   8.379  70.839  1.00  0.00     0.065 C  
HETATM   24  O   UNL     1     -13.712   9.835  72.434  1.00  0.00    -0.376 OA 
HETATM   25  O   UNL     1     -13.010   7.408  71.791  1.00  0.00    -0.338 OA 
BRANCH  19  26
HETATM   26  N   UNL     1     -11.841  11.930  70.479  1.00  0.00    -0.264 N  
HETATM   27  C   UNL     1     -12.249  13.061  71.146  1.00  0.00    -0.042 C  
HETATM   28  C   UNL     1     -12.448  14.205  70.501  1.00  0.00    -0.431 C  
HETATM   29  C   UNL     1     -12.215  14.172  69.046  1.00  0.00    -0.239 C  
HETATM   30  N   UNL     1     -11.828  13.111  68.406  1.00  0.00    -0.350 N  
HETATM   31  N   UNL     1     -12.427  15.304  68.308  1.00  0.00    -0.208 NA 
HETATM   32  H   UNL     1     -11.670  13.149  67.400  1.00  0.00     0.000 HD 
HETATM   33  C   UNL     1     -11.631  11.934  69.095  1.00  0.00    -0.312 C  
HETATM   34  H1  UNL     1     -12.266  15.281  67.302  1.00  0.00     0.000 HD 
HETATM   35  H2  UNL     1     -12.742  16.163  68.760  1.00  0.00     0.000 HD 
HETATM   36  O   UNL     1     -11.281  10.907  68.508  1.00  0.00    -0.231 OA 
ENDBRANCH  19  26
ENDBRANCH  16  17
ENDBRANCH  15  16
ENDBRANCH  12  15
ENDBRANCH  11  12
ENDBRANCH   8  11
ENDBRANCH   7   8
ENDBRANCH   6   7
ENDBRANCH   5   6
ENDBRANCH   2   5
TORSDOF 10
ENDMDL
MODEL      324
REMARK 921   NORMALIZED FREE ENERGY PREDICTED BY IDOCK:    1.50 KCAL/MOL
REMARK 922        TOTAL FREE ENERGY PREDICTED BY IDOCK:    1.45 KCAL/MOL
REMARK 923 INTER-LIGAND FREE ENERGY PREDICTED BY IDOCK:   -4.31 KCAL/MOL
REMARK 924 INTRA-LIGAND FREE ENERGY PREDICTED BY IDOCK:    5.76 KCAL/MOL
REMARK 927      BINDING AFFINITY PREDICTED BY RF-SCORE:    0.00 PKD
ROOT
HETATM    1  C   UNL     1     -11.914  13.568  65.036  1.00  0.00    -0.372 C  
HETATM    2  N   UNL     1     -10.840  12.694  65.649  1.00  0.00    -0.269 N  
HETATM    3  C   UNL     1      -9.752  13.550  66.273  1.00  0.00    -0.277 C  
HETATM    4  C   UNL     1     -11.471  11.836  66.759  1.00  0.00    -0.281 C  
ENDROOT
BRANCH   2   5
HETATM    5  C   UNL     1     -10.264  11.799  64.523  1.00  0.00    -0.284 C  
BRANCH   5   6
HETATM    6  C   UNL     1      -9.204  10.812  64.976  1.00  0.00    -0.211 C  
BRANCH   6   7
HETATM    7  O   UNL     1      -9.640  10.160  66.152  1.00  0.00    -0.180 OA 
BRANCH   7   8
HETATM    8  P   UNL     1      -8.304   9.923  67.225  1.00  0.00    -0.121 P  
HETATM    9  O   UNL     1      -9.277   9.338  68.241  1.00  0.00    -0.132 OA 
HETATM   10  O   UNL     1      -8.066  11.437  67.186  1.00  0.00    -0.140 OA 
BRANCH   8  11
HETATM   11  O   UNL     1      -6.967   9.685  68.297  1.00  0.00    -0.072 OA 
BRANCH  11  12
HETATM   12  P   UNL     1      -6.768   7.995  68.605  1.00  0.00    -0.064 P  
HETATM   13  O   UNL     1      -5.178   8.278  68.929  1.00  0.00    -0.030 OA 
HETATM   14  O   UNL     1      -7.443   8.205  69.977  1.00  0.00    -0.063 OA 
BRANCH  12  15
HETATM   15  O   UNL     1      -6.569   6.304  68.913  1.00  0.00    -0.044 OA 
BRANCH  15  16
HETATM   16  C   UNL     1      -7.688   5.471  68.553  1.00  0.00    -0.085 C  
BRANCH  16  17
HETATM   17  C   UNL     1      -8.134   5.647  67.110  1.00  0.00    -0.102 C  
HETATM   18  O   UNL     1      -7.933   7.001  66.698  1.00  0.00    -0.104 OA 
HETATM   19  C   UNL     1      -7.863   6.992  65.271  1.00  0.00    -0.121 C  
HETATM   20  H   UNL     1      -7.658   2.973  65.303  1.00  0.00     0.000 HD 
HETATM   21  C   UNL     1      -7.315   5.610  64.856  1.00  0.00    -0.071 C  
HETATM   22  H   UNL     1      -7.718   4.161  63.524  1.00  0.00     0.000 HD 
HETATM   23  C   UNL     1      -7.407   4.757  66.119  1.00  0.00    -0.078 C  
HETATM   24  O   UNL     1      -8.055   5.012  63.779  1.00  0.00    -0.098 OA 
HETATM   25  O   UNL     1      -8.113   3.531  65.923  1.00  0.00    -0.092 OA 
BRANCH  19  26
HETATM   26  N   UNL     1      -7.081   8.133  64.789  1.00  0.00    -0.077 N  
HETATM   27  C   UNL     1      -6.302   8.879  65.643  1.00  0.00    -0.060 C  
HETATM   28  C   UNL     1      -5.678   9.974  65.226  1.00  0.00    -0.081 C  
HETATM   29  C   UNL     1      -5.886  10.332  63.811  1.00  0.00    -0.146 C  
HETATM   30  N   UNL     1      -6.617   9.636  62.995  1.00  0.00    -0.103 N  
HETATM   31  N   UNL     1      -5.299  11.463  63.314  1.00  0.00    -0.324 NA 
HETATM   32  H   UNL     1      -6.715   9.924  62.023  1.00  0.00     0.000 HD 
HETATM   33  C   UNL     1      -7.258   8.505  63.451  1.00  0.00    -0.096 C  
HETATM   34  H1  UNL     1      -5.443  11.711  62.336  1.00  0.00     0.000 HD 
HETATM   35  H2  UNL     1      -4.723  12.053  63.916  1.00  0.00     0.000 HD 
HETATM   36  O   UNL     1      -7.974   7.835  62.702  1.00  0.00    -0.129 OA 
ENDBRANCH  19  26
ENDBRANCH  16  17
ENDBRANCH  15  16
ENDBRANCH  12  15
ENDBRANCH  11  12
ENDBRANCH   8  11
ENDBRANCH   7   8
ENDBRANCH   6   7
ENDBRANCH   5   6
ENDBRANCH   2   5
TORSDOF 10
ENDMDL
MODEL      325
REMARK 921   NORMALIZED FREE ENERGY PREDICTED BY IDOCK:    1.54 KCAL/MOL
REMARK 922        TOTAL FREE ENERGY PREDICTED BY IDOCK:    1.51 KCAL/MOL
REMARK 923 INTER-LIGAND FREE ENERGY PREDICTED BY IDOCK:   -3.55 KCAL/MOL
REMARK 924 INTRA-LIGAND FREE ENERGY PREDICTED BY IDOCK:    5.06 KCAL/MOL
REMARK 927      BINDING AFFINITY PREDICTED BY RF-SCORE:    0.00 PKD
ROOT
HETATM    1  C   UNL     1      -9.970   2.972  72.215  1.00  0.00    -0.167 C  
HETATM    2  N   UNL     1     -10.120   2.667  73.690  1.00  0.00    -0.103 N  
HETATM    3  C   UNL     1     -10.406   3.939  74.469  1.00  0.00    -0.219 C  
HETATM    4  C   UNL     1     -11.309   1.710  73.882  1.00  0.00    -0.168 C  
ENDROOT
BRANCH   2   5
HETATM    5  C   UNL     1      -8.802   2.008  74.170  1.00  0.00    -0.065 C  
BRANCH   5   6
HETATM    6  C   UNL     1      -7.759   1.811  73.085  1.00  0.00    -0.037 C  
BRANCH   6   7
HETATM    7  O   UNL     1      -7.927   2.797  72.086  1.00  0.00    -0.053 OA 
BRANCH   7   8
HETATM    8  P   UNL     1      -6.591   3.896  72.112  1.00  0.00    -0.019 P  
HETATM    9  O   UNL     1      -5.889   2.953  73.082  1.00  0.00    -0.007 OA 
HETATM   10  O   UNL     1      -7.545   4.968  72.651  1.00  0.00    -0.092 OA 
BRANCH   8  11
HETATM   11  O   UNL     1      -5.254   4.995  72.137  1.00  0.00    -0.004 OA 
BRANCH  11  12
HETATM   12  P   UNL     1      -5.793   6.568  71.664  1.00  0.00    -0.037 P  
HETATM   13  O   UNL     1      -6.523   5.884  70.355  1.00  0.00    -0.033 OA 
HETATM   14  O   UNL     1      -6.883   6.481  72.753  1.00  0.00    -0.068 OA 
BRANCH  12  15
HETATM   15  O   UNL     1      -6.333   8.142  71.188  1.00  0.00    -0.034 OA 
BRANCH  15  16
HETATM   16  C   UNL     1      -7.278   8.769  72.077  1.00  0.00     0.014 C  
BRANCH  16  17
HETATM   17  C   UNL     1      -8.644   8.992  71.448  1.00  0.00    -0.108 C  
HETATM   18  O   UNL     1      -8.534   9.903  70.352  1.00  0.00    -0.145 OA 
HETATM   19  C   UNL     1      -9.667   9.676  69.512  1.00  0.00    -0.203 C  
HETATM   20  H   UNL     1     -10.553   6.350  71.597  1.00  0.00     0.000 HD 
HETATM   21  C   UNL     1     -10.074   8.199  69.694  1.00  0.00    -0.199 C  
HETATM   22  H   UNL     1     -11.739   7.113  69.987  1.00  0.00     0.000 HD 
HETATM   23  C   UNL     1      -9.304   7.729  70.926  1.00  0.00    -0.153 C  
HETATM   24  O   UNL     1     -11.488   8.023  69.875  1.00  0.00    -0.035 OA 
HETATM   25  O   UNL     1     -10.140   7.141  71.923  1.00  0.00    -0.182 OA 
BRANCH  19  26
HETATM   26  N   UNL     1      -9.368  10.067  68.132  1.00  0.00    -0.131 N  
HETATM   27  C   UNL     1      -9.745  11.294  67.638  1.00  0.00    -0.171 C  
HETATM   28  C   UNL     1      -9.566  11.605  66.359  1.00  0.00    -0.236 C  
HETATM   29  C   UNL     1      -8.958  10.555  65.522  1.00  0.00    -0.183 C  
HETATM   30  N   UNL     1      -8.596   9.395  65.977  1.00  0.00    -0.137 N  
HETATM   31  N   UNL     1      -8.768  10.790  64.188  1.00  0.00    -0.328 NA 
HETATM   32  H   UNL     1      -8.168   8.711  65.354  1.00  0.00     0.000 HD 
HETATM   33  C   UNL     1      -8.795   9.093  67.306  1.00  0.00    -0.124 C  
HETATM   34  H1  UNL     1      -8.347  10.064  63.608  1.00  0.00     0.000 HD 
HETATM   35  H2  UNL     1      -9.044  11.682  63.776  1.00  0.00     0.000 HD 
HETATM   36  O   UNL     1      -8.478   7.991  67.761  1.00  0.00    -0.126 OA 
ENDBRANCH  19  26
ENDBRANCH  16  17
ENDBRANCH  15  16
ENDBRANCH  12  15
ENDBRANCH  11  12
ENDBRANCH   8  11
ENDBRANCH   7   8
ENDBRANCH   6   7
ENDBRANCH   5   6
ENDBRANCH   2   5
TORSDOF 10
ENDMDL
MODEL      326
REMARK 921   NORMALIZED FREE ENERGY PREDICTED BY IDOCK:    2.32 KCAL/MOL
REMARK 922        TOTAL FREE ENERGY PREDICTED BY IDOCK:    2.74 KCAL/MOL
REMARK 923 INTER-LIGAND FREE ENERGY PREDICTED BY IDOCK:   -1.58 KCAL/MOL
REMARK 924 INTRA-LIGAND FREE ENERGY PREDICTED BY IDOCK:    4.32 KCAL/MOL
REMARK 927      BINDING AFFINITY PREDICTED BY RF-SCORE:    0.00 PKD
ROOT
HETATM    1  C   UNL     1     -11.918  13.569  65.023  1.00  0.00    -0.372 C  
HETATM    2  N   UNL     1     -10.811  12.675  65.540  1.00  0.00    -0.273 N  
HETATM    3  C   UNL     1      -9.690  13.511  66.134  1.00  0.00    -0.252 C  
HETATM    4  C   UNL     1     -11.376  11.774  66.650  1.00  0.00    -0.316 C  
ENDROOT
BRANCH   2   5
HETATM    5  C   UNL     1     -10.298  11.827  64.350  1.00  0.00    -0.307 C  
BRANCH   5   6
HETATM    6  C   UNL     1      -9.220  10.819  64.705  1.00  0.00    -0.219 C  
BRANCH   6   7
HETATM    7  O   UNL     1      -9.636  10.061  65.823  1.00  0.00    -0.194 OA 
BRANCH   7   8
HETATM    8  P   UNL     1      -8.289   9.764  66.868  1.00  0.00    -0.120 P  
HETATM    9  O   UNL     1      -9.243   9.064  67.828  1.00  0.00    -0.139 OA 
HETATM   10  O   UNL     1      -8.093  11.281  66.965  1.00  0.00    -0.136 OA 
BRANCH   8  11
HETATM   11  O   UNL     1      -6.942   9.467  67.913  1.00  0.00    -0.078 OA 
BRANCH  11  12
HETATM   12  P   UNL     1      -6.671   7.763  68.033  1.00  0.00    -0.066 P  
HETATM   13  O   UNL     1      -8.058   7.520  67.177  1.00  0.00    -0.114 OA 
HETATM   14  O   UNL     1      -5.602   7.895  66.928  1.00  0.00    -0.031 OA 
BRANCH  12  15
HETATM   15  O   UNL     1      -6.401   6.058  68.152  1.00  0.00    -0.040 OA 
BRANCH  15  16
HETATM   16  C   UNL     1      -5.357   5.657  69.061  1.00  0.00    -0.004 C  
BRANCH  16  17
HETATM   17  C   UNL     1      -5.635   6.037  70.507  1.00  0.00    -0.014 C  
HETATM   18  O   UNL     1      -6.439   7.218  70.556  1.00  0.00    -0.041 OA 
HETATM   19  C   UNL     1      -7.082   7.226  71.831  1.00  0.00    -0.063 C  
HETATM   20  H   UNL     1      -5.865   3.444  72.474  1.00  0.00     0.000 HD 
HETATM   21  C   UNL     1      -7.241   5.753  72.264  1.00  0.00    -0.089 C  
HETATM   22  H   UNL     1      -6.953   4.617  73.896  1.00  0.00     0.000 HD 
HETATM   23  C   UNL     1      -6.351   4.965  71.306  1.00  0.00    -0.023 C  
HETATM   24  O   UNL     1      -6.855   5.523  73.629  1.00  0.00    -0.077 OA 
HETATM   25  O   UNL     1      -5.417   4.116  71.973  1.00  0.00     0.000 OA 
BRANCH  19  26
HETATM   26  N   UNL     1      -8.331   7.988  71.770  1.00  0.00    -0.117 N  
HETATM   27  C   UNL     1      -8.836   8.441  70.573  1.00  0.00    -0.148 C  
HETATM   28  C   UNL     1      -9.910   9.220  70.529  1.00  0.00    -0.310 C  
HETATM   29  C   UNL     1     -10.505   9.566  71.833  1.00  0.00     0.389 C  
HETATM   30  N   UNL     1     -10.040   9.144  72.968  1.00  0.00     1.448 N  
HETATM   31  N   UNL     1     -11.598  10.388  71.872  1.00  0.00     0.591 NA 
HETATM   32  H   UNL     1     -10.500   9.406  73.839  1.00  0.00     0.000 HD 
HETATM   33  C   UNL     1      -8.921   8.340  72.990  1.00  0.00    -0.241 C  
HETATM   34  H1  UNL     1     -12.009  10.628  72.774  1.00  0.00     0.000 HD 
HETATM   35  H2  UNL     1     -11.997  10.757  71.009  1.00  0.00     0.000 HD 
HETATM   36  O   UNL     1      -8.448   7.940  74.056  1.00  0.00    -0.226 OA 
ENDBRANCH  19  26
ENDBRANCH  16  17
ENDBRANCH  15  16
ENDBRANCH  12  15
ENDBRANCH  11  12
ENDBRANCH   8  11
ENDBRANCH   7   8
ENDBRANCH   6   7
ENDBRANCH   5   6
ENDBRANCH   2   5
TORSDOF 10
ENDMDL
MODEL      327
REMARK 921   NORMALIZED FREE ENERGY PREDICTED BY IDOCK:    2.35 KCAL/MOL
REMARK 922        TOTAL FREE ENERGY PREDICTED BY IDOCK:    2.79 KCAL/MOL
REMARK 923 INTER-LIGAND FREE ENERGY PREDICTED BY IDOCK:   -2.58 KCAL/MOL
REMARK 924 INTRA-LIGAND FREE ENERGY PREDICTED BY IDOCK:    5.37 KCAL/MOL
REMARK 927      BINDING AFFINITY PREDICTED BY RF-SCORE:    0.00 PKD
ROOT
HETATM    1  C   UNL     1      -7.319  17.857  70.318  1.00  0.00     1.944 C  
HETATM    2  N   UNL     1      -7.018  18.332  68.913  1.00  0.00    -0.275 N  
HETATM    3  C   UNL     1      -8.265  18.917  68.273  1.00  0.00    -0.329 C  
HETATM    4  C   UNL     1      -5.950  19.437  68.980  1.00  0.00    -0.238 C  
ENDROOT
BRANCH   2   5
HETATM    5  C   UNL     1      -6.500  17.115  68.107  1.00  0.00    -0.147 C  
BRANCH   5   6
HETATM    6  C   UNL     1      -5.710  16.104  68.918  1.00  0.00    -0.117 C  
BRANCH   6   7
HETATM    7  O   UNL     1      -6.597  15.149  69.469  1.00  0.00    -0.137 OA 
BRANCH   7   8
HETATM    8  P   UNL     1      -6.982  13.950  68.282  1.00  0.00    -0.148 P  
HETATM    9  O   UNL     1      -6.344  12.907  69.192  1.00  0.00    -0.093 OA 
HETATM   10  O   UNL     1      -6.110  14.724  67.287  1.00  0.00    -0.306 OA 
BRANCH   8  11
HETATM   11  O   UNL     1      -7.368  12.750  67.096  1.00  0.00    -0.119 OA 
BRANCH  11  12
HETATM   12  P   UNL     1      -6.406  11.339  67.370  1.00  0.00    -0.098 P  
HETATM   13  O   UNL     1      -7.364  10.982  68.662  1.00  0.00    -0.088 OA 
HETATM   14  O   UNL     1      -7.140  10.658  66.196  1.00  0.00    -0.128 OA 
BRANCH  12  15
HETATM   15  O   UNL     1      -5.445   9.927  67.645  1.00  0.00    -0.036 OA 
BRANCH  15  16
HETATM   16  C   UNL     1      -6.111   8.845  68.325  1.00  0.00    -0.053 C  
BRANCH  16  17
HETATM   17  C   UNL     1      -7.509   8.567  67.795  1.00  0.00    -0.097 C  
HETATM   18  O   UNL     1      -7.464   7.518  66.825  1.00  0.00    -0.089 OA 
HETATM   19  C   UNL     1      -8.778   6.961  66.760  1.00  0.00    -0.122 C  
HETATM   20  H   UNL     1      -9.831   9.046  70.037  1.00  0.00     0.000 HD 
HETATM   21  C   UNL     1      -9.424   7.168  68.146  1.00  0.00    -0.132 C  
HETATM   22  H   UNL     1     -11.166   7.798  68.924  1.00  0.00     0.000 HD 
HETATM   23  C   UNL     1      -8.510   8.161  68.860  1.00  0.00    -0.130 C  
HETATM   24  O   UNL     1     -10.768   7.670  68.071  1.00  0.00    -0.178 OA 
HETATM   25  O   UNL     1      -9.204   9.300  69.370  1.00  0.00    -0.149 OA 
BRANCH  19  26
HETATM   26  N   UNL     1      -8.722   5.568  66.309  1.00  0.00    -0.124 N  
HETATM   27  C   UNL     1      -7.676   5.105  65.545  1.00  0.00    -0.087 C  
HETATM   28  C   UNL     1      -7.679   3.873  65.049  1.00  0.00    -0.085 C  
HETATM   29  C   UNL     1      -8.866   3.058  65.363  1.00  0.00    -0.135 C  
HETATM   30  N   UNL     1      -9.858   3.482  66.085  1.00  0.00    -0.414 N  
HETATM   31  N   UNL     1      -8.956   1.786  64.865  1.00  0.00    -0.116 NA 
HETATM   32  H   UNL     1     -10.648   2.869  66.281  1.00  0.00     0.000 HD 
HETATM   33  C   UNL     1      -9.835   4.766  66.585  1.00  0.00    -0.214 C  
HETATM   34  H1  UNL     1      -9.777   1.222  65.081  1.00  0.00     0.000 HD 
HETATM   35  H2  UNL     1      -8.209   1.407  64.282  1.00  0.00     0.000 HD 
HETATM   36  O   UNL     1     -10.773   5.201  67.258  1.00  0.00    -0.142 OA 
ENDBRANCH  19  26
ENDBRANCH  16  17
ENDBRANCH  15  16
ENDBRANCH  12  15
ENDBRANCH  11  12
ENDBRANCH   8  11
ENDBRANCH   7   8
ENDBRANCH   6   7
ENDBRANCH   5   6
ENDBRANCH   2   5
TORSDOF 10
ENDMDL
MODEL      328
REMARK 921   NORMALIZED FREE ENERGY PREDICTED BY IDOCK:    3.39 KCAL/MOL
REMARK 922        TOTAL FREE ENERGY PREDICTED BY IDOCK:    4.44 KCAL/MOL
REMARK 923 INTER-LIGAND FREE ENERGY PREDICTED BY IDOCK:    1.11 KCAL/MOL
REMARK 924 INTRA-LIGAND FREE ENERGY PREDICTED BY IDOCK:    3.33 KCAL/MOL
REMARK 927      BINDING AFFINITY PREDICTED BY RF-SCORE:    0.00 PKD
ROOT
HETATM    1  C   UNL     1      -8.979   6.597  64.830  1.00  0.00     0.611 C  
HETATM    2  N   UNL     1      -7.878   5.694  64.315  1.00  0.00    -0.105 N  
HETATM    3  C   UNL     1      -7.850   5.704  62.797  1.00  0.00    -0.089 C  
HETATM    4  C   UNL     1      -6.525   6.220  64.824  1.00  0.00    -0.034 C  
ENDROOT
BRANCH   2   5
HETATM    5  C   UNL     1      -8.151   4.267  64.854  1.00  0.00    -0.098 C  
BRANCH   5   6
HETATM    6  C   UNL     1      -8.410   4.191  66.348  1.00  0.00    -0.105 C  
BRANCH   6   7
HETATM    7  O   UNL     1      -9.469   5.065  66.686  1.00  0.00    -0.130 OA 
BRANCH   7   8
HETATM    8  P   UNL     1      -9.929   4.824  68.336  1.00  0.00     0.023 P  
HETATM    9  O   UNL     1     -10.603   6.189  68.304  1.00  0.00    -0.205 OA 
HETATM   10  O   UNL     1      -8.440   4.720  68.685  1.00  0.00    -0.086 OA 
BRANCH   8  11
HETATM   11  O   UNL     1     -10.390   4.581  69.986  1.00  0.00    -0.144 OA 
BRANCH  11  12
HETATM   12  P   UNL     1     -10.280   6.081  70.841  1.00  0.00    -0.226 P  
HETATM   13  O   UNL     1      -9.577   5.274  72.093  1.00  0.00    -0.148 OA 
HETATM   14  O   UNL     1      -9.076   6.456  69.951  1.00  0.00    -0.141 OA 
BRANCH  12  15
HETATM   15  O   UNL     1     -10.170   7.580  71.697  1.00  0.00    -0.185 OA 
BRANCH  15  16
HETATM   16  C   UNL     1      -8.833   8.043  71.970  1.00  0.00    -0.156 C  
BRANCH  16  17
HETATM   17  C   UNL     1      -8.034   8.356  70.714  1.00  0.00    -0.106 C  
HETATM   18  O   UNL     1      -8.375   9.657  70.230  1.00  0.00    -0.181 OA 
HETATM   19  C   UNL     1      -7.282  10.095  69.421  1.00  0.00    -0.096 C  
HETATM   20  H   UNL     1      -5.063   7.007  70.737  1.00  0.00     0.000 HD 
HETATM   21  C   UNL     1      -6.013   9.411  69.970  1.00  0.00    -0.036 C  
HETATM   22  H   UNL     1      -4.405   8.426  69.276  1.00  0.00     0.000 HD 
HETATM   23  C   UNL     1      -6.529   8.323  70.909  1.00  0.00    -0.038 C  
HETATM   24  O   UNL     1      -5.187   8.847  68.938  1.00  0.00    -0.036 OA 
HETATM   25  O   UNL     1      -6.005   7.028  70.615  1.00  0.00    -0.027 OA 
BRANCH  19  26
HETATM   26  N   UNL     1      -7.226  11.558  69.385  1.00  0.00    -0.054 N  
HETATM   27  C   UNL     1      -7.102  12.298  70.538  1.00  0.00     2.285 C  
HETATM   28  C   UNL     1      -7.157  13.625  70.514  1.00  0.00     1.255 C  
HETATM   29  C   UNL     1      -7.369  14.234  69.189  1.00  0.00    -0.092 C  
HETATM   30  N   UNL     1      -7.486  13.548  68.094  1.00  0.00    -0.118 N  
HETATM   31  N   UNL     1      -7.466  15.595  69.086  1.00  0.00    -0.184 NA 
HETATM   32  H   UNL     1      -7.618  14.024  67.202  1.00  0.00     0.000 HD 
HETATM   33  C   UNL     1      -7.429  12.172  68.143  1.00  0.00    -0.114 C  
HETATM   34  H1  UNL     1      -7.612  16.017  68.170  1.00  0.00     0.000 HD 
HETATM   35  H2  UNL     1      -7.392  16.182  69.918  1.00  0.00     0.000 HD 
HETATM   36  O   UNL     1      -7.556  11.494  67.121  1.00  0.00    -0.133 OA 
ENDBRANCH  19  26
ENDBRANCH  16  17
ENDBRANCH  15  16
ENDBRANCH  12  15
ENDBRANCH  11  12
ENDBRANCH   8  11
ENDBRANCH   7   8
ENDBRANCH   6   7
ENDBRANCH   5   6
ENDBRANCH   2   5
TORSDOF 10
ENDMDL
MODEL      329
REMARK 921   NORMALIZED FREE ENERGY PREDICTED BY IDOCK:    3.98 KCAL/MOL
REMARK 922        TOTAL FREE ENERGY PREDICTED BY IDOCK:    5.37 KCAL/MOL
REMARK 923 INTER-LIGAND FREE ENERGY PREDICTED BY IDOCK:    1.64 KCAL/MOL
REMARK 924 INTRA-LIGAND FREE ENERGY PREDICTED BY IDOCK:    3.72 KCAL/MOL
REMARK 927      BINDING AFFINITY PREDICTED BY RF-SCORE:    0.00 PKD
ROOT
HETATM    1  C   UNL     1     -10.321  15.094  65.836  1.00  0.00    -0.327 C  
HETATM    2  N   UNL     1     -11.553  15.445  65.029  1.00  0.00    -0.245 N  
HETATM    3  C   UNL     1     -11.920  14.302  64.098  1.00  0.00    -0.373 C  
HETATM    4  C   UNL     1     -12.730  15.675  65.992  1.00  0.00     2.007 C  
ENDROOT
BRANCH   2   5
HETATM    5  C   UNL     1     -11.238  16.733  64.228  1.00  0.00     0.634 C  
BRANCH   5   6
HETATM    6  C   UNL     1     -10.368  17.740  64.959  1.00  0.00     1.083 C  
BRANCH   6   7
HETATM    7  O   UNL     1     -10.844  17.899  66.280  1.00  0.00    -0.175 OA 
BRANCH   7   8
HETATM    8  P   UNL     1      -9.630  18.649  67.258  1.00  0.00    -0.317 P  
HETATM    9  O   UNL     1      -9.149  19.391  66.017  1.00  0.00    -0.414 OA 
HETATM   10  O   UNL     1      -9.083  17.251  67.566  1.00  0.00    -0.221 OA 
BRANCH   8  11
HETATM   11  O   UNL     1      -8.416  19.400  68.236  1.00  0.00    -0.320 OA 
BRANCH  11  12
HETATM   12  P   UNL     1      -7.220  18.229  68.670  1.00  0.00    -0.272 P  
HETATM   13  O   UNL     1      -6.782  18.142  67.084  1.00  0.00    -0.182 OA 
HETATM   14  O   UNL     1      -6.343  19.380  69.208  1.00  0.00    -0.274 OA 
BRANCH  12  15
HETATM   15  O   UNL     1      -6.023  17.057  69.102  1.00  0.00    -0.165 OA 
BRANCH  15  16
HETATM   16  C   UNL     1      -6.332  16.250  70.256  1.00  0.00     0.172 C  
BRANCH  16  17
HETATM   17  C   UNL     1      -7.331  15.140  69.968  1.00  0.00     0.035 C  
HETATM   18  O   UNL     1      -8.384  15.169  70.935  1.00  0.00     1.493 OA 
HETATM   19  C   UNL     1      -9.502  14.502  70.346  1.00  0.00     1.578 C  
HETATM   20  H   UNL     1      -7.631  14.502  66.783  1.00  0.00     0.000 HD 
HETATM   21  C   UNL     1      -9.388  14.695  68.819  1.00  0.00    -0.191 C  
HETATM   22  H   UNL     1      -9.539  13.600  67.141  1.00  0.00     0.000 HD 
HETATM   23  C   UNL     1      -7.971  15.218  68.595  1.00  0.00    -0.149 C  
HETATM   24  O   UNL     1      -9.609  13.482  68.081  1.00  0.00    -0.205 OA 
HETATM   25  O   UNL     1      -7.231  14.453  67.643  1.00  0.00    -0.157 OA 
BRANCH  19  26
HETATM   26  N   UNL     1     -10.753  14.983  70.935  1.00  0.00    -0.058 N  
HETATM   27  C   UNL     1     -10.758  15.934  71.929  1.00  0.00     1.041 C  
HETATM   28  C   UNL     1     -11.885  16.292  72.535  1.00  0.00    -0.608 C  
HETATM   29  C   UNL     1     -13.105  15.600  72.080  1.00  0.00    -0.459 C  
HETATM   30  N   UNL     1     -13.114  14.704  71.142  1.00  0.00    -0.351 N  
HETATM   31  N   UNL     1     -14.301  15.894  72.675  1.00  0.00    -0.313 NA 
HETATM   32  H   UNL     1     -13.991  14.267  70.859  1.00  0.00     0.000 HD 
HETATM   33  C   UNL     1     -11.932  14.345  70.531  1.00  0.00    -0.325 C  
HETATM   34  H1  UNL     1     -15.145  15.416  72.361  1.00  0.00     0.000 HD 
HETATM   35  H2  UNL     1     -14.348  16.584  73.426  1.00  0.00     0.000 HD 
HETATM   36  O   UNL     1     -11.910  13.483  69.650  1.00  0.00    -0.300 OA 
ENDBRANCH  19  26
ENDBRANCH  16  17
ENDBRANCH  15  16
ENDBRANCH  12  15
ENDBRANCH  11  12
ENDBRANCH   8  11
ENDBRANCH   7   8
ENDBRANCH   6   7
ENDBRANCH   5   6
ENDBRANCH   2   5
TORSDOF 10
ENDMDL
MODEL      330
REMARK 921   NORMALIZED FREE ENERGY PREDICTED BY IDOCK:    4.25 KCAL/MOL
REMARK 922        TOTAL FREE ENERGY PREDICTED BY IDOCK:    5.81 KCAL/MOL
REMARK 923 INTER-LIGAND FREE ENERGY PREDICTED BY IDOCK:   -0.78 KCAL/MOL
REMARK 924 INTRA-LIGAND FREE ENERGY PREDICTED BY IDOCK:    6.58 KCAL/MOL
REMARK 927      BINDING AFFINITY PREDICTED BY RF-SCORE:    0.00 PKD
ROOT
HETATM    1  C   UNL     1      -9.017  11.970  65.832  1.00  0.00     0.038 C  
HETATM    2  N   UNL     1      -7.885  11.047  65.434  1.00  0.00     0.085 N  
HETATM    3  C   UNL     1      -7.112  11.632  64.264  1.00  0.00     2.873 C  
HETATM    4  C   UNL     1      -6.919  10.903  66.622  1.00  0.00    -0.135 C  
ENDROOT
BRANCH   2   5
HETATM    5  C   UNL     1      -8.504   9.678  65.059  1.00  0.00    -0.150 C  
BRANCH   5   6
HETATM    6  C   UNL     1      -8.535   9.379  63.571  1.00  0.00    -0.201 C  
BRANCH   6   7
HETATM    7  O   UNL     1      -8.497   7.979  63.373  1.00  0.00    -0.024 OA 
BRANCH   7   8
HETATM    8  P   UNL     1      -7.386   7.256  64.485  1.00  0.00    -0.094 P  
HETATM    9  O   UNL     1      -7.404   6.001  63.622  1.00  0.00    -0.056 OA 
HETATM   10  O   UNL     1      -8.442   7.438  65.582  1.00  0.00    -0.136 OA 
BRANCH   8  11
HETATM   11  O   UNL     1      -6.275   6.534  65.598  1.00  0.00    -0.032 OA 
BRANCH  11  12
HETATM   12  P   UNL     1      -6.861   6.738  67.212  1.00  0.00    -0.077 P  
HETATM   13  O   UNL     1      -6.361   8.307  67.155  1.00  0.00    -0.054 OA 
HETATM   14  O   UNL     1      -8.293   6.811  66.642  1.00  0.00    -0.112 OA 
BRANCH  12  15
HETATM   15  O   UNL     1      -7.446   6.944  68.827  1.00  0.00    -0.094 OA 
BRANCH  15  16
HETATM   16  C   UNL     1      -8.737   6.364  69.098  1.00  0.00    -0.127 C  
BRANCH  16  17
HETATM   17  C   UNL     1      -9.243   6.642  70.505  1.00  0.00    -0.156 C  
HETATM   18  O   UNL     1      -9.531   8.035  70.654  1.00  0.00    -0.161 OA 
HETATM   19  C   UNL     1     -10.451   8.150  71.741  1.00  0.00    -0.242 C  
HETATM   20  H   UNL     1     -10.951   4.157  71.751  1.00  0.00     0.000 HD 
HETATM   21  C   UNL     1     -11.258   6.836  71.790  1.00  0.00    -0.259 C  
HETATM   22  H   UNL     1     -11.874   5.489  73.148  1.00  0.00     0.000 HD 
HETATM   23  C   UNL     1     -10.496   5.874  70.881  1.00  0.00    -0.244 C  
HETATM   24  O   UNL     1     -11.377   6.299  73.118  1.00  0.00    -0.162 OA 
HETATM   25  O   UNL     1     -10.166   4.638  71.515  1.00  0.00    -0.196 OA 
BRANCH  19  26
HETATM   26  N   UNL     1     -11.260   9.363  71.599  1.00  0.00    -0.382 N  
HETATM   27  C   UNL     1     -10.818  10.437  70.861  1.00  0.00     0.267 C  
HETATM   28  C   UNL     1     -11.504  11.573  70.821  1.00  0.00     0.470 C  
HETATM   29  C   UNL     1     -12.743  11.604  71.618  1.00  0.00    -0.270 C  
HETATM   30  N   UNL     1     -13.172  10.598  72.316  1.00  0.00    -0.574 N  
HETATM   31  N   UNL     1     -13.490  12.750  71.650  1.00  0.00    -0.244 NA 
HETATM   32  H   UNL     1     -14.044  10.672  72.839  1.00  0.00     0.000 HD 
HETATM   33  C   UNL     1     -12.442   9.429  72.347  1.00  0.00    -0.183 C  
HETATM   34  H1  UNL     1     -14.347  12.771  72.201  1.00  0.00     0.000 HD 
HETATM   35  H2  UNL     1     -13.192  13.574  71.127  1.00  0.00     0.000 HD 
HETATM   36  O   UNL     1     -12.816   8.464  73.017  1.00  0.00    -0.147 OA 
ENDBRANCH  19  26
ENDBRANCH  16  17
ENDBRANCH  15  16
ENDBRANCH  12  15
ENDBRANCH  11  12
ENDBRANCH   8  11
ENDBRANCH   7   8
ENDBRANCH   6   7
ENDBRANCH   5   6
ENDBRANCH   2   5
TORSDOF 10
ENDMDL
MODEL      331
REMARK 921   NORMALIZED FREE ENERGY PREDICTED BY IDOCK:    4.53 KCAL/MOL
REMARK 922        TOTAL FREE ENERGY PREDICTED BY IDOCK:    6.24 KCAL/MOL
REMARK 923 INTER-LIGAND FREE ENERGY PREDICTED BY IDOCK:   -0.87 KCAL/MOL
REMARK 924 INTRA-LIGAND FREE ENERGY PREDICTED BY IDOCK:    7.11 KCAL/MOL
REMARK 927      BINDING AFFINITY PREDICTED BY RF-SCORE:    0.00 PKD
ROOT
HETATM    1  C   UNL     1      -9.318   6.953  64.941  1.00  0.00     1.262 C  
HETATM    2  N   UNL     1      -8.527   6.071  63.999  1.00  0.00     0.039 N  
HETATM    3  C   UNL     1      -8.757   6.493  62.558  1.00  0.00     0.312 C  
HETATM    4  C   UNL     1      -7.029   6.227  64.311  1.00  0.00    -0.047 C  
ENDROOT
BRANCH   2   5
HETATM    5  C   UNL     1      -8.986   4.609  64.228  1.00  0.00    -0.136 C  
BRANCH   5   6
HETATM    6  C   UNL     1      -8.887   4.129  65.665  1.00  0.00    -0.122 C  
BRANCH   6   7
HETATM    7  O   UNL     1      -9.341   5.149  66.533  1.00  0.00    -0.130 OA 
BRANCH   7   8
HETATM    8  P   UNL     1      -7.996   5.866  67.353  1.00  0.00    -0.102 P  
HETATM    9  O   UNL     1      -7.765   4.531  68.051  1.00  0.00    -0.079 OA 
HETATM   10  O   UNL     1      -8.971   6.881  67.960  1.00  0.00    -0.123 OA 
BRANCH   8  11
HETATM   11  O   UNL     1      -6.651   6.583  68.172  1.00  0.00    -0.053 OA 
BRANCH  11  12
HETATM   12  P   UNL     1      -5.947   5.425  69.246  1.00  0.00    -0.026 P  
HETATM   13  O   UNL     1      -5.280   6.670  70.093  1.00  0.00    -0.014 OA 
HETATM   14  O   UNL     1      -7.330   5.256  69.909  1.00  0.00    -0.061 OA 
BRANCH  12  15
HETATM   15  O   UNL     1      -5.242   4.267  70.321  1.00  0.00    -0.003 OA 
BRANCH  15  16
HETATM   16  C   UNL     1      -5.156   4.673  71.701  1.00  0.00    -0.004 C  
BRANCH  16  17
HETATM   17  C   UNL     1      -6.343   5.505  72.162  1.00  0.00    -0.047 C  
HETATM   18  O   UNL     1      -7.557   4.780  71.956  1.00  0.00    -0.085 OA 
HETATM   19  C   UNL     1      -8.527   5.341  72.842  1.00  0.00    -0.116 C  
HETATM   20  H   UNL     1      -5.631   7.426  74.702  1.00  0.00     0.000 HD 
HETATM   21  C   UNL     1      -7.758   5.899  74.057  1.00  0.00    -0.098 C  
HETATM   22  H   UNL     1      -7.711   7.561  75.185  1.00  0.00     0.000 HD 
HETATM   23  C   UNL     1      -6.294   5.905  73.625  1.00  0.00    -0.068 C  
HETATM   24  O   UNL     1      -8.185   7.217  74.437  1.00  0.00    -0.152 OA 
HETATM   25  O   UNL     1      -5.662   7.175  73.786  1.00  0.00    -0.053 OA 
BRANCH  19  26
HETATM   26  N   UNL     1      -9.557   4.351  73.166  1.00  0.00    -0.126 N  
HETATM   27  C   UNL     1      -9.228   3.053  73.481  1.00  0.00    -0.084 C  
HETATM   28  C   UNL     1     -10.166   2.132  73.672  1.00  0.00    -0.177 C  
HETATM   29  C   UNL     1     -11.557   2.591  73.514  1.00  0.00    -0.092 C  
HETATM   30  N   UNL     1     -11.881   3.813  73.219  1.00  0.00     0.112 N  
HETATM   31  N   UNL     1     -12.579   1.694  73.667  1.00  0.00    -0.076 NA 
HETATM   32  H   UNL     1     -12.862   4.077  73.135  1.00  0.00     0.000 HD 
HETATM   33  C   UNL     1     -10.891   4.751  73.022  1.00  0.00    -0.256 C  
HETATM   34  H1  UNL     1     -13.542   2.011  73.557  1.00  0.00     0.000 HD 
HETATM   35  H2  UNL     1     -12.380   0.718  73.888  1.00  0.00     0.000 HD 
HETATM   36  O   UNL     1     -11.169   5.914  72.722  1.00  0.00    -0.264 OA 
ENDBRANCH  19  26
ENDBRANCH  16  17
ENDBRANCH  15  16
ENDBRANCH  12  15
ENDBRANCH  11  12
ENDBRANCH   8  11
ENDBRANCH   7   8
ENDBRANCH   6   7
ENDBRANCH   5   6
ENDBRANCH   2   5
TORSDOF 10
ENDMDL
MODEL      332
REMARK 921   NORMALIZED FREE ENERGY PREDICTED BY IDOCK:    6.05 KCAL/MOL
REMARK 922        TOTAL FREE ENERGY PREDICTED BY IDOCK:    8.65 KCAL/MOL
REMARK 923 INTER-LIGAND FREE ENERGY PREDICTED BY IDOCK:   -3.50 KCAL/MOL
REMARK 924 INTRA-LIGAND FREE ENERGY PREDICTED BY IDOCK:   12.15 KCAL/MOL
REMARK 927      BINDING AFFINITY PREDICTED BY RF-SCORE:    0.00 PKD
ROOT
HETATM    1  C   UNL     1     -12.004  13.476  65.034  1.00  0.00    -0.372 C  
HETATM    2  N   UNL     1     -11.102  12.405  65.608  1.00  0.00    -0.295 N  
HETATM    3  C   UNL     1      -9.776  13.006  66.044  1.00  0.00    -0.216 C  
HETATM    4  C   UNL     1     -11.781  11.794  66.846  1.00  0.00    -0.139 C  
ENDROOT
BRANCH   2   5
HETATM    5  C   UNL     1     -10.890  11.331  64.512  1.00  0.00    -0.284 C  
BRANCH   5   6
HETATM    6  C   UNL     1      -9.858  10.271  64.851  1.00  0.00    -0.336 C  
BRANCH   6   7
HETATM    7  O   UNL     1      -9.959   9.938  66.222  1.00  0.00    -0.227 OA 
BRANCH   7   8
HETATM    8  P   UNL     1      -8.721  10.749  67.118  1.00  0.00    -0.133 P  
HETATM    9  O   UNL     1      -9.324  10.170  68.392  1.00  0.00    -0.132 OA 
HETATM   10  O   UNL     1      -9.253  12.074  66.561  1.00  0.00    -0.209 OA 
BRANCH   8  11
HETATM   11  O   UNL     1      -7.482  11.559  68.014  1.00  0.00    -0.089 OA 
BRANCH  11  12
HETATM   12  P   UNL     1      -6.655  10.416  69.015  1.00  0.00    -0.069 P  
HETATM   13  O   UNL     1      -5.247  11.207  68.690  1.00  0.00    -0.041 OA 
HETATM   14  O   UNL     1      -7.196  11.166  70.251  1.00  0.00     0.052 OA 
BRANCH  12  15
HETATM   15  O   UNL     1      -5.826   9.274  70.016  1.00  0.00    -0.034 OA 
BRANCH  15  16
HETATM   16  C   UNL     1      -6.666   8.323  70.699  1.00  0.00    -0.037 C  
BRANCH  16  17
HETATM   17  C   UNL     1      -7.276   7.280  69.775  1.00  0.00    -0.082 C  
HETATM   18  O   UNL     1      -7.401   7.812  68.454  1.00  0.00    -0.090 OA 
HETATM   19  C   UNL     1      -7.467   6.695  67.566  1.00  0.00    -0.097 C  
HETATM   20  H   UNL     1      -6.428   4.232  70.574  1.00  0.00     0.000 HD 
HETATM   21  C   UNL     1      -6.687   5.543  68.232  1.00  0.00    -0.054 C  
HETATM   22  H   UNL     1      -6.905   3.578  68.593  1.00  0.00     0.000 HD 
HETATM   23  C   UNL     1      -6.478   5.994  69.675  1.00  0.00    -0.042 C  
HETATM   24  O   UNL     1      -7.386   4.288  68.183  1.00  0.00    -0.063 OA 
HETATM   25  O   UNL     1      -6.927   5.038  70.636  1.00  0.00    -0.042 OA 
BRANCH  19  26
HETATM   26  N   UNL     1      -6.990   7.072  66.233  1.00  0.00    -0.067 N  
HETATM   27  C   UNL     1      -6.729   8.384  65.911  1.00  0.00    -0.053 C  
HETATM   28  C   UNL     1      -6.398   8.736  64.674  1.00  0.00    -0.066 C  
HETATM   29  C   UNL     1      -6.344   7.641  63.688  1.00  0.00    -0.054 C  
HETATM   30  N   UNL     1      -6.585   6.400  63.980  1.00  0.00    -0.033 N  
HETATM   31  N   UNL     1      -6.037   7.928  62.386  1.00  0.00    -0.072 NA 
HETATM   32  H   UNL     1      -6.520   5.682  63.259  1.00  0.00     0.000 HD 
HETATM   33  C   UNL     1      -6.931   6.059  65.269  1.00  0.00    -0.060 C  
HETATM   34  H1  UNL     1      -6.000   7.171  61.704  1.00  0.00     0.000 HD 
HETATM   35  H2  UNL     1      -5.849   8.890  62.100  1.00  0.00     0.000 HD 
HETATM   36  O   UNL     1      -7.184   4.889  65.570  1.00  0.00    -0.069 OA 
ENDBRANCH  19  26
ENDBRANCH  16  17
ENDBRANCH  15  16
ENDBRANCH  12  15
ENDBRANCH  11  12
ENDBRANCH   8  11
ENDBRANCH   7   8
ENDBRANCH   6   7
ENDBRANCH   5   6
ENDBRANCH   2   5
TORSDOF 10
ENDMDL
MODEL      333
REMARK 921   NORMALIZED FREE ENERGY PREDICTED BY IDOCK:    8.41 KCAL/MOL
REMARK 922        TOTAL FREE ENERGY PREDICTED BY IDOCK:   12.40 KCAL/MOL
REMARK 923 INTER-LIGAND FREE ENERGY PREDICTED BY IDOCK:    8.35 KCAL/MOL
REMARK 924 INTRA-LIGAND FREE ENERGY PREDICTED BY IDOCK:    4.05 KCAL/MOL
REMARK 927      BINDING AFFINITY PREDICTED BY RF-SCORE:    0.00 PKD
ROOT
HETATM    1  C   UNL     1     -10.284  13.915  67.109  1.00  0.00    -0.258 C  
HETATM    2  N   UNL     1     -11.668  13.482  66.678  1.00  0.00    -0.366 N  
HETATM    3  C   UNL     1     -11.777  11.966  66.687  1.00  0.00    -0.186 C  
HETATM    4  C   UNL     1     -12.697  14.042  67.674  1.00  0.00     0.818 C  
ENDROOT
BRANCH   2   5
HETATM    5  C   UNL     1     -11.916  14.046  65.257  1.00  0.00    -0.379 C  
BRANCH   5   6
HETATM    6  C   UNL     1     -11.454  15.478  65.052  1.00  0.00    -0.218 C  
BRANCH   6   7
HETATM    7  O   UNL     1     -11.609  16.198  66.259  1.00  0.00     0.410 OA 
BRANCH   7   8
HETATM    8  P   UNL     1     -10.899  17.768  66.103  1.00  0.00     0.433 P  
HETATM    9  O   UNL     1      -9.867  17.162  65.161  1.00  0.00    -0.108 OA 
HETATM   10  O   UNL     1     -10.649  17.752  67.615  1.00  0.00    -0.383 OA 
BRANCH   8  11
HETATM   11  O   UNL     1     -10.191  19.339  65.946  1.00  0.00    -0.431 OA 
BRANCH  11  12
HETATM   12  P   UNL     1      -8.628  19.196  65.220  1.00  0.00     2.348 P  
HETATM   13  O   UNL     1      -9.061  20.367  64.145  1.00  0.00     2.615 OA 
HETATM   14  O   UNL     1      -8.048  20.006  66.399  1.00  0.00    -0.315 OA 
BRANCH  12  15
HETATM   15  O   UNL     1      -7.064  19.054  64.493  1.00  0.00     0.331 OA 
BRANCH  15  16
HETATM   16  C   UNL     1      -6.010  19.795  65.137  1.00  0.00    -0.223 C  
BRANCH  16  17
HETATM   17  C   UNL     1      -5.488  19.130  66.402  1.00  0.00    -0.156 C  
HETATM   18  O   UNL     1      -5.836  19.915  67.545  1.00  0.00    -0.179 OA 
HETATM   19  C   UNL     1      -5.802  19.038  68.672  1.00  0.00    -0.211 C  
HETATM   20  H   UNL     1      -5.479  15.873  66.208  1.00  0.00     0.000 HD 
HETATM   21  C   UNL     1      -6.132  17.623  68.152  1.00  0.00    -0.163 C  
HETATM   22  H   UNL     1      -5.447  15.744  68.344  1.00  0.00     0.000 HD 
HETATM   23  C   UNL     1      -6.019  17.728  66.633  1.00  0.00    -0.169 C  
HETATM   24  O   UNL     1      -5.244  16.615  68.664  1.00  0.00    -0.118 OA 
HETATM   25  O   UNL     1      -5.147  16.752  66.063  1.00  0.00    -0.228 OA 
BRANCH  19  26
HETATM   26  N   UNL     1      -6.690  19.528  69.729  1.00  0.00    -0.275 N  
HETATM   27  C   UNL     1      -6.191  20.049  70.900  1.00  0.00    -0.212 C  
HETATM   28  C   UNL     1      -6.996  20.395  71.898  1.00  0.00     0.987 C  
HETATM   29  C   UNL     1      -8.435  20.173  71.668  1.00  0.00     2.331 C  
HETATM   30  N   UNL     1      -8.919  19.684  70.567  1.00  0.00     1.434 N  
HETATM   31  N   UNL     1      -9.326  20.478  72.660  1.00  0.00     1.337 NA 
HETATM   32  H   UNL     1      -9.925  19.564  70.459  1.00  0.00     0.000 HD 
HETATM   33  C   UNL     1      -8.064  19.329  69.547  1.00  0.00     0.217 C  
HETATM   34  H1  UNL     1     -10.321  20.324  72.502  1.00  0.00     0.000 HD 
HETATM   35  H2  UNL     1      -8.998  20.855  73.550  1.00  0.00     0.000 HD 
HETATM   36  O   UNL     1      -8.495  18.845  68.497  1.00  0.00    -0.329 OA 
ENDBRANCH  19  26
ENDBRANCH  16  17
ENDBRANCH  15  16
ENDBRANCH  12  15
ENDBRANCH  11  12
ENDBRANCH   8  11
ENDBRANCH   7   8
ENDBRANCH   6   7
ENDBRANCH   5   6
ENDBRANCH   2   5
TORSDOF 10
ENDMDL
MODEL      334
REMARK 921   NORMALIZED FREE ENERGY PREDICTED BY IDOCK:   13.62 KCAL/MOL
REMARK 922        TOTAL FREE ENERGY PREDICTED BY IDOCK:   20.65 KCAL/MOL
REMARK 923 INTER-LIGAND FREE ENERGY PREDICTED BY IDOCK:    2.74 KCAL/MOL
REMARK 924 INTRA-LIGAND FREE ENERGY PREDICTED BY IDOCK:   17.91 KCAL/MOL
REMARK 927      BINDING AFFINITY PREDICTED BY RF-SCORE:    0.00 PKD
ROOT
HETATM    1  C   UNL     1      -9.729   6.756  69.044  1.00  0.00    -0.145 C  
HETATM    2  N   UNL     1     -10.731   6.914  67.921  1.00  0.00    -0.229 N  
HETATM    3  C   UNL     1     -12.140   6.653  68.427  1.00  0.00     2.343 C  
HETATM    4  C   UNL     1     -10.669   8.360  67.399  1.00  0.00    -0.155 C  
ENDROOT
BRANCH   2   5
HETATM    5  C   UNL     1     -10.348   5.910  66.805  1.00  0.00    -0.244 C  
BRANCH   5   6
HETATM    6  C   UNL     1      -9.328   6.427  65.807  1.00  0.00     0.136 C  
BRANCH   6   7
HETATM    7  O   UNL     1      -8.816   7.665  66.258  1.00  0.00    -0.144 OA 
BRANCH   7   8
HETATM    8  P   UNL     1      -8.379   7.549  67.928  1.00  0.00    -0.122 P  
HETATM    9  O   UNL     1      -9.103   8.868  68.166  1.00  0.00    -0.139 OA 
HETATM   10  O   UNL     1      -6.909   7.558  67.494  1.00  0.00    -0.067 OA 
BRANCH   8  11
HETATM   11  O   UNL     1      -7.942   7.432  69.599  1.00  0.00    -0.120 OA 
BRANCH  11  12
HETATM   12  P   UNL     1      -8.025   8.999  70.326  1.00  0.00    -0.158 P  
HETATM   13  O   UNL     1      -9.668   8.906  70.252  1.00  0.00    -0.168 OA 
HETATM   14  O   UNL     1      -7.703   8.342  71.686  1.00  0.00    -0.095 OA 
BRANCH  12  15
HETATM   15  O   UNL     1      -8.109  10.567  71.055  1.00  0.00     1.261 OA 
BRANCH  15  16
HETATM   16  C   UNL     1      -7.020  11.456  70.740  1.00  0.00     1.941 C  
BRANCH  16  17
HETATM   17  C   UNL     1      -6.972  11.860  69.275  1.00  0.00    -0.046 C  
HETATM   18  O   UNL     1      -8.256  11.674  68.675  1.00  0.00    -0.151 OA 
HETATM   19  C   UNL     1      -8.298  12.518  67.523  1.00  0.00    -0.175 C  
HETATM   20  H   UNL     1      -4.894  14.309  68.704  1.00  0.00     0.000 HD 
HETATM   21  C   UNL     1      -7.366  13.714  67.807  1.00  0.00    -0.166 C  
HETATM   22  H   UNL     1      -5.921  14.758  66.881  1.00  0.00     0.000 HD 
HETATM   23  C   UNL     1      -6.563  13.301  69.038  1.00  0.00    -0.104 C  
HETATM   24  O   UNL     1      -6.495  14.022  66.706  1.00  0.00     0.555 OA 
HETATM   25  O   UNL     1      -5.151  13.406  68.852  1.00  0.00    -0.066 OA 
BRANCH  19  26
HETATM   26  N   UNL     1      -9.682  12.878  67.203  1.00  0.00    -0.216 N  
HETATM   27  C   UNL     1     -10.638  12.993  68.186  1.00  0.00    -0.245 C  
HETATM   28  C   UNL     1     -11.911  13.216  67.884  1.00  0.00    -0.347 C  
HETATM   29  C   UNL     1     -12.222  13.318  66.447  1.00  0.00    -0.356 C  
HETATM   30  N   UNL     1     -11.330  13.214  65.511  1.00  0.00    -0.296 N  
HETATM   31  N   UNL     1     -13.518  13.519  66.055  1.00  0.00     0.081 NA 
HETATM   32  H   UNL     1     -11.601  13.307  64.532  1.00  0.00     0.000 HD 
HETATM   33  C   UNL     1     -10.014  12.979  65.847  1.00  0.00    -0.267 C  
HETATM   34  H1  UNL     1     -13.733  13.590  65.061  1.00  0.00     0.000 HD 
HETATM   35  H2  UNL     1     -14.261  13.597  66.751  1.00  0.00     0.000 HD 
HETATM   36  O   UNL     1      -9.149  12.857  64.976  1.00  0.00     0.647 OA 
ENDBRANCH  19  26
ENDBRANCH  16  17
ENDBRANCH  15  16
ENDBRANCH  12  15
ENDBRANCH  11  12
ENDBRANCH   8  11
ENDBRANCH   7   8
ENDBRANCH   6   7
ENDBRANCH   5   6
ENDBRANCH   2   5
TORSDOF 10
ENDMDL
MODEL      335
REMARK 921   NORMALIZED FREE ENERGY PREDICTED BY IDOCK:   14.80 KCAL/MOL
REMARK 922        TOTAL FREE ENERGY PREDICTED BY IDOCK:   22.52 KCAL/MOL
REMARK 923 INTER-LIGAND FREE ENERGY PREDICTED BY IDOCK:    1.99 KCAL/MOL
REMARK 924 INTRA-LIGAND FREE ENERGY PREDICTED BY IDOCK:   20.53 KCAL/MOL
REMARK 927      BINDING AFFINITY PREDICTED BY RF-SCORE:    0.00 PKD
ROOT
HETATM    1  C   UNL     1      -9.073   7.110  65.278  1.00  0.00     0.432 C  
HETATM    2  N   UNL     1      -9.020   6.451  63.916  1.00  0.00     0.761 N  
HETATM    3  C   UNL     1      -9.311   7.466  62.824  1.00  0.00     2.120 C  
HETATM    4  C   UNL     1      -7.605   5.893  63.689  1.00  0.00    -0.082 C  
ENDROOT
BRANCH   2   5
HETATM    5  C   UNL     1     -10.068   5.310  63.906  1.00  0.00     1.488 C  
BRANCH   5   6
HETATM    6  C   UNL     1     -10.473   4.805  65.279  1.00  0.00     0.004 C  
BRANCH   6   7
HETATM    7  O   UNL     1     -10.787   5.905  66.110  1.00  0.00    -0.037 OA 
BRANCH   7   8
HETATM    8  P   UNL     1      -9.363   6.842  66.411  1.00  0.00    -0.043 P  
HETATM    9  O   UNL     1      -8.983   5.838  67.492  1.00  0.00    -0.110 OA 
HETATM   10  O   UNL     1     -10.274   8.025  66.758  1.00  0.00    -0.279 OA 
BRANCH   8  11
HETATM   11  O   UNL     1      -7.939   7.778  66.710  1.00  0.00    -0.104 OA 
BRANCH  11  12
HETATM   12  P   UNL     1      -7.088   7.115  68.062  1.00  0.00    -0.090 P  
HETATM   13  O   UNL     1      -6.825   8.649  68.602  1.00  0.00    -0.061 OA 
HETATM   14  O   UNL     1      -8.450   6.755  68.694  1.00  0.00    -0.122 OA 
BRANCH  12  15
HETATM   15  O   UNL     1      -6.236   6.453  69.415  1.00  0.00    -0.031 OA 
BRANCH  15  16
HETATM   16  C   UNL     1      -6.572   7.018  70.697  1.00  0.00    -0.052 C  
BRANCH  16  17
HETATM   17  C   UNL     1      -8.064   7.247  70.886  1.00  0.00    -0.106 C  
HETATM   18  O   UNL     1      -8.744   5.992  70.965  1.00  0.00    -0.130 OA 
HETATM   19  C   UNL     1      -9.980   6.235  71.638  1.00  0.00    -0.179 C  
HETATM   20  H   UNL     1      -8.724   9.930  72.621  1.00  0.00     0.000 HD 
HETATM   21  C   UNL     1      -9.752   7.438  72.578  1.00  0.00    -0.160 C  
HETATM   22  H   UNL     1     -10.663   9.154  73.087  1.00  0.00     0.000 HD 
HETATM   23  C   UNL     1      -8.421   8.038  72.130  1.00  0.00    -0.146 C  
HETATM   24  O   UNL     1     -10.804   8.414  72.508  1.00  0.00    -0.344 OA 
HETATM   25  O   UNL     1      -8.500   9.434  71.842  1.00  0.00    -0.151 OA 
BRANCH  19  26
HETATM   26  N   UNL     1     -10.450   5.016  72.302  1.00  0.00    -0.212 N  
HETATM   27  C   UNL     1     -11.370   5.066  73.323  1.00  0.00    -0.317 C  
HETATM   28  C   UNL     1     -11.714   3.972  73.993  1.00  0.00     0.655 C  
HETATM   29  C   UNL     1     -11.044   2.727  73.576  1.00  0.00    -0.213 C  
HETATM   30  N   UNL     1     -10.177   2.667  72.613  1.00  0.00    -0.155 N  
HETATM   31  N   UNL     1     -11.326   1.562  74.237  1.00  0.00    -0.087 NA 
HETATM   32  H   UNL     1      -9.754   1.774  72.360  1.00  0.00     0.000 HD 
HETATM   33  C   UNL     1      -9.831   3.815  71.935  1.00  0.00    -0.178 C  
HETATM   34  H1  UNL     1     -10.862   0.701  73.950  1.00  0.00     0.000 HD 
HETATM   35  H2  UNL     1     -11.993   1.556  75.010  1.00  0.00     0.000 HD 
HETATM   36  O   UNL     1      -8.996   3.789  71.028  1.00  0.00    -0.087 OA 
ENDBRANCH  19  26
ENDBRANCH  16  17
ENDBRANCH  15  16
ENDBRANCH  12  15
ENDBRANCH  11  12
ENDBRANCH   8  11
ENDBRANCH   7   8
ENDBRANCH   6   7
ENDBRANCH   5   6
ENDBRANCH   2   5
TORSDOF 10
ENDMDL
MODEL      336
REMARK 921   NORMALIZED FREE ENERGY PREDICTED BY IDOCK:   15.17 KCAL/MOL
REMARK 922        TOTAL FREE ENERGY PREDICTED BY IDOCK:   23.11 KCAL/MOL
REMARK 923 INTER-LIGAND FREE ENERGY PREDICTED BY IDOCK:   18.83 KCAL/MOL
REMARK 924 INTRA-LIGAND FREE ENERGY PREDICTED BY IDOCK:    4.27 KCAL/MOL
REMARK 927      BINDING AFFINITY PREDICTED BY RF-SCORE:    0.00 PKD
ROOT
HETATM    1  C   UNL     1     -12.167   9.266  63.580  1.00  0.00    15.062 C  
HETATM    2  N   UNL     1     -11.471  10.538  64.016  1.00  0.00     1.711 N  
HETATM    3  C   UNL     1     -10.923  11.283  62.811  1.00  0.00     0.617 C  
HETATM    4  C   UNL     1     -12.494  11.448  64.717  1.00  0.00     1.221 C  
ENDROOT
BRANCH   2   5
HETATM    5  C   UNL     1     -10.332  10.141  64.987  1.00  0.00     0.011 C  
BRANCH   5   6
HETATM    6  C   UNL     1     -10.323   8.678  65.393  1.00  0.00     1.980 C  
BRANCH   6   7
HETATM    7  O   UNL     1     -10.723   8.564  66.745  1.00  0.00    -0.238 OA 
BRANCH   7   8
HETATM    8  P   UNL     1     -10.230   9.970  67.625  1.00  0.00    -0.235 P  
HETATM    9  O   UNL     1      -9.183   9.112  68.325  1.00  0.00    -0.132 OA 
HETATM   10  O   UNL     1     -11.650  10.050  68.196  1.00  0.00    -0.144 OA 
BRANCH   8  11
HETATM   11  O   UNL     1      -9.737  11.375  68.506  1.00  0.00    -0.190 OA 
BRANCH  11  12
HETATM   12  P   UNL     1      -8.451  10.958  69.584  1.00  0.00     0.791 P  
HETATM   13  O   UNL     1      -9.450   9.855  70.290  1.00  0.00    -0.232 OA 
HETATM   14  O   UNL     1      -7.803  10.153  68.437  1.00  0.00    -0.090 OA 
BRANCH  12  15
HETATM   15  O   UNL     1      -7.165  10.540  70.663  1.00  0.00    -0.178 OA 
BRANCH  15  16
HETATM   16  C   UNL     1      -6.425   9.352  70.317  1.00  0.00    -0.064 C  
BRANCH  16  17
HETATM   17  C   UNL     1      -7.144   8.063  70.682  1.00  0.00    -0.045 C  
HETATM   18  O   UNL     1      -7.612   7.413  69.497  1.00  0.00    -0.094 OA 
HETATM   19  C   UNL     1      -7.791   6.035  69.827  1.00  0.00    -0.101 C  
HETATM   20  H   UNL     1      -5.893   6.620  73.327  1.00  0.00     0.000 HD 
HETATM   21  C   UNL     1      -6.788   5.707  70.953  1.00  0.00    -0.057 C  
HETATM   22  H   UNL     1      -6.759   4.758  72.724  1.00  0.00     0.000 HD 
HETATM   23  C   UNL     1      -6.290   7.066  71.441  1.00  0.00    -0.041 C  
HETATM   24  O   UNL     1      -7.377   4.960  72.030  1.00  0.00    -0.076 OA 
HETATM   25  O   UNL     1      -6.428   7.245  72.851  1.00  0.00    -0.059 OA 
BRANCH  19  26
HETATM   26  N   UNL     1      -7.665   5.202  68.629  1.00  0.00    -0.078 N  
HETATM   27  C   UNL     1      -7.387   5.752  67.399  1.00  0.00    -0.077 C  
HETATM   28  C   UNL     1      -7.378   5.009  66.299  1.00  0.00    -0.082 C  
HETATM   29  C   UNL     1      -7.691   3.581  66.486  1.00  0.00    -0.081 C  
HETATM   30  N   UNL     1      -7.952   3.049  67.640  1.00  0.00    -0.075 N  
HETATM   31  N   UNL     1      -7.728   2.756  65.395  1.00  0.00    -0.077 NA 
HETATM   32  H   UNL     1      -8.150   2.052  67.712  1.00  0.00     0.000 HD 
HETATM   33  C   UNL     1      -7.961   3.840  68.768  1.00  0.00    -0.062 C  
HETATM   34  H1  UNL     1      -7.945   1.768  65.524  1.00  0.00     0.000 HD 
HETATM   35  H2  UNL     1      -7.541   3.125  64.462  1.00  0.00     0.000 HD 
HETATM   36  O   UNL     1      -8.225   3.364  69.875  1.00  0.00    -0.051 OA 
ENDBRANCH  19  26
ENDBRANCH  16  17
ENDBRANCH  15  16
ENDBRANCH  12  15
ENDBRANCH  11  12
ENDBRANCH   8  11
ENDBRANCH   7   8
ENDBRANCH   6   7
ENDBRANCH   5   6
ENDBRANCH   2   5
TORSDOF 10
ENDMDL
MODEL      337
REMARK 921   NORMALIZED FREE ENERGY PREDICTED BY IDOCK:   34.60 KCAL/MOL
REMARK 922        TOTAL FREE ENERGY PREDICTED BY IDOCK:   53.89 KCAL/MOL
REMARK 923 INTER-LIGAND FREE ENERGY PREDICTED BY IDOCK:   52.23 KCAL/MOL
REMARK 924 INTRA-LIGAND FREE ENERGY PREDICTED BY IDOCK:    1.66 KCAL/MOL
REMARK 927      BINDING AFFINITY PREDICTED BY RF-SCORE:    0.00 PKD
ROOT
HETATM    1  C   UNL     1     -12.659   8.604  63.515  1.00  0.00    21.903 C  
HETATM    2  N   UNL     1     -12.233  10.050  63.649  1.00  0.00     6.727 N  
HETATM    3  C   UNL     1     -11.658  10.557  62.338  1.00  0.00     3.237 C  
HETATM    4  C   UNL     1     -13.467  10.902  63.992  1.00  0.00     4.378 C  
ENDROOT
BRANCH   2   5
HETATM    5  C   UNL     1     -11.181  10.126  64.783  1.00  0.00     2.429 C  
BRANCH   5   6
HETATM    6  C   UNL     1     -11.114   8.898  65.672  1.00  0.00     3.743 C  
BRANCH   6   7
HETATM    7  O   UNL     1     -11.692   9.196  66.928  1.00  0.00     1.833 OA 
BRANCH   7   8
HETATM    8  P   UNL     1     -11.631  10.901  67.215  1.00  0.00     0.703 P  
HETATM    9  O   UNL     1     -10.624  10.634  68.328  1.00  0.00    -0.171 OA 
HETATM   10  O   UNL     1     -13.132  10.853  67.522  1.00  0.00     4.550 OA 
BRANCH   8  11
HETATM   11  O   UNL     1     -11.569  12.606  67.502  1.00  0.00    -0.317 OA 
BRANCH  11  12
HETATM   12  P   UNL     1     -10.694  12.914  68.961  1.00  0.00     0.071 P  
HETATM   13  O   UNL     1      -9.293  12.680  68.126  1.00  0.00    -0.202 OA 
HETATM   14  O   UNL     1     -10.967  14.420  68.762  1.00  0.00    -0.233 OA 
BRANCH  12  15
HETATM   15  O   UNL     1      -9.816  13.221  70.420  1.00  0.00     3.008 OA 
BRANCH  15  16
HETATM   16  C   UNL     1      -9.345  14.573  70.589  1.00  0.00     2.313 C  
BRANCH  16  17
HETATM   17  C   UNL     1      -8.245  14.956  69.612  1.00  0.00     0.041 C  
HETATM   18  O   UNL     1      -8.776  15.793  68.582  1.00  0.00    -0.175 OA 
HETATM   19  C   UNL     1      -7.675  16.520  68.033  1.00  0.00    -0.159 C  
HETATM   20  H   UNL     1      -5.328  15.247  71.044  1.00  0.00     0.000 HD 
HETATM   21  C   UNL     1      -6.629  16.668  69.158  1.00  0.00    -0.207 C  
HETATM   22  H   UNL     1      -4.647  16.459  69.416  1.00  0.00     0.000 HD 
HETATM   23  C   UNL     1      -7.080  15.695  70.244  1.00  0.00     0.414 C  
HETATM   24  O   UNL     1      -5.292  16.368  68.724  1.00  0.00    -0.110 OA 
HETATM   25  O   UNL     1      -6.057  14.785  70.648  1.00  0.00    -0.163 OA 
BRANCH  19  26
HETATM   26  N   UNL     1      -8.136  17.783  67.451  1.00  0.00    -0.208 N  
HETATM   27  C   UNL     1      -7.495  18.970  67.718  1.00  0.00    -0.246 C  
HETATM   28  C   UNL     1      -7.975  20.126  67.275  1.00  0.00    -0.363 C  
HETATM   29  C   UNL     1      -9.227  20.047  66.500  1.00  0.00    -0.368 C  
HETATM   30  N   UNL     1      -9.839  18.933  66.240  1.00  0.00    -0.365 N  
HETATM   31  N   UNL     1      -9.799  21.198  66.033  1.00  0.00     0.700 NA 
HETATM   32  H   UNL     1     -10.697  18.937  65.688  1.00  0.00     0.000 HD 
HETATM   33  C   UNL     1      -9.325  17.746  66.713  1.00  0.00    -0.280 C  
HETATM   34  H1  UNL     1     -10.665  21.144  65.498  1.00  0.00     0.000 HD 
HETATM   35  H2  UNL     1      -9.364  22.103  66.219  1.00  0.00     0.000 HD 
HETATM   36  O   UNL     1      -9.897  16.675  66.496  1.00  0.00    -0.253 OA 
ENDBRANCH  19  26
ENDBRANCH  16  17
ENDBRANCH  15  16
ENDBRANCH  12  15
ENDBRANCH  11  12
ENDBRANCH   8  11
ENDBRANCH   7   8
ENDBRANCH   6   7
ENDBRANCH   5   6
ENDBRANCH   2   5
TORSDOF 10
ENDMDL
MODEL      338
REMARK 921   NORMALIZED FREE ENERGY PREDICTED BY IDOCK:   36.38 KCAL/MOL
REMARK 922        TOTAL FREE ENERGY PREDICTED BY IDOCK:   56.71 KCAL/MOL
REMARK 923 INTER-LIGAND FREE ENERGY PREDICTED BY IDOCK:   41.27 KCAL/MOL
REMARK 924 INTRA-LIGAND FREE ENERGY PREDICTED BY IDOCK:   15.44 KCAL/MOL
REMARK 927      BINDING AFFINITY PREDICTED BY RF-SCORE:    0.00 PKD
ROOT
HETATM    1  C   UNL     1      -8.813  13.473  67.339  1.00  0.00    -0.221 C  
HETATM    2  N   UNL     1      -9.994  12.813  66.660  1.00  0.00    -0.239 N  
HETATM    3  C   UNL     1     -10.132  11.372  67.120  1.00  0.00    -0.198 C  
HETATM    4  C   UNL     1     -11.277  13.566  67.051  1.00  0.00    -0.312 C  
ENDROOT
BRANCH   2   5
HETATM    5  C   UNL     1      -9.758  12.886  65.131  1.00  0.00     0.041 C  
BRANCH   5   6
HETATM    6  C   UNL     1      -9.816  14.285  64.544  1.00  0.00     0.784 C  
BRANCH   6   7
HETATM    7  O   UNL     1     -10.757  15.057  65.264  1.00  0.00    -0.332 OA 
BRANCH   7   8
HETATM    8  P   UNL     1     -10.587  16.729  64.851  1.00  0.00     0.785 P  
HETATM    9  O   UNL     1      -9.079  16.520  64.804  1.00  0.00     1.705 OA 
HETATM   10  O   UNL     1     -11.265  17.076  66.182  1.00  0.00     0.263 OA 
BRANCH   8  11
HETATM   11  O   UNL     1     -10.418  18.400  64.438  1.00  0.00     1.855 OA 
BRANCH  11  12
HETATM   12  P   UNL     1      -8.768  18.878  64.634  1.00  0.00     6.658 P  
HETATM   13  O   UNL     1      -9.098  20.240  63.769  1.00  0.00     4.697 OA 
HETATM   14  O   UNL     1      -9.102  19.298  66.081  1.00  0.00    -0.382 OA 
BRANCH  12  15
HETATM   15  O   UNL     1      -7.117  19.357  64.830  1.00  0.00    -0.326 OA 
BRANCH  15  16
HETATM   16  C   UNL     1      -6.701  19.610  66.187  1.00  0.00    -0.225 C  
BRANCH  16  17
HETATM   17  C   UNL     1      -7.158  18.543  67.169  1.00  0.00    -0.204 C  
HETATM   18  O   UNL     1      -6.388  18.623  68.371  1.00  0.00    -0.205 OA 
HETATM   19  C   UNL     1      -7.162  18.002  69.398  1.00  0.00     0.035 C  
HETATM   20  H   UNL     1     -10.349  17.900  66.944  1.00  0.00     0.000 HD 
HETATM   21  C   UNL     1      -8.646  18.181  69.015  1.00  0.00    -0.003 C  
HETATM   22  H   UNL     1     -10.327  17.084  68.922  1.00  0.00     0.000 HD 
HETATM   23  C   UNL     1      -8.621  18.640  67.559  1.00  0.00    -0.269 C  
HETATM   24  O   UNL     1      -9.413  16.974  69.158  1.00  0.00    -0.217 OA 
HETATM   25  O   UNL     1      -9.432  17.839  66.700  1.00  0.00    -0.274 OA 
BRANCH  19  26
HETATM   26  N   UNL     1      -6.796  18.541  70.710  1.00  0.00     1.507 N  
HETATM   27  C   UNL     1      -5.819  17.952  71.479  1.00  0.00     0.988 C  
HETATM   28  C   UNL     1      -5.562  18.378  72.711  1.00  0.00     2.899 C  
HETATM   29  C   UNL     1      -6.393  19.498  73.188  1.00  0.00     4.133 C  
HETATM   30  N   UNL     1      -7.316  20.063  72.472  1.00  0.00     1.001 N  
HETATM   31  N   UNL     1      -6.208  19.975  74.458  1.00  0.00    14.356 NA 
HETATM   32  H   UNL     1      -7.852  20.844  72.850  1.00  0.00     0.000 HD 
HETATM   33  C   UNL     1      -7.568  19.602  71.198  1.00  0.00     1.948 C  
HETATM   34  H1  UNL     1      -6.782  20.749  74.788  1.00  0.00     0.000 HD 
HETATM   35  H2  UNL     1      -5.502  19.559  75.067  1.00  0.00     0.000 HD 
HETATM   36  O   UNL     1      -8.452  20.108  70.503  1.00  0.00     1.024 OA 
ENDBRANCH  19  26
ENDBRANCH  16  17
ENDBRANCH  15  16
ENDBRANCH  12  15
ENDBRANCH  11  12
ENDBRANCH   8  11
ENDBRANCH   7   8
ENDBRANCH   6   7
ENDBRANCH   5   6
ENDBRANCH   2   5
TORSDOF 10
ENDMDL
