MODEL        1
REMARK 921   NORMALIZED FREE ENERGY PREDICTED BY IDOCK:   -4.38 KCAL/MOL
REMARK 922        TOTAL FREE ENERGY PREDICTED BY IDOCK:   -6.54 KCAL/MOL
REMARK 923 INTER-LIGAND FREE ENERGY PREDICTED BY IDOCK:   -5.66 KCAL/MOL
REMARK 924 INTRA-LIGAND FREE ENERGY PREDICTED BY IDOCK:   -0.88 KCAL/MOL
REMARK 927      BINDING AFFINITY PREDICTED BY RF-SCORE:    0.00 PKD
ROOT
HETATM    1  N   UNL     1     -12.527  14.036  63.083  1.00  0.00    -1.070 NA 
HETATM    2  CA  UNL     1     -11.904  14.064  64.440  1.00  0.00    -0.431 C  
HETATM    3  H1  UNL     1     -13.300  14.695  63.000  1.00  0.00     0.000 HD 
HETATM    4  H2  UNL     1     -12.818  13.091  62.830  1.00  0.00     0.000 HD 
HETATM    5  C   UNL     1     -11.401  15.495  64.713  1.00  0.00    -0.357 C  
HETATM    6  OXT UNL     1     -10.756  15.842  65.689  1.00  0.00    -0.341 OA 
HETATM    7  O   UNL     1     -11.774  16.346  63.721  1.00  0.00    -1.049 OA 
ENDROOT
BRANCH   2   8
HETATM    8  C   UNL     1     -10.742  13.074  64.565  1.00  0.00    -0.404 C  
BRANCH   8   9
HETATM    9  C   UNL     1     -10.887  12.104  65.739  1.00  0.00    -0.319 C  
BRANCH   9  10
HETATM   10  C   UNL     1      -9.851  12.401  66.821  1.00  0.00    -0.222 C  
BRANCH  10  11
HETATM   11  N   UNL     1     -10.321  13.420  67.734  1.00  0.00    -0.237 N  
HETATM   12  H   UNL     1      -9.710  14.206  67.956  1.00  0.00     0.000 HD 
BRANCH  11  13
HETATM   13  C   UNL     1     -11.555  13.359  68.305  1.00  0.00    -0.344 C  
HETATM   14  N   UNL     1     -12.290  14.474  68.072  1.00  0.00    -0.594 N  
HETATM   15  O   UNL     1     -11.985  12.431  68.972  1.00  0.00    -0.296 OA 
HETATM   16  H1  UNL     1     -13.214  14.429  68.500  1.00  0.00     0.000 HD 
HETATM   17  H2  UNL     1     -11.955  15.271  67.529  1.00  0.00     0.000 HD 
ENDBRANCH  11  13
ENDBRANCH  10  11
ENDBRANCH   9  10
ENDBRANCH   8   9
ENDBRANCH   2   8
TORSDOF 5
ENDMDL
MODEL        2
REMARK 921   NORMALIZED FREE ENERGY PREDICTED BY IDOCK:   -4.37 KCAL/MOL
REMARK 922        TOTAL FREE ENERGY PREDICTED BY IDOCK:   -6.53 KCAL/MOL
REMARK 923 INTER-LIGAND FREE ENERGY PREDICTED BY IDOCK:   -6.14 KCAL/MOL
REMARK 924 INTRA-LIGAND FREE ENERGY PREDICTED BY IDOCK:   -0.39 KCAL/MOL
REMARK 927      BINDING AFFINITY PREDICTED BY RF-SCORE:    0.00 PKD
ROOT
HETATM    1  N   UNL     1     -11.524  16.092  63.843  1.00  0.00    -1.418 NA 
HETATM    2  CA  UNL     1     -10.988  15.866  65.219  1.00  0.00    -0.324 C  
HETATM    3  H1  UNL     1     -12.319  16.730  63.840  1.00  0.00     0.000 HD 
HETATM    4  H2  UNL     1     -11.757  15.209  63.389  1.00  0.00     0.000 HD 
HETATM    5  C   UNL     1     -10.566  17.227  65.805  1.00  0.00    -0.194 C  
HETATM    6  OXT UNL     1      -9.998  17.391  66.872  1.00  0.00    -0.277 OA 
HETATM    7  O   UNL     1     -10.915  18.249  64.978  1.00  0.00    -0.684 OA 
ENDROOT
BRANCH   2   8
HETATM    8  C   UNL     1      -9.792  14.908  65.224  1.00  0.00    -0.242 C  
BRANCH   8   9
HETATM    9  C   UNL     1     -10.188  13.436  65.357  1.00  0.00    -0.311 C  
BRANCH   9  10
HETATM   10  C   UNL     1     -10.197  12.750  63.993  1.00  0.00    -0.298 C  
BRANCH  10  11
HETATM   11  N   UNL     1     -11.450  12.964  63.304  1.00  0.00    -0.778 N  
HETATM   12  H   UNL     1     -11.448  13.464  62.415  1.00  0.00     0.000 HD 
BRANCH  11  13
HETATM   13  C   UNL     1     -12.633  12.516  63.808  1.00  0.00    -0.390 C  
HETATM   14  N   UNL     1     -13.085  11.411  63.167  1.00  0.00    -0.515 N  
HETATM   15  O   UNL     1     -13.257  13.032  64.723  1.00  0.00    -0.709 OA 
HETATM   16  H1  UNL     1     -13.971  11.075  63.544  1.00  0.00     0.000 HD 
HETATM   17  H2  UNL     1     -12.593  10.964  62.392  1.00  0.00     0.000 HD 
ENDBRANCH  11  13
ENDBRANCH  10  11
ENDBRANCH   9  10
ENDBRANCH   8   9
ENDBRANCH   2   8
TORSDOF 5
ENDMDL
MODEL        3
REMARK 921   NORMALIZED FREE ENERGY PREDICTED BY IDOCK:   -4.34 KCAL/MOL
REMARK 922        TOTAL FREE ENERGY PREDICTED BY IDOCK:   -6.49 KCAL/MOL
REMARK 923 INTER-LIGAND FREE ENERGY PREDICTED BY IDOCK:   -5.79 KCAL/MOL
REMARK 924 INTRA-LIGAND FREE ENERGY PREDICTED BY IDOCK:   -0.70 KCAL/MOL
REMARK 927      BINDING AFFINITY PREDICTED BY RF-SCORE:    0.00 PKD
ROOT
HETATM    1  N   UNL     1      -9.166  11.919  65.505  1.00  0.00    -0.425 NA 
HETATM    2  CA  UNL     1     -10.564  11.425  65.320  1.00  0.00    -0.277 C  
HETATM    3  H1  UNL     1      -8.529  11.542  64.804  1.00  0.00     0.000 HD 
HETATM    4  H2  UNL     1      -8.831  11.729  66.450  1.00  0.00     0.000 HD 
HETATM    5  C   UNL     1     -11.039  11.831  63.911  1.00  0.00    -0.408 C  
HETATM    6  OXT UNL     1     -12.166  11.670  63.473  1.00  0.00    -0.443 OA 
HETATM    7  O   UNL     1     -10.030  12.397  63.195  1.00  0.00    -0.350 OA 
ENDROOT
BRANCH   2   8
HETATM    8  C   UNL     1     -11.522  11.990  66.372  1.00  0.00    -0.417 C  
BRANCH   8   9
HETATM    9  C   UNL     1     -10.990  13.240  67.076  1.00  0.00    -0.291 C  
BRANCH   9  10
HETATM   10  C   UNL     1     -11.628  14.502  66.498  1.00  0.00    -0.371 C  
BRANCH  10  11
HETATM   11  N   UNL     1     -10.924  14.953  65.317  1.00  0.00    -0.356 N  
HETATM   12  H   UNL     1      -9.921  14.785  65.243  1.00  0.00     0.000 HD 
BRANCH  11  13
HETATM   13  C   UNL     1     -11.564  15.597  64.302  1.00  0.00    -0.189 C  
HETATM   14  N   UNL     1     -12.395  14.779  63.611  1.00  0.00    -1.067 N  
HETATM   15  O   UNL     1     -11.423  16.773  64.005  1.00  0.00    -1.198 OA 
HETATM   16  H1  UNL     1     -12.874  15.260  62.850  1.00  0.00     0.000 HD 
HETATM   17  H2  UNL     1     -12.526  13.790  63.827  1.00  0.00     0.000 HD 
ENDBRANCH  11  13
ENDBRANCH  10  11
ENDBRANCH   9  10
ENDBRANCH   8   9
ENDBRANCH   2   8
TORSDOF 5
ENDMDL
MODEL        4
REMARK 921   NORMALIZED FREE ENERGY PREDICTED BY IDOCK:   -4.28 KCAL/MOL
REMARK 922        TOTAL FREE ENERGY PREDICTED BY IDOCK:   -6.41 KCAL/MOL
REMARK 923 INTER-LIGAND FREE ENERGY PREDICTED BY IDOCK:   -5.52 KCAL/MOL
REMARK 924 INTRA-LIGAND FREE ENERGY PREDICTED BY IDOCK:   -0.88 KCAL/MOL
REMARK 927      BINDING AFFINITY PREDICTED BY RF-SCORE:    0.00 PKD
ROOT
HETATM    1  N   UNL     1     -10.137  13.708  64.252  1.00  0.00    -0.763 NA 
HETATM    2  CA  UNL     1     -10.746  12.438  63.753  1.00  0.00    -0.451 C  
HETATM    3  H1  UNL     1     -10.227  14.468  63.579  1.00  0.00     0.000 HD 
HETATM    4  H2  UNL     1      -9.164  13.568  64.523  1.00  0.00     0.000 HD 
HETATM    5  C   UNL     1     -12.236  12.698  63.457  1.00  0.00    -0.547 C  
HETATM    6  OXT UNL     1     -13.048  11.849  63.128  1.00  0.00    -0.605 OA 
HETATM    7  O   UNL     1     -12.544  14.014  63.601  1.00  0.00    -0.818 OA 
ENDROOT
BRANCH   2   8
HETATM    8  C   UNL     1     -10.611  11.295  64.764  1.00  0.00    -0.376 C  
BRANCH   8   9
HETATM    9  C   UNL     1      -9.764  11.655  65.986  1.00  0.00    -0.257 C  
BRANCH   9  10
HETATM   10  C   UNL     1     -10.556  11.451  67.275  1.00  0.00    -0.227 C  
BRANCH  10  11
HETATM   11  N   UNL     1     -11.732  12.292  67.309  1.00  0.00    -0.347 N  
HETATM   12  H   UNL     1     -12.651  11.864  67.192  1.00  0.00     0.000 HD 
BRANCH  11  13
HETATM   13  C   UNL     1     -11.648  13.638  67.495  1.00  0.00    -0.350 C  
HETATM   14  N   UNL     1     -12.423  14.331  66.625  1.00  0.00    -0.543 N  
HETATM   15  O   UNL     1     -10.953  14.199  68.328  1.00  0.00    -0.239 OA 
HETATM   16  H1  UNL     1     -12.360  15.340  66.763  1.00  0.00     0.000 HD 
HETATM   17  H2  UNL     1     -13.006  13.892  65.911  1.00  0.00     0.000 HD 
ENDBRANCH  11  13
ENDBRANCH  10  11
ENDBRANCH   9  10
ENDBRANCH   8   9
ENDBRANCH   2   8
TORSDOF 5
ENDMDL
MODEL        5
REMARK 921   NORMALIZED FREE ENERGY PREDICTED BY IDOCK:   -4.21 KCAL/MOL
REMARK 922        TOTAL FREE ENERGY PREDICTED BY IDOCK:   -6.32 KCAL/MOL
REMARK 923 INTER-LIGAND FREE ENERGY PREDICTED BY IDOCK:   -6.12 KCAL/MOL
REMARK 924 INTRA-LIGAND FREE ENERGY PREDICTED BY IDOCK:   -0.20 KCAL/MOL
REMARK 927      BINDING AFFINITY PREDICTED BY RF-SCORE:    0.00 PKD
ROOT
HETATM    1  N   UNL     1     -11.527  16.351  63.843  1.00  0.00    -1.618 NA 
HETATM    2  CA  UNL     1     -11.115  15.371  64.892  1.00  0.00    -0.423 C  
HETATM    3  H1  UNL     1     -11.262  16.046  62.906  1.00  0.00     0.000 HD 
HETATM    4  H2  UNL     1     -11.162  17.282  64.045  1.00  0.00     0.000 HD 
HETATM    5  C   UNL     1     -11.780  14.016  64.578  1.00  0.00    -0.413 C  
HETATM    6  OXT UNL     1     -11.734  13.026  65.288  1.00  0.00    -0.323 OA 
HETATM    7  O   UNL     1     -12.434  14.053  63.386  1.00  0.00    -0.826 OA 
ENDROOT
BRANCH   2   8
HETATM    8  C   UNL     1     -11.513  15.828  66.299  1.00  0.00     0.280 C  
BRANCH   8   9
HETATM    9  C   UNL     1     -10.522  15.404  67.384  1.00  0.00    -0.277 C  
BRANCH   9  10
HETATM   10  C   UNL     1     -11.238  14.678  68.521  1.00  0.00    -0.271 C  
BRANCH  10  11
HETATM   11  N   UNL     1     -12.338  15.463  69.036  1.00  0.00    -0.612 N  
HETATM   12  H   UNL     1     -12.997  15.883  68.380  1.00  0.00     0.000 HD 
BRANCH  11  13
HETATM   13  C   UNL     1     -12.518  15.657  70.372  1.00  0.00    -0.371 C  
HETATM   14  N   UNL     1     -13.789  15.398  70.766  1.00  0.00    -0.860 N  
HETATM   15  O   UNL     1     -11.663  16.035  71.157  1.00  0.00    -0.401 OA 
HETATM   16  H1  UNL     1     -13.925  15.544  71.766  1.00  0.00     0.000 HD 
HETATM   17  H2  UNL     1     -14.528  15.092  70.132  1.00  0.00     0.000 HD 
ENDBRANCH  11  13
ENDBRANCH  10  11
ENDBRANCH   9  10
ENDBRANCH   8   9
ENDBRANCH   2   8
TORSDOF 5
ENDMDL
MODEL        6
REMARK 921   NORMALIZED FREE ENERGY PREDICTED BY IDOCK:   -4.19 KCAL/MOL
REMARK 922        TOTAL FREE ENERGY PREDICTED BY IDOCK:   -6.29 KCAL/MOL
REMARK 923 INTER-LIGAND FREE ENERGY PREDICTED BY IDOCK:   -6.18 KCAL/MOL
REMARK 924 INTRA-LIGAND FREE ENERGY PREDICTED BY IDOCK:   -0.10 KCAL/MOL
REMARK 927      BINDING AFFINITY PREDICTED BY RF-SCORE:    0.00 PKD
ROOT
HETATM    1  N   UNL     1     -12.380  14.345  63.496  1.00  0.00    -1.114 NA 
HETATM    2  CA  UNL     1     -11.579  13.866  64.663  1.00  0.00    -0.385 C  
HETATM    3  H1  UNL     1     -12.521  13.613  62.800  1.00  0.00     0.000 HD 
HETATM    4  H2  UNL     1     -11.962  15.176  63.078  1.00  0.00     0.000 HD 
HETATM    5  C   UNL     1     -12.318  12.675  65.302  1.00  0.00    -0.466 C  
HETATM    6  OXT UNL     1     -11.989  12.111  66.333  1.00  0.00    -0.611 OA 
HETATM    7  O   UNL     1     -13.401  12.313  64.564  1.00  0.00    -0.769 OA 
ENDROOT
BRANCH   2   8
HETATM    8  C   UNL     1     -11.367  14.966  65.708  1.00  0.00    -0.314 C  
BRANCH   8   9
HETATM    9  C   UNL     1     -10.867  16.285  65.117  1.00  0.00    -0.333 C  
BRANCH   9  10
HETATM   10  C   UNL     1     -10.274  17.178  66.205  1.00  0.00    -0.334 C  
BRANCH  10  11
HETATM   11  N   UNL     1     -10.625  18.565  65.996  1.00  0.00    -0.410 N  
HETATM   12  H   UNL     1     -11.151  18.824  65.162  1.00  0.00     0.000 HD 
BRANCH  11  13
HETATM   13  C   UNL     1     -10.272  19.537  66.883  1.00  0.00    -0.426 C  
HETATM   14  N   UNL     1      -9.711  20.613  66.278  1.00  0.00    -0.600 N  
HETATM   15  O   UNL     1     -10.413  19.478  68.095  1.00  0.00    -0.422 OA 
HETATM   16  H1  UNL     1      -9.447  21.340  66.942  1.00  0.00     0.000 HD 
HETATM   17  H2  UNL     1      -9.570  20.686  65.270  1.00  0.00     0.000 HD 
ENDBRANCH  11  13
ENDBRANCH  10  11
ENDBRANCH   9  10
ENDBRANCH   8   9
ENDBRANCH   2   8
TORSDOF 5
ENDMDL
MODEL        7
REMARK 921   NORMALIZED FREE ENERGY PREDICTED BY IDOCK:   -4.16 KCAL/MOL
REMARK 922        TOTAL FREE ENERGY PREDICTED BY IDOCK:   -6.25 KCAL/MOL
REMARK 923 INTER-LIGAND FREE ENERGY PREDICTED BY IDOCK:   -5.78 KCAL/MOL
REMARK 924 INTRA-LIGAND FREE ENERGY PREDICTED BY IDOCK:   -0.47 KCAL/MOL
REMARK 927      BINDING AFFINITY PREDICTED BY RF-SCORE:    0.00 PKD
ROOT
HETATM    1  N   UNL     1     -10.140  13.315  64.010  1.00  0.00    -0.776 NA 
HETATM    2  CA  UNL     1     -11.089  12.253  64.460  1.00  0.00    -0.321 C  
HETATM    3  H1  UNL     1     -10.095  13.387  62.994  1.00  0.00     0.000 HD 
HETATM    4  H2  UNL     1      -9.213  13.175  64.411  1.00  0.00     0.000 HD 
HETATM    5  C   UNL     1     -12.486  12.582  63.899  1.00  0.00    -0.445 C  
HETATM    6  OXT UNL     1     -13.512  11.973  64.157  1.00  0.00    -0.672 OA 
HETATM    7  O   UNL     1     -12.441  13.650  63.059  1.00  0.00    -0.719 OA 
ENDROOT
BRANCH   2   8
HETATM    8  C   UNL     1     -11.156  12.146  65.987  1.00  0.00    -0.354 C  
BRANCH   8   9
HETATM    9  C   UNL     1     -11.900  13.307  66.650  1.00  0.00    -0.447 C  
BRANCH   9  10
HETATM   10  C   UNL     1     -10.954  14.133  67.517  1.00  0.00    -0.283 C  
BRANCH  10  11
HETATM   11  N   UNL     1     -10.828  15.486  67.020  1.00  0.00    -0.323 N  
HETATM   12  H   UNL     1     -11.292  16.243  67.520  1.00  0.00     0.000 HD 
BRANCH  11  13
HETATM   13  C   UNL     1     -10.107  15.776  65.901  1.00  0.00    -0.356 C  
HETATM   14  N   UNL     1      -8.811  15.392  66.006  1.00  0.00    -0.434 N  
HETATM   15  O   UNL     1     -10.537  16.331  64.902  1.00  0.00    -0.650 OA 
HETATM   16  H1  UNL     1      -8.271  15.609  65.169  1.00  0.00     0.000 HD 
HETATM   17  H2  UNL     1      -8.420  14.937  66.831  1.00  0.00     0.000 HD 
ENDBRANCH  11  13
ENDBRANCH  10  11
ENDBRANCH   9  10
ENDBRANCH   8   9
ENDBRANCH   2   8
TORSDOF 5
ENDMDL
MODEL        8
REMARK 921   NORMALIZED FREE ENERGY PREDICTED BY IDOCK:   -4.15 KCAL/MOL
REMARK 922        TOTAL FREE ENERGY PREDICTED BY IDOCK:   -6.24 KCAL/MOL
REMARK 923 INTER-LIGAND FREE ENERGY PREDICTED BY IDOCK:   -5.52 KCAL/MOL
REMARK 924 INTRA-LIGAND FREE ENERGY PREDICTED BY IDOCK:   -0.72 KCAL/MOL
REMARK 927      BINDING AFFINITY PREDICTED BY RF-SCORE:    0.00 PKD
ROOT
HETATM    1  N   UNL     1     -12.308  13.914  63.049  1.00  0.00    -1.023 NA 
HETATM    2  CA  UNL     1     -11.586  13.759  64.347  1.00  0.00    -0.395 C  
HETATM    3  H1  UNL     1     -12.378  13.033  62.540  1.00  0.00     0.000 HD 
HETATM    4  H2  UNL     1     -11.880  14.640  62.473  1.00  0.00     0.000 HD 
HETATM    5  C   UNL     1     -12.341  12.722  65.202  1.00  0.00    -0.496 C  
HETATM    6  OXT UNL     1     -12.076  12.432  66.357  1.00  0.00    -0.607 OA 
HETATM    7  O   UNL     1     -13.356  12.150  64.499  1.00  0.00    -0.691 OA 
ENDROOT
BRANCH   2   8
HETATM    8  C   UNL     1     -11.480  15.082  65.112  1.00  0.00    -0.339 C  
BRANCH   8   9
HETATM    9  C   UNL     1     -10.065  15.395  65.601  1.00  0.00    -0.406 C  
BRANCH   9  10
HETATM   10  C   UNL     1     -10.065  15.722  67.092  1.00  0.00    -0.251 C  
BRANCH  10  11
HETATM   11  N   UNL     1     -11.324  15.364  67.710  1.00  0.00    -0.327 N  
HETATM   12  H   UNL     1     -12.191  15.536  67.202  1.00  0.00     0.000 HD 
BRANCH  11  13
HETATM   13  C   UNL     1     -11.382  14.806  68.951  1.00  0.00    -0.282 C  
HETATM   14  N   UNL     1     -12.358  13.870  69.052  1.00  0.00    -0.449 N  
HETATM   15  O   UNL     1     -10.666  15.097  69.896  1.00  0.00    -0.257 OA 
HETATM   16  H1  UNL     1     -12.402  13.452  69.981  1.00  0.00     0.000 HD 
HETATM   17  H2  UNL     1     -12.979  13.613  68.285  1.00  0.00     0.000 HD 
ENDBRANCH  11  13
ENDBRANCH  10  11
ENDBRANCH   9  10
ENDBRANCH   8   9
ENDBRANCH   2   8
TORSDOF 5
ENDMDL
MODEL        9
REMARK 921   NORMALIZED FREE ENERGY PREDICTED BY IDOCK:   -4.08 KCAL/MOL
REMARK 922        TOTAL FREE ENERGY PREDICTED BY IDOCK:   -6.15 KCAL/MOL
REMARK 923 INTER-LIGAND FREE ENERGY PREDICTED BY IDOCK:   -5.92 KCAL/MOL
REMARK 924 INTRA-LIGAND FREE ENERGY PREDICTED BY IDOCK:   -0.23 KCAL/MOL
REMARK 927      BINDING AFFINITY PREDICTED BY RF-SCORE:    0.00 PKD
ROOT
HETATM    1  N   UNL     1     -11.490  16.302  64.059  1.00  0.00    -1.521 NA 
HETATM    2  CA  UNL     1     -10.893  15.117  64.746  1.00  0.00    -0.357 C  
HETATM    3  H1  UNL     1     -11.498  16.196  63.045  1.00  0.00     0.000 HD 
HETATM    4  H2  UNL     1     -11.019  17.164  64.337  1.00  0.00     0.000 HD 
HETATM    5  C   UNL     1     -11.712  13.869  64.359  1.00  0.00    -0.404 C  
HETATM    6  OXT UNL     1     -11.555  12.751  64.821  1.00  0.00    -0.303 OA 
HETATM    7  O   UNL     1     -12.646  14.166  63.416  1.00  0.00    -0.818 OA 
ENDROOT
BRANCH   2   8
HETATM    8  C   UNL     1     -10.881  15.276  66.269  1.00  0.00    -0.312 C  
BRANCH   8   9
HETATM    9  C   UNL     1      -9.476  15.416  66.859  1.00  0.00    -0.246 C  
BRANCH   9  10
HETATM   10  C   UNL     1      -9.095  16.887  67.011  1.00  0.00    -0.226 C  
BRANCH  10  11
HETATM   11  N   UNL     1      -9.786  17.497  68.126  1.00  0.00    -0.289 N  
HETATM   12  H   UNL     1      -9.871  16.979  69.000  1.00  0.00     0.000 HD 
BRANCH  11  13
HETATM   13  C   UNL     1     -10.324  18.745  68.041  1.00  0.00    -0.387 C  
HETATM   14  N   UNL     1     -10.075  19.493  69.144  1.00  0.00    -0.606 N  
HETATM   15  O   UNL     1     -10.977  19.176  67.104  1.00  0.00    -0.453 OA 
HETATM   16  H1  UNL     1     -10.478  20.428  69.081  1.00  0.00     0.000 HD 
HETATM   17  H2  UNL     1      -9.542  19.159  69.948  1.00  0.00     0.000 HD 
ENDBRANCH  11  13
ENDBRANCH  10  11
ENDBRANCH   9  10
ENDBRANCH   8   9
ENDBRANCH   2   8
TORSDOF 5
ENDMDL
MODEL       10
REMARK 921   NORMALIZED FREE ENERGY PREDICTED BY IDOCK:   -4.07 KCAL/MOL
REMARK 922        TOTAL FREE ENERGY PREDICTED BY IDOCK:   -6.13 KCAL/MOL
REMARK 923 INTER-LIGAND FREE ENERGY PREDICTED BY IDOCK:   -5.93 KCAL/MOL
REMARK 924 INTRA-LIGAND FREE ENERGY PREDICTED BY IDOCK:   -0.20 KCAL/MOL
REMARK 927      BINDING AFFINITY PREDICTED BY RF-SCORE:    0.00 PKD
ROOT
HETATM    1  N   UNL     1     -12.456  14.481  63.949  1.00  0.00    -1.031 NA 
HETATM    2  CA  UNL     1     -11.302  13.574  64.230  1.00  0.00    -0.375 C  
HETATM    3  H1  UNL     1     -12.771  14.414  62.981  1.00  0.00     0.000 HD 
HETATM    4  H2  UNL     1     -12.238  15.445  64.200  1.00  0.00     0.000 HD 
HETATM    5  C   UNL     1     -11.735  12.128  63.922  1.00  0.00    -0.458 C  
HETATM    6  OXT UNL     1     -11.066  11.130  64.135  1.00  0.00    -0.317 OA 
HETATM    7  O   UNL     1     -12.974  12.093  63.363  1.00  0.00    -0.776 OA 
ENDROOT
BRANCH   2   8
HETATM    8  C   UNL     1     -10.830  13.674  65.684  1.00  0.00    -0.280 C  
BRANCH   8   9
HETATM    9  C   UNL     1     -11.974  13.698  66.699  1.00  0.00    -0.458 C  
BRANCH   9  10
HETATM   10  C   UNL     1     -11.770  14.813  67.722  1.00  0.00    -0.343 C  
BRANCH  10  11
HETATM   11  N   UNL     1     -12.457  14.523  68.962  1.00  0.00    -0.572 N  
HETATM   12  H   UNL     1     -13.228  13.855  68.957  1.00  0.00     0.000 HD 
BRANCH  11  13
HETATM   13  C   UNL     1     -12.103  15.118  70.135  1.00  0.00    -0.343 C  
HETATM   14  N   UNL     1     -13.141  15.764  70.722  1.00  0.00    -0.701 N  
HETATM   15  O   UNL     1     -10.987  15.106  70.630  1.00  0.00    -0.279 OA 
HETATM   16  H1  UNL     1     -12.876  16.209  71.600  1.00  0.00     0.000 HD 
HETATM   17  H2  UNL     1     -14.081  15.801  70.328  1.00  0.00     0.000 HD 
ENDBRANCH  11  13
ENDBRANCH  10  11
ENDBRANCH   9  10
ENDBRANCH   8   9
ENDBRANCH   2   8
TORSDOF 5
ENDMDL
MODEL       11
REMARK 921   NORMALIZED FREE ENERGY PREDICTED BY IDOCK:   -4.06 KCAL/MOL
REMARK 922        TOTAL FREE ENERGY PREDICTED BY IDOCK:   -6.12 KCAL/MOL
REMARK 923 INTER-LIGAND FREE ENERGY PREDICTED BY IDOCK:   -5.52 KCAL/MOL
REMARK 924 INTRA-LIGAND FREE ENERGY PREDICTED BY IDOCK:   -0.60 KCAL/MOL
REMARK 927      BINDING AFFINITY PREDICTED BY RF-SCORE:    0.00 PKD
ROOT
HETATM    1  N   UNL     1     -10.648  15.944  66.146  1.00  0.00    -0.312 NA 
HETATM    2  CA  UNL     1     -11.238  14.737  65.492  1.00  0.00    -0.346 C  
HETATM    3  H1  UNL     1      -9.972  16.415  65.545  1.00  0.00     0.000 HD 
HETATM    4  H2  UNL     1     -10.239  15.710  67.050  1.00  0.00     0.000 HD 
HETATM    5  C   UNL     1     -11.923  15.180  64.184  1.00  0.00    -0.170 C  
HETATM    6  OXT UNL     1     -12.587  14.460  63.457  1.00  0.00    -0.784 OA 
HETATM    7  O   UNL     1     -11.689  16.494  63.926  1.00  0.00    -1.148 OA 
ENDROOT
BRANCH   2   8
HETATM    8  C   UNL     1     -12.255  14.030  66.394  1.00  0.00    -0.492 C  
BRANCH   8   9
HETATM    9  C   UNL     1     -11.650  12.898  67.228  1.00  0.00    -0.416 C  
BRANCH   9  10
HETATM   10  C   UNL     1     -11.499  13.320  68.688  1.00  0.00    -0.304 C  
BRANCH  10  11
HETATM   11  N   UNL     1     -12.191  14.562  68.952  1.00  0.00    -0.564 N  
HETATM   12  H   UNL     1     -13.140  14.685  68.600  1.00  0.00     0.000 HD 
BRANCH  11  13
HETATM   13  C   UNL     1     -11.610  15.572  69.657  1.00  0.00    -0.348 C  
HETATM   14  N   UNL     1     -11.672  15.371  70.996  1.00  0.00    -0.327 N  
HETATM   15  O   UNL     1     -11.095  16.570  69.177  1.00  0.00    -0.311 OA 
HETATM   16  H1  UNL     1     -11.237  16.128  71.525  1.00  0.00     0.000 HD 
HETATM   17  H2  UNL     1     -12.105  14.554  71.428  1.00  0.00     0.000 HD 
ENDBRANCH  11  13
ENDBRANCH  10  11
ENDBRANCH   9  10
ENDBRANCH   8   9
ENDBRANCH   2   8
TORSDOF 5
ENDMDL
MODEL       12
REMARK 921   NORMALIZED FREE ENERGY PREDICTED BY IDOCK:   -4.05 KCAL/MOL
REMARK 922        TOTAL FREE ENERGY PREDICTED BY IDOCK:   -6.12 KCAL/MOL
REMARK 923 INTER-LIGAND FREE ENERGY PREDICTED BY IDOCK:   -5.93 KCAL/MOL
REMARK 924 INTRA-LIGAND FREE ENERGY PREDICTED BY IDOCK:   -0.19 KCAL/MOL
REMARK 927      BINDING AFFINITY PREDICTED BY RF-SCORE:    0.00 PKD
ROOT
HETATM    1  N   UNL     1     -10.210  14.084  64.457  1.00  0.00    -0.689 NA 
HETATM    2  CA  UNL     1     -10.992  12.908  64.944  1.00  0.00    -0.301 C  
HETATM    3  H1  UNL     1     -10.106  14.084  63.442  1.00  0.00     0.000 HD 
HETATM    4  H2  UNL     1      -9.304  14.142  64.921  1.00  0.00     0.000 HD 
HETATM    5  C   UNL     1     -12.381  12.939  64.277  1.00  0.00    -0.385 C  
HETATM    6  OXT UNL     1     -13.302  12.179  64.529  1.00  0.00    -0.691 OA 
HETATM    7  O   UNL     1     -12.460  13.930  63.350  1.00  0.00    -0.833 OA 
ENDROOT
BRANCH   2   8
HETATM    8  C   UNL     1     -11.149  12.908  66.467  1.00  0.00    -0.318 C  
BRANCH   8   9
HETATM    9  C   UNL     1     -12.090  13.997  66.986  1.00  0.00    -0.455 C  
BRANCH   9  10
HETATM   10  C   UNL     1     -11.309  15.089  67.713  1.00  0.00    -0.330 C  
BRANCH  10  11
HETATM   11  N   UNL     1     -12.127  15.748  68.708  1.00  0.00    -0.545 N  
HETATM   12  H   UNL     1     -12.614  16.609  68.459  1.00  0.00     0.000 HD 
BRANCH  11  13
HETATM   13  C   UNL     1     -12.265  15.250  69.968  1.00  0.00    -0.349 C  
HETATM   14  N   UNL     1     -13.509  15.447  70.470  1.00  0.00    -0.793 N  
HETATM   15  O   UNL     1     -11.389  14.697  70.614  1.00  0.00    -0.238 OA 
HETATM   16  H1  UNL     1     -13.613  15.075  71.414  1.00  0.00     0.000 HD 
HETATM   17  H2  UNL     1     -14.258  15.916  69.960  1.00  0.00     0.000 HD 
ENDBRANCH  11  13
ENDBRANCH  10  11
ENDBRANCH   9  10
ENDBRANCH   8   9
ENDBRANCH   2   8
TORSDOF 5
ENDMDL
MODEL       13
REMARK 921   NORMALIZED FREE ENERGY PREDICTED BY IDOCK:   -4.04 KCAL/MOL
REMARK 922        TOTAL FREE ENERGY PREDICTED BY IDOCK:   -6.10 KCAL/MOL
REMARK 923 INTER-LIGAND FREE ENERGY PREDICTED BY IDOCK:   -5.99 KCAL/MOL
REMARK 924 INTRA-LIGAND FREE ENERGY PREDICTED BY IDOCK:   -0.10 KCAL/MOL
REMARK 927      BINDING AFFINITY PREDICTED BY RF-SCORE:    0.00 PKD
ROOT
HETATM    1  N   UNL     1     -12.125  16.217  71.516  1.00  0.00    -0.633 NA 
HETATM    2  CA  UNL     1     -13.026  15.062  71.223  1.00  0.00    -0.377 C  
HETATM    3  H1  UNL     1     -12.549  16.882  72.163  1.00  0.00     0.000 HD 
HETATM    4  H2  UNL     1     -11.825  16.678  70.657  1.00  0.00     0.000 HD 
HETATM    5  C   UNL     1     -13.359  14.357  72.552  1.00  0.00    -0.486 C  
HETATM    6  OXT UNL     1     -13.991  13.319  72.661  1.00  0.00    -0.741 OA 
HETATM    7  O   UNL     1     -12.860  15.045  73.613  1.00  0.00    -0.515 OA 
ENDROOT
BRANCH   2   8
HETATM    8  C   UNL     1     -12.389  14.063  70.252  1.00  0.00    -0.425 C  
BRANCH   8   9
HETATM    9  C   UNL     1     -11.992  14.682  68.911  1.00  0.00    -0.309 C  
BRANCH   9  10
HETATM   10  C   UNL     1     -12.028  13.637  67.798  1.00  0.00    -0.352 C  
BRANCH  10  11
HETATM   11  N   UNL     1     -12.326  14.240  66.518  1.00  0.00    -0.506 N  
HETATM   12  H   UNL     1     -12.559  15.232  66.480  1.00  0.00     0.000 HD 
BRANCH  11  13
HETATM   13  C   UNL     1     -12.304  13.520  65.362  1.00  0.00    -0.478 C  
HETATM   14  N   UNL     1     -11.131  13.649  64.693  1.00  0.00    -0.364 N  
HETATM   15  O   UNL     1     -13.220  12.836  64.932  1.00  0.00    -0.808 OA 
HETATM   16  H1  UNL     1     -11.115  13.110  63.827  1.00  0.00     0.000 HD 
HETATM   17  H2  UNL     1     -10.352  14.221  65.020  1.00  0.00     0.000 HD 
ENDBRANCH  11  13
ENDBRANCH  10  11
ENDBRANCH   9  10
ENDBRANCH   8   9
ENDBRANCH   2   8
TORSDOF 5
ENDMDL
MODEL       14
REMARK 921   NORMALIZED FREE ENERGY PREDICTED BY IDOCK:   -4.04 KCAL/MOL
REMARK 922        TOTAL FREE ENERGY PREDICTED BY IDOCK:   -6.10 KCAL/MOL
REMARK 923 INTER-LIGAND FREE ENERGY PREDICTED BY IDOCK:   -5.88 KCAL/MOL
REMARK 924 INTRA-LIGAND FREE ENERGY PREDICTED BY IDOCK:   -0.21 KCAL/MOL
REMARK 927      BINDING AFFINITY PREDICTED BY RF-SCORE:    0.00 PKD
ROOT
HETATM    1  N   UNL     1     -12.634  14.072  63.357  1.00  0.00    -1.030 NA 
HETATM    2  CA  UNL     1     -11.743  14.090  64.556  1.00  0.00    -0.413 C  
HETATM    3  H1  UNL     1     -13.404  14.734  63.440  1.00  0.00     0.000 HD 
HETATM    4  H2  UNL     1     -12.976  13.130  63.166  1.00  0.00     0.000 HD 
HETATM    5  C   UNL     1     -11.187  15.517  64.726  1.00  0.00    -0.390 C  
HETATM    6  OXT UNL     1     -10.352  15.855  65.548  1.00  0.00    -0.360 OA 
HETATM    7  O   UNL     1     -11.754  16.376  63.837  1.00  0.00    -1.085 OA 
ENDROOT
BRANCH   2   8
HETATM    8  C   UNL     1     -10.585  13.094  64.431  1.00  0.00    -0.441 C  
BRANCH   8   9
HETATM    9  C   UNL     1     -10.913  11.879  63.562  1.00  0.00    -0.505 C  
BRANCH   9  10
HETATM   10  C   UNL     1      -9.636  11.181  63.101  1.00  0.00    -0.369 C  
BRANCH  10  11
HETATM   11  N   UNL     1      -9.563   9.828  63.609  1.00  0.00    -0.487 N  
HETATM   12  H   UNL     1     -10.001   9.075  63.078  1.00  0.00     0.000 HD 
BRANCH  11  13
HETATM   13  C   UNL     1      -8.926   9.532  64.775  1.00  0.00    -0.218 C  
HETATM   14  N   UNL     1      -9.744   8.932  65.675  1.00  0.00    -0.470 N  
HETATM   15  O   UNL     1      -7.756   9.776  65.028  1.00  0.00    -0.114 OA 
HETATM   16  H1  UNL     1      -9.267   8.711  66.549  1.00  0.00     0.000 HD 
HETATM   17  H2  UNL     1     -10.727   8.725  65.497  1.00  0.00     0.000 HD 
ENDBRANCH  11  13
ENDBRANCH  10  11
ENDBRANCH   9  10
ENDBRANCH   8   9
ENDBRANCH   2   8
TORSDOF 5
ENDMDL
MODEL       15
REMARK 921   NORMALIZED FREE ENERGY PREDICTED BY IDOCK:   -4.03 KCAL/MOL
REMARK 922        TOTAL FREE ENERGY PREDICTED BY IDOCK:   -6.09 KCAL/MOL
REMARK 923 INTER-LIGAND FREE ENERGY PREDICTED BY IDOCK:   -5.85 KCAL/MOL
REMARK 924 INTRA-LIGAND FREE ENERGY PREDICTED BY IDOCK:   -0.24 KCAL/MOL
REMARK 927      BINDING AFFINITY PREDICTED BY RF-SCORE:    0.00 PKD
ROOT
HETATM    1  N   UNL     1     -12.563  14.200  63.439  1.00  0.00    -1.023 NA 
HETATM    2  CA  UNL     1     -11.675  14.235  64.640  1.00  0.00    -0.430 C  
HETATM    3  H1  UNL     1     -13.344  14.851  63.519  1.00  0.00     0.000 HD 
HETATM    4  H2  UNL     1     -12.891  13.252  63.250  1.00  0.00     0.000 HD 
HETATM    5  C   UNL     1     -11.140  15.671  64.806  1.00  0.00    -0.412 C  
HETATM    6  OXT UNL     1     -10.312  16.024  65.629  1.00  0.00    -0.352 OA 
HETATM    7  O   UNL     1     -11.718  16.518  63.913  1.00  0.00    -1.148 OA 
ENDROOT
BRANCH   2   8
HETATM    8  C   UNL     1     -10.502  13.256  64.520  1.00  0.00    -0.434 C  
BRANCH   8   9
HETATM    9  C   UNL     1     -10.241  12.455  65.797  1.00  0.00    -0.283 C  
BRANCH   9  10
HETATM   10  C   UNL     1     -11.532  12.255  66.587  1.00  0.00    -0.373 C  
BRANCH  10  11
HETATM   11  N   UNL     1     -11.320  11.399  67.734  1.00  0.00    -0.279 N  
HETATM   12  H   UNL     1     -10.704  10.592  67.642  1.00  0.00     0.000 HD 
BRANCH  11  13
HETATM   13  C   UNL     1     -11.922  11.641  68.931  1.00  0.00    -0.292 C  
HETATM   14  N   UNL     1     -12.331  10.504  69.545  1.00  0.00    -0.549 N  
HETATM   15  O   UNL     1     -12.105  12.743  69.425  1.00  0.00    -0.273 OA 
HETATM   16  H1  UNL     1     -12.781  10.685  70.442  1.00  0.00     0.000 HD 
HETATM   17  H2  UNL     1     -12.202   9.570  69.153  1.00  0.00     0.000 HD 
ENDBRANCH  11  13
ENDBRANCH  10  11
ENDBRANCH   9  10
ENDBRANCH   8   9
ENDBRANCH   2   8
TORSDOF 5
ENDMDL
MODEL       16
REMARK 921   NORMALIZED FREE ENERGY PREDICTED BY IDOCK:   -4.03 KCAL/MOL
REMARK 922        TOTAL FREE ENERGY PREDICTED BY IDOCK:   -6.09 KCAL/MOL
REMARK 923 INTER-LIGAND FREE ENERGY PREDICTED BY IDOCK:   -5.34 KCAL/MOL
REMARK 924 INTRA-LIGAND FREE ENERGY PREDICTED BY IDOCK:   -0.75 KCAL/MOL
REMARK 927      BINDING AFFINITY PREDICTED BY RF-SCORE:    0.00 PKD
ROOT
HETATM    1  N   UNL     1     -12.397  13.765  62.968  1.00  0.00    -1.030 NA 
HETATM    2  CA  UNL     1     -11.936  12.628  63.821  1.00  0.00    -0.510 C  
HETATM    3  H1  UNL     1     -13.408  13.894  63.013  1.00  0.00     0.000 HD 
HETATM    4  H2  UNL     1     -12.082  13.655  62.004  1.00  0.00     0.000 HD 
HETATM    5  C   UNL     1     -12.361  12.909  65.275  1.00  0.00    -0.490 C  
HETATM    6  OXT UNL     1     -12.058  12.230  66.242  1.00  0.00    -0.626 OA 
HETATM    7  O   UNL     1     -13.138  14.022  65.355  1.00  0.00    -0.763 OA 
ENDROOT
BRANCH   2   8
HETATM    8  C   UNL     1     -10.418  12.434  63.754  1.00  0.00    -0.475 C  
BRANCH   8   9
HETATM    9  C   UNL     1      -9.985  10.968  63.801  1.00  0.00    -0.404 C  
BRANCH   9  10
HETATM   10  C   UNL     1      -8.922  10.749  64.875  1.00  0.00    -0.184 C  
BRANCH  10  11
HETATM   11  N   UNL     1      -8.912  11.832  65.835  1.00  0.00    -0.380 N  
HETATM   12  H   UNL     1      -9.026  12.790  65.502  1.00  0.00     0.000 HD 
BRANCH  11  13
HETATM   13  C   UNL     1      -8.756  11.609  67.169  1.00  0.00    -0.164 C  
HETATM   14  N   UNL     1      -9.619  12.335  67.921  1.00  0.00    -0.197 N  
HETATM   15  O   UNL     1      -7.934  10.859  67.673  1.00  0.00    -0.111 OA 
HETATM   16  H1  UNL     1      -9.502  12.168  68.920  1.00  0.00     0.000 HD 
HETATM   17  H2  UNL     1     -10.309  12.977  67.530  1.00  0.00     0.000 HD 
ENDBRANCH  11  13
ENDBRANCH  10  11
ENDBRANCH   9  10
ENDBRANCH   8   9
ENDBRANCH   2   8
TORSDOF 5
ENDMDL
MODEL       17
REMARK 921   NORMALIZED FREE ENERGY PREDICTED BY IDOCK:   -4.03 KCAL/MOL
REMARK 922        TOTAL FREE ENERGY PREDICTED BY IDOCK:   -6.09 KCAL/MOL
REMARK 923 INTER-LIGAND FREE ENERGY PREDICTED BY IDOCK:   -5.56 KCAL/MOL
REMARK 924 INTRA-LIGAND FREE ENERGY PREDICTED BY IDOCK:   -0.52 KCAL/MOL
REMARK 927      BINDING AFFINITY PREDICTED BY RF-SCORE:    0.00 PKD
ROOT
HETATM    1  N   UNL     1     -11.817  12.279  66.937  1.00  0.00    -0.581 NA 
HETATM    2  CA  UNL     1     -10.976  11.047  67.012  1.00  0.00    -0.272 C  
HETATM    3  H1  UNL     1     -12.642  12.219  67.534  1.00  0.00     0.000 HD 
HETATM    4  H2  UNL     1     -12.074  12.492  65.973  1.00  0.00     0.000 HD 
HETATM    5  C   UNL     1     -10.544  10.843  68.478  1.00  0.00    -0.190 C  
HETATM    6  OXT UNL     1      -9.770   9.987  68.873  1.00  0.00    -0.165 OA 
HETATM    7  O   UNL     1     -11.146  11.745  69.298  1.00  0.00    -0.242 OA 
ENDROOT
BRANCH   2   8
HETATM    8  C   UNL     1      -9.737  11.137  66.116  1.00  0.00    -0.253 C  
BRANCH   8   9
HETATM    9  C   UNL     1      -9.948  10.551  64.719  1.00  0.00    -0.412 C  
BRANCH   9  10
HETATM   10  C   UNL     1     -10.040  11.660  63.673  1.00  0.00    -0.402 C  
BRANCH  10  11
HETATM   11  N   UNL     1     -11.346  11.691  63.052  1.00  0.00    -0.803 N  
HETATM   12  H   UNL     1     -11.535  11.074  62.263  1.00  0.00     0.000 HD 
BRANCH  11  13
HETATM   13  C   UNL     1     -12.331  12.522  63.492  1.00  0.00    -0.525 C  
HETATM   14  N   UNL     1     -12.107  13.816  63.154  1.00  0.00    -0.970 N  
HETATM   15  O   UNL     1     -13.313  12.184  64.135  1.00  0.00    -0.750 OA 
HETATM   16  H1  UNL     1     -12.844  14.439  63.484  1.00  0.00     0.000 HD 
HETATM   17  H2  UNL     1     -11.292  14.132  62.628  1.00  0.00     0.000 HD 
ENDBRANCH  11  13
ENDBRANCH  10  11
ENDBRANCH   9  10
ENDBRANCH   8   9
ENDBRANCH   2   8
TORSDOF 5
ENDMDL
MODEL       18
REMARK 921   NORMALIZED FREE ENERGY PREDICTED BY IDOCK:   -4.01 KCAL/MOL
REMARK 922        TOTAL FREE ENERGY PREDICTED BY IDOCK:   -6.06 KCAL/MOL
REMARK 923 INTER-LIGAND FREE ENERGY PREDICTED BY IDOCK:   -5.70 KCAL/MOL
REMARK 924 INTRA-LIGAND FREE ENERGY PREDICTED BY IDOCK:   -0.36 KCAL/MOL
REMARK 927      BINDING AFFINITY PREDICTED BY RF-SCORE:    0.00 PKD
ROOT
HETATM    1  N   UNL     1     -11.695  16.074  63.952  1.00  0.00    -1.328 NA 
HETATM    2  CA  UNL     1     -11.163  14.919  64.736  1.00  0.00    -0.386 C  
HETATM    3  H1  UNL     1     -11.534  15.967  62.951  1.00  0.00     0.000 HD 
HETATM    4  H2  UNL     1     -11.317  16.958  64.294  1.00  0.00     0.000 HD 
HETATM    5  C   UNL     1     -11.849  13.634  64.233  1.00  0.00    -0.425 C  
HETATM    6  OXT UNL     1     -11.717  12.525  64.724  1.00  0.00    -0.329 OA 
HETATM    7  O   UNL     1     -12.631  13.885  63.149  1.00  0.00    -0.775 OA 
ENDROOT
BRANCH   2   8
HETATM    8  C   UNL     1     -11.405  15.080  66.240  1.00  0.00    -0.273 C  
BRANCH   8   9
HETATM    9  C   UNL     1     -10.209  15.663  66.994  1.00  0.00    -0.274 C  
BRANCH   9  10
HETATM   10  C   UNL     1     -10.484  17.104  67.419  1.00  0.00    -0.334 C  
BRANCH  10  11
HETATM   11  N   UNL     1     -10.327  18.019  66.310  1.00  0.00    -0.393 N  
HETATM   12  H   UNL     1     -10.791  17.811  65.426  1.00  0.00     0.000 HD 
BRANCH  11  13
HETATM   13  C   UNL     1      -9.577  19.151  66.412  1.00  0.00    -0.361 C  
HETATM   14  N   UNL     1     -10.042  19.997  67.365  1.00  0.00    -0.413 N  
HETATM   15  O   UNL     1      -8.598  19.420  65.733  1.00  0.00    -0.405 OA 
HETATM   16  H1  UNL     1      -9.480  20.844  67.442  1.00  0.00     0.000 HD 
HETATM   17  H2  UNL     1     -10.862  19.805  67.941  1.00  0.00     0.000 HD 
ENDBRANCH  11  13
ENDBRANCH  10  11
ENDBRANCH   9  10
ENDBRANCH   8   9
ENDBRANCH   2   8
TORSDOF 5
ENDMDL
MODEL       19
REMARK 921   NORMALIZED FREE ENERGY PREDICTED BY IDOCK:   -3.99 KCAL/MOL
REMARK 922        TOTAL FREE ENERGY PREDICTED BY IDOCK:   -6.04 KCAL/MOL
REMARK 923 INTER-LIGAND FREE ENERGY PREDICTED BY IDOCK:   -5.52 KCAL/MOL
REMARK 924 INTRA-LIGAND FREE ENERGY PREDICTED BY IDOCK:   -0.52 KCAL/MOL
REMARK 927      BINDING AFFINITY PREDICTED BY RF-SCORE:    0.00 PKD
ROOT
HETATM    1  N   UNL     1     -13.242  13.979  65.158  1.00  0.00    -0.680 NA 
HETATM    2  CA  UNL     1     -11.851  13.870  64.625  1.00  0.00    -0.407 C  
HETATM    3  H1  UNL     1     -13.933  14.072  64.414  1.00  0.00     0.000 HD 
HETATM    4  H2  UNL     1     -13.320  14.740  65.832  1.00  0.00     0.000 HD 
HETATM    5  C   UNL     1     -11.782  12.644  63.694  1.00  0.00    -0.522 C  
HETATM    6  OXT UNL     1     -10.769  12.211  63.170  1.00  0.00    -0.375 OA 
HETATM    7  O   UNL     1     -13.013  12.093  63.514  1.00  0.00    -0.794 OA 
ENDROOT
BRANCH   2   8
HETATM    8  C   UNL     1     -10.813  13.729  65.743  1.00  0.00    -0.277 C  
BRANCH   8   9
HETATM    9  C   UNL     1     -11.121  12.599  66.726  1.00  0.00    -0.318 C  
BRANCH   9  10
HETATM   10  C   UNL     1     -11.302  13.143  68.141  1.00  0.00    -0.292 C  
BRANCH  10  11
HETATM   11  N   UNL     1     -12.182  14.291  68.155  1.00  0.00    -0.580 N  
HETATM   12  H   UNL     1     -13.049  14.257  67.618  1.00  0.00     0.000 HD 
BRANCH  11  13
HETATM   13  C   UNL     1     -11.887  15.414  68.866  1.00  0.00    -0.329 C  
HETATM   14  N   UNL     1     -12.542  15.465  70.052  1.00  0.00    -0.607 N  
HETATM   15  O   UNL     1     -11.134  16.306  68.505  1.00  0.00    -0.337 OA 
HETATM   16  H1  UNL     1     -12.321  16.306  70.584  1.00  0.00     0.000 HD 
HETATM   17  H2  UNL     1     -13.184  14.742  70.376  1.00  0.00     0.000 HD 
ENDBRANCH  11  13
ENDBRANCH  10  11
ENDBRANCH   9  10
ENDBRANCH   8   9
ENDBRANCH   2   8
TORSDOF 5
ENDMDL
MODEL       20
REMARK 921   NORMALIZED FREE ENERGY PREDICTED BY IDOCK:   -3.98 KCAL/MOL
REMARK 922        TOTAL FREE ENERGY PREDICTED BY IDOCK:   -6.02 KCAL/MOL
REMARK 923 INTER-LIGAND FREE ENERGY PREDICTED BY IDOCK:   -5.68 KCAL/MOL
REMARK 924 INTRA-LIGAND FREE ENERGY PREDICTED BY IDOCK:   -0.34 KCAL/MOL
REMARK 927      BINDING AFFINITY PREDICTED BY RF-SCORE:    0.00 PKD
ROOT
HETATM    1  N   UNL     1     -12.385  12.743  65.659  1.00  0.00    -0.594 NA 
HETATM    2  CA  UNL     1     -12.334  14.233  65.760  1.00  0.00    -0.405 C  
HETATM    3  H1  UNL     1     -13.231  12.418  65.192  1.00  0.00     0.000 HD 
HETATM    4  H2  UNL     1     -12.278  12.307  66.575  1.00  0.00     0.000 HD 
HETATM    5  C   UNL     1     -12.402  14.818  64.337  1.00  0.00    -0.368 C  
HETATM    6  OXT UNL     1     -12.284  15.999  64.053  1.00  0.00    -0.792 OA 
HETATM    7  O   UNL     1     -12.619  13.844  63.413  1.00  0.00    -0.853 OA 
ENDROOT
BRANCH   2   8
HETATM    8  C   UNL     1     -11.063  14.722  66.462  1.00  0.00    -0.334 C  
BRANCH   8   9
HETATM    9  C   UNL     1     -10.983  14.319  67.935  1.00  0.00    -0.278 C  
BRANCH   9  10
HETATM   10  C   UNL     1      -9.743  13.468  68.200  1.00  0.00    -0.233 C  
BRANCH  10  11
HETATM   11  N   UNL     1     -10.055  12.328  69.034  1.00  0.00    -0.422 N  
HETATM   12  H   UNL     1      -9.311  11.898  69.583  1.00  0.00     0.000 HD 
BRANCH  11  13
HETATM   13  C   UNL     1     -11.313  11.813  69.106  1.00  0.00    -0.279 C  
HETATM   14  N   UNL     1     -11.821  11.857  70.362  1.00  0.00    -0.509 N  
HETATM   15  O   UNL     1     -11.943  11.341  68.172  1.00  0.00    -0.610 OA 
HETATM   16  H1  UNL     1     -12.763  11.471  70.417  1.00  0.00     0.000 HD 
HETATM   17  H2  UNL     1     -11.315  12.234  71.165  1.00  0.00     0.000 HD 
ENDBRANCH  11  13
ENDBRANCH  10  11
ENDBRANCH   9  10
ENDBRANCH   8   9
ENDBRANCH   2   8
TORSDOF 5
ENDMDL
MODEL       21
REMARK 921   NORMALIZED FREE ENERGY PREDICTED BY IDOCK:   -3.94 KCAL/MOL
REMARK 922        TOTAL FREE ENERGY PREDICTED BY IDOCK:   -5.97 KCAL/MOL
REMARK 923 INTER-LIGAND FREE ENERGY PREDICTED BY IDOCK:   -5.22 KCAL/MOL
REMARK 924 INTRA-LIGAND FREE ENERGY PREDICTED BY IDOCK:   -0.75 KCAL/MOL
REMARK 927      BINDING AFFINITY PREDICTED BY RF-SCORE:    0.00 PKD
ROOT
HETATM    1  N   UNL     1     -10.239  14.152  64.331  1.00  0.00    -0.676 NA 
HETATM    2  CA  UNL     1     -10.805  12.790  64.096  1.00  0.00    -0.406 C  
HETATM    3  H1  UNL     1     -10.234  14.718  63.483  1.00  0.00     0.000 HD 
HETATM    4  H2  UNL     1      -9.308  14.098  64.745  1.00  0.00     0.000 HD 
HETATM    5  C   UNL     1     -12.244  12.947  63.565  1.00  0.00    -0.512 C  
HETATM    6  OXT UNL     1     -13.025  12.033  63.363  1.00  0.00    -0.772 OA 
HETATM    7  O   UNL     1     -12.544  14.254  63.337  1.00  0.00    -0.777 OA 
ENDROOT
BRANCH   2   8
HETATM    8  C   UNL     1     -10.814  11.939  65.370  1.00  0.00    -0.343 C  
BRANCH   8   9
HETATM    9  C   UNL     1     -11.790  12.441  66.435  1.00  0.00    -0.421 C  
BRANCH   9  10
HETATM   10  C   UNL     1     -11.040  12.924  67.675  1.00  0.00    -0.264 C  
BRANCH  10  11
HETATM   11  N   UNL     1     -10.528  14.264  67.493  1.00  0.00    -0.252 N  
HETATM   12  H   UNL     1     -11.152  14.989  67.140  1.00  0.00     0.000 HD 
BRANCH  11  13
HETATM   13  C   UNL     1      -9.236  14.585  67.779  1.00  0.00    -0.194 C  
HETATM   14  N   UNL     1      -8.446  14.586  66.677  1.00  0.00    -0.426 N  
HETATM   15  O   UNL     1      -8.795  14.834  68.890  1.00  0.00    -0.180 OA 
HETATM   16  H1  UNL     1      -7.478  14.826  66.891  1.00  0.00     0.000 HD 
HETATM   17  H2  UNL     1      -8.782  14.372  65.738  1.00  0.00     0.000 HD 
ENDBRANCH  11  13
ENDBRANCH  10  11
ENDBRANCH   9  10
ENDBRANCH   8   9
ENDBRANCH   2   8
TORSDOF 5
ENDMDL
MODEL       22
REMARK 921   NORMALIZED FREE ENERGY PREDICTED BY IDOCK:   -3.94 KCAL/MOL
REMARK 922        TOTAL FREE ENERGY PREDICTED BY IDOCK:   -5.97 KCAL/MOL
REMARK 923 INTER-LIGAND FREE ENERGY PREDICTED BY IDOCK:   -5.71 KCAL/MOL
REMARK 924 INTRA-LIGAND FREE ENERGY PREDICTED BY IDOCK:   -0.26 KCAL/MOL
REMARK 927      BINDING AFFINITY PREDICTED BY RF-SCORE:    0.00 PKD
ROOT
HETATM    1  N   UNL     1     -12.193  15.274  68.424  1.00  0.00    -0.528 NA 
HETATM    2  CA  UNL     1     -11.776  14.358  67.320  1.00  0.00    -0.404 C  
HETATM    3  H1  UNL     1     -12.958  14.887  68.976  1.00  0.00     0.000 HD 
HETATM    4  H2  UNL     1     -12.428  16.200  68.065  1.00  0.00     0.000 HD 
HETATM    5  C   UNL     1     -11.343  13.015  67.941  1.00  0.00    -0.288 C  
HETATM    6  OXT UNL     1     -10.853  12.080  67.329  1.00  0.00    -0.227 OA 
HETATM    7  O   UNL     1     -11.583  12.992  69.279  1.00  0.00    -0.279 OA 
ENDROOT
BRANCH   2   8
HETATM    8  C   UNL     1     -10.627  14.938  66.489  1.00  0.00    -0.306 C  
BRANCH   8   9
HETATM    9  C   UNL     1     -10.964  15.097  65.005  1.00  0.00    -0.443 C  
BRANCH   9  10
HETATM   10  C   UNL     1     -12.322  14.476  64.687  1.00  0.00    -0.403 C  
BRANCH  10  11
HETATM   11  N   UNL     1     -12.308  13.809  63.404  1.00  0.00    -1.100 N  
HETATM   12  H   UNL     1     -12.643  14.310  62.581  1.00  0.00     0.000 HD 
BRANCH  11  13
HETATM   13  C   UNL     1     -11.860  12.530  63.264  1.00  0.00    -0.413 C  
HETATM   14  N   UNL     1     -12.858  11.661  62.970  1.00  0.00    -0.889 N  
HETATM   15  O   UNL     1     -10.702  12.164  63.395  1.00  0.00    -0.430 OA 
HETATM   16  H1  UNL     1     -12.523  10.703  62.865  1.00  0.00     0.000 HD 
HETATM   17  H2  UNL     1     -13.835  11.934  62.865  1.00  0.00     0.000 HD 
ENDBRANCH  11  13
ENDBRANCH  10  11
ENDBRANCH   9  10
ENDBRANCH   8   9
ENDBRANCH   2   8
TORSDOF 5
ENDMDL
MODEL       23
REMARK 921   NORMALIZED FREE ENERGY PREDICTED BY IDOCK:   -3.93 KCAL/MOL
REMARK 922        TOTAL FREE ENERGY PREDICTED BY IDOCK:   -5.96 KCAL/MOL
REMARK 923 INTER-LIGAND FREE ENERGY PREDICTED BY IDOCK:   -5.80 KCAL/MOL
REMARK 924 INTRA-LIGAND FREE ENERGY PREDICTED BY IDOCK:   -0.16 KCAL/MOL
REMARK 927      BINDING AFFINITY PREDICTED BY RF-SCORE:    0.00 PKD
ROOT
HETATM    1  N   UNL     1     -10.865  14.957  65.554  1.00  0.00    -0.335 NA 
HETATM    2  CA  UNL     1     -11.471  13.606  65.751  1.00  0.00    -0.315 C  
HETATM    3  H1  UNL     1     -10.428  15.053  64.637  1.00  0.00     0.000 HD 
HETATM    4  H2  UNL     1     -10.207  15.179  66.301  1.00  0.00     0.000 HD 
HETATM    5  C   UNL     1     -12.522  13.380  64.646  1.00  0.00    -0.331 C  
HETATM    6  OXT UNL     1     -13.271  12.420  64.572  1.00  0.00    -0.834 OA 
HETATM    7  O   UNL     1     -12.510  14.394  63.741  1.00  0.00    -0.814 OA 
ENDROOT
BRANCH   2   8
HETATM    8  C   UNL     1     -12.128  13.462  67.127  1.00  0.00    -0.367 C  
BRANCH   8   9
HETATM    9  C   UNL     1     -11.156  13.655  68.293  1.00  0.00    -0.281 C  
BRANCH   9  10
HETATM   10  C   UNL     1     -11.884  13.552  69.631  1.00  0.00    -0.336 C  
BRANCH  10  11
HETATM   11  N   UNL     1     -11.376  14.515  70.583  1.00  0.00    -0.501 N  
HETATM   12  H   UNL     1     -10.381  14.510  70.810  1.00  0.00     0.000 HD 
BRANCH  11  13
HETATM   13  C   UNL     1     -12.188  15.427  71.185  1.00  0.00    -0.371 C  
HETATM   14  N   UNL     1     -13.415  15.486  70.613  1.00  0.00    -0.829 N  
HETATM   15  O   UNL     1     -11.879  16.142  72.126  1.00  0.00    -0.483 OA 
HETATM   16  H1  UNL     1     -14.024  16.169  71.063  1.00  0.00     0.000 HD 
HETATM   17  H2  UNL     1     -13.699  14.910  69.820  1.00  0.00     0.000 HD 
ENDBRANCH  11  13
ENDBRANCH  10  11
ENDBRANCH   9  10
ENDBRANCH   8   9
ENDBRANCH   2   8
TORSDOF 5
ENDMDL
MODEL       24
REMARK 921   NORMALIZED FREE ENERGY PREDICTED BY IDOCK:   -3.93 KCAL/MOL
REMARK 922        TOTAL FREE ENERGY PREDICTED BY IDOCK:   -5.96 KCAL/MOL
REMARK 923 INTER-LIGAND FREE ENERGY PREDICTED BY IDOCK:   -5.75 KCAL/MOL
REMARK 924 INTRA-LIGAND FREE ENERGY PREDICTED BY IDOCK:   -0.21 KCAL/MOL
REMARK 927      BINDING AFFINITY PREDICTED BY RF-SCORE:    0.00 PKD
ROOT
HETATM    1  N   UNL     1     -11.227  11.848  65.951  1.00  0.00    -0.331 NA 
HETATM    2  CA  UNL     1     -12.284  12.821  65.543  1.00  0.00    -0.463 C  
HETATM    3  H1  UNL     1     -11.224  11.014  65.363  1.00  0.00     0.000 HD 
HETATM    4  H2  UNL     1     -11.312  11.603  66.938  1.00  0.00     0.000 HD 
HETATM    5  C   UNL     1     -12.036  13.220  64.075  1.00  0.00    -0.447 C  
HETATM    6  OXT UNL     1     -12.656  14.072  63.461  1.00  0.00    -0.842 OA 
HETATM    7  O   UNL     1     -11.027  12.489  63.530  1.00  0.00    -0.445 OA 
ENDROOT
BRANCH   2   8
HETATM    8  C   UNL     1     -12.288  14.074  66.425  1.00  0.00    -0.468 C  
BRANCH   8   9
HETATM    9  C   UNL     1     -10.914  14.424  66.998  1.00  0.00    -0.304 C  
BRANCH   9  10
HETATM   10  C   UNL     1     -11.044  15.399  68.165  1.00  0.00    -0.309 C  
BRANCH  10  11
HETATM   11  N   UNL     1     -12.293  15.214  68.870  1.00  0.00    -0.603 N  
HETATM   12  H   UNL     1     -13.121  14.930  68.346  1.00  0.00     0.000 HD 
BRANCH  11  13
HETATM   13  C   UNL     1     -12.395  15.406  70.215  1.00  0.00    -0.388 C  
HETATM   14  N   UNL     1     -13.678  15.576  70.618  1.00  0.00    -0.846 N  
HETATM   15  O   UNL     1     -11.461  15.444  71.000  1.00  0.00    -0.303 OA 
HETATM   16  H1  UNL     1     -13.755  15.720  71.625  1.00  0.00     0.000 HD 
HETATM   17  H2  UNL     1     -14.478  15.560  69.985  1.00  0.00     0.000 HD 
ENDBRANCH  11  13
ENDBRANCH  10  11
ENDBRANCH   9  10
ENDBRANCH   8   9
ENDBRANCH   2   8
TORSDOF 5
ENDMDL
MODEL       25
REMARK 921   NORMALIZED FREE ENERGY PREDICTED BY IDOCK:   -3.93 KCAL/MOL
REMARK 922        TOTAL FREE ENERGY PREDICTED BY IDOCK:   -5.95 KCAL/MOL
REMARK 923 INTER-LIGAND FREE ENERGY PREDICTED BY IDOCK:   -5.83 KCAL/MOL
REMARK 924 INTRA-LIGAND FREE ENERGY PREDICTED BY IDOCK:   -0.13 KCAL/MOL
REMARK 927      BINDING AFFINITY PREDICTED BY RF-SCORE:    0.00 PKD
ROOT
HETATM    1  N   UNL     1     -11.809  10.350  68.491  1.00  0.00    -0.735 NA 
HETATM    2  CA  UNL     1     -11.630  11.547  69.367  1.00  0.00    -0.321 C  
HETATM    3  H1  UNL     1     -11.588   9.481  68.977  1.00  0.00     0.000 HD 
HETATM    4  H2  UNL     1     -11.269  10.439  67.630  1.00  0.00     0.000 HD 
HETATM    5  C   UNL     1     -12.546  11.390  70.596  1.00  0.00    -0.271 C  
HETATM    6  OXT UNL     1     -12.717  12.234  71.461  1.00  0.00    -0.326 OA 
HETATM    7  O   UNL     1     -13.148  10.171  70.609  1.00  0.00    -0.341 OA 
ENDROOT
BRANCH   2   8
HETATM    8  C   UNL     1     -11.962  12.853  68.637  1.00  0.00    -0.282 C  
BRANCH   8   9
HETATM    9  C   UNL     1     -11.864  12.745  67.115  1.00  0.00    -0.415 C  
BRANCH   9  10
HETATM   10  C   UNL     1     -11.871  14.129  66.470  1.00  0.00    -0.419 C  
BRANCH  10  11
HETATM   11  N   UNL     1     -12.810  14.194  65.372  1.00  0.00    -0.680 N  
HETATM   12  H   UNL     1     -13.762  13.855  65.513  1.00  0.00     0.000 HD 
BRANCH  11  13
HETATM   13  C   UNL     1     -12.460  14.696  64.156  1.00  0.00    -0.147 C  
HETATM   14  N   UNL     1     -12.375  13.735  63.203  1.00  0.00    -1.106 N  
HETATM   15  O   UNL     1     -12.225  15.870  63.912  1.00  0.00    -0.785 OA 
HETATM   16  H1  UNL     1     -12.112  14.111  62.292  1.00  0.00     0.000 HD 
HETATM   17  H2  UNL     1     -12.554  12.746  63.379  1.00  0.00     0.000 HD 
ENDBRANCH  11  13
ENDBRANCH  10  11
ENDBRANCH   9  10
ENDBRANCH   8   9
ENDBRANCH   2   8
TORSDOF 5
ENDMDL
MODEL       26
REMARK 921   NORMALIZED FREE ENERGY PREDICTED BY IDOCK:   -3.92 KCAL/MOL
REMARK 922        TOTAL FREE ENERGY PREDICTED BY IDOCK:   -5.94 KCAL/MOL
REMARK 923 INTER-LIGAND FREE ENERGY PREDICTED BY IDOCK:   -5.78 KCAL/MOL
REMARK 924 INTRA-LIGAND FREE ENERGY PREDICTED BY IDOCK:   -0.16 KCAL/MOL
REMARK 927      BINDING AFFINITY PREDICTED BY RF-SCORE:    0.00 PKD
ROOT
HETATM    1  N   UNL     1     -11.711  12.161  69.900  1.00  0.00    -0.454 NA 
HETATM    2  CA  UNL     1     -11.603  13.627  69.631  1.00  0.00    -0.278 C  
HETATM    3  H1  UNL     1     -11.453  11.925  70.858  1.00  0.00     0.000 HD 
HETATM    4  H2  UNL     1     -11.167  11.622  69.227  1.00  0.00     0.000 HD 
HETATM    5  C   UNL     1     -12.524  14.371  70.618  1.00  0.00    -0.350 C  
HETATM    6  OXT UNL     1     -12.747  15.570  70.608  1.00  0.00    -0.439 OA 
HETATM    7  O   UNL     1     -13.064  13.516  71.527  1.00  0.00    -0.351 OA 
ENDROOT
BRANCH   2   8
HETATM    8  C   UNL     1     -11.992  13.982  68.193  1.00  0.00    -0.382 C  
BRANCH   8   9
HETATM    9  C   UNL     1     -11.689  12.871  67.185  1.00  0.00    -0.437 C  
BRANCH   9  10
HETATM   10  C   UNL     1     -12.308  13.188  65.826  1.00  0.00    -0.435 C  
BRANCH  10  11
HETATM   11  N   UNL     1     -11.956  14.519  65.384  1.00  0.00    -0.354 N  
HETATM   12  H   UNL     1     -11.484  15.148  66.033  1.00  0.00     0.000 HD 
BRANCH  11  13
HETATM   13  C   UNL     1     -12.239  14.957  64.125  1.00  0.00    -0.255 C  
HETATM   14  N   UNL     1     -12.476  13.937  63.263  1.00  0.00    -1.112 N  
HETATM   15  O   UNL     1     -12.270  16.124  63.768  1.00  0.00    -0.934 OA 
HETATM   16  H1  UNL     1     -12.687  14.264  62.321  1.00  0.00     0.000 HD 
HETATM   17  H2  UNL     1     -12.446  12.952  63.528  1.00  0.00     0.000 HD 
ENDBRANCH  11  13
ENDBRANCH  10  11
ENDBRANCH   9  10
ENDBRANCH   8   9
ENDBRANCH   2   8
TORSDOF 5
ENDMDL
MODEL       27
REMARK 921   NORMALIZED FREE ENERGY PREDICTED BY IDOCK:   -3.90 KCAL/MOL
REMARK 922        TOTAL FREE ENERGY PREDICTED BY IDOCK:   -5.92 KCAL/MOL
REMARK 923 INTER-LIGAND FREE ENERGY PREDICTED BY IDOCK:   -5.72 KCAL/MOL
REMARK 924 INTRA-LIGAND FREE ENERGY PREDICTED BY IDOCK:   -0.20 KCAL/MOL
REMARK 927      BINDING AFFINITY PREDICTED BY RF-SCORE:    0.00 PKD
ROOT
HETATM    1  N   UNL     1     -10.149  13.923  64.439  1.00  0.00    -0.739 NA 
HETATM    2  CA  UNL     1     -10.800  12.612  64.142  1.00  0.00    -0.396 C  
HETATM    3  H1  UNL     1     -10.133  14.538  63.626  1.00  0.00     0.000 HD 
HETATM    4  H2  UNL     1      -9.212  13.792  64.821  1.00  0.00     0.000 HD 
HETATM    5  C   UNL     1     -12.240  12.882  63.665  1.00  0.00    -0.499 C  
HETATM    6  OXT UNL     1     -13.079  12.027  63.433  1.00  0.00    -0.747 OA 
HETATM    7  O   UNL     1     -12.469  14.215  63.522  1.00  0.00    -0.817 OA 
ENDROOT
BRANCH   2   8
HETATM    8  C   UNL     1     -10.824  11.688  65.363  1.00  0.00    -0.336 C  
BRANCH   8   9
HETATM    9  C   UNL     1     -11.293  12.380  66.645  1.00  0.00    -0.394 C  
BRANCH   9  10
HETATM   10  C   UNL     1     -11.430  11.375  67.786  1.00  0.00    -0.281 C  
BRANCH  10  11
HETATM   11  N   UNL     1     -11.847  12.021  69.010  1.00  0.00    -0.320 N  
HETATM   12  H   UNL     1     -11.836  13.040  69.061  1.00  0.00     0.000 HD 
BRANCH  11  13
HETATM   13  C   UNL     1     -12.254  11.309  70.097  1.00  0.00    -0.330 C  
HETATM   14  N   UNL     1     -12.038   9.978  69.954  1.00  0.00    -0.478 N  
HETATM   15  O   UNL     1     -12.772  11.775  71.100  1.00  0.00    -0.378 OA 
HETATM   16  H1  UNL     1     -12.343   9.443  70.768  1.00  0.00     0.000 HD 
HETATM   17  H2  UNL     1     -11.618   9.557  69.125  1.00  0.00     0.000 HD 
ENDBRANCH  11  13
ENDBRANCH  10  11
ENDBRANCH   9  10
ENDBRANCH   8   9
ENDBRANCH   2   8
TORSDOF 5
ENDMDL
MODEL       28
REMARK 921   NORMALIZED FREE ENERGY PREDICTED BY IDOCK:   -3.89 KCAL/MOL
REMARK 922        TOTAL FREE ENERGY PREDICTED BY IDOCK:   -5.90 KCAL/MOL
REMARK 923 INTER-LIGAND FREE ENERGY PREDICTED BY IDOCK:   -5.47 KCAL/MOL
REMARK 924 INTRA-LIGAND FREE ENERGY PREDICTED BY IDOCK:   -0.42 KCAL/MOL
REMARK 927      BINDING AFFINITY PREDICTED BY RF-SCORE:    0.00 PKD
ROOT
HETATM    1  N   UNL     1      -9.872  16.087  65.607  1.00  0.00    -0.424 NA 
HETATM    2  CA  UNL     1     -10.788  14.958  65.264  1.00  0.00    -0.386 C  
HETATM    3  H1  UNL     1      -9.423  16.482  64.782  1.00  0.00     0.000 HD 
HETATM    4  H2  UNL     1      -9.182  15.803  66.303  1.00  0.00     0.000 HD 
HETATM    5  C   UNL     1     -11.860  15.481  64.288  1.00  0.00    -0.173 C  
HETATM    6  OXT UNL     1     -12.819  14.845  63.886  1.00  0.00    -0.697 OA 
HETATM    7  O   UNL     1     -11.600  16.763  63.914  1.00  0.00    -1.122 OA 
ENDROOT
BRANCH   2   8
HETATM    8  C   UNL     1     -11.464  14.364  66.505  1.00  0.00    -0.369 C  
BRANCH   8   9
HETATM    9  C   UNL     1     -11.272  12.853  66.642  1.00  0.00    -0.342 C  
BRANCH   9  10
HETATM   10  C   UNL     1     -10.110  12.372  65.776  1.00  0.00    -0.253 C  
BRANCH  10  11
HETATM   11  N   UNL     1     -10.506  11.269  64.928  1.00  0.00    -0.302 N  
HETATM   12  H   UNL     1     -10.515  10.325  65.314  1.00  0.00     0.000 HD 
BRANCH  11  13
HETATM   13  C   UNL     1     -10.869  11.456  63.629  1.00  0.00    -0.384 C  
HETATM   14  N   UNL     1      -9.844  11.238  62.768  1.00  0.00    -0.600 N  
HETATM   15  O   UNL     1     -11.976  11.796  63.241  1.00  0.00    -0.422 OA 
HETATM   16  H1  UNL     1     -10.115  11.379  61.795  1.00  0.00     0.000 HD 
HETATM   17  H2  UNL     1      -8.906  10.965  63.061  1.00  0.00     0.000 HD 
ENDBRANCH  11  13
ENDBRANCH  10  11
ENDBRANCH   9  10
ENDBRANCH   8   9
ENDBRANCH   2   8
TORSDOF 5
ENDMDL
MODEL       29
REMARK 921   NORMALIZED FREE ENERGY PREDICTED BY IDOCK:   -3.88 KCAL/MOL
REMARK 922        TOTAL FREE ENERGY PREDICTED BY IDOCK:   -5.89 KCAL/MOL
REMARK 923 INTER-LIGAND FREE ENERGY PREDICTED BY IDOCK:   -5.67 KCAL/MOL
REMARK 924 INTRA-LIGAND FREE ENERGY PREDICTED BY IDOCK:   -0.22 KCAL/MOL
REMARK 927      BINDING AFFINITY PREDICTED BY RF-SCORE:    0.00 PKD
ROOT
HETATM    1  N   UNL     1      -9.857  12.973  63.968  1.00  0.00    -0.706 NA 
HETATM    2  CA  UNL     1     -10.784  13.248  65.108  1.00  0.00    -0.322 C  
HETATM    3  H1  UNL     1     -10.162  12.177  63.408  1.00  0.00     0.000 HD 
HETATM    4  H2  UNL     1      -8.898  12.849  64.294  1.00  0.00     0.000 HD 
HETATM    5  C   UNL     1     -12.188  13.521  64.536  1.00  0.00    -0.398 C  
HETATM    6  OXT UNL     1     -13.158  13.876  65.185  1.00  0.00    -0.773 OA 
HETATM    7  O   UNL     1     -12.223  13.309  63.193  1.00  0.00    -0.628 OA 
ENDROOT
BRANCH   2   8
HETATM    8  C   UNL     1     -10.326  14.443  65.950  1.00  0.00    -0.327 C  
BRANCH   8   9
HETATM    9  C   UNL     1     -10.591  14.275  67.447  1.00  0.00    -0.276 C  
BRANCH   9  10
HETATM   10  C   UNL     1     -11.470  15.406  67.973  1.00  0.00    -0.326 C  
BRANCH  10  11
HETATM   11  N   UNL     1     -12.322  14.954  69.051  1.00  0.00    -0.589 N  
HETATM   12  H   UNL     1     -12.923  14.144  68.901  1.00  0.00     0.000 HD 
BRANCH  11  13
HETATM   13  C   UNL     1     -12.343  15.579  70.261  1.00  0.00    -0.396 C  
HETATM   14  N   UNL     1     -11.120  16.032  70.632  1.00  0.00    -0.351 N  
HETATM   15  O   UNL     1     -13.327  15.724  70.969  1.00  0.00    -0.580 OA 
HETATM   16  H1  UNL     1     -11.136  16.500  71.538  1.00  0.00     0.000 HD 
HETATM   17  H2  UNL     1     -10.278  15.917  70.068  1.00  0.00     0.000 HD 
ENDBRANCH  11  13
ENDBRANCH  10  11
ENDBRANCH   9  10
ENDBRANCH   8   9
ENDBRANCH   2   8
TORSDOF 5
ENDMDL
MODEL       30
REMARK 921   NORMALIZED FREE ENERGY PREDICTED BY IDOCK:   -3.86 KCAL/MOL
REMARK 922        TOTAL FREE ENERGY PREDICTED BY IDOCK:   -5.87 KCAL/MOL
REMARK 923 INTER-LIGAND FREE ENERGY PREDICTED BY IDOCK:   -5.41 KCAL/MOL
REMARK 924 INTRA-LIGAND FREE ENERGY PREDICTED BY IDOCK:   -0.46 KCAL/MOL
REMARK 927      BINDING AFFINITY PREDICTED BY RF-SCORE:    0.00 PKD
ROOT
HETATM    1  N   UNL     1     -11.345  13.458  69.919  1.00  0.00    -0.494 NA 
HETATM    2  CA  UNL     1     -12.042  13.682  68.617  1.00  0.00    -0.290 C  
HETATM    3  H1  UNL     1     -11.659  12.605  70.382  1.00  0.00     0.000 HD 
HETATM    4  H2  UNL     1     -11.440  14.267  70.532  1.00  0.00     0.000 HD 
HETATM    5  C   UNL     1     -11.775  12.467  67.707  1.00  0.00    -0.350 C  
HETATM    6  OXT UNL     1     -12.116  12.371  66.540  1.00  0.00    -0.599 OA 
HETATM    7  O   UNL     1     -11.106  11.490  68.376  1.00  0.00    -0.201 OA 
ENDROOT
BRANCH   2   8
HETATM    8  C   UNL     1     -11.570  14.963  67.921  1.00  0.00    -0.364 C  
BRANCH   8   9
HETATM    9  C   UNL     1     -10.080  14.957  67.573  1.00  0.00    -0.228 C  
BRANCH   9  10
HETATM   10  C   UNL     1      -9.870  15.194  66.080  1.00  0.00    -0.320 C  
BRANCH  10  11
HETATM   11  N   UNL     1     -11.001  14.728  65.308  1.00  0.00    -0.350 N  
HETATM   12  H   UNL     1     -11.432  13.836  65.549  1.00  0.00     0.000 HD 
BRANCH  11  13
HETATM   13  C   UNL     1     -11.507  15.448  64.268  1.00  0.00    -0.171 C  
HETATM   14  N   UNL     1     -12.401  14.740  63.535  1.00  0.00    -0.992 N  
HETATM   15  O   UNL     1     -11.205  16.597  63.985  1.00  0.00    -1.052 OA 
HETATM   16  H1  UNL     1     -12.780  15.279  62.756  1.00  0.00     0.000 HD 
HETATM   17  H2  UNL     1     -12.665  13.776  63.739  1.00  0.00     0.000 HD 
ENDBRANCH  11  13
ENDBRANCH  10  11
ENDBRANCH   9  10
ENDBRANCH   8   9
ENDBRANCH   2   8
TORSDOF 5
ENDMDL
MODEL       31
REMARK 921   NORMALIZED FREE ENERGY PREDICTED BY IDOCK:   -3.84 KCAL/MOL
REMARK 922        TOTAL FREE ENERGY PREDICTED BY IDOCK:   -5.84 KCAL/MOL
REMARK 923 INTER-LIGAND FREE ENERGY PREDICTED BY IDOCK:   -5.12 KCAL/MOL
REMARK 924 INTRA-LIGAND FREE ENERGY PREDICTED BY IDOCK:   -0.72 KCAL/MOL
REMARK 927      BINDING AFFINITY PREDICTED BY RF-SCORE:    0.00 PKD
ROOT
HETATM    1  N   UNL     1     -13.850   8.906  73.183  1.00  0.00    -1.176 NA 
HETATM    2  CA  UNL     1     -12.660   8.502  72.375  1.00  0.00    -0.348 C  
HETATM    3  H1  UNL     1     -13.666   9.732  73.753  1.00  0.00     0.000 HD 
HETATM    4  H2  UNL     1     -14.187   8.132  73.754  1.00  0.00     0.000 HD 
HETATM    5  C   UNL     1     -12.266   9.684  71.467  1.00  0.00    -0.399 C  
HETATM    6  OXT UNL     1     -11.398   9.657  70.610  1.00  0.00    -0.267 OA 
HETATM    7  O   UNL     1     -13.011  10.787  71.745  1.00  0.00    -0.446 OA 
ENDROOT
BRANCH   2   8
HETATM    8  C   UNL     1     -12.936   7.262  71.519  1.00  0.00    -0.434 C  
BRANCH   8   9
HETATM    9  C   UNL     1     -11.881   6.166  71.671  1.00  0.00    -0.241 C  
BRANCH   9  10
HETATM   10  C   UNL     1     -11.088   5.991  70.378  1.00  0.00    -0.329 C  
BRANCH  10  11
HETATM   11  N   UNL     1     -11.609   6.832  69.323  1.00  0.00    -0.623 N  
HETATM   12  H   UNL     1     -12.461   7.367  69.491  1.00  0.00     0.000 HD 
BRANCH  11  13
HETATM   13  C   UNL     1     -10.994   6.930  68.112  1.00  0.00    -0.147 C  
HETATM   14  N   UNL     1     -10.735   8.214  67.764  1.00  0.00    -0.465 N  
HETATM   15  O   UNL     1     -10.705   5.993  67.384  1.00  0.00    -0.250 OA 
HETATM   16  H1  UNL     1     -10.275   8.287  66.856  1.00  0.00     0.000 HD 
HETATM   17  H2  UNL     1     -10.975   9.018  68.345  1.00  0.00     0.000 HD 
ENDBRANCH  11  13
ENDBRANCH  10  11
ENDBRANCH   9  10
ENDBRANCH   8   9
ENDBRANCH   2   8
TORSDOF 5
ENDMDL
MODEL       32
REMARK 921   NORMALIZED FREE ENERGY PREDICTED BY IDOCK:   -3.82 KCAL/MOL
REMARK 922        TOTAL FREE ENERGY PREDICTED BY IDOCK:   -5.81 KCAL/MOL
REMARK 923 INTER-LIGAND FREE ENERGY PREDICTED BY IDOCK:   -5.27 KCAL/MOL
REMARK 924 INTRA-LIGAND FREE ENERGY PREDICTED BY IDOCK:   -0.54 KCAL/MOL
REMARK 927      BINDING AFFINITY PREDICTED BY RF-SCORE:    0.00 PKD
ROOT
HETATM    1  N   UNL     1     -12.332  14.436  63.517  1.00  0.00    -1.114 NA 
HETATM    2  CA  UNL     1     -11.503  13.872  64.625  1.00  0.00    -0.377 C  
HETATM    3  H1  UNL     1     -12.497  13.755  62.775  1.00  0.00     0.000 HD 
HETATM    4  H2  UNL     1     -11.920  15.292  63.147  1.00  0.00     0.000 HD 
HETATM    5  C   UNL     1     -12.233  12.642  65.199  1.00  0.00    -0.481 C  
HETATM    6  OXT UNL     1     -11.879  12.006  66.178  1.00  0.00    -0.546 OA 
HETATM    7  O   UNL     1     -13.337  12.338  64.466  1.00  0.00    -0.769 OA 
ENDROOT
BRANCH   2   8
HETATM    8  C   UNL     1     -11.256  14.894  65.739  1.00  0.00    -0.334 C  
BRANCH   8   9
HETATM    9  C   UNL     1      -9.785  15.280  65.900  1.00  0.00    -0.390 C  
BRANCH   9  10
HETATM   10  C   UNL     1      -9.185  14.627  67.143  1.00  0.00    -0.221 C  
BRANCH  10  11
HETATM   11  N   UNL     1      -8.440  13.434  66.804  1.00  0.00    -0.426 N  
HETATM   12  H   UNL     1      -7.616  13.517  66.208  1.00  0.00     0.000 HD 
BRANCH  11  13
HETATM   13  C   UNL     1      -8.807  12.204  67.258  1.00  0.00    -0.186 C  
HETATM   14  N   UNL     1      -9.595  12.272  68.359  1.00  0.00    -0.286 N  
HETATM   15  O   UNL     1      -8.474  11.136  66.768  1.00  0.00    -0.141 OA 
HETATM   16  H1  UNL     1      -9.871  11.351  68.700  1.00  0.00     0.000 HD 
HETATM   17  H2  UNL     1      -9.881  13.148  68.798  1.00  0.00     0.000 HD 
ENDBRANCH  11  13
ENDBRANCH  10  11
ENDBRANCH   9  10
ENDBRANCH   8   9
ENDBRANCH   2   8
TORSDOF 5
ENDMDL
MODEL       33
REMARK 921   NORMALIZED FREE ENERGY PREDICTED BY IDOCK:   -3.79 KCAL/MOL
REMARK 922        TOTAL FREE ENERGY PREDICTED BY IDOCK:   -5.77 KCAL/MOL
REMARK 923 INTER-LIGAND FREE ENERGY PREDICTED BY IDOCK:   -5.64 KCAL/MOL
REMARK 924 INTRA-LIGAND FREE ENERGY PREDICTED BY IDOCK:   -0.13 KCAL/MOL
REMARK 927      BINDING AFFINITY PREDICTED BY RF-SCORE:    0.00 PKD
ROOT
HETATM    1  N   UNL     1     -10.828  15.910  66.057  1.00  0.00    -0.273 NA 
HETATM    2  CA  UNL     1     -11.252  14.578  65.529  1.00  0.00    -0.335 C  
HETATM    3  H1  UNL     1     -10.272  16.433  65.381  1.00  0.00     0.000 HD 
HETATM    4  H2  UNL     1     -10.335  15.814  66.945  1.00  0.00     0.000 HD 
HETATM    5  C   UNL     1     -12.072  14.805  64.244  1.00  0.00    -0.394 C  
HETATM    6  OXT UNL     1     -12.651  13.935  63.614  1.00  0.00    -0.790 OA 
HETATM    7  O   UNL     1     -12.068  16.116  63.882  1.00  0.00    -0.956 OA 
ENDROOT
BRANCH   2   8
HETATM    8  C   UNL     1     -12.087  13.793  66.544  1.00  0.00    -0.483 C  
BRANCH   8   9
HETATM    9  C   UNL     1     -11.246  13.028  67.568  1.00  0.00    -0.320 C  
BRANCH   9  10
HETATM   10  C   UNL     1     -11.853  13.144  68.965  1.00  0.00    -0.313 C  
BRANCH  10  11
HETATM   11  N   UNL     1     -11.480  12.020  69.796  1.00  0.00    -0.476 N  
HETATM   12  H   UNL     1     -10.527  11.659  69.742  1.00  0.00     0.000 HD 
BRANCH  11  13
HETATM   13  C   UNL     1     -12.364  11.432  70.648  1.00  0.00    -0.373 C  
HETATM   14  N   UNL     1     -12.598  10.133  70.336  1.00  0.00    -0.516 N  
HETATM   15  O   UNL     1     -12.919  11.980  71.588  1.00  0.00    -0.408 OA 
HETATM   16  H1  UNL     1     -13.260   9.692  70.974  1.00  0.00     0.000 HD 
HETATM   17  H2  UNL     1     -12.159   9.650  69.552  1.00  0.00     0.000 HD 
ENDBRANCH  11  13
ENDBRANCH  10  11
ENDBRANCH   9  10
ENDBRANCH   8   9
ENDBRANCH   2   8
TORSDOF 5
ENDMDL
MODEL       34
REMARK 921   NORMALIZED FREE ENERGY PREDICTED BY IDOCK:   -3.77 KCAL/MOL
REMARK 922        TOTAL FREE ENERGY PREDICTED BY IDOCK:   -5.75 KCAL/MOL
REMARK 923 INTER-LIGAND FREE ENERGY PREDICTED BY IDOCK:   -5.16 KCAL/MOL
REMARK 924 INTRA-LIGAND FREE ENERGY PREDICTED BY IDOCK:   -0.59 KCAL/MOL
REMARK 927      BINDING AFFINITY PREDICTED BY RF-SCORE:    0.00 PKD
ROOT
HETATM    1  N   UNL     1     -10.340  13.915  64.657  1.00  0.00    -0.587 NA 
HETATM    2  CA  UNL     1     -11.231  14.865  65.388  1.00  0.00    -0.359 C  
HETATM    3  H1  UNL     1      -9.680  14.398  64.047  1.00  0.00     0.000 HD 
HETATM    4  H2  UNL     1     -10.883  13.224  64.139  1.00  0.00     0.000 HD 
HETATM    5  C   UNL     1     -10.348  15.814  66.223  1.00  0.00    -0.310 C  
HETATM    6  OXT UNL     1     -10.759  16.647  67.014  1.00  0.00    -0.278 OA 
HETATM    7  O   UNL     1      -9.028  15.614  65.963  1.00  0.00    -0.334 OA 
ENDROOT
BRANCH   2   8
HETATM    8  C   UNL     1     -12.221  14.140  66.305  1.00  0.00    -0.474 C  
BRANCH   8   9
HETATM    9  C   UNL     1     -11.575  13.058  67.171  1.00  0.00    -0.411 C  
BRANCH   9  10
HETATM   10  C   UNL     1     -11.775  13.358  68.655  1.00  0.00    -0.349 C  
BRANCH  10  11
HETATM   11  N   UNL     1     -12.493  14.599  68.849  1.00  0.00    -0.574 N  
HETATM   12  H   UNL     1     -13.152  14.907  68.134  1.00  0.00     0.000 HD 
BRANCH  11  13
HETATM   13  C   UNL     1     -12.314  15.366  69.960  1.00  0.00    -0.336 C  
HETATM   14  N   UNL     1     -13.444  15.475  70.702  1.00  0.00    -0.829 N  
HETATM   15  O   UNL     1     -11.276  15.923  70.280  1.00  0.00    -0.321 OA 
HETATM   16  H1  UNL     1     -13.310  16.050  71.534  1.00  0.00     0.000 HD 
HETATM   17  H2  UNL     1     -14.329  15.031  70.456  1.00  0.00     0.000 HD 
ENDBRANCH  11  13
ENDBRANCH  10  11
ENDBRANCH   9  10
ENDBRANCH   8   9
ENDBRANCH   2   8
TORSDOF 5
ENDMDL
MODEL       35
REMARK 921   NORMALIZED FREE ENERGY PREDICTED BY IDOCK:   -3.76 KCAL/MOL
REMARK 922        TOTAL FREE ENERGY PREDICTED BY IDOCK:   -5.74 KCAL/MOL
REMARK 923 INTER-LIGAND FREE ENERGY PREDICTED BY IDOCK:   -5.67 KCAL/MOL
REMARK 924 INTRA-LIGAND FREE ENERGY PREDICTED BY IDOCK:   -0.07 KCAL/MOL
REMARK 927      BINDING AFFINITY PREDICTED BY RF-SCORE:    0.00 PKD
ROOT
HETATM    1  N   UNL     1     -12.048  15.095  68.481  1.00  0.00    -0.581 NA 
HETATM    2  CA  UNL     1     -12.055  13.613  68.288  1.00  0.00    -0.271 C  
HETATM    3  H1  UNL     1     -12.772  15.401  69.131  1.00  0.00     0.000 HD 
HETATM    4  H2  UNL     1     -12.123  15.583  67.589  1.00  0.00     0.000 HD 
HETATM    5  C   UNL     1     -11.840  12.944  69.660  1.00  0.00    -0.320 C  
HETATM    6  OXT UNL     1     -11.695  11.748  69.846  1.00  0.00    -0.310 OA 
HETATM    7  O   UNL     1     -11.839  13.864  70.662  1.00  0.00    -0.296 OA 
ENDROOT
BRANCH   2   8
HETATM    8  C   UNL     1     -10.967  13.153  67.312  1.00  0.00    -0.288 C  
BRANCH   8   9
HETATM    9  C   UNL     1     -11.490  12.246  66.197  1.00  0.00    -0.429 C  
BRANCH   9  10
HETATM   10  C   UNL     1     -10.459  12.108  65.080  1.00  0.00    -0.290 C  
BRANCH  10  11
HETATM   11  N   UNL     1     -10.822  12.900  63.926  1.00  0.00    -0.465 N  
HETATM   12  H   UNL     1     -10.087  13.366  63.393  1.00  0.00     0.000 HD 
BRANCH  11  13
HETATM   13  C   UNL     1     -12.117  13.042  63.531  1.00  0.00    -0.542 C  
HETATM   14  N   UNL     1     -12.462  14.340  63.341  1.00  0.00    -1.101 N  
HETATM   15  O   UNL     1     -12.915  12.132  63.369  1.00  0.00    -0.776 OA 
HETATM   16  H1  UNL     1     -13.432  14.447  63.045  1.00  0.00     0.000 HD 
HETATM   17  H2  UNL     1     -11.822  15.122  63.478  1.00  0.00     0.000 HD 
ENDBRANCH  11  13
ENDBRANCH  10  11
ENDBRANCH   9  10
ENDBRANCH   8   9
ENDBRANCH   2   8
TORSDOF 5
ENDMDL
MODEL       36
REMARK 921   NORMALIZED FREE ENERGY PREDICTED BY IDOCK:   -3.75 KCAL/MOL
REMARK 922        TOTAL FREE ENERGY PREDICTED BY IDOCK:   -5.73 KCAL/MOL
REMARK 923 INTER-LIGAND FREE ENERGY PREDICTED BY IDOCK:   -4.94 KCAL/MOL
REMARK 924 INTRA-LIGAND FREE ENERGY PREDICTED BY IDOCK:   -0.78 KCAL/MOL
REMARK 927      BINDING AFFINITY PREDICTED BY RF-SCORE:    0.00 PKD
ROOT
HETATM    1  N   UNL     1     -13.151  12.718  65.034  1.00  0.00    -0.770 NA 
HETATM    2  CA  UNL     1     -12.551  13.733  65.951  1.00  0.00    -0.447 C  
HETATM    3  H1  UNL     1     -13.796  13.137  64.364  1.00  0.00     0.000 HD 
HETATM    4  H2  UNL     1     -13.601  11.967  65.559  1.00  0.00     0.000 HD 
HETATM    5  C   UNL     1     -11.808  14.779  65.097  1.00  0.00    -0.313 C  
HETATM    6  OXT UNL     1     -11.125  15.691  65.534  1.00  0.00    -0.303 OA 
HETATM    7  O   UNL     1     -12.013  14.567  63.770  1.00  0.00    -0.335 OA 
ENDROOT
BRANCH   2   8
HETATM    8  C   UNL     1     -11.583  13.104  66.957  1.00  0.00    -0.408 C  
BRANCH   8   9
HETATM    9  C   UNL     1     -11.348  11.610  66.728  1.00  0.00    -0.354 C  
BRANCH   9  10
HETATM   10  C   UNL     1     -10.109  11.380  65.867  1.00  0.00    -0.243 C  
BRANCH  10  11
HETATM   11  N   UNL     1     -10.453  10.764  64.603  1.00  0.00    -0.329 N  
HETATM   12  H   UNL     1     -10.651   9.764  64.577  1.00  0.00     0.000 HD 
BRANCH  11  13
HETATM   13  C   UNL     1     -10.518  11.483  63.448  1.00  0.00    -0.406 C  
HETATM   14  N   UNL     1     -11.738  11.410  62.861  1.00  0.00    -0.722 N  
HETATM   15  O   UNL     1      -9.601  12.121  62.955  1.00  0.00    -0.313 OA 
HETATM   16  H1  UNL     1     -11.787  11.948  61.996  1.00  0.00     0.000 HD 
HETATM   17  H2  UNL     1     -12.520  10.877  63.243  1.00  0.00     0.000 HD 
ENDBRANCH  11  13
ENDBRANCH  10  11
ENDBRANCH   9  10
ENDBRANCH   8   9
ENDBRANCH   2   8
TORSDOF 5
ENDMDL
MODEL       37
REMARK 921   NORMALIZED FREE ENERGY PREDICTED BY IDOCK:   -3.75 KCAL/MOL
REMARK 922        TOTAL FREE ENERGY PREDICTED BY IDOCK:   -5.72 KCAL/MOL
REMARK 923 INTER-LIGAND FREE ENERGY PREDICTED BY IDOCK:   -5.46 KCAL/MOL
REMARK 924 INTRA-LIGAND FREE ENERGY PREDICTED BY IDOCK:   -0.26 KCAL/MOL
REMARK 927      BINDING AFFINITY PREDICTED BY RF-SCORE:    0.00 PKD
ROOT
HETATM    1  N   UNL     1     -12.125  10.957  68.314  1.00  0.00    -0.810 NA 
HETATM    2  CA  UNL     1     -11.228  11.941  67.637  1.00  0.00    -0.276 C  
HETATM    3  H1  UNL     1     -11.804   9.997  68.192  1.00  0.00     0.000 HD 
HETATM    4  H2  UNL     1     -13.091  11.065  68.004  1.00  0.00     0.000 HD 
HETATM    5  C   UNL     1      -9.810  11.788  68.222  1.00  0.00    -0.198 C  
HETATM    6  OXT UNL     1      -8.858  12.505  67.962  1.00  0.00    -0.174 OA 
HETATM    7  O   UNL     1      -9.741  10.732  69.076  1.00  0.00    -0.197 OA 
ENDROOT
BRANCH   2   8
HETATM    8  C   UNL     1     -11.710  13.384  67.820  1.00  0.00    -0.394 C  
BRANCH   8   9
HETATM    9  C   UNL     1     -11.657  14.214  66.536  1.00  0.00    -0.389 C  
BRANCH   9  10
HETATM   10  C   UNL     1     -12.774  13.805  65.579  1.00  0.00    -0.488 C  
BRANCH  10  11
HETATM   11  N   UNL     1     -12.328  13.839  64.203  1.00  0.00    -0.659 N  
HETATM   12  H   UNL     1     -12.416  14.707  63.675  1.00  0.00     0.000 HD 
BRANCH  11  13
HETATM   13  C   UNL     1     -11.793  12.745  63.594  1.00  0.00    -0.532 C  
HETATM   14  N   UNL     1     -12.741  11.916  63.093  1.00  0.00    -0.915 N  
HETATM   15  O   UNL     1     -10.601  12.494  63.501  1.00  0.00    -0.432 OA 
HETATM   16  H1  UNL     1     -12.341  11.096  62.637  1.00  0.00     0.000 HD 
HETATM   17  H2  UNL     1     -13.743  12.092  63.164  1.00  0.00     0.000 HD 
ENDBRANCH  11  13
ENDBRANCH  10  11
ENDBRANCH   9  10
ENDBRANCH   8   9
ENDBRANCH   2   8
TORSDOF 5
ENDMDL
MODEL       38
REMARK 921   NORMALIZED FREE ENERGY PREDICTED BY IDOCK:   -3.75 KCAL/MOL
REMARK 922        TOTAL FREE ENERGY PREDICTED BY IDOCK:   -5.72 KCAL/MOL
REMARK 923 INTER-LIGAND FREE ENERGY PREDICTED BY IDOCK:   -5.19 KCAL/MOL
REMARK 924 INTRA-LIGAND FREE ENERGY PREDICTED BY IDOCK:   -0.53 KCAL/MOL
REMARK 927      BINDING AFFINITY PREDICTED BY RF-SCORE:    0.00 PKD
ROOT
HETATM    1  N   UNL     1     -12.715  11.678  62.963  1.00  0.00    -0.865 NA 
HETATM    2  CA  UNL     1     -11.595  12.017  63.892  1.00  0.00    -0.449 C  
HETATM    3  H1  UNL     1     -13.616  11.999  63.315  1.00  0.00     0.000 HD 
HETATM    4  H2  UNL     1     -12.733  10.679  62.757  1.00  0.00     0.000 HD 
HETATM    5  C   UNL     1     -11.566  13.546  64.080  1.00  0.00    -0.376 C  
HETATM    6  OXT UNL     1     -10.715  14.165  64.698  1.00  0.00    -0.416 OA 
HETATM    7  O   UNL     1     -12.627  14.137  63.469  1.00  0.00    -0.834 OA 
ENDROOT
BRANCH   2   8
HETATM    8  C   UNL     1     -10.240  11.534  63.364  1.00  0.00    -0.462 C  
BRANCH   8   9
HETATM    9  C   UNL     1      -9.400  10.802  64.412  1.00  0.00    -0.279 C  
BRANCH   9  10
HETATM   10  C   UNL     1     -10.261  10.380  65.601  1.00  0.00    -0.238 C  
BRANCH  10  11
HETATM   11  N   UNL     1      -9.946  11.156  66.780  1.00  0.00    -0.203 N  
HETATM   12  H   UNL     1      -9.016  11.076  67.191  1.00  0.00     0.000 HD 
BRANCH  11  13
HETATM   13  C   UNL     1     -10.856  11.988  67.358  1.00  0.00    -0.242 C  
HETATM   14  N   UNL     1     -10.297  13.142  67.798  1.00  0.00    -0.226 N  
HETATM   15  O   UNL     1     -12.046  11.753  67.496  1.00  0.00    -0.599 OA 
HETATM   16  H1  UNL     1     -10.979  13.765  68.231  1.00  0.00     0.000 HD 
HETATM   17  H2  UNL     1      -9.305  13.362  67.707  1.00  0.00     0.000 HD 
ENDBRANCH  11  13
ENDBRANCH  10  11
ENDBRANCH   9  10
ENDBRANCH   8   9
ENDBRANCH   2   8
TORSDOF 5
ENDMDL
MODEL       39
REMARK 921   NORMALIZED FREE ENERGY PREDICTED BY IDOCK:   -3.75 KCAL/MOL
REMARK 922        TOTAL FREE ENERGY PREDICTED BY IDOCK:   -5.72 KCAL/MOL
REMARK 923 INTER-LIGAND FREE ENERGY PREDICTED BY IDOCK:   -4.99 KCAL/MOL
REMARK 924 INTRA-LIGAND FREE ENERGY PREDICTED BY IDOCK:   -0.73 KCAL/MOL
REMARK 927      BINDING AFFINITY PREDICTED BY RF-SCORE:    0.00 PKD
ROOT
HETATM    1  N   UNL     1      -9.465  12.110  66.626  1.00  0.00    -0.218 NA 
HETATM    2  CA  UNL     1      -9.935  12.863  67.828  1.00  0.00    -0.230 C  
HETATM    3  H1  UNL     1      -9.649  11.110  66.702  1.00  0.00     0.000 HD 
HETATM    4  H2  UNL     1      -8.478  12.290  66.441  1.00  0.00     0.000 HD 
HETATM    5  C   UNL     1     -11.448  12.622  67.989  1.00  0.00    -0.318 C  
HETATM    6  OXT UNL     1     -12.166  13.168  68.811  1.00  0.00    -0.255 OA 
HETATM    7  O   UNL     1     -11.900  11.705  67.092  1.00  0.00    -0.608 OA 
ENDROOT
BRANCH   2   8
HETATM    8  C   UNL     1      -9.658  14.365  67.714  1.00  0.00    -0.216 C  
BRANCH   8   9
HETATM    9  C   UNL     1      -9.297  14.815  66.297  1.00  0.00    -0.310 C  
BRANCH   9  10
HETATM   10  C   UNL     1     -10.545  15.248  65.530  1.00  0.00    -0.373 C  
BRANCH  10  11
HETATM   11  N   UNL     1     -10.886  14.293  64.498  1.00  0.00    -0.603 N  
HETATM   12  H   UNL     1     -10.138  13.803  64.009  1.00  0.00     0.000 HD 
BRANCH  11  13
HETATM   13  C   UNL     1     -12.180  14.030  64.163  1.00  0.00    -0.396 C  
HETATM   14  N   UNL     1     -13.024  14.154  65.216  1.00  0.00    -0.735 N  
HETATM   15  O   UNL     1     -12.574  13.701  63.054  1.00  0.00    -0.729 OA 
HETATM   16  H1  UNL     1     -13.993  13.957  64.965  1.00  0.00     0.000 HD 
HETATM   17  H2  UNL     1     -12.724  14.416  66.155  1.00  0.00     0.000 HD 
ENDBRANCH  11  13
ENDBRANCH  10  11
ENDBRANCH   9  10
ENDBRANCH   8   9
ENDBRANCH   2   8
TORSDOF 5
ENDMDL
MODEL       40
REMARK 921   NORMALIZED FREE ENERGY PREDICTED BY IDOCK:   -3.74 KCAL/MOL
REMARK 922        TOTAL FREE ENERGY PREDICTED BY IDOCK:   -5.71 KCAL/MOL
REMARK 923 INTER-LIGAND FREE ENERGY PREDICTED BY IDOCK:   -5.19 KCAL/MOL
REMARK 924 INTRA-LIGAND FREE ENERGY PREDICTED BY IDOCK:   -0.52 KCAL/MOL
REMARK 927      BINDING AFFINITY PREDICTED BY RF-SCORE:    0.00 PKD
ROOT
HETATM    1  N   UNL     1     -10.542  18.211  65.664  1.00  0.00    -0.595 NA 
HETATM    2  CA  UNL     1     -10.638  17.986  67.138  1.00  0.00    -0.325 C  
HETATM    3  H1  UNL     1     -10.855  19.143  65.395  1.00  0.00     0.000 HD 
HETATM    4  H2  UNL     1     -11.046  17.489  65.148  1.00  0.00     0.000 HD 
HETATM    5  C   UNL     1      -9.777  19.049  67.847  1.00  0.00    -0.326 C  
HETATM    6  OXT UNL     1      -9.555  19.093  69.046  1.00  0.00    -0.376 OA 
HETATM    7  O   UNL     1      -9.288  19.958  66.962  1.00  0.00    -0.331 OA 
ENDROOT
BRANCH   2   8
HETATM    8  C   UNL     1     -10.168  16.585  67.542  1.00  0.00    -0.283 C  
BRANCH   8   9
HETATM    9  C   UNL     1      -9.259  15.922  66.505  1.00  0.00    -0.310 C  
BRANCH   9  10
HETATM   10  C   UNL     1      -9.895  14.644  65.964  1.00  0.00    -0.322 C  
BRANCH  10  11
HETATM   11  N   UNL     1     -10.489  14.861  64.663  1.00  0.00    -0.547 N  
HETATM   12  H   UNL     1      -9.952  14.628  63.828  1.00  0.00     0.000 HD 
BRANCH  11  13
HETATM   13  C   UNL     1     -11.746  15.367  64.522  1.00  0.00    -0.277 C  
HETATM   14  N   UNL     1     -12.697  14.536  65.016  1.00  0.00    -0.522 N  
HETATM   15  O   UNL     1     -12.028  16.435  64.003  1.00  0.00    -0.979 OA 
HETATM   16  H1  UNL     1     -13.638  14.915  64.911  1.00  0.00     0.000 HD 
HETATM   17  H2  UNL     1     -12.494  13.633  65.445  1.00  0.00     0.000 HD 
ENDBRANCH  11  13
ENDBRANCH  10  11
ENDBRANCH   9  10
ENDBRANCH   8   9
ENDBRANCH   2   8
TORSDOF 5
ENDMDL
MODEL       41
REMARK 921   NORMALIZED FREE ENERGY PREDICTED BY IDOCK:   -3.74 KCAL/MOL
REMARK 922        TOTAL FREE ENERGY PREDICTED BY IDOCK:   -5.71 KCAL/MOL
REMARK 923 INTER-LIGAND FREE ENERGY PREDICTED BY IDOCK:   -5.17 KCAL/MOL
REMARK 924 INTRA-LIGAND FREE ENERGY PREDICTED BY IDOCK:   -0.53 KCAL/MOL
REMARK 927      BINDING AFFINITY PREDICTED BY RF-SCORE:    0.00 PKD
ROOT
HETATM    1  N   UNL     1     -14.054  15.732  72.804  1.00  0.00    -0.552 NA 
HETATM    2  CA  UNL     1     -13.296  15.182  71.640  1.00  0.00    -0.431 C  
HETATM    3  H1  UNL     1     -15.024  15.419  72.814  1.00  0.00     0.000 HD 
HETATM    4  H2  UNL     1     -13.994  16.750  72.835  1.00  0.00     0.000 HD 
HETATM    5  C   UNL     1     -13.346  13.643  71.712  1.00  0.00    -0.388 C  
HETATM    6  OXT UNL     1     -12.747  12.882  70.971  1.00  0.00    -0.333 OA 
HETATM    7  O   UNL     1     -14.161  13.224  72.717  1.00  0.00    -0.661 OA 
ENDROOT
BRANCH   2   8
HETATM    8  C   UNL     1     -11.838  15.652  71.625  1.00  0.00    -0.504 C  
BRANCH   8   9
HETATM    9  C   UNL     1     -11.409  16.275  70.295  1.00  0.00    -0.299 C  
BRANCH   9  10
HETATM   10  C   UNL     1     -11.039  15.194  69.283  1.00  0.00    -0.274 C  
BRANCH  10  11
HETATM   11  N   UNL     1     -12.181  14.808  68.483  1.00  0.00    -0.605 N  
HETATM   12  H   UNL     1     -13.084  15.246  68.664  1.00  0.00     0.000 HD 
BRANCH  11  13
HETATM   13  C   UNL     1     -12.084  13.875  67.496  1.00  0.00    -0.331 C  
HETATM   14  N   UNL     1     -11.672  12.669  67.960  1.00  0.00    -0.341 N  
HETATM   15  O   UNL     1     -12.317  14.066  66.312  1.00  0.00    -0.456 OA 
HETATM   16  H1  UNL     1     -11.599  11.971  67.221  1.00  0.00     0.000 HD 
HETATM   17  H2  UNL     1     -11.459  12.482  68.940  1.00  0.00     0.000 HD 
ENDBRANCH  11  13
ENDBRANCH  10  11
ENDBRANCH   9  10
ENDBRANCH   8   9
ENDBRANCH   2   8
TORSDOF 5
ENDMDL
MODEL       42
REMARK 921   NORMALIZED FREE ENERGY PREDICTED BY IDOCK:   -3.71 KCAL/MOL
REMARK 922        TOTAL FREE ENERGY PREDICTED BY IDOCK:   -5.67 KCAL/MOL
REMARK 923 INTER-LIGAND FREE ENERGY PREDICTED BY IDOCK:   -5.50 KCAL/MOL
REMARK 924 INTRA-LIGAND FREE ENERGY PREDICTED BY IDOCK:   -0.17 KCAL/MOL
REMARK 927      BINDING AFFINITY PREDICTED BY RF-SCORE:    0.00 PKD
ROOT
HETATM    1  N   UNL     1     -10.111  13.477  64.218  1.00  0.00    -0.771 NA 
HETATM    2  CA  UNL     1     -10.907  12.219  64.091  1.00  0.00    -0.365 C  
HETATM    3  H1  UNL     1     -10.072  13.998  63.342  1.00  0.00     0.000 HD 
HETATM    4  H2  UNL     1      -9.174  13.285  64.575  1.00  0.00     0.000 HD 
HETATM    5  C   UNL     1     -12.334  12.592  63.644  1.00  0.00    -0.492 C  
HETATM    6  OXT UNL     1     -13.267  11.813  63.540  1.00  0.00    -0.585 OA 
HETATM    7  O   UNL     1     -12.432  13.920  63.366  1.00  0.00    -0.833 OA 
ENDROOT
BRANCH   2   8
HETATM    8  C   UNL     1     -10.965  11.436  65.406  1.00  0.00    -0.249 C  
BRANCH   8   9
HETATM    9  C   UNL     1      -9.942  10.302  65.488  1.00  0.00    -0.364 C  
BRANCH   9  10
HETATM   10  C   UNL     1      -9.857   9.748  66.909  1.00  0.00    -0.201 C  
BRANCH  10  11
HETATM   11  N   UNL     1     -10.795   8.665  67.109  1.00  0.00    -0.391 N  
HETATM   12  H   UNL     1     -11.757   8.884  67.367  1.00  0.00     0.000 HD 
BRANCH  11  13
HETATM   13  C   UNL     1     -10.430   7.362  66.962  1.00  0.00    -0.333 C  
HETATM   14  N   UNL     1     -11.495   6.524  66.936  1.00  0.00    -0.780 N  
HETATM   15  O   UNL     1      -9.283   6.950  66.874  1.00  0.00    -0.134 OA 
HETATM   16  H1  UNL     1     -11.222   5.548  66.827  1.00  0.00     0.000 HD 
HETATM   17  H2  UNL     1     -12.463   6.836  67.018  1.00  0.00     0.000 HD 
ENDBRANCH  11  13
ENDBRANCH  10  11
ENDBRANCH   9  10
ENDBRANCH   8   9
ENDBRANCH   2   8
TORSDOF 5
ENDMDL
MODEL       43
REMARK 921   NORMALIZED FREE ENERGY PREDICTED BY IDOCK:   -3.71 KCAL/MOL
REMARK 922        TOTAL FREE ENERGY PREDICTED BY IDOCK:   -5.67 KCAL/MOL
REMARK 923 INTER-LIGAND FREE ENERGY PREDICTED BY IDOCK:   -5.42 KCAL/MOL
REMARK 924 INTRA-LIGAND FREE ENERGY PREDICTED BY IDOCK:   -0.25 KCAL/MOL
REMARK 927      BINDING AFFINITY PREDICTED BY RF-SCORE:    0.00 PKD
ROOT
HETATM    1  N   UNL     1      -8.309  17.427  65.793  1.00  0.00    -0.505 NA 
HETATM    2  CA  UNL     1      -9.416  16.595  66.353  1.00  0.00    -0.280 C  
HETATM    3  H1  UNL     1      -8.637  18.340  65.476  1.00  0.00     0.000 HD 
HETATM    4  H2  UNL     1      -7.817  16.933  65.049  1.00  0.00     0.000 HD 
HETATM    5  C   UNL     1     -10.049  17.359  67.532  1.00  0.00    -0.322 C  
HETATM    6  OXT UNL     1     -10.914  16.921  68.274  1.00  0.00    -0.364 OA 
HETATM    7  O   UNL     1      -9.525  18.608  67.647  1.00  0.00    -0.287 OA 
ENDROOT
BRANCH   2   8
HETATM    8  C   UNL     1      -8.924  15.224  66.829  1.00  0.00    -0.291 C  
BRANCH   8   9
HETATM    9  C   UNL     1      -9.813  14.064  66.376  1.00  0.00    -0.306 C  
BRANCH   9  10
HETATM   10  C   UNL     1     -10.486  14.383  65.043  1.00  0.00    -0.430 C  
BRANCH  10  11
HETATM   11  N   UNL     1     -10.316  13.303  64.096  1.00  0.00    -0.625 N  
HETATM   12  H   UNL     1      -9.373  12.995  63.860  1.00  0.00     0.000 HD 
BRANCH  11  13
HETATM   13  C   UNL     1     -11.380  12.687  63.510  1.00  0.00    -0.463 C  
HETATM   14  N   UNL     1     -11.128  11.388  63.215  1.00  0.00    -0.822 N  
HETATM   15  O   UNL     1     -12.450  13.213  63.249  1.00  0.00    -0.720 OA 
HETATM   16  H1  UNL     1     -11.925  10.926  62.776  1.00  0.00     0.000 HD 
HETATM   17  H2  UNL     1     -10.241  10.924  63.410  1.00  0.00     0.000 HD 
ENDBRANCH  11  13
ENDBRANCH  10  11
ENDBRANCH   9  10
ENDBRANCH   8   9
ENDBRANCH   2   8
TORSDOF 5
ENDMDL
MODEL       44
REMARK 921   NORMALIZED FREE ENERGY PREDICTED BY IDOCK:   -3.70 KCAL/MOL
REMARK 922        TOTAL FREE ENERGY PREDICTED BY IDOCK:   -5.66 KCAL/MOL
REMARK 923 INTER-LIGAND FREE ENERGY PREDICTED BY IDOCK:   -5.18 KCAL/MOL
REMARK 924 INTRA-LIGAND FREE ENERGY PREDICTED BY IDOCK:   -0.48 KCAL/MOL
REMARK 927      BINDING AFFINITY PREDICTED BY RF-SCORE:    0.00 PKD
ROOT
HETATM    1  N   UNL     1      -8.969   9.827  66.273  1.00  0.00    -0.149 NA 
HETATM    2  CA  UNL     1      -9.345  11.097  65.583  1.00  0.00    -0.219 C  
HETATM    3  H1  UNL     1      -8.068   9.898  66.745  1.00  0.00     0.000 HD 
HETATM    4  H2  UNL     1      -8.986   9.038  65.628  1.00  0.00     0.000 HD 
HETATM    5  C   UNL     1      -9.395  12.224  66.633  1.00  0.00    -0.228 C  
HETATM    6  OXT UNL     1      -9.765  13.368  66.424  1.00  0.00    -0.270 OA 
HETATM    7  O   UNL     1      -8.961  11.787  67.845  1.00  0.00    -0.165 OA 
ENDROOT
BRANCH   2   8
HETATM    8  C   UNL     1     -10.699  10.991  64.874  1.00  0.00    -0.278 C  
BRANCH   8   9
HETATM    9  C   UNL     1     -10.758  11.753  63.549  1.00  0.00    -0.501 C  
BRANCH   9  10
HETATM   10  C   UNL     1     -12.178  12.235  63.262  1.00  0.00    -0.423 C  
BRANCH  10  11
HETATM   11  N   UNL     1     -12.245  13.679  63.212  1.00  0.00    -1.063 N  
HETATM   12  H   UNL     1     -12.275  14.143  62.304  1.00  0.00     0.000 HD 
BRANCH  11  13
HETATM   13  C   UNL     1     -12.268  14.437  64.343  1.00  0.00    -0.458 C  
HETATM   14  N   UNL     1     -11.273  15.357  64.371  1.00  0.00    -0.714 N  
HETATM   15  O   UNL     1     -13.067  14.322  65.260  1.00  0.00    -0.707 OA 
HETATM   16  H1  UNL     1     -11.289  15.924  65.219  1.00  0.00     0.000 HD 
HETATM   17  H2  UNL     1     -10.583  15.470  63.627  1.00  0.00     0.000 HD 
ENDBRANCH  11  13
ENDBRANCH  10  11
ENDBRANCH   9  10
ENDBRANCH   8   9
ENDBRANCH   2   8
TORSDOF 5
ENDMDL
MODEL       45
REMARK 921   NORMALIZED FREE ENERGY PREDICTED BY IDOCK:   -3.70 KCAL/MOL
REMARK 922        TOTAL FREE ENERGY PREDICTED BY IDOCK:   -5.66 KCAL/MOL
REMARK 923 INTER-LIGAND FREE ENERGY PREDICTED BY IDOCK:   -5.49 KCAL/MOL
REMARK 924 INTRA-LIGAND FREE ENERGY PREDICTED BY IDOCK:   -0.16 KCAL/MOL
REMARK 927      BINDING AFFINITY PREDICTED BY RF-SCORE:    0.00 PKD
ROOT
HETATM    1  N   UNL     1     -12.523  14.092  63.270  1.00  0.00    -1.112 NA 
HETATM    2  CA  UNL     1     -11.727  14.046  64.533  1.00  0.00    -0.413 C  
HETATM    3  H1  UNL     1     -13.302  14.746  63.330  1.00  0.00     0.000 HD 
HETATM    4  H2  UNL     1     -12.843  13.161  63.002  1.00  0.00     0.000 HD 
HETATM    5  C   UNL     1     -11.195  15.463  64.823  1.00  0.00    -0.395 C  
HETATM    6  OXT UNL     1     -10.428  15.758  65.725  1.00  0.00    -0.324 OA 
HETATM    7  O   UNL     1     -11.698  16.368  63.942  1.00  0.00    -1.085 OA 
ENDROOT
BRANCH   2   8
HETATM    8  C   UNL     1     -10.556  13.062  64.444  1.00  0.00    -0.429 C  
BRANCH   8   9
HETATM    9  C   UNL     1     -10.803  11.746  65.184  1.00  0.00    -0.351 C  
BRANCH   9  10
HETATM   10  C   UNL     1     -10.097  10.588  64.483  1.00  0.00    -0.332 C  
BRANCH  10  11
HETATM   11  N   UNL     1      -8.723  10.919  64.173  1.00  0.00    -0.360 N  
HETATM   12  H   UNL     1      -8.322  11.776  64.554  1.00  0.00     0.000 HD 
BRANCH  11  13
HETATM   13  C   UNL     1      -7.951  10.119  63.386  1.00  0.00    -0.160 C  
HETATM   14  N   UNL     1      -6.716  10.636  63.174  1.00  0.00    -0.351 N  
HETATM   15  O   UNL     1      -8.299   9.056  62.895  1.00  0.00    -0.180 OA 
HETATM   16  H1  UNL     1      -6.138  10.037  62.585  1.00  0.00     0.000 HD 
HETATM   17  H2  UNL     1      -6.400  11.526  63.561  1.00  0.00     0.000 HD 
ENDBRANCH  11  13
ENDBRANCH  10  11
ENDBRANCH   9  10
ENDBRANCH   8   9
ENDBRANCH   2   8
TORSDOF 5
ENDMDL
MODEL       46
REMARK 921   NORMALIZED FREE ENERGY PREDICTED BY IDOCK:   -3.69 KCAL/MOL
REMARK 922        TOTAL FREE ENERGY PREDICTED BY IDOCK:   -5.64 KCAL/MOL
REMARK 923 INTER-LIGAND FREE ENERGY PREDICTED BY IDOCK:   -5.40 KCAL/MOL
REMARK 924 INTRA-LIGAND FREE ENERGY PREDICTED BY IDOCK:   -0.25 KCAL/MOL
REMARK 927      BINDING AFFINITY PREDICTED BY RF-SCORE:    0.00 PKD
ROOT
HETATM    1  N   UNL     1     -10.109  13.583  64.166  1.00  0.00    -0.761 NA 
HETATM    2  CA  UNL     1     -10.733  12.334  63.637  1.00  0.00    -0.467 C  
HETATM    3  H1  UNL     1     -10.286  14.387  63.564  1.00  0.00     0.000 HD 
HETATM    4  H2  UNL     1      -9.110  13.456  64.329  1.00  0.00     0.000 HD 
HETATM    5  C   UNL     1     -12.252  12.566  63.510  1.00  0.00    -0.558 C  
HETATM    6  OXT UNL     1     -13.072  11.717  63.201  1.00  0.00    -0.568 OA 
HETATM    7  O   UNL     1     -12.577  13.858  63.782  1.00  0.00    -0.721 OA 
ENDROOT
BRANCH   2   8
HETATM    8  C   UNL     1     -10.468  11.126  64.541  1.00  0.00    -0.415 C  
BRANCH   8   9
HETATM    9  C   UNL     1      -9.935  11.503  65.925  1.00  0.00    -0.267 C  
BRANCH   9  10
HETATM   10  C   UNL     1     -10.856  10.978  67.024  1.00  0.00    -0.279 C  
BRANCH  10  11
HETATM   11  N   UNL     1     -11.622  12.048  67.625  1.00  0.00    -0.325 N  
HETATM   12  H   UNL     1     -12.179  12.656  67.025  1.00  0.00     0.000 HD 
BRANCH  11  13
HETATM   13  C   UNL     1     -11.619  12.267  68.969  1.00  0.00    -0.316 C  
HETATM   14  N   UNL     1     -10.890  13.355  69.316  1.00  0.00    -0.436 N  
HETATM   15  O   UNL     1     -12.183  11.575  69.802  1.00  0.00    -0.288 OA 
HETATM   16  H1  UNL     1     -10.887  13.519  70.322  1.00  0.00     0.000 HD 
HETATM   17  H2  UNL     1     -10.398  13.946  68.644  1.00  0.00     0.000 HD 
ENDBRANCH  11  13
ENDBRANCH  10  11
ENDBRANCH   9  10
ENDBRANCH   8   9
ENDBRANCH   2   8
TORSDOF 5
ENDMDL
MODEL       47
REMARK 921   NORMALIZED FREE ENERGY PREDICTED BY IDOCK:   -3.68 KCAL/MOL
REMARK 922        TOTAL FREE ENERGY PREDICTED BY IDOCK:   -5.64 KCAL/MOL
REMARK 923 INTER-LIGAND FREE ENERGY PREDICTED BY IDOCK:   -5.16 KCAL/MOL
REMARK 924 INTRA-LIGAND FREE ENERGY PREDICTED BY IDOCK:   -0.48 KCAL/MOL
REMARK 927      BINDING AFFINITY PREDICTED BY RF-SCORE:    0.00 PKD
ROOT
HETATM    1  N   UNL     1     -10.237  13.842  64.231  1.00  0.00    -0.737 NA 
HETATM    2  CA  UNL     1     -10.821  12.505  63.906  1.00  0.00    -0.431 C  
HETATM    3  H1  UNL     1     -10.271  14.480  63.436  1.00  0.00     0.000 HD 
HETATM    4  H2  UNL     1      -9.287  13.751  64.591  1.00  0.00     0.000 HD 
HETATM    5  C   UNL     1     -12.283  12.710  63.464  1.00  0.00    -0.547 C  
HETATM    6  OXT UNL     1     -13.079  11.817  63.223  1.00  0.00    -0.598 OA 
HETATM    7  O   UNL     1     -12.588  14.031  63.366  1.00  0.00    -0.845 OA 
ENDROOT
BRANCH   2   8
HETATM    8  C   UNL     1     -10.770  11.546  65.099  1.00  0.00    -0.348 C  
BRANCH   8   9
HETATM    9  C   UNL     1      -9.441  10.800  65.229  1.00  0.00    -0.263 C  
BRANCH   9  10
HETATM   10  C   UNL     1      -8.641  11.318  66.422  1.00  0.00    -0.174 C  
BRANCH  10  11
HETATM   11  N   UNL     1      -8.582  12.763  66.429  1.00  0.00    -0.416 N  
HETATM   12  H   UNL     1      -8.169  13.246  65.630  1.00  0.00     0.000 HD 
BRANCH  11  13
HETATM   13  C   UNL     1      -9.061  13.497  67.471  1.00  0.00    -0.214 C  
HETATM   14  N   UNL     1      -8.587  13.069  68.667  1.00  0.00    -0.367 N  
HETATM   15  O   UNL     1      -9.841  14.432  67.383  1.00  0.00    -0.220 OA 
HETATM   16  H1  UNL     1      -8.946  13.618  69.448  1.00  0.00     0.000 HD 
HETATM   17  H2  UNL     1      -7.943  12.285  68.774  1.00  0.00     0.000 HD 
ENDBRANCH  11  13
ENDBRANCH  10  11
ENDBRANCH   9  10
ENDBRANCH   8   9
ENDBRANCH   2   8
TORSDOF 5
ENDMDL
MODEL       48
REMARK 921   NORMALIZED FREE ENERGY PREDICTED BY IDOCK:   -3.68 KCAL/MOL
REMARK 922        TOTAL FREE ENERGY PREDICTED BY IDOCK:   -5.63 KCAL/MOL
REMARK 923 INTER-LIGAND FREE ENERGY PREDICTED BY IDOCK:   -5.47 KCAL/MOL
REMARK 924 INTRA-LIGAND FREE ENERGY PREDICTED BY IDOCK:   -0.16 KCAL/MOL
REMARK 927      BINDING AFFINITY PREDICTED BY RF-SCORE:    0.00 PKD
ROOT
HETATM    1  N   UNL     1     -14.111   9.200  72.742  1.00  0.00    -1.013 NA 
HETATM    2  CA  UNL     1     -13.359   9.254  71.453  1.00  0.00    -0.325 C  
HETATM    3  H1  UNL     1     -14.262   8.243  73.059  1.00  0.00     0.000 HD 
HETATM    4  H2  UNL     1     -14.992   9.710  72.677  1.00  0.00     0.000 HD 
HETATM    5  C   UNL     1     -12.002   8.552  71.653  1.00  0.00    -0.316 C  
HETATM    6  OXT UNL     1     -11.104   8.504  70.829  1.00  0.00    -0.245 OA 
HETATM    7  O   UNL     1     -11.923   7.973  72.881  1.00  0.00    -0.297 OA 
ENDROOT
BRANCH   2   8
HETATM    8  C   UNL     1     -13.132  10.692  70.976  1.00  0.00    -0.376 C  
BRANCH   8   9
HETATM    9  C   UNL     1     -13.037  11.708  72.116  1.00  0.00    -0.290 C  
BRANCH   9  10
HETATM   10  C   UNL     1     -13.288  13.124  71.605  1.00  0.00    -0.308 C  
BRANCH  10  11
HETATM   11  N   UNL     1     -13.423  14.063  72.697  1.00  0.00    -0.541 N  
HETATM   12  H   UNL     1     -13.552  13.706  73.644  1.00  0.00     0.000 HD 
BRANCH  11  13
HETATM   13  C   UNL     1     -13.383  15.409  72.497  1.00  0.00    -0.471 C  
HETATM   14  N   UNL     1     -13.703  16.109  73.613  1.00  0.00    -0.823 N  
HETATM   15  O   UNL     1     -13.111  15.963  71.443  1.00  0.00    -0.465 OA 
HETATM   16  H1  UNL     1     -13.673  17.117  73.463  1.00  0.00     0.000 HD 
HETATM   17  H2  UNL     1     -13.946  15.675  74.504  1.00  0.00     0.000 HD 
ENDBRANCH  11  13
ENDBRANCH  10  11
ENDBRANCH   9  10
ENDBRANCH   8   9
ENDBRANCH   2   8
TORSDOF 5
ENDMDL
MODEL       49
REMARK 921   NORMALIZED FREE ENERGY PREDICTED BY IDOCK:   -3.67 KCAL/MOL
REMARK 922        TOTAL FREE ENERGY PREDICTED BY IDOCK:   -5.62 KCAL/MOL
REMARK 923 INTER-LIGAND FREE ENERGY PREDICTED BY IDOCK:   -5.04 KCAL/MOL
REMARK 924 INTRA-LIGAND FREE ENERGY PREDICTED BY IDOCK:   -0.59 KCAL/MOL
REMARK 927      BINDING AFFINITY PREDICTED BY RF-SCORE:    0.00 PKD
ROOT
HETATM    1  N   UNL     1     -11.278  16.366  69.375  1.00  0.00    -0.300 NA 
HETATM    2  CA  UNL     1     -10.898  15.525  68.200  1.00  0.00    -0.296 C  
HETATM    3  H1  UNL     1     -10.531  17.002  69.650  1.00  0.00     0.000 HD 
HETATM    4  H2  UNL     1     -11.579  15.788  70.159  1.00  0.00     0.000 HD 
HETATM    5  C   UNL     1     -10.551  16.461  67.025  1.00  0.00    -0.260 C  
HETATM    6  OXT UNL     1     -10.295  16.101  65.888  1.00  0.00    -0.330 OA 
HETATM    7  O   UNL     1     -10.558  17.764  67.415  1.00  0.00    -0.368 OA 
ENDROOT
BRANCH   2   8
HETATM    8  C   UNL     1     -12.020  14.569  67.785  1.00  0.00    -0.345 C  
BRANCH   8   9
HETATM    9  C   UNL     1     -11.562  13.117  67.632  1.00  0.00    -0.392 C  
BRANCH   9  10
HETATM   10  C   UNL     1     -11.459  12.732  66.158  1.00  0.00    -0.351 C  
BRANCH  10  11
HETATM   11  N   UNL     1     -12.615  13.182  65.414  1.00  0.00    -0.488 N  
HETATM   12  H   UNL     1     -13.518  13.234  65.885  1.00  0.00     0.000 HD 
BRANCH  11  13
HETATM   13  C   UNL     1     -12.531  13.538  64.102  1.00  0.00    -0.239 C  
HETATM   14  N   UNL     1     -12.471  14.881  63.932  1.00  0.00    -1.056 N  
HETATM   15  O   UNL     1     -12.523  12.766  63.155  1.00  0.00    -0.612 OA 
HETATM   16  H1  UNL     1     -12.409  15.148  62.950  1.00  0.00     0.000 HD 
HETATM   17  H2  UNL     1     -12.487  15.551  64.701  1.00  0.00     0.000 HD 
ENDBRANCH  11  13
ENDBRANCH  10  11
ENDBRANCH   9  10
ENDBRANCH   8   9
ENDBRANCH   2   8
TORSDOF 5
ENDMDL
MODEL       50
REMARK 921   NORMALIZED FREE ENERGY PREDICTED BY IDOCK:   -3.66 KCAL/MOL
REMARK 922        TOTAL FREE ENERGY PREDICTED BY IDOCK:   -5.60 KCAL/MOL
REMARK 923 INTER-LIGAND FREE ENERGY PREDICTED BY IDOCK:   -5.36 KCAL/MOL
REMARK 924 INTRA-LIGAND FREE ENERGY PREDICTED BY IDOCK:   -0.24 KCAL/MOL
REMARK 927      BINDING AFFINITY PREDICTED BY RF-SCORE:    0.00 PKD
ROOT
HETATM    1  N   UNL     1     -10.463  10.965  62.678  1.00  0.00    -0.723 NA 
HETATM    2  CA  UNL     1     -10.674  11.732  63.943  1.00  0.00    -0.399 C  
HETATM    3  H1  UNL     1      -9.483  10.725  62.533  1.00  0.00     0.000 HD 
HETATM    4  H2  UNL     1     -10.844  11.467  61.876  1.00  0.00     0.000 HD 
HETATM    5  C   UNL     1     -10.167  10.876  65.120  1.00  0.00    -0.297 C  
HETATM    6  OXT UNL     1     -10.280  11.161  66.301  1.00  0.00    -0.224 OA 
HETATM    7  O   UNL     1      -9.560   9.742  64.678  1.00  0.00    -0.286 OA 
ENDROOT
BRANCH   2   8
HETATM    8  C   UNL     1     -12.146  12.093  64.162  1.00  0.00    -0.501 C  
BRANCH   8   9
HETATM    9  C   UNL     1     -12.406  13.600  64.216  1.00  0.00    -0.388 C  
BRANCH   9  10
HETATM   10  C   UNL     1     -11.807  14.210  65.481  1.00  0.00    -0.364 C  
BRANCH  10  11
HETATM   11  N   UNL     1     -10.648  15.021  65.177  1.00  0.00    -0.392 N  
HETATM   12  H   UNL     1      -9.742  14.567  65.063  1.00  0.00     0.000 HD 
BRANCH  11  13
HETATM   13  C   UNL     1     -10.733  16.373  65.040  1.00  0.00    -0.259 C  
HETATM   14  N   UNL     1     -10.079  17.036  66.025  1.00  0.00    -0.321 N  
HETATM   15  O   UNL     1     -11.334  16.961  64.154  1.00  0.00    -1.208 OA 
HETATM   16  H1  UNL     1     -10.143  18.049  65.923  1.00  0.00     0.000 HD 
HETATM   17  H2  UNL     1      -9.578  16.573  66.784  1.00  0.00     0.000 HD 
ENDBRANCH  11  13
ENDBRANCH  10  11
ENDBRANCH   9  10
ENDBRANCH   8   9
ENDBRANCH   2   8
TORSDOF 5
ENDMDL
MODEL       51
REMARK 921   NORMALIZED FREE ENERGY PREDICTED BY IDOCK:   -3.65 KCAL/MOL
REMARK 922        TOTAL FREE ENERGY PREDICTED BY IDOCK:   -5.60 KCAL/MOL
REMARK 923 INTER-LIGAND FREE ENERGY PREDICTED BY IDOCK:   -5.45 KCAL/MOL
REMARK 924 INTRA-LIGAND FREE ENERGY PREDICTED BY IDOCK:   -0.15 KCAL/MOL
REMARK 927      BINDING AFFINITY PREDICTED BY RF-SCORE:    0.00 PKD
ROOT
HETATM    1  N   UNL     1      -9.939  16.442  67.666  1.00  0.00    -0.248 NA 
HETATM    2  CA  UNL     1      -9.870  17.319  66.458  1.00  0.00    -0.298 C  
HETATM    3  H1  UNL     1      -9.288  16.738  68.393  1.00  0.00     0.000 HD 
HETATM    4  H2  UNL     1      -9.796  15.463  67.418  1.00  0.00     0.000 HD 
HETATM    5  C   UNL     1     -10.191  18.764  66.888  1.00  0.00    -0.386 C  
HETATM    6  OXT UNL     1     -10.317  19.714  66.133  1.00  0.00    -0.452 OA 
HETATM    7  O   UNL     1     -10.312  18.860  68.239  1.00  0.00    -0.369 OA 
ENDROOT
BRANCH   2   8
HETATM    8  C   UNL     1     -10.847  16.876  65.365  1.00  0.00    -0.113 C  
BRANCH   8   9
HETATM    9  C   UNL     1     -10.893  15.360  65.162  1.00  0.00    -0.447 C  
BRANCH   9  10
HETATM   10  C   UNL     1     -12.099  14.961  64.315  1.00  0.00    -0.353 C  
BRANCH  10  11
HETATM   11  N   UNL     1     -11.796  13.828  63.469  1.00  0.00    -0.689 N  
HETATM   12  H   UNL     1     -11.281  13.980  62.601  1.00  0.00     0.000 HD 
BRANCH  11  13
HETATM   13  C   UNL     1     -12.179  12.563  63.798  1.00  0.00    -0.525 C  
HETATM   14  N   UNL     1     -11.550  11.621  63.053  1.00  0.00    -0.829 N  
HETATM   15  O   UNL     1     -13.002  12.268  64.650  1.00  0.00    -0.741 OA 
HETATM   16  H1  UNL     1     -11.836  10.673  63.299  1.00  0.00     0.000 HD 
HETATM   17  H2  UNL     1     -10.866  11.835  62.327  1.00  0.00     0.000 HD 
ENDBRANCH  11  13
ENDBRANCH  10  11
ENDBRANCH   9  10
ENDBRANCH   8   9
ENDBRANCH   2   8
TORSDOF 5
ENDMDL
MODEL       52
REMARK 921   NORMALIZED FREE ENERGY PREDICTED BY IDOCK:   -3.65 KCAL/MOL
REMARK 922        TOTAL FREE ENERGY PREDICTED BY IDOCK:   -5.59 KCAL/MOL
REMARK 923 INTER-LIGAND FREE ENERGY PREDICTED BY IDOCK:   -5.46 KCAL/MOL
REMARK 924 INTRA-LIGAND FREE ENERGY PREDICTED BY IDOCK:   -0.14 KCAL/MOL
REMARK 927      BINDING AFFINITY PREDICTED BY RF-SCORE:    0.00 PKD
ROOT
HETATM    1  N   UNL     1     -12.310  15.041  68.464  1.00  0.00    -0.579 NA 
HETATM    2  CA  UNL     1     -11.560  14.556  67.266  1.00  0.00    -0.385 C  
HETATM    3  H1  UNL     1     -11.686  15.372  69.200  1.00  0.00     0.000 HD 
HETATM    4  H2  UNL     1     -12.947  14.326  68.814  1.00  0.00     0.000 HD 
HETATM    5  C   UNL     1     -10.694  15.714  66.734  1.00  0.00    -0.300 C  
HETATM    6  OXT UNL     1     -10.033  15.688  65.709  1.00  0.00    -0.311 OA 
HETATM    7  O   UNL     1     -10.749  16.791  67.562  1.00  0.00    -0.328 OA 
ENDROOT
BRANCH   2   8
HETATM    8  C   UNL     1     -12.496  14.058  66.161  1.00  0.00    -0.467 C  
BRANCH   8   9
HETATM    9  C   UNL     1     -12.079  12.712  65.565  1.00  0.00    -0.515 C  
BRANCH   9  10
HETATM   10  C   UNL     1     -12.303  12.694  64.055  1.00  0.00    -0.443 C  
BRANCH  10  11
HETATM   11  N   UNL     1     -11.708  11.523  63.448  1.00  0.00    -0.807 N  
HETATM   12  H   UNL     1     -12.294  10.709  63.264  1.00  0.00     0.000 HD 
BRANCH  11  13
HETATM   13  C   UNL     1     -10.388  11.477  63.117  1.00  0.00    -0.324 C  
HETATM   14  N   UNL     1     -10.078  10.388  62.372  1.00  0.00    -0.717 N  
HETATM   15  O   UNL     1      -9.544  12.295  63.447  1.00  0.00    -0.281 OA 
HETATM   16  H1  UNL     1      -9.089  10.354  62.124  1.00  0.00     0.000 HD 
HETATM   17  H2  UNL     1     -10.758   9.682  62.090  1.00  0.00     0.000 HD 
ENDBRANCH  11  13
ENDBRANCH  10  11
ENDBRANCH   9  10
ENDBRANCH   8   9
ENDBRANCH   2   8
TORSDOF 5
ENDMDL
MODEL       53
REMARK 921   NORMALIZED FREE ENERGY PREDICTED BY IDOCK:   -3.64 KCAL/MOL
REMARK 922        TOTAL FREE ENERGY PREDICTED BY IDOCK:   -5.58 KCAL/MOL
REMARK 923 INTER-LIGAND FREE ENERGY PREDICTED BY IDOCK:   -5.06 KCAL/MOL
REMARK 924 INTRA-LIGAND FREE ENERGY PREDICTED BY IDOCK:   -0.52 KCAL/MOL
REMARK 927      BINDING AFFINITY PREDICTED BY RF-SCORE:    0.00 PKD
ROOT
HETATM    1  N   UNL     1      -9.568  19.600  68.086  1.00  0.00    -0.360 NA 
HETATM    2  CA  UNL     1      -9.834  18.383  67.261  1.00  0.00    -0.317 C  
HETATM    3  H1  UNL     1      -8.941  20.253  67.618  1.00  0.00     0.000 HD 
HETATM    4  H2  UNL     1      -9.217  19.349  69.011  1.00  0.00     0.000 HD 
HETATM    5  C   UNL     1     -10.453  18.831  65.922  1.00  0.00    -0.376 C  
HETATM    6  OXT UNL     1     -10.880  18.084  65.058  1.00  0.00    -0.738 OA 
HETATM    7  O   UNL     1     -10.460  20.186  65.812  1.00  0.00    -0.430 OA 
ENDROOT
BRANCH   2   8
HETATM    8  C   UNL     1     -10.777  17.402  67.965  1.00  0.00    -0.359 C  
BRANCH   8   9
HETATM    9  C   UNL     1     -10.246  15.969  68.011  1.00  0.00    -0.245 C  
BRANCH   9  10
HETATM   10  C   UNL     1     -11.105  15.042  67.155  1.00  0.00    -0.332 C  
BRANCH  10  11
HETATM   11  N   UNL     1     -10.682  15.059  65.772  1.00  0.00    -0.325 N  
HETATM   12  H   UNL     1      -9.866  15.612  65.510  1.00  0.00     0.000 HD 
BRANCH  11  13
HETATM   13  C   UNL     1     -11.344  14.359  64.810  1.00  0.00    -0.388 C  
HETATM   14  N   UNL     1     -10.530  13.510  64.134  1.00  0.00    -0.585 N  
HETATM   15  O   UNL     1     -12.531  14.463  64.543  1.00  0.00    -0.608 OA 
HETATM   16  H1  UNL     1     -11.024  12.985  63.413  1.00  0.00     0.000 HD 
HETATM   17  H2  UNL     1      -9.533  13.408  64.326  1.00  0.00     0.000 HD 
ENDBRANCH  11  13
ENDBRANCH  10  11
ENDBRANCH   9  10
ENDBRANCH   8   9
ENDBRANCH   2   8
TORSDOF 5
ENDMDL
MODEL       54
REMARK 921   NORMALIZED FREE ENERGY PREDICTED BY IDOCK:   -3.64 KCAL/MOL
REMARK 922        TOTAL FREE ENERGY PREDICTED BY IDOCK:   -5.58 KCAL/MOL
REMARK 923 INTER-LIGAND FREE ENERGY PREDICTED BY IDOCK:   -5.39 KCAL/MOL
REMARK 924 INTRA-LIGAND FREE ENERGY PREDICTED BY IDOCK:   -0.19 KCAL/MOL
REMARK 927      BINDING AFFINITY PREDICTED BY RF-SCORE:    0.00 PKD
ROOT
HETATM    1  N   UNL     1     -13.070  13.980  65.145  1.00  0.00    -0.759 NA 
HETATM    2  CA  UNL     1     -11.647  13.746  64.753  1.00  0.00    -0.362 C  
HETATM    3  H1  UNL     1     -13.648  14.253  64.351  1.00  0.00     0.000 HD 
HETATM    4  H2  UNL     1     -13.136  14.662  65.902  1.00  0.00     0.000 HD 
HETATM    5  C   UNL     1     -11.616  12.639  63.682  1.00  0.00    -0.503 C  
HETATM    6  OXT UNL     1     -10.606  12.136  63.216  1.00  0.00    -0.428 OA 
HETATM    7  O   UNL     1     -12.872  12.285  63.302  1.00  0.00    -0.719 OA 
ENDROOT
BRANCH   2   8
HETATM    8  C   UNL     1     -10.778  13.336  65.947  1.00  0.00    -0.284 C  
BRANCH   8   9
HETATM    9  C   UNL     1     -11.183  11.999  66.568  1.00  0.00    -0.387 C  
BRANCH   9  10
HETATM   10  C   UNL     1     -11.653  12.189  68.009  1.00  0.00    -0.348 C  
BRANCH  10  11
HETATM   11  N   UNL     1     -11.948  10.921  68.639  1.00  0.00    -0.438 N  
HETATM   12  H   UNL     1     -12.101  10.100  68.052  1.00  0.00     0.000 HD 
BRANCH  11  13
HETATM   13  C   UNL     1     -12.027  10.792  69.992  1.00  0.00    -0.347 C  
HETATM   14  N   UNL     1     -11.876   9.508  70.400  1.00  0.00    -0.439 N  
HETATM   15  O   UNL     1     -12.225  11.701  70.782  1.00  0.00    -0.375 OA 
HETATM   16  H1  UNL     1     -11.935   9.410  71.413  1.00  0.00     0.000 HD 
HETATM   17  H2  UNL     1     -11.720   8.725  69.764  1.00  0.00     0.000 HD 
ENDBRANCH  11  13
ENDBRANCH  10  11
ENDBRANCH   9  10
ENDBRANCH   8   9
ENDBRANCH   2   8
TORSDOF 5
ENDMDL
MODEL       55
REMARK 921   NORMALIZED FREE ENERGY PREDICTED BY IDOCK:   -3.63 KCAL/MOL
REMARK 922        TOTAL FREE ENERGY PREDICTED BY IDOCK:   -5.56 KCAL/MOL
REMARK 923 INTER-LIGAND FREE ENERGY PREDICTED BY IDOCK:   -5.03 KCAL/MOL
REMARK 924 INTRA-LIGAND FREE ENERGY PREDICTED BY IDOCK:   -0.53 KCAL/MOL
REMARK 927      BINDING AFFINITY PREDICTED BY RF-SCORE:    0.00 PKD
ROOT
HETATM    1  N   UNL     1      -9.219  18.260  68.165  1.00  0.00    -0.293 NA 
HETATM    2  CA  UNL     1     -10.496  17.668  67.664  1.00  0.00    -0.372 C  
HETATM    3  H1  UNL     1      -9.287  18.555  69.139  1.00  0.00     0.000 HD 
HETATM    4  H2  UNL     1      -8.910  19.027  67.568  1.00  0.00     0.000 HD 
HETATM    5  C   UNL     1     -10.850  16.458  68.551  1.00  0.00    -0.339 C  
HETATM    6  OXT UNL     1     -11.778  15.690  68.358  1.00  0.00    -0.367 OA 
HETATM    7  O   UNL     1      -9.993  16.349  69.601  1.00  0.00    -0.201 OA 
ENDROOT
BRANCH   2   8
HETATM    8  C   UNL     1     -10.395  17.226  66.201  1.00  0.00    -0.320 C  
BRANCH   8   9
HETATM    9  C   UNL     1      -9.446  16.046  65.983  1.00  0.00    -0.384 C  
BRANCH   9  10
HETATM   10  C   UNL     1     -10.092  14.987  65.093  1.00  0.00    -0.315 C  
BRANCH  10  11
HETATM   11  N   UNL     1     -11.304  14.467  65.687  1.00  0.00    -0.331 N  
HETATM   12  H   UNL     1     -11.331  14.301  66.693  1.00  0.00     0.000 HD 
BRANCH  11  13
HETATM   13  C   UNL     1     -12.410  14.194  64.941  1.00  0.00    -0.430 C  
HETATM   14  N   UNL     1     -12.249  14.525  63.636  1.00  0.00    -1.062 N  
HETATM   15  O   UNL     1     -13.452  13.718  65.363  1.00  0.00    -0.620 OA 
HETATM   16  H1  UNL     1     -13.077  14.320  63.077  1.00  0.00     0.000 HD 
HETATM   17  H2  UNL     1     -11.395  14.933  63.256  1.00  0.00     0.000 HD 
ENDBRANCH  11  13
ENDBRANCH  10  11
ENDBRANCH   9  10
ENDBRANCH   8   9
ENDBRANCH   2   8
TORSDOF 5
ENDMDL
MODEL       56
REMARK 921   NORMALIZED FREE ENERGY PREDICTED BY IDOCK:   -3.62 KCAL/MOL
REMARK 922        TOTAL FREE ENERGY PREDICTED BY IDOCK:   -5.56 KCAL/MOL
REMARK 923 INTER-LIGAND FREE ENERGY PREDICTED BY IDOCK:   -5.01 KCAL/MOL
REMARK 924 INTRA-LIGAND FREE ENERGY PREDICTED BY IDOCK:   -0.55 KCAL/MOL
REMARK 927      BINDING AFFINITY PREDICTED BY RF-SCORE:    0.00 PKD
ROOT
HETATM    1  N   UNL     1     -11.733  11.561  63.103  1.00  0.00    -0.890 NA 
HETATM    2  CA  UNL     1     -11.251  12.271  64.327  1.00  0.00    -0.350 C  
HETATM    3  H1  UNL     1     -10.966  11.289  62.489  1.00  0.00     0.000 HD 
HETATM    4  H2  UNL     1     -12.426  12.119  62.603  1.00  0.00     0.000 HD 
HETATM    5  C   UNL     1     -10.288  11.335  65.082  1.00  0.00    -0.295 C  
HETATM    6  OXT UNL     1      -9.791  11.565  66.173  1.00  0.00    -0.207 OA 
HETATM    7  O   UNL     1     -10.044  10.201  64.372  1.00  0.00    -0.282 OA 
ENDROOT
BRANCH   2   8
HETATM    8  C   UNL     1     -12.404  12.681  65.249  1.00  0.00    -0.528 C  
BRANCH   8   9
HETATM    9  C   UNL     1     -12.426  14.175  65.575  1.00  0.00    -0.495 C  
BRANCH   9  10
HETATM   10  C   UNL     1     -11.569  14.476  66.803  1.00  0.00    -0.376 C  
BRANCH  10  11
HETATM   11  N   UNL     1     -12.262  14.133  68.025  1.00  0.00    -0.561 N  
HETATM   12  H   UNL     1     -13.253  14.357  68.113  1.00  0.00     0.000 HD 
BRANCH  11  13
HETATM   13  C   UNL     1     -11.627  13.521  69.063  1.00  0.00    -0.311 C  
HETATM   14  N   UNL     1     -10.419  13.018  68.708  1.00  0.00    -0.384 N  
HETATM   15  O   UNL     1     -12.068  13.403  70.196  1.00  0.00    -0.333 OA 
HETATM   16  H1  UNL     1      -9.944  12.559  69.485  1.00  0.00     0.000 HD 
HETATM   17  H2  UNL     1     -10.029  13.091  67.768  1.00  0.00     0.000 HD 
ENDBRANCH  11  13
ENDBRANCH  10  11
ENDBRANCH   9  10
ENDBRANCH   8   9
ENDBRANCH   2   8
TORSDOF 5
ENDMDL
MODEL       57
REMARK 921   NORMALIZED FREE ENERGY PREDICTED BY IDOCK:   -3.62 KCAL/MOL
REMARK 922        TOTAL FREE ENERGY PREDICTED BY IDOCK:   -5.55 KCAL/MOL
REMARK 923 INTER-LIGAND FREE ENERGY PREDICTED BY IDOCK:   -4.97 KCAL/MOL
REMARK 924 INTRA-LIGAND FREE ENERGY PREDICTED BY IDOCK:   -0.58 KCAL/MOL
REMARK 927      BINDING AFFINITY PREDICTED BY RF-SCORE:    0.00 PKD
ROOT
HETATM    1  N   UNL     1     -10.277  17.556  65.668  1.00  0.00    -0.621 NA 
HETATM    2  CA  UNL     1     -10.133  16.069  65.640  1.00  0.00    -0.354 C  
HETATM    3  H1  UNL     1     -10.091  17.978  64.759  1.00  0.00     0.000 HD 
HETATM    4  H2  UNL     1      -9.691  17.969  66.394  1.00  0.00     0.000 HD 
HETATM    5  C   UNL     1     -11.115  15.506  64.594  1.00  0.00    -0.359 C  
HETATM    6  OXT UNL     1     -11.323  14.321  64.388  1.00  0.00    -0.347 OA 
HETATM    7  O   UNL     1     -11.730  16.505  63.908  1.00  0.00    -1.148 OA 
ENDROOT
BRANCH   2   8
HETATM    8  C   UNL     1     -10.412  15.435  67.006  1.00  0.00    -0.295 C  
BRANCH   8   9
HETATM    9  C   UNL     1     -11.274  16.306  67.921  1.00  0.00    -0.213 C  
BRANCH   9  10
HETATM   10  C   UNL     1     -10.470  16.791  69.126  1.00  0.00    -0.343 C  
BRANCH  10  11
HETATM   11  N   UNL     1      -9.228  17.408  68.716  1.00  0.00    -0.267 N  
HETATM   12  H   UNL     1      -8.416  16.817  68.537  1.00  0.00     0.000 HD 
BRANCH  11  13
HETATM   13  C   UNL     1      -9.111  18.756  68.564  1.00  0.00    -0.342 C  
HETATM   14  N   UNL     1      -8.165  19.096  67.654  1.00  0.00    -0.280 N  
HETATM   15  O   UNL     1      -9.756  19.599  69.169  1.00  0.00    -0.403 OA 
HETATM   16  H1  UNL     1      -8.078  20.105  67.540  1.00  0.00     0.000 HD 
HETATM   17  H2  UNL     1      -7.603  18.416  67.140  1.00  0.00     0.000 HD 
ENDBRANCH  11  13
ENDBRANCH  10  11
ENDBRANCH   9  10
ENDBRANCH   8   9
ENDBRANCH   2   8
TORSDOF 5
ENDMDL
MODEL       58
REMARK 921   NORMALIZED FREE ENERGY PREDICTED BY IDOCK:   -3.61 KCAL/MOL
REMARK 922        TOTAL FREE ENERGY PREDICTED BY IDOCK:   -5.54 KCAL/MOL
REMARK 923 INTER-LIGAND FREE ENERGY PREDICTED BY IDOCK:   -4.93 KCAL/MOL
REMARK 924 INTRA-LIGAND FREE ENERGY PREDICTED BY IDOCK:   -0.60 KCAL/MOL
REMARK 927      BINDING AFFINITY PREDICTED BY RF-SCORE:    0.00 PKD
ROOT
HETATM    1  N   UNL     1     -11.798  11.255  67.312  1.00  0.00    -0.511 NA 
HETATM    2  CA  UNL     1     -10.495  11.848  66.887  1.00  0.00    -0.222 C  
HETATM    3  H1  UNL     1     -11.805  11.009  68.301  1.00  0.00     0.000 HD 
HETATM    4  H2  UNL     1     -12.046  10.453  66.731  1.00  0.00     0.000 HD 
HETATM    5  C   UNL     1     -10.234  13.106  67.737  1.00  0.00    -0.231 C  
HETATM    6  OXT UNL     1      -9.306  13.883  67.581  1.00  0.00    -0.193 OA 
HETATM    7  O   UNL     1     -11.175  13.248  68.708  1.00  0.00    -0.248 OA 
ENDROOT
BRANCH   2   8
HETATM    8  C   UNL     1     -10.485  12.217  65.400  1.00  0.00    -0.305 C  
BRANCH   8   9
HETATM    9  C   UNL     1     -11.881  12.299  64.780  1.00  0.00    -0.428 C  
BRANCH   9  10
HETATM   10  C   UNL     1     -12.211  13.733  64.372  1.00  0.00    -0.399 C  
BRANCH  10  11
HETATM   11  N   UNL     1     -11.035  14.574  64.407  1.00  0.00    -0.621 N  
HETATM   12  H   UNL     1     -10.134  14.179  64.137  1.00  0.00     0.000 HD 
BRANCH  11  13
HETATM   13  C   UNL     1     -11.097  15.879  64.792  1.00  0.00    -0.384 C  
HETATM   14  N   UNL     1     -10.897  16.037  66.123  1.00  0.00    -0.237 N  
HETATM   15  O   UNL     1     -11.320  16.828  64.055  1.00  0.00    -1.153 OA 
HETATM   16  H1  UNL     1     -10.943  17.015  66.412  1.00  0.00     0.000 HD 
HETATM   17  H2  UNL     1     -10.719  15.265  66.766  1.00  0.00     0.000 HD 
ENDBRANCH  11  13
ENDBRANCH  10  11
ENDBRANCH   9  10
ENDBRANCH   8   9
ENDBRANCH   2   8
TORSDOF 5
ENDMDL
MODEL       59
REMARK 921   NORMALIZED FREE ENERGY PREDICTED BY IDOCK:   -3.59 KCAL/MOL
REMARK 922        TOTAL FREE ENERGY PREDICTED BY IDOCK:   -5.52 KCAL/MOL
REMARK 923 INTER-LIGAND FREE ENERGY PREDICTED BY IDOCK:   -5.08 KCAL/MOL
REMARK 924 INTRA-LIGAND FREE ENERGY PREDICTED BY IDOCK:   -0.44 KCAL/MOL
REMARK 927      BINDING AFFINITY PREDICTED BY RF-SCORE:    0.00 PKD
ROOT
HETATM    1  N   UNL     1     -10.367  18.104  65.601  1.00  0.00    -0.599 NA 
HETATM    2  CA  UNL     1     -10.231  16.674  66.012  1.00  0.00    -0.351 C  
HETATM    3  H1  UNL     1     -10.061  18.259  64.640  1.00  0.00     0.000 HD 
HETATM    4  H2  UNL     1      -9.878  18.722  66.248  1.00  0.00     0.000 HD 
HETATM    5  C   UNL     1     -11.071  15.810  65.052  1.00  0.00    -0.370 C  
HETATM    6  OXT UNL     1     -11.260  14.610  65.164  1.00  0.00    -0.337 OA 
HETATM    7  O   UNL     1     -11.584  16.558  64.038  1.00  0.00    -1.154 OA 
ENDROOT
BRANCH   2   8
HETATM    8  C   UNL     1     -10.691  16.441  67.455  1.00  0.00    -0.278 C  
BRANCH   8   9
HETATM    9  C   UNL     1      -9.827  15.435  68.218  1.00  0.00    -0.213 C  
BRANCH   9  10
HETATM   10  C   UNL     1     -10.673  14.273  68.732  1.00  0.00    -0.254 C  
BRANCH  10  11
HETATM   11  N   UNL     1     -10.509  13.097  67.906  1.00  0.00    -0.234 N  
HETATM   12  H   UNL     1     -10.048  13.187  67.001  1.00  0.00     0.000 HD 
BRANCH  11  13
HETATM   13  C   UNL     1     -10.953  11.872  68.303  1.00  0.00    -0.230 C  
HETATM   14  N   UNL     1     -10.134  11.295  69.216  1.00  0.00    -0.426 N  
HETATM   15  O   UNL     1     -11.961  11.315  67.897  1.00  0.00    -0.630 OA 
HETATM   16  H1  UNL     1     -10.466  10.377  69.514  1.00  0.00     0.000 HD 
HETATM   17  H2  UNL     1      -9.279  11.729  69.566  1.00  0.00     0.000 HD 
ENDBRANCH  11  13
ENDBRANCH  10  11
ENDBRANCH   9  10
ENDBRANCH   8   9
ENDBRANCH   2   8
TORSDOF 5
ENDMDL
MODEL       60
REMARK 921   NORMALIZED FREE ENERGY PREDICTED BY IDOCK:   -3.59 KCAL/MOL
REMARK 922        TOTAL FREE ENERGY PREDICTED BY IDOCK:   -5.51 KCAL/MOL
REMARK 923 INTER-LIGAND FREE ENERGY PREDICTED BY IDOCK:   -5.37 KCAL/MOL
REMARK 924 INTRA-LIGAND FREE ENERGY PREDICTED BY IDOCK:   -0.14 KCAL/MOL
REMARK 927      BINDING AFFINITY PREDICTED BY RF-SCORE:    0.00 PKD
ROOT
HETATM    1  N   UNL     1     -11.445  16.323  63.953  1.00  0.00    -1.539 NA 
HETATM    2  CA  UNL     1     -11.066  15.128  64.765  1.00  0.00    -0.382 C  
HETATM    3  H1  UNL     1     -11.304  16.171  62.955  1.00  0.00     0.000 HD 
HETATM    4  H2  UNL     1     -10.953  17.157  64.273  1.00  0.00     0.000 HD 
HETATM    5  C   UNL     1     -11.917  13.932  64.295  1.00  0.00    -0.444 C  
HETATM    6  OXT UNL     1     -11.929  12.828  64.813  1.00  0.00    -0.357 OA 
HETATM    7  O   UNL     1     -12.664  14.257  63.206  1.00  0.00    -0.665 OA 
ENDROOT
BRANCH   2   8
HETATM    8  C   UNL     1     -11.279  15.356  66.265  1.00  0.00    -0.162 C  
BRANCH   8   9
HETATM    9  C   UNL     1      -9.975  15.462  67.059  1.00  0.00    -0.239 C  
BRANCH   9  10
HETATM   10  C   UNL     1      -8.838  15.962  66.172  1.00  0.00    -0.328 C  
BRANCH  10  11
HETATM   11  N   UNL     1      -8.189  17.118  66.750  1.00  0.00    -0.221 N  
HETATM   12  H   UNL     1      -8.524  17.480  67.642  1.00  0.00     0.000 HD 
BRANCH  11  13
HETATM   13  C   UNL     1      -7.142  17.737  66.135  1.00  0.00    -0.312 C  
HETATM   14  N   UNL     1      -5.945  17.218  66.504  1.00  0.00    -0.201 N  
HETATM   15  O   UNL     1      -7.229  18.666  65.348  1.00  0.00    -0.520 OA 
HETATM   16  H1  UNL     1      -5.161  17.681  66.044  1.00  0.00     0.000 HD 
HETATM   17  H2  UNL     1      -5.840  16.450  67.167  1.00  0.00     0.000 HD 
ENDBRANCH  11  13
ENDBRANCH  10  11
ENDBRANCH   9  10
ENDBRANCH   8   9
ENDBRANCH   2   8
TORSDOF 5
ENDMDL
MODEL       61
REMARK 921   NORMALIZED FREE ENERGY PREDICTED BY IDOCK:   -3.57 KCAL/MOL
REMARK 922        TOTAL FREE ENERGY PREDICTED BY IDOCK:   -5.50 KCAL/MOL
REMARK 923 INTER-LIGAND FREE ENERGY PREDICTED BY IDOCK:   -5.39 KCAL/MOL
REMARK 924 INTRA-LIGAND FREE ENERGY PREDICTED BY IDOCK:   -0.11 KCAL/MOL
REMARK 927      BINDING AFFINITY PREDICTED BY RF-SCORE:    0.00 PKD
ROOT
HETATM    1  N   UNL     1     -12.187  12.870  70.871  1.00  0.00    -0.447 NA 
HETATM    2  CA  UNL     1     -12.216  14.310  71.269  1.00  0.00    -0.350 C  
HETATM    3  H1  UNL     1     -12.074  12.251  71.673  1.00  0.00     0.000 HD 
HETATM    4  H2  UNL     1     -11.469  12.696  70.167  1.00  0.00     0.000 HD 
HETATM    5  C   UNL     1     -13.382  14.517  72.255  1.00  0.00    -0.403 C  
HETATM    6  OXT UNL     1     -13.748  15.593  72.699  1.00  0.00    -0.525 OA 
HETATM    7  O   UNL     1     -13.964  13.333  72.585  1.00  0.00    -0.741 OA 
ENDROOT
BRANCH   2   8
HETATM    8  C   UNL     1     -12.386  15.240  70.063  1.00  0.00    -0.366 C  
BRANCH   8   9
HETATM    9  C   UNL     1     -11.876  14.641  68.751  1.00  0.00    -0.348 C  
BRANCH   9  10
HETATM   10  C   UNL     1     -11.258  15.720  67.865  1.00  0.00    -0.313 C  
BRANCH  10  11
HETATM   11  N   UNL     1     -10.557  15.141  66.740  1.00  0.00    -0.292 N  
HETATM   12  H   UNL     1     -10.145  14.213  66.838  1.00  0.00     0.000 HD 
BRANCH  11  13
HETATM   13  C   UNL     1     -10.432  15.800  65.555  1.00  0.00    -0.403 C  
HETATM   14  N   UNL     1     -10.909  15.081  64.509  1.00  0.00    -0.633 N  
HETATM   15  O   UNL     1      -9.940  16.907  65.406  1.00  0.00    -0.568 OA 
HETATM   16  H1  UNL     1     -10.815  15.574  63.622  1.00  0.00     0.000 HD 
HETATM   17  H2  UNL     1     -11.315  14.149  64.600  1.00  0.00     0.000 HD 
ENDBRANCH  11  13
ENDBRANCH  10  11
ENDBRANCH   9  10
ENDBRANCH   8   9
ENDBRANCH   2   8
TORSDOF 5
ENDMDL
MODEL       62
REMARK 921   NORMALIZED FREE ENERGY PREDICTED BY IDOCK:   -3.57 KCAL/MOL
REMARK 922        TOTAL FREE ENERGY PREDICTED BY IDOCK:   -5.49 KCAL/MOL
REMARK 923 INTER-LIGAND FREE ENERGY PREDICTED BY IDOCK:   -5.29 KCAL/MOL
REMARK 924 INTRA-LIGAND FREE ENERGY PREDICTED BY IDOCK:   -0.20 KCAL/MOL
REMARK 927      BINDING AFFINITY PREDICTED BY RF-SCORE:    0.00 PKD
ROOT
HETATM    1  N   UNL     1     -10.562  11.776  69.005  1.00  0.00    -0.357 NA 
HETATM    2  CA  UNL     1     -10.642  13.194  68.543  1.00  0.00    -0.259 C  
HETATM    3  H1  UNL     1     -10.326  11.706  69.994  1.00  0.00     0.000 HD 
HETATM    4  H2  UNL     1      -9.913  11.238  68.431  1.00  0.00     0.000 HD 
HETATM    5  C   UNL     1     -11.709  13.920  69.386  1.00  0.00    -0.315 C  
HETATM    6  OXT UNL     1     -12.095  15.063  69.205  1.00  0.00    -0.288 OA 
HETATM    7  O   UNL     1     -12.175  13.121  70.384  1.00  0.00    -0.345 OA 
ENDROOT
BRANCH   2   8
HETATM    8  C   UNL     1     -10.998  13.300  67.057  1.00  0.00    -0.291 C  
BRANCH   8   9
HETATM    9  C   UNL     1      -9.878  13.891  66.199  1.00  0.00    -0.316 C  
BRANCH   9  10
HETATM   10  C   UNL     1     -10.417  14.363  64.851  1.00  0.00    -0.423 C  
BRANCH  10  11
HETATM   11  N   UNL     1     -10.606  13.255  63.941  1.00  0.00    -0.503 N  
HETATM   12  H   UNL     1      -9.797  12.700  63.662  1.00  0.00     0.000 HD 
BRANCH  11  13
HETATM   13  C   UNL     1     -11.833  12.931  63.448  1.00  0.00    -0.507 C  
HETATM   14  N   UNL     1     -11.939  11.614  63.144  1.00  0.00    -0.926 N  
HETATM   15  O   UNL     1     -12.756  13.711  63.269  1.00  0.00    -0.765 OA 
HETATM   16  H1  UNL     1     -12.858  11.371  62.775  1.00  0.00     0.000 HD 
HETATM   17  H2  UNL     1     -11.184  10.940  63.272  1.00  0.00     0.000 HD 
ENDBRANCH  11  13
ENDBRANCH  10  11
ENDBRANCH   9  10
ENDBRANCH   8   9
ENDBRANCH   2   8
TORSDOF 5
ENDMDL
MODEL       63
REMARK 921   NORMALIZED FREE ENERGY PREDICTED BY IDOCK:   -3.57 KCAL/MOL
REMARK 922        TOTAL FREE ENERGY PREDICTED BY IDOCK:   -5.49 KCAL/MOL
REMARK 923 INTER-LIGAND FREE ENERGY PREDICTED BY IDOCK:   -5.35 KCAL/MOL
REMARK 924 INTRA-LIGAND FREE ENERGY PREDICTED BY IDOCK:   -0.14 KCAL/MOL
REMARK 927      BINDING AFFINITY PREDICTED BY RF-SCORE:    0.00 PKD
ROOT
HETATM    1  N   UNL     1     -10.868   8.730  72.174  1.00  0.00    -0.360 NA 
HETATM    2  CA  UNL     1     -12.287   9.198  72.144  1.00  0.00    -0.354 C  
HETATM    3  H1  UNL     1     -10.758   7.871  72.712  1.00  0.00     0.000 HD 
HETATM    4  H2  UNL     1     -10.246   9.463  72.518  1.00  0.00     0.000 HD 
HETATM    5  C   UNL     1     -13.152   8.082  71.525  1.00  0.00    -0.296 C  
HETATM    6  OXT UNL     1     -14.340   8.174  71.263  1.00  0.00    -0.361 OA 
HETATM    7  O   UNL     1     -12.421   6.956  71.308  1.00  0.00    -0.367 OA 
ENDROOT
BRANCH   2   8
HETATM    8  C   UNL     1     -12.453  10.489  71.337  1.00  0.00    -0.516 C  
BRANCH   8   9
HETATM    9  C   UNL     1     -13.409  11.495  71.980  1.00  0.00    -0.397 C  
BRANCH   9  10
HETATM   10  C   UNL     1     -13.006  12.926  71.634  1.00  0.00    -0.313 C  
BRANCH  10  11
HETATM   11  N   UNL     1     -13.632  13.879  72.525  1.00  0.00    -0.554 N  
HETATM   12  H   UNL     1     -14.006  13.553  73.416  1.00  0.00     0.000 HD 
BRANCH  11  13
HETATM   13  C   UNL     1     -13.735  15.199  72.207  1.00  0.00    -0.491 C  
HETATM   14  N   UNL     1     -14.167  15.394  70.937  1.00  0.00    -0.857 N  
HETATM   15  O   UNL     1     -13.464  16.132  72.947  1.00  0.00    -0.483 OA 
HETATM   16  H1  UNL     1     -14.244  16.383  70.698  1.00  0.00     0.000 HD 
HETATM   17  H2  UNL     1     -14.390  14.636  70.291  1.00  0.00     0.000 HD 
ENDBRANCH  11  13
ENDBRANCH  10  11
ENDBRANCH   9  10
ENDBRANCH   8   9
ENDBRANCH   2   8
TORSDOF 5
ENDMDL
MODEL       64
REMARK 921   NORMALIZED FREE ENERGY PREDICTED BY IDOCK:   -3.56 KCAL/MOL
REMARK 922        TOTAL FREE ENERGY PREDICTED BY IDOCK:   -5.48 KCAL/MOL
REMARK 923 INTER-LIGAND FREE ENERGY PREDICTED BY IDOCK:   -4.79 KCAL/MOL
REMARK 924 INTRA-LIGAND FREE ENERGY PREDICTED BY IDOCK:   -0.69 KCAL/MOL
REMARK 927      BINDING AFFINITY PREDICTED BY RF-SCORE:    0.00 PKD
ROOT
HETATM    1  N   UNL     1     -10.280  15.739  66.250  1.00  0.00    -0.287 NA 
HETATM    2  CA  UNL     1     -11.183  14.746  65.593  1.00  0.00    -0.343 C  
HETATM    3  H1  UNL     1      -9.585  16.112  65.604  1.00  0.00     0.000 HD 
HETATM    4  H2  UNL     1      -9.839  15.344  67.080  1.00  0.00     0.000 HD 
HETATM    5  C   UNL     1     -11.888  15.439  64.410  1.00  0.00    -0.256 C  
HETATM    6  OXT UNL     1     -12.764  14.942  63.722  1.00  0.00    -0.754 OA 
HETATM    7  O   UNL     1     -11.403  16.694  64.215  1.00  0.00    -1.116 OA 
ENDROOT
BRANCH   2   8
HETATM    8  C   UNL     1     -12.228  14.185  66.562  1.00  0.00    -0.463 C  
BRANCH   8   9
HETATM    9  C   UNL     1     -11.987  14.581  68.020  1.00  0.00    -0.305 C  
BRANCH   9  10
HETATM   10  C   UNL     1     -11.390  13.418  68.807  1.00  0.00    -0.292 C  
BRANCH  10  11
HETATM   11  N   UNL     1      -9.950  13.525  68.896  1.00  0.00    -0.429 N  
HETATM   12  H   UNL     1      -9.541  14.119  69.617  1.00  0.00     0.000 HD 
BRANCH  11  13
HETATM   13  C   UNL     1      -9.126  12.855  68.044  1.00  0.00    -0.211 C  
HETATM   14  N   UNL     1      -8.203  13.666  67.471  1.00  0.00    -0.172 N  
HETATM   15  O   UNL     1      -9.187  11.663  67.785  1.00  0.00    -0.168 OA 
HETATM   16  H1  UNL     1      -7.585  13.165  66.832  1.00  0.00     0.000 HD 
HETATM   17  H2  UNL     1      -8.133  14.667  67.658  1.00  0.00     0.000 HD 
ENDBRANCH  11  13
ENDBRANCH  10  11
ENDBRANCH   9  10
ENDBRANCH   8   9
ENDBRANCH   2   8
TORSDOF 5
ENDMDL
MODEL       65
REMARK 921   NORMALIZED FREE ENERGY PREDICTED BY IDOCK:   -3.56 KCAL/MOL
REMARK 922        TOTAL FREE ENERGY PREDICTED BY IDOCK:   -5.48 KCAL/MOL
REMARK 923 INTER-LIGAND FREE ENERGY PREDICTED BY IDOCK:   -5.32 KCAL/MOL
REMARK 924 INTRA-LIGAND FREE ENERGY PREDICTED BY IDOCK:   -0.16 KCAL/MOL
REMARK 927      BINDING AFFINITY PREDICTED BY RF-SCORE:    0.00 PKD
ROOT
HETATM    1  N   UNL     1     -12.153  10.921  68.241  1.00  0.00    -0.810 NA 
HETATM    2  CA  UNL     1     -10.690  11.042  67.965  1.00  0.00    -0.217 C  
HETATM    3  H1  UNL     1     -12.435   9.954  68.401  1.00  0.00     0.000 HD 
HETATM    4  H2  UNL     1     -12.705  11.349  67.497  1.00  0.00     0.000 HD 
HETATM    5  C   UNL     1      -9.919  10.467  69.169  1.00  0.00    -0.223 C  
HETATM    6  OXT UNL     1      -8.708  10.499  69.313  1.00  0.00    -0.163 OA 
HETATM    7  O   UNL     1     -10.765   9.899  70.069  1.00  0.00    -0.249 OA 
ENDROOT
BRANCH   2   8
HETATM    8  C   UNL     1     -10.265  12.494  67.725  1.00  0.00    -0.217 C  
BRANCH   8   9
HETATM    9  C   UNL     1     -10.116  12.852  66.245  1.00  0.00    -0.281 C  
BRANCH   9  10
HETATM   10  C   UNL     1     -11.369  13.556  65.728  1.00  0.00    -0.305 C  
BRANCH  10  11
HETATM   11  N   UNL     1     -11.112  14.953  65.452  1.00  0.00    -0.348 N  
HETATM   12  H   UNL     1     -10.508  15.480  66.083  1.00  0.00     0.000 HD 
BRANCH  11  13
HETATM   13  C   UNL     1     -11.655  15.584  64.374  1.00  0.00    -0.258 C  
HETATM   14  N   UNL     1     -12.489  14.781  63.669  1.00  0.00    -1.051 N  
HETATM   15  O   UNL     1     -11.429  16.736  64.036  1.00  0.00    -1.198 OA 
HETATM   16  H1  UNL     1     -12.895  15.253  62.861  1.00  0.00     0.000 HD 
HETATM   17  H2  UNL     1     -12.689  13.812  63.919  1.00  0.00     0.000 HD 
ENDBRANCH  11  13
ENDBRANCH  10  11
ENDBRANCH   9  10
ENDBRANCH   8   9
ENDBRANCH   2   8
TORSDOF 5
ENDMDL
MODEL       66
REMARK 921   NORMALIZED FREE ENERGY PREDICTED BY IDOCK:   -3.55 KCAL/MOL
REMARK 922        TOTAL FREE ENERGY PREDICTED BY IDOCK:   -5.47 KCAL/MOL
REMARK 923 INTER-LIGAND FREE ENERGY PREDICTED BY IDOCK:   -5.20 KCAL/MOL
REMARK 924 INTRA-LIGAND FREE ENERGY PREDICTED BY IDOCK:   -0.27 KCAL/MOL
REMARK 927      BINDING AFFINITY PREDICTED BY RF-SCORE:    0.00 PKD
ROOT
HETATM    1  N   UNL     1      -9.913  13.267  64.116  1.00  0.00    -0.760 NA 
HETATM    2  CA  UNL     1     -10.824  13.500  65.278  1.00  0.00    -0.310 C  
HETATM    3  H1  UNL     1     -10.212  12.477  63.546  1.00  0.00     0.000 HD 
HETATM    4  H2  UNL     1      -8.946  13.157  64.423  1.00  0.00     0.000 HD 
HETATM    5  C   UNL     1     -12.244  13.756  64.737  1.00  0.00    -0.406 C  
HETATM    6  OXT UNL     1     -13.208  14.078  65.411  1.00  0.00    -0.761 OA 
HETATM    7  O   UNL     1     -12.299  13.570  63.391  1.00  0.00    -0.715 OA 
ENDROOT
BRANCH   2   8
HETATM    8  C   UNL     1     -10.375  14.688  66.135  1.00  0.00    -0.309 C  
BRANCH   8   9
HETATM    9  C   UNL     1     -10.214  15.988  65.345  1.00  0.00    -0.333 C  
BRANCH   9  10
HETATM   10  C   UNL     1     -10.241  17.197  66.277  1.00  0.00    -0.334 C  
BRANCH  10  11
HETATM   11  N   UNL     1      -9.696  16.872  67.577  1.00  0.00    -0.246 N  
HETATM   12  H   UNL     1      -8.865  16.284  67.633  1.00  0.00     0.000 HD 
BRANCH  11  13
HETATM   13  C   UNL     1     -10.262  17.331  68.728  1.00  0.00    -0.353 C  
HETATM   14  N   UNL     1     -11.022  16.391  69.342  1.00  0.00    -0.327 N  
HETATM   15  O   UNL     1     -10.136  18.457  69.183  1.00  0.00    -0.346 OA 
HETATM   16  H1  UNL     1     -11.446  16.734  70.204  1.00  0.00     0.000 HD 
HETATM   17  H2  UNL     1     -11.155  15.446  68.982  1.00  0.00     0.000 HD 
ENDBRANCH  11  13
ENDBRANCH  10  11
ENDBRANCH   9  10
ENDBRANCH   8   9
ENDBRANCH   2   8
TORSDOF 5
ENDMDL
MODEL       67
REMARK 921   NORMALIZED FREE ENERGY PREDICTED BY IDOCK:   -3.55 KCAL/MOL
REMARK 922        TOTAL FREE ENERGY PREDICTED BY IDOCK:   -5.46 KCAL/MOL
REMARK 923 INTER-LIGAND FREE ENERGY PREDICTED BY IDOCK:   -4.99 KCAL/MOL
REMARK 924 INTRA-LIGAND FREE ENERGY PREDICTED BY IDOCK:   -0.47 KCAL/MOL
REMARK 927      BINDING AFFINITY PREDICTED BY RF-SCORE:    0.00 PKD
ROOT
HETATM    1  N   UNL     1     -11.554  10.154  68.195  1.00  0.00    -0.672 NA 
HETATM    2  CA  UNL     1     -11.411  11.271  67.213  1.00  0.00    -0.255 C  
HETATM    3  H1  UNL     1     -11.911   9.303  67.761  1.00  0.00     0.000 HD 
HETATM    4  H2  UNL     1     -12.131  10.434  68.989  1.00  0.00     0.000 HD 
HETATM    5  C   UNL     1     -10.451  10.814  66.097  1.00  0.00    -0.214 C  
HETATM    6  OXT UNL     1     -10.040  11.517  65.189  1.00  0.00    -0.244 OA 
HETATM    7  O   UNL     1     -10.115   9.504  66.241  1.00  0.00    -0.269 OA 
ENDROOT
BRANCH   2   8
HETATM    8  C   UNL     1     -10.875  12.549  67.865  1.00  0.00    -0.251 C  
BRANCH   8   9
HETATM    9  C   UNL     1     -11.883  13.700  67.875  1.00  0.00    -0.402 C  
BRANCH   9  10
HETATM   10  C   UNL     1     -12.342  14.033  66.457  1.00  0.00    -0.404 C  
BRANCH  10  11
HETATM   11  N   UNL     1     -11.222  14.375  65.608  1.00  0.00    -0.316 N  
HETATM   12  H   UNL     1     -10.457  13.709  65.504  1.00  0.00     0.000 HD 
BRANCH  11  13
HETATM   13  C   UNL     1     -11.162  15.561  64.942  1.00  0.00    -0.389 C  
HETATM   14  N   UNL     1     -12.000  15.602  63.877  1.00  0.00    -0.987 N  
HETATM   15  O   UNL     1     -10.437  16.501  65.229  1.00  0.00    -0.590 OA 
HETATM   16  H1  UNL     1     -11.955  16.490  63.378  1.00  0.00     0.000 HD 
HETATM   17  H2  UNL     1     -12.609  14.829  63.606  1.00  0.00     0.000 HD 
ENDBRANCH  11  13
ENDBRANCH  10  11
ENDBRANCH   9  10
ENDBRANCH   8   9
ENDBRANCH   2   8
TORSDOF 5
ENDMDL
MODEL       68
REMARK 921   NORMALIZED FREE ENERGY PREDICTED BY IDOCK:   -3.53 KCAL/MOL
REMARK 922        TOTAL FREE ENERGY PREDICTED BY IDOCK:   -5.44 KCAL/MOL
REMARK 923 INTER-LIGAND FREE ENERGY PREDICTED BY IDOCK:   -4.94 KCAL/MOL
REMARK 924 INTRA-LIGAND FREE ENERGY PREDICTED BY IDOCK:   -0.51 KCAL/MOL
REMARK 927      BINDING AFFINITY PREDICTED BY RF-SCORE:    0.00 PKD
ROOT
HETATM    1  N   UNL     1     -11.931  16.268  71.383  1.00  0.00    -0.644 NA 
HETATM    2  CA  UNL     1     -12.841  15.128  71.062  1.00  0.00    -0.412 C  
HETATM    3  H1  UNL     1     -12.437  17.073  71.750  1.00  0.00     0.000 HD 
HETATM    4  H2  UNL     1     -11.364  16.525  70.575  1.00  0.00     0.000 HD 
HETATM    5  C   UNL     1     -13.591  14.729  72.348  1.00  0.00    -0.446 C  
HETATM    6  OXT UNL     1     -14.339  13.772  72.461  1.00  0.00    -0.696 OA 
HETATM    7  O   UNL     1     -13.322  15.594  73.363  1.00  0.00    -0.518 OA 
ENDROOT
BRANCH   2   8
HETATM    8  C   UNL     1     -12.080  13.918  70.511  1.00  0.00    -0.426 C  
BRANCH   8   9
HETATM    9  C   UNL     1     -12.216  13.747  68.997  1.00  0.00    -0.259 C  
BRANCH   9  10
HETATM   10  C   UNL     1     -11.041  14.399  68.270  1.00  0.00    -0.259 C  
BRANCH  10  11
HETATM   11  N   UNL     1     -11.258  15.817  68.084  1.00  0.00    -0.343 N  
HETATM   12  H   UNL     1     -12.093  16.130  67.590  1.00  0.00     0.000 HD 
BRANCH  11  13
HETATM   13  C   UNL     1     -10.378  16.745  68.551  1.00  0.00    -0.316 C  
HETATM   14  N   UNL     1      -9.368  16.189  69.266  1.00  0.00    -0.249 N  
HETATM   15  O   UNL     1     -10.460  17.952  68.381  1.00  0.00    -0.367 OA 
HETATM   16  H1  UNL     1      -8.709  16.884  69.616  1.00  0.00     0.000 HD 
HETATM   17  H2  UNL     1      -9.279  15.187  69.435  1.00  0.00     0.000 HD 
ENDBRANCH  11  13
ENDBRANCH  10  11
ENDBRANCH   9  10
ENDBRANCH   8   9
ENDBRANCH   2   8
TORSDOF 5
ENDMDL
MODEL       69
REMARK 921   NORMALIZED FREE ENERGY PREDICTED BY IDOCK:   -3.52 KCAL/MOL
REMARK 922        TOTAL FREE ENERGY PREDICTED BY IDOCK:   -5.42 KCAL/MOL
REMARK 923 INTER-LIGAND FREE ENERGY PREDICTED BY IDOCK:   -4.45 KCAL/MOL
REMARK 924 INTRA-LIGAND FREE ENERGY PREDICTED BY IDOCK:   -0.97 KCAL/MOL
REMARK 927      BINDING AFFINITY PREDICTED BY RF-SCORE:    0.00 PKD
ROOT
HETATM    1  N   UNL     1     -11.724   7.623  70.483  1.00  0.00    -0.458 NA 
HETATM    2  CA  UNL     1     -10.322   8.025  70.809  1.00  0.00    -0.199 C  
HETATM    3  H1  UNL     1     -11.960   6.706  70.862  1.00  0.00     0.000 HD 
HETATM    4  H2  UNL     1     -11.894   7.661  69.478  1.00  0.00     0.000 HD 
HETATM    5  C   UNL     1     -10.166   8.040  72.342  1.00  0.00    -0.280 C  
HETATM    6  OXT UNL     1      -9.176   8.419  72.946  1.00  0.00    -0.261 OA 
HETATM    7  O   UNL     1     -11.282   7.565  72.955  1.00  0.00    -0.361 OA 
ENDROOT
BRANCH   2   8
HETATM    8  C   UNL     1      -9.968   9.401  70.238  1.00  0.00    -0.284 C  
BRANCH   8   9
HETATM    9  C   UNL     1     -10.899   9.857  69.114  1.00  0.00    -0.248 C  
BRANCH   9  10
HETATM   10  C   UNL     1     -11.819  10.978  69.590  1.00  0.00    -0.342 C  
BRANCH  10  11
HETATM   11  N   UNL     1     -12.973  10.452  70.287  1.00  0.00    -0.513 N  
HETATM   12  H   UNL     1     -13.605   9.822  69.793  1.00  0.00     0.000 HD 
BRANCH  11  13
HETATM   13  C   UNL     1     -13.239  10.775  71.583  1.00  0.00    -0.383 C  
HETATM   14  N   UNL     1     -13.498   9.685  72.346  1.00  0.00    -0.625 N  
HETATM   15  O   UNL     1     -13.265  11.906  72.043  1.00  0.00    -0.495 OA 
HETATM   16  H1  UNL     1     -13.698   9.926  73.316  1.00  0.00     0.000 HD 
HETATM   17  H2  UNL     1     -13.495   8.729  71.988  1.00  0.00     0.000 HD 
ENDBRANCH  11  13
ENDBRANCH  10  11
ENDBRANCH   9  10
ENDBRANCH   8   9
ENDBRANCH   2   8
TORSDOF 5
ENDMDL
MODEL       70
REMARK 921   NORMALIZED FREE ENERGY PREDICTED BY IDOCK:   -3.52 KCAL/MOL
REMARK 922        TOTAL FREE ENERGY PREDICTED BY IDOCK:   -5.42 KCAL/MOL
REMARK 923 INTER-LIGAND FREE ENERGY PREDICTED BY IDOCK:   -4.71 KCAL/MOL
REMARK 924 INTRA-LIGAND FREE ENERGY PREDICTED BY IDOCK:   -0.72 KCAL/MOL
REMARK 927      BINDING AFFINITY PREDICTED BY RF-SCORE:    0.00 PKD
ROOT
HETATM    1  N   UNL     1     -10.103  15.756  67.075  1.00  0.00    -0.255 NA 
HETATM    2  CA  UNL     1     -10.722  15.243  65.816  1.00  0.00    -0.348 C  
HETATM    3  H1  UNL     1      -9.262  16.303  66.895  1.00  0.00     0.000 HD 
HETATM    4  H2  UNL     1      -9.916  14.996  67.730  1.00  0.00     0.000 HD 
HETATM    5  C   UNL     1     -11.066  16.447  64.919  1.00  0.00    -0.239 C  
HETATM    6  OXT UNL     1     -11.672  16.389  63.861  1.00  0.00    -1.085 OA 
HETATM    7  O   UNL     1     -10.600  17.608  65.452  1.00  0.00    -0.657 OA 
ENDROOT
BRANCH   2   8
HETATM    8  C   UNL     1     -11.986  14.420  66.086  1.00  0.00    -0.381 C  
BRANCH   8   9
HETATM    9  C   UNL     1     -11.705  12.946  66.382  1.00  0.00    -0.454 C  
BRANCH   9  10
HETATM   10  C   UNL     1     -11.834  12.658  67.876  1.00  0.00    -0.332 C  
BRANCH  10  11
HETATM   11  N   UNL     1     -10.681  13.136  68.606  1.00  0.00    -0.252 N  
HETATM   12  H   UNL     1     -10.804  13.878  69.295  1.00  0.00     0.000 HD 
BRANCH  11  13
HETATM   13  C   UNL     1      -9.436  12.623  68.399  1.00  0.00    -0.163 C  
HETATM   14  N   UNL     1      -9.303  11.369  68.896  1.00  0.00    -0.380 N  
HETATM   15  O   UNL     1      -8.512  13.201  67.848  1.00  0.00    -0.157 OA 
HETATM   16  H1  UNL     1      -8.371  10.985  68.742  1.00  0.00     0.000 HD 
HETATM   17  H2  UNL     1     -10.052  10.865  69.372  1.00  0.00     0.000 HD 
ENDBRANCH  11  13
ENDBRANCH  10  11
ENDBRANCH   9  10
ENDBRANCH   8   9
ENDBRANCH   2   8
TORSDOF 5
ENDMDL
MODEL       71
REMARK 921   NORMALIZED FREE ENERGY PREDICTED BY IDOCK:   -3.51 KCAL/MOL
REMARK 922        TOTAL FREE ENERGY PREDICTED BY IDOCK:   -5.41 KCAL/MOL
REMARK 923 INTER-LIGAND FREE ENERGY PREDICTED BY IDOCK:   -5.29 KCAL/MOL
REMARK 924 INTRA-LIGAND FREE ENERGY PREDICTED BY IDOCK:   -0.12 KCAL/MOL
REMARK 927      BINDING AFFINITY PREDICTED BY RF-SCORE:    0.00 PKD
ROOT
HETATM    1  N   UNL     1     -11.244  14.119  70.675  1.00  0.00    -0.474 NA 
HETATM    2  CA  UNL     1     -12.720  14.095  70.907  1.00  0.00    -0.361 C  
HETATM    3  H1  UNL     1     -10.942  14.973  70.206  1.00  0.00     0.000 HD 
HETATM    4  H2  UNL     1     -10.938  13.290  70.165  1.00  0.00     0.000 HD 
HETATM    5  C   UNL     1     -13.096  15.321  71.763  1.00  0.00    -0.403 C  
HETATM    6  OXT UNL     1     -14.205  15.551  72.217  1.00  0.00    -0.549 OA 
HETATM    7  O   UNL     1     -12.025  16.137  71.951  1.00  0.00    -0.475 OA 
ENDROOT
BRANCH   2   8
HETATM    8  C   UNL     1     -13.174  12.813  71.612  1.00  0.00    -0.410 C  
BRANCH   8   9
HETATM    9  C   UNL     1     -12.655  11.535  70.951  1.00  0.00    -0.438 C  
BRANCH   9  10
HETATM   10  C   UNL     1     -12.957  10.314  71.817  1.00  0.00    -0.469 C  
BRANCH  10  11
HETATM   11  N   UNL     1     -12.852   9.089  71.055  1.00  0.00    -0.510 N  
HETATM   12  H   UNL     1     -13.252   9.052  70.117  1.00  0.00     0.000 HD 
BRANCH  11  13
HETATM   13  C   UNL     1     -12.234   7.983  71.555  1.00  0.00    -0.299 C  
HETATM   14  N   UNL     1     -12.246   7.951  72.910  1.00  0.00    -0.596 N  
HETATM   15  O   UNL     1     -11.704   7.104  70.893  1.00  0.00    -0.301 OA 
HETATM   16  H1  UNL     1     -11.783   7.123  73.285  1.00  0.00     0.000 HD 
HETATM   17  H2  UNL     1     -12.670   8.674  73.491  1.00  0.00     0.000 HD 
ENDBRANCH  11  13
ENDBRANCH  10  11
ENDBRANCH   9  10
ENDBRANCH   8   9
ENDBRANCH   2   8
TORSDOF 5
ENDMDL
MODEL       72
REMARK 921   NORMALIZED FREE ENERGY PREDICTED BY IDOCK:   -3.51 KCAL/MOL
REMARK 922        TOTAL FREE ENERGY PREDICTED BY IDOCK:   -5.41 KCAL/MOL
REMARK 923 INTER-LIGAND FREE ENERGY PREDICTED BY IDOCK:   -4.74 KCAL/MOL
REMARK 924 INTRA-LIGAND FREE ENERGY PREDICTED BY IDOCK:   -0.67 KCAL/MOL
REMARK 927      BINDING AFFINITY PREDICTED BY RF-SCORE:    0.00 PKD
ROOT
HETATM    1  N   UNL     1      -9.801  16.500  67.275  1.00  0.00    -0.249 NA 
HETATM    2  CA  UNL     1     -10.753  17.135  66.315  1.00  0.00    -0.079 C  
HETATM    3  H1  UNL     1     -10.096  15.562  67.546  1.00  0.00     0.000 HD 
HETATM    4  H2  UNL     1      -9.652  17.091  68.093  1.00  0.00     0.000 HD 
HETATM    5  C   UNL     1     -10.853  16.239  65.066  1.00  0.00    -0.320 C  
HETATM    6  OXT UNL     1     -11.469  16.512  64.048  1.00  0.00    -1.137 OA 
HETATM    7  O   UNL     1     -10.166  15.077  65.237  1.00  0.00    -0.361 OA 
ENDROOT
BRANCH   2   8
HETATM    8  C   UNL     1     -10.310  18.544  65.907  1.00  0.00    -0.344 C  
BRANCH   8   9
HETATM    9  C   UNL     1     -10.633  19.614  66.951  1.00  0.00    -0.603 C  
BRANCH   9  10
HETATM   10  C   UNL     1      -9.353  20.234  67.508  1.00  0.00    -0.383 C  
BRANCH  10  11
HETATM   11  N   UNL     1      -8.864  19.496  68.652  1.00  0.00    -0.364 N  
HETATM   12  H   UNL     1      -9.477  19.368  69.457  1.00  0.00     0.000 HD 
BRANCH  11  13
HETATM   13  C   UNL     1      -7.610  18.967  68.684  1.00  0.00    -0.337 C  
HETATM   14  N   UNL     1      -6.794  19.621  69.547  1.00  0.00    -0.343 N  
HETATM   15  O   UNL     1      -7.219  18.023  68.016  1.00  0.00    -0.218 OA 
HETATM   16  H1  UNL     1      -5.854  19.225  69.571  1.00  0.00     0.000 HD 
HETATM   17  H2  UNL     1      -7.087  20.419  70.110  1.00  0.00     0.000 HD 
ENDBRANCH  11  13
ENDBRANCH  10  11
ENDBRANCH   9  10
ENDBRANCH   8   9
ENDBRANCH   2   8
TORSDOF 5
ENDMDL
MODEL       73
REMARK 921   NORMALIZED FREE ENERGY PREDICTED BY IDOCK:   -3.50 KCAL/MOL
REMARK 922        TOTAL FREE ENERGY PREDICTED BY IDOCK:   -5.40 KCAL/MOL
REMARK 923 INTER-LIGAND FREE ENERGY PREDICTED BY IDOCK:   -4.98 KCAL/MOL
REMARK 924 INTRA-LIGAND FREE ENERGY PREDICTED BY IDOCK:   -0.42 KCAL/MOL
REMARK 927      BINDING AFFINITY PREDICTED BY RF-SCORE:    0.00 PKD
ROOT
HETATM    1  N   UNL     1     -10.770  11.479  65.028  1.00  0.00    -0.293 NA 
HETATM    2  CA  UNL     1     -11.656  12.150  66.026  1.00  0.00    -0.358 C  
HETATM    3  H1  UNL     1     -11.302  10.999  64.302  1.00  0.00     0.000 HD 
HETATM    4  H2  UNL     1     -10.114  10.845  65.485  1.00  0.00     0.000 HD 
HETATM    5  C   UNL     1     -12.549  13.161  65.280  1.00  0.00    -0.472 C  
HETATM    6  OXT UNL     1     -13.318  13.946  65.808  1.00  0.00    -0.534 OA 
HETATM    7  O   UNL     1     -12.380  13.067  63.934  1.00  0.00    -0.548 OA 
ENDROOT
BRANCH   2   8
HETATM    8  C   UNL     1     -10.858  12.870  67.117  1.00  0.00    -0.278 C  
BRANCH   8   9
HETATM    9  C   UNL     1      -9.583  13.540  66.601  1.00  0.00    -0.282 C  
BRANCH   9  10
HETATM   10  C   UNL     1      -9.783  15.047  66.453  1.00  0.00    -0.283 C  
BRANCH  10  11
HETATM   11  N   UNL     1     -10.178  15.396  65.106  1.00  0.00    -0.354 N  
HETATM   12  H   UNL     1      -9.864  14.813  64.331  1.00  0.00     0.000 HD 
BRANCH  11  13
HETATM   13  C   UNL     1     -10.956  16.483  64.845  1.00  0.00    -0.209 C  
HETATM   14  N   UNL     1     -10.757  17.488  65.732  1.00  0.00    -0.223 N  
HETATM   15  O   UNL     1     -11.765  16.576  63.934  1.00  0.00    -1.148 OA 
HETATM   16  H1  UNL     1     -11.341  18.302  65.537  1.00  0.00     0.000 HD 
HETATM   17  H2  UNL     1     -10.098  17.437  66.509  1.00  0.00     0.000 HD 
ENDBRANCH  11  13
ENDBRANCH  10  11
ENDBRANCH   9  10
ENDBRANCH   8   9
ENDBRANCH   2   8
TORSDOF 5
ENDMDL
MODEL       74
REMARK 921   NORMALIZED FREE ENERGY PREDICTED BY IDOCK:   -3.48 KCAL/MOL
REMARK 922        TOTAL FREE ENERGY PREDICTED BY IDOCK:   -5.37 KCAL/MOL
REMARK 923 INTER-LIGAND FREE ENERGY PREDICTED BY IDOCK:   -4.95 KCAL/MOL
REMARK 924 INTRA-LIGAND FREE ENERGY PREDICTED BY IDOCK:   -0.43 KCAL/MOL
REMARK 927      BINDING AFFINITY PREDICTED BY RF-SCORE:    0.00 PKD
ROOT
HETATM    1  N   UNL     1      -7.893  13.242  67.025  1.00  0.00    -0.399 NA 
HETATM    2  CA  UNL     1      -9.289  12.711  67.070  1.00  0.00    -0.220 C  
HETATM    3  H1  UNL     1      -7.213  12.567  67.371  1.00  0.00     0.000 HD 
HETATM    4  H2  UNL     1      -7.820  14.129  67.523  1.00  0.00     0.000 HD 
HETATM    5  C   UNL     1      -9.348  11.428  66.219  1.00  0.00    -0.212 C  
HETATM    6  OXT UNL     1     -10.360  10.796  65.963  1.00  0.00    -0.248 OA 
HETATM    7  O   UNL     1      -8.111  11.070  65.782  1.00  0.00    -0.135 OA 
ENDROOT
BRANCH   2   8
HETATM    8  C   UNL     1     -10.312  13.725  66.549  1.00  0.00    -0.286 C  
BRANCH   8   9
HETATM    9  C   UNL     1     -11.742  13.448  67.017  1.00  0.00    -0.426 C  
BRANCH   9  10
HETATM   10  C   UNL     1     -12.736  13.655  65.876  1.00  0.00    -0.372 C  
BRANCH  10  11
HETATM   11  N   UNL     1     -12.717  12.541  64.953  1.00  0.00    -0.570 N  
HETATM   12  H   UNL     1     -12.902  11.602  65.306  1.00  0.00     0.000 HD 
BRANCH  11  13
HETATM   13  C   UNL     1     -12.461  12.711  63.627  1.00  0.00    -0.427 C  
HETATM   14  N   UNL     1     -12.238  11.537  62.987  1.00  0.00    -0.941 N  
HETATM   15  O   UNL     1     -12.413  13.783  63.044  1.00  0.00    -0.712 OA 
HETATM   16  H1  UNL     1     -12.046  11.664  61.994  1.00  0.00     0.000 HD 
HETATM   17  H2  UNL     1     -12.260  10.627  63.448  1.00  0.00     0.000 HD 
ENDBRANCH  11  13
ENDBRANCH  10  11
ENDBRANCH   9  10
ENDBRANCH   8   9
ENDBRANCH   2   8
TORSDOF 5
ENDMDL
MODEL       75
REMARK 921   NORMALIZED FREE ENERGY PREDICTED BY IDOCK:   -3.48 KCAL/MOL
REMARK 922        TOTAL FREE ENERGY PREDICTED BY IDOCK:   -5.37 KCAL/MOL
REMARK 923 INTER-LIGAND FREE ENERGY PREDICTED BY IDOCK:   -4.76 KCAL/MOL
REMARK 924 INTRA-LIGAND FREE ENERGY PREDICTED BY IDOCK:   -0.61 KCAL/MOL
REMARK 927      BINDING AFFINITY PREDICTED BY RF-SCORE:    0.00 PKD
ROOT
HETATM    1  N   UNL     1     -11.672  12.378  70.172  1.00  0.00    -0.534 NA 
HETATM    2  CA  UNL     1     -11.893  13.496  69.207  1.00  0.00    -0.341 C  
HETATM    3  H1  UNL     1     -12.393  11.660  70.102  1.00  0.00     0.000 HD 
HETATM    4  H2  UNL     1     -11.590  12.726  71.128  1.00  0.00     0.000 HD 
HETATM    5  C   UNL     1     -11.908  12.911  67.782  1.00  0.00    -0.339 C  
HETATM    6  OXT UNL     1     -11.969  13.562  66.752  1.00  0.00    -0.382 OA 
HETATM    7  O   UNL     1     -11.851  11.552  67.806  1.00  0.00    -0.584 OA 
ENDROOT
BRANCH   2   8
HETATM    8  C   UNL     1     -10.810  14.574  69.313  1.00  0.00    -0.270 C  
BRANCH   8   9
HETATM    9  C   UNL     1     -11.364  15.999  69.336  1.00  0.00    -0.355 C  
BRANCH   9  10
HETATM   10  C   UNL     1     -10.626  16.887  68.337  1.00  0.00    -0.365 C  
BRANCH  10  11
HETATM   11  N   UNL     1     -10.529  16.253  67.041  1.00  0.00    -0.310 N  
HETATM   12  H   UNL     1     -11.359  15.816  66.640  1.00  0.00     0.000 HD 
BRANCH  11  13
HETATM   13  C   UNL     1      -9.362  16.224  66.340  1.00  0.00    -0.292 C  
HETATM   14  N   UNL     1      -8.738  15.023  66.422  1.00  0.00    -0.460 N  
HETATM   15  O   UNL     1      -8.888  17.156  65.709  1.00  0.00    -0.526 OA 
HETATM   16  H1  UNL     1      -7.863  15.001  65.898  1.00  0.00     0.000 HD 
HETATM   17  H2  UNL     1      -9.102  14.230  66.950  1.00  0.00     0.000 HD 
ENDBRANCH  11  13
ENDBRANCH  10  11
ENDBRANCH   9  10
ENDBRANCH   8   9
ENDBRANCH   2   8
TORSDOF 5
ENDMDL
MODEL       76
REMARK 921   NORMALIZED FREE ENERGY PREDICTED BY IDOCK:   -3.47 KCAL/MOL
REMARK 922        TOTAL FREE ENERGY PREDICTED BY IDOCK:   -5.36 KCAL/MOL
REMARK 923 INTER-LIGAND FREE ENERGY PREDICTED BY IDOCK:   -5.09 KCAL/MOL
REMARK 924 INTRA-LIGAND FREE ENERGY PREDICTED BY IDOCK:   -0.27 KCAL/MOL
REMARK 927      BINDING AFFINITY PREDICTED BY RF-SCORE:    0.00 PKD
ROOT
HETATM    1  N   UNL     1     -11.937  11.520  67.739  1.00  0.00    -0.637 NA 
HETATM    2  CA  UNL     1     -11.777  13.002  67.641  1.00  0.00    -0.366 C  
HETATM    3  H1  UNL     1     -12.868  11.214  67.457  1.00  0.00     0.000 HD 
HETATM    4  H2  UNL     1     -11.707  11.186  68.675  1.00  0.00     0.000 HD 
HETATM    5  C   UNL     1     -12.043  13.423  66.182  1.00  0.00    -0.429 C  
HETATM    6  OXT UNL     1     -11.901  14.549  65.736  1.00  0.00    -0.362 OA 
HETATM    7  O   UNL     1     -12.472  12.370  65.436  1.00  0.00    -0.637 OA 
ENDROOT
BRANCH   2   8
HETATM    8  C   UNL     1     -10.378  13.462  68.065  1.00  0.00    -0.242 C  
BRANCH   8   9
HETATM    9  C   UNL     1     -10.389  14.667  69.007  1.00  0.00    -0.237 C  
BRANCH   9  10
HETATM   10  C   UNL     1     -11.710  14.748  69.769  1.00  0.00    -0.310 C  
BRANCH  10  11
HETATM   11  N   UNL     1     -11.546  14.355  71.151  1.00  0.00    -0.507 N  
HETATM   12  H   UNL     1     -10.958  13.551  71.371  1.00  0.00     0.000 HD 
BRANCH  11  13
HETATM   13  C   UNL     1     -12.154  15.028  72.167  1.00  0.00    -0.377 C  
HETATM   14  N   UNL     1     -13.138  14.302  72.754  1.00  0.00    -0.493 N  
HETATM   15  O   UNL     1     -11.885  16.163  72.529  1.00  0.00    -0.494 OA 
HETATM   16  H1  UNL     1     -13.594  14.806  73.514  1.00  0.00     0.000 HD 
HETATM   17  H2  UNL     1     -13.393  13.357  72.466  1.00  0.00     0.000 HD 
ENDBRANCH  11  13
ENDBRANCH  10  11
ENDBRANCH   9  10
ENDBRANCH   8   9
ENDBRANCH   2   8
TORSDOF 5
ENDMDL
MODEL       77
REMARK 921   NORMALIZED FREE ENERGY PREDICTED BY IDOCK:   -3.46 KCAL/MOL
REMARK 922        TOTAL FREE ENERGY PREDICTED BY IDOCK:   -5.35 KCAL/MOL
REMARK 923 INTER-LIGAND FREE ENERGY PREDICTED BY IDOCK:   -5.22 KCAL/MOL
REMARK 924 INTRA-LIGAND FREE ENERGY PREDICTED BY IDOCK:   -0.13 KCAL/MOL
REMARK 927      BINDING AFFINITY PREDICTED BY RF-SCORE:    0.00 PKD
ROOT
HETATM    1  N   UNL     1     -10.096  14.166  65.420  1.00  0.00    -0.449 NA 
HETATM    2  CA  UNL     1     -10.478  13.496  66.699  1.00  0.00    -0.274 C  
HETATM    3  H1  UNL     1      -9.567  13.548  64.805  1.00  0.00     0.000 HD 
HETATM    4  H2  UNL     1      -9.590  15.034  65.595  1.00  0.00     0.000 HD 
HETATM    5  C   UNL     1     -11.320  12.250  66.362  1.00  0.00    -0.354 C  
HETATM    6  OXT UNL     1     -11.874  11.532  67.178  1.00  0.00    -0.595 OA 
HETATM    7  O   UNL     1     -11.368  12.036  65.020  1.00  0.00    -0.322 OA 
ENDROOT
BRANCH   2   8
HETATM    8  C   UNL     1     -11.273  14.424  67.623  1.00  0.00    -0.328 C  
BRANCH   8   9
HETATM    9  C   UNL     1     -10.996  14.192  69.110  1.00  0.00    -0.280 C  
BRANCH   9  10
HETATM   10  C   UNL     1     -12.017  14.928  69.974  1.00  0.00    -0.329 C  
BRANCH  10  11
HETATM   11  N   UNL     1     -12.442  14.117  71.093  1.00  0.00    -0.351 N  
HETATM   12  H   UNL     1     -11.787  13.448  71.498  1.00  0.00     0.000 HD 
BRANCH  11  13
HETATM   13  C   UNL     1     -13.693  14.220  71.622  1.00  0.00    -0.386 C  
HETATM   14  N   UNL     1     -14.407  15.231  71.069  1.00  0.00    -0.819 N  
HETATM   15  O   UNL     1     -14.153  13.513  72.505  1.00  0.00    -0.731 OA 
HETATM   16  H1  UNL     1     -15.344  15.310  71.464  1.00  0.00     0.000 HD 
HETATM   17  H2  UNL     1     -14.047  15.846  70.338  1.00  0.00     0.000 HD 
ENDBRANCH  11  13
ENDBRANCH  10  11
ENDBRANCH   9  10
ENDBRANCH   8   9
ENDBRANCH   2   8
TORSDOF 5
ENDMDL
MODEL       78
REMARK 921   NORMALIZED FREE ENERGY PREDICTED BY IDOCK:   -3.45 KCAL/MOL
REMARK 922        TOTAL FREE ENERGY PREDICTED BY IDOCK:   -5.33 KCAL/MOL
REMARK 923 INTER-LIGAND FREE ENERGY PREDICTED BY IDOCK:   -4.56 KCAL/MOL
REMARK 924 INTRA-LIGAND FREE ENERGY PREDICTED BY IDOCK:   -0.78 KCAL/MOL
REMARK 927      BINDING AFFINITY PREDICTED BY RF-SCORE:    0.00 PKD
ROOT
HETATM    1  N   UNL     1     -12.335   7.085  72.114  1.00  0.00    -0.495 NA 
HETATM    2  CA  UNL     1     -12.077   8.535  72.365  1.00  0.00    -0.367 C  
HETATM    3  H1  UNL     1     -13.127   6.736  72.653  1.00  0.00     0.000 HD 
HETATM    4  H2  UNL     1     -11.498   6.527  72.284  1.00  0.00     0.000 HD 
HETATM    5  C   UNL     1     -13.347   9.324  71.994  1.00  0.00    -0.450 C  
HETATM    6  OXT UNL     1     -13.445  10.540  71.986  1.00  0.00    -0.379 OA 
HETATM    7  O   UNL     1     -14.372   8.488  71.677  1.00  0.00    -0.427 OA 
ENDROOT
BRANCH   2   8
HETATM    8  C   UNL     1     -10.887   9.059  71.555  1.00  0.00    -0.416 C  
BRANCH   8   9
HETATM    9  C   UNL     1     -10.865   8.563  70.108  1.00  0.00    -0.238 C  
BRANCH   9  10
HETATM   10  C   UNL     1     -10.716   9.730  69.135  1.00  0.00    -0.221 C  
BRANCH  10  11
HETATM   11  N   UNL     1     -11.789  10.688  69.294  1.00  0.00    -0.469 N  
HETATM   12  H   UNL     1     -12.747  10.350  69.374  1.00  0.00     0.000 HD 
BRANCH  11  13
HETATM   13  C   UNL     1     -11.554  12.029  69.339  1.00  0.00    -0.330 C  
HETATM   14  N   UNL     1     -11.874  12.571  70.540  1.00  0.00    -0.529 N  
HETATM   15  O   UNL     1     -11.119  12.706  68.420  1.00  0.00    -0.235 OA 
HETATM   16  H1  UNL     1     -11.699  13.575  70.574  1.00  0.00     0.000 HD 
HETATM   17  H2  UNL     1     -12.249  12.034  71.322  1.00  0.00     0.000 HD 
ENDBRANCH  11  13
ENDBRANCH  10  11
ENDBRANCH   9  10
ENDBRANCH   8   9
ENDBRANCH   2   8
TORSDOF 5
ENDMDL
MODEL       79
REMARK 921   NORMALIZED FREE ENERGY PREDICTED BY IDOCK:   -3.45 KCAL/MOL
REMARK 922        TOTAL FREE ENERGY PREDICTED BY IDOCK:   -5.33 KCAL/MOL
REMARK 923 INTER-LIGAND FREE ENERGY PREDICTED BY IDOCK:   -4.48 KCAL/MOL
REMARK 924 INTRA-LIGAND FREE ENERGY PREDICTED BY IDOCK:   -0.86 KCAL/MOL
REMARK 927      BINDING AFFINITY PREDICTED BY RF-SCORE:    0.00 PKD
ROOT
HETATM    1  N   UNL     1      -9.991  18.021  68.402  1.00  0.00    -0.357 NA 
HETATM    2  CA  UNL     1     -10.719  18.302  67.128  1.00  0.00    -0.305 C  
HETATM    3  H1  UNL     1     -10.255  17.122  68.806  1.00  0.00     0.000 HD 
HETATM    4  H2  UNL     1     -10.116  18.778  69.073  1.00  0.00     0.000 HD 
HETATM    5  C   UNL     1     -10.407  17.170  66.130  1.00  0.00    -0.322 C  
HETATM    6  OXT UNL     1     -10.761  17.141  64.963  1.00  0.00    -0.712 OA 
HETATM    7  O   UNL     1      -9.679  16.183  66.717  1.00  0.00    -0.227 OA 
ENDROOT
BRANCH   2   8
HETATM    8  C   UNL     1     -10.323  19.652  66.521  1.00  0.00    -0.601 C  
BRANCH   8   9
HETATM    9  C   UNL     1      -9.426  20.492  67.431  1.00  0.00    -0.551 C  
BRANCH   9  10
HETATM   10  C   UNL     1      -8.007  20.572  66.872  1.00  0.00    -0.239 C  
BRANCH  10  11
HETATM   11  N   UNL     1      -7.277  19.346  67.111  1.00  0.00    -0.210 N  
HETATM   12  H   UNL     1      -6.978  19.124  68.061  1.00  0.00     0.000 HD 
BRANCH  11  13
HETATM   13  C   UNL     1      -6.977  18.480  66.104  1.00  0.00    -0.260 C  
HETATM   14  N   UNL     1      -6.749  17.222  66.553  1.00  0.00    -0.228 N  
HETATM   15  O   UNL     1      -6.898  18.768  64.920  1.00  0.00    -0.462 OA 
HETATM   16  H1  UNL     1      -6.524  16.573  65.799  1.00  0.00     0.000 HD 
HETATM   17  H2  UNL     1      -6.796  16.953  67.536  1.00  0.00     0.000 HD 
ENDBRANCH  11  13
ENDBRANCH  10  11
ENDBRANCH   9  10
ENDBRANCH   8   9
ENDBRANCH   2   8
TORSDOF 5
ENDMDL
MODEL       80
REMARK 921   NORMALIZED FREE ENERGY PREDICTED BY IDOCK:   -3.43 KCAL/MOL
REMARK 922        TOTAL FREE ENERGY PREDICTED BY IDOCK:   -5.31 KCAL/MOL
REMARK 923 INTER-LIGAND FREE ENERGY PREDICTED BY IDOCK:   -4.92 KCAL/MOL
REMARK 924 INTRA-LIGAND FREE ENERGY PREDICTED BY IDOCK:   -0.39 KCAL/MOL
REMARK 927      BINDING AFFINITY PREDICTED BY RF-SCORE:    0.00 PKD
ROOT
HETATM    1  N   UNL     1     -11.811  10.204  68.919  1.00  0.00    -0.564 NA 
HETATM    2  CA  UNL     1     -11.620  11.158  67.785  1.00  0.00    -0.223 C  
HETATM    3  H1  UNL     1     -12.259   9.338  68.621  1.00  0.00     0.000 HD 
HETATM    4  H2  UNL     1     -12.323  10.640  69.685  1.00  0.00     0.000 HD 
HETATM    5  C   UNL     1     -10.757  10.468  66.710  1.00  0.00    -0.188 C  
HETATM    6  OXT UNL     1     -10.331  11.000  65.699  1.00  0.00    -0.246 OA 
HETATM    7  O   UNL     1     -10.528   9.165  67.025  1.00  0.00    -0.260 OA 
ENDROOT
BRANCH   2   8
HETATM    8  C   UNL     1     -10.946  12.459  68.232  1.00  0.00    -0.269 C  
BRANCH   8   9
HETATM    9  C   UNL     1     -11.825  13.698  68.049  1.00  0.00    -0.397 C  
BRANCH   9  10
HETATM   10  C   UNL     1     -11.638  14.296  66.657  1.00  0.00    -0.383 C  
BRANCH  10  11
HETATM   11  N   UNL     1     -12.757  13.985  65.795  1.00  0.00    -0.504 N  
HETATM   12  H   UNL     1     -13.701  14.219  66.105  1.00  0.00     0.000 HD 
BRANCH  11  13
HETATM   13  C   UNL     1     -12.587  13.388  64.583  1.00  0.00    -0.265 C  
HETATM   14  N   UNL     1     -12.060  14.230  63.660  1.00  0.00    -0.973 N  
HETATM   15  O   UNL     1     -12.877  12.233  64.312  1.00  0.00    -0.648 OA 
HETATM   16  H1  UNL     1     -11.933  13.784  62.752  1.00  0.00     0.000 HD 
HETATM   17  H2  UNL     1     -11.818  15.203  63.853  1.00  0.00     0.000 HD 
ENDBRANCH  11  13
ENDBRANCH  10  11
ENDBRANCH   9  10
ENDBRANCH   8   9
ENDBRANCH   2   8
TORSDOF 5
ENDMDL
MODEL       81
REMARK 921   NORMALIZED FREE ENERGY PREDICTED BY IDOCK:   -3.42 KCAL/MOL
REMARK 922        TOTAL FREE ENERGY PREDICTED BY IDOCK:   -5.30 KCAL/MOL
REMARK 923 INTER-LIGAND FREE ENERGY PREDICTED BY IDOCK:   -5.11 KCAL/MOL
REMARK 924 INTRA-LIGAND FREE ENERGY PREDICTED BY IDOCK:   -0.19 KCAL/MOL
REMARK 927      BINDING AFFINITY PREDICTED BY RF-SCORE:    0.00 PKD
ROOT
HETATM    1  N   UNL     1     -13.876   9.197  72.869  1.00  0.00    -0.990 NA 
HETATM    2  CA  UNL     1     -13.215   9.304  71.534  1.00  0.00    -0.367 C  
HETATM    3  H1  UNL     1     -14.194   8.248  73.066  1.00  0.00     0.000 HD 
HETATM    4  H2  UNL     1     -14.640   9.868  72.957  1.00  0.00     0.000 HD 
HETATM    5  C   UNL     1     -12.016   8.336  71.507  1.00  0.00    -0.296 C  
HETATM    6  OXT UNL     1     -11.202   8.245  70.603  1.00  0.00    -0.257 OA 
HETATM    7  O   UNL     1     -11.974   7.573  72.632  1.00  0.00    -0.228 OA 
ENDROOT
BRANCH   2   8
HETATM    8  C   UNL     1     -12.737  10.729  71.237  1.00  0.00    -0.546 C  
BRANCH   8   9
HETATM    9  C   UNL     1     -13.335  11.782  72.172  1.00  0.00    -0.334 C  
BRANCH   9  10
HETATM   10  C   UNL     1     -13.071  13.190  71.644  1.00  0.00    -0.353 C  
BRANCH  10  11
HETATM   11  N   UNL     1     -12.076  13.181  70.594  1.00  0.00    -0.504 N  
HETATM   12  H   UNL     1     -11.355  12.460  70.601  1.00  0.00     0.000 HD 
BRANCH  11  13
HETATM   13  C   UNL     1     -12.076  14.107  69.596  1.00  0.00    -0.349 C  
HETATM   14  N   UNL     1     -12.806  15.206  69.909  1.00  0.00    -0.622 N  
HETATM   15  O   UNL     1     -11.509  13.994  68.520  1.00  0.00    -0.265 OA 
HETATM   16  H1  UNL     1     -12.807  15.900  69.162  1.00  0.00     0.000 HD 
HETATM   17  H2  UNL     1     -13.301  15.325  70.794  1.00  0.00     0.000 HD 
ENDBRANCH  11  13
ENDBRANCH  10  11
ENDBRANCH   9  10
ENDBRANCH   8   9
ENDBRANCH   2   8
TORSDOF 5
ENDMDL
MODEL       82
REMARK 921   NORMALIZED FREE ENERGY PREDICTED BY IDOCK:   -3.41 KCAL/MOL
REMARK 922        TOTAL FREE ENERGY PREDICTED BY IDOCK:   -5.29 KCAL/MOL
REMARK 923 INTER-LIGAND FREE ENERGY PREDICTED BY IDOCK:   -4.68 KCAL/MOL
REMARK 924 INTRA-LIGAND FREE ENERGY PREDICTED BY IDOCK:   -0.61 KCAL/MOL
REMARK 927      BINDING AFFINITY PREDICTED BY RF-SCORE:    0.00 PKD
ROOT
HETATM    1  N   UNL     1     -11.812  11.993  66.156  1.00  0.00    -0.555 NA 
HETATM    2  CA  UNL     1     -12.486  13.070  65.369  1.00  0.00    -0.476 C  
HETATM    3  H1  UNL     1     -12.152  11.065  65.907  1.00  0.00     0.000 HD 
HETATM    4  H2  UNL     1     -11.897  12.162  67.158  1.00  0.00     0.000 HD 
HETATM    5  C   UNL     1     -12.235  12.806  63.872  1.00  0.00    -0.463 C  
HETATM    6  OXT UNL     1     -12.562  13.548  62.960  1.00  0.00    -0.716 OA 
HETATM    7  O   UNL     1     -11.597  11.620  63.681  1.00  0.00    -0.424 OA 
ENDROOT
BRANCH   2   8
HETATM    8  C   UNL     1     -11.976  14.465  65.742  1.00  0.00    -0.362 C  
BRANCH   8   9
HETATM    9  C   UNL     1     -11.064  14.475  66.970  1.00  0.00    -0.324 C  
BRANCH   9  10
HETATM   10  C   UNL     1      -9.600  14.617  66.559  1.00  0.00    -0.289 C  
BRANCH  10  11
HETATM   11  N   UNL     1      -8.890  13.365  66.699  1.00  0.00    -0.434 N  
HETATM   12  H   UNL     1      -8.469  12.939  65.874  1.00  0.00     0.000 HD 
BRANCH  11  13
HETATM   13  C   UNL     1      -8.769  12.738  67.902  1.00  0.00    -0.185 C  
HETATM   14  N   UNL     1      -7.833  13.316  68.696  1.00  0.00    -0.265 N  
HETATM   15  O   UNL     1      -9.401  11.756  68.260  1.00  0.00    -0.184 OA 
HETATM   16  H1  UNL     1      -7.742  12.847  69.597  1.00  0.00     0.000 HD 
HETATM   17  H2  UNL     1      -7.282  14.130  68.421  1.00  0.00     0.000 HD 
ENDBRANCH  11  13
ENDBRANCH  10  11
ENDBRANCH   9  10
ENDBRANCH   8   9
ENDBRANCH   2   8
TORSDOF 5
ENDMDL
MODEL       83
REMARK 921   NORMALIZED FREE ENERGY PREDICTED BY IDOCK:   -3.40 KCAL/MOL
REMARK 922        TOTAL FREE ENERGY PREDICTED BY IDOCK:   -5.28 KCAL/MOL
REMARK 923 INTER-LIGAND FREE ENERGY PREDICTED BY IDOCK:   -4.95 KCAL/MOL
REMARK 924 INTRA-LIGAND FREE ENERGY PREDICTED BY IDOCK:   -0.33 KCAL/MOL
REMARK 927      BINDING AFFINITY PREDICTED BY RF-SCORE:    0.00 PKD
ROOT
HETATM    1  N   UNL     1     -11.927  14.540  67.174  1.00  0.00    -0.483 NA 
HETATM    2  CA  UNL     1     -11.477  14.920  65.801  1.00  0.00    -0.281 C  
HETATM    3  H1  UNL     1     -12.837  14.938  67.404  1.00  0.00     0.000 HD 
HETATM    4  H2  UNL     1     -11.228  14.789  67.873  1.00  0.00     0.000 HD 
HETATM    5  C   UNL     1     -12.531  14.427  64.791  1.00  0.00    -0.357 C  
HETATM    6  OXT UNL     1     -12.427  14.487  63.577  1.00  0.00    -0.727 OA 
HETATM    7  O   UNL     1     -13.619  13.914  65.425  1.00  0.00    -0.571 OA 
ENDROOT
BRANCH   2   8
HETATM    8  C   UNL     1     -10.110  14.322  65.454  1.00  0.00    -0.379 C  
BRANCH   8   9
HETATM    9  C   UNL     1      -9.591  13.334  66.500  1.00  0.00    -0.267 C  
BRANCH   9  10
HETATM   10  C   UNL     1      -9.847  11.894  66.062  1.00  0.00    -0.235 C  
BRANCH  10  11
HETATM   11  N   UNL     1      -9.337  11.650  64.730  1.00  0.00    -0.420 N  
HETATM   12  H   UNL     1      -8.380  11.925  64.508  1.00  0.00     0.000 HD 
BRANCH  11  13
HETATM   13  C   UNL     1     -10.098  11.064  63.765  1.00  0.00    -0.363 C  
HETATM   14  N   UNL     1      -9.556   9.908  63.308  1.00  0.00    -0.525 N  
HETATM   15  O   UNL     1     -11.148  11.504  63.323  1.00  0.00    -0.341 OA 
HETATM   16  H1  UNL     1     -10.126   9.469  62.585  1.00  0.00     0.000 HD 
HETATM   17  H2  UNL     1      -8.676   9.521  63.650  1.00  0.00     0.000 HD 
ENDBRANCH  11  13
ENDBRANCH  10  11
ENDBRANCH   9  10
ENDBRANCH   8   9
ENDBRANCH   2   8
TORSDOF 5
ENDMDL
MODEL       84
REMARK 921   NORMALIZED FREE ENERGY PREDICTED BY IDOCK:   -3.40 KCAL/MOL
REMARK 922        TOTAL FREE ENERGY PREDICTED BY IDOCK:   -5.27 KCAL/MOL
REMARK 923 INTER-LIGAND FREE ENERGY PREDICTED BY IDOCK:   -5.01 KCAL/MOL
REMARK 924 INTRA-LIGAND FREE ENERGY PREDICTED BY IDOCK:   -0.25 KCAL/MOL
REMARK 927      BINDING AFFINITY PREDICTED BY RF-SCORE:    0.00 PKD
ROOT
HETATM    1  N   UNL     1     -12.335  16.106  71.419  1.00  0.00    -0.583 NA 
HETATM    2  CA  UNL     1     -13.187  14.906  71.165  1.00  0.00    -0.414 C  
HETATM    3  H1  UNL     1     -12.825  16.819  71.959  1.00  0.00     0.000 HD 
HETATM    4  H2  UNL     1     -11.969  16.490  70.548  1.00  0.00     0.000 HD 
HETATM    5  C   UNL     1     -13.622  14.323  72.523  1.00  0.00    -0.520 C  
HETATM    6  OXT UNL     1     -14.244  13.285  72.679  1.00  0.00    -0.724 OA 
HETATM    7  O   UNL     1     -13.230  15.122  73.551  1.00  0.00    -0.470 OA 
ENDROOT
BRANCH   2   8
HETATM    8  C   UNL     1     -12.451  13.835  70.353  1.00  0.00    -0.384 C  
BRANCH   8   9
HETATM    9  C   UNL     1     -12.035  14.303  68.958  1.00  0.00    -0.360 C  
BRANCH   9  10
HETATM   10  C   UNL     1     -10.560  14.001  68.701  1.00  0.00    -0.257 C  
BRANCH  10  11
HETATM   11  N   UNL     1     -10.401  12.936  67.735  1.00  0.00    -0.218 N  
HETATM   12  H   UNL     1     -10.025  13.155  66.813  1.00  0.00     0.000 HD 
BRANCH  11  13
HETATM   13  C   UNL     1     -10.739  11.648  68.024  1.00  0.00    -0.208 C  
HETATM   14  N   UNL     1      -9.926  11.096  68.958  1.00  0.00    -0.346 N  
HETATM   15  O   UNL     1     -11.652  11.021  67.512  1.00  0.00    -0.529 OA 
HETATM   16  H1  UNL     1     -10.178  10.132  69.175  1.00  0.00     0.000 HD 
HETATM   17  H2  UNL     1      -9.148  11.590  69.396  1.00  0.00     0.000 HD 
ENDBRANCH  11  13
ENDBRANCH  10  11
ENDBRANCH   9  10
ENDBRANCH   8   9
ENDBRANCH   2   8
TORSDOF 5
ENDMDL
MODEL       85
REMARK 921   NORMALIZED FREE ENERGY PREDICTED BY IDOCK:   -3.40 KCAL/MOL
REMARK 922        TOTAL FREE ENERGY PREDICTED BY IDOCK:   -5.26 KCAL/MOL
REMARK 923 INTER-LIGAND FREE ENERGY PREDICTED BY IDOCK:   -5.00 KCAL/MOL
REMARK 924 INTRA-LIGAND FREE ENERGY PREDICTED BY IDOCK:   -0.27 KCAL/MOL
REMARK 927      BINDING AFFINITY PREDICTED BY RF-SCORE:    0.00 PKD
ROOT
HETATM    1  N   UNL     1     -11.350  11.944  65.819  1.00  0.00    -0.324 NA 
HETATM    2  CA  UNL     1     -12.423  12.766  65.183  1.00  0.00    -0.501 C  
HETATM    3  H1  UNL     1     -11.192  11.067  65.323  1.00  0.00     0.000 HD 
HETATM    4  H2  UNL     1     -11.547  11.780  66.806  1.00  0.00     0.000 HD 
HETATM    5  C   UNL     1     -12.012  13.057  63.726  1.00  0.00    -0.518 C  
HETATM    6  OXT UNL     1     -12.616  13.785  62.955  1.00  0.00    -0.721 OA 
HETATM    7  O   UNL     1     -10.877  12.388  63.392  1.00  0.00    -0.451 OA 
ENDROOT
BRANCH   2   8
HETATM    8  C   UNL     1     -12.660  14.084  65.927  1.00  0.00    -0.484 C  
BRANCH   8   9
HETATM    9  C   UNL     1     -11.376  14.733  66.446  1.00  0.00    -0.339 C  
BRANCH   9  10
HETATM   10  C   UNL     1     -11.413  14.874  67.966  1.00  0.00    -0.337 C  
BRANCH  10  11
HETATM   11  N   UNL     1     -11.365  16.262  68.368  1.00  0.00    -0.357 N  
HETATM   12  H   UNL     1     -12.154  16.657  68.879  1.00  0.00     0.000 HD 
BRANCH  11  13
HETATM   13  C   UNL     1     -10.297  17.057  68.083  1.00  0.00    -0.347 C  
HETATM   14  N   UNL     1     -10.666  18.270  67.603  1.00  0.00    -0.403 N  
HETATM   15  O   UNL     1      -9.124  16.745  68.216  1.00  0.00    -0.215 OA 
HETATM   16  H1  UNL     1      -9.866  18.865  67.389  1.00  0.00     0.000 HD 
HETATM   17  H2  UNL     1     -11.636  18.556  67.471  1.00  0.00     0.000 HD 
ENDBRANCH  11  13
ENDBRANCH  10  11
ENDBRANCH   9  10
ENDBRANCH   8   9
ENDBRANCH   2   8
TORSDOF 5
ENDMDL
MODEL       86
REMARK 921   NORMALIZED FREE ENERGY PREDICTED BY IDOCK:   -3.37 KCAL/MOL
REMARK 922        TOTAL FREE ENERGY PREDICTED BY IDOCK:   -5.23 KCAL/MOL
REMARK 923 INTER-LIGAND FREE ENERGY PREDICTED BY IDOCK:   -4.54 KCAL/MOL
REMARK 924 INTRA-LIGAND FREE ENERGY PREDICTED BY IDOCK:   -0.70 KCAL/MOL
REMARK 927      BINDING AFFINITY PREDICTED BY RF-SCORE:    0.00 PKD
ROOT
HETATM    1  N   UNL     1     -11.396   7.201  69.150  1.00  0.00    -0.480 NA 
HETATM    2  CA  UNL     1     -10.997   6.925  70.563  1.00  0.00    -0.273 C  
HETATM    3  H1  UNL     1     -10.607   7.135  68.508  1.00  0.00     0.000 HD 
HETATM    4  H2  UNL     1     -11.864   8.104  69.069  1.00  0.00     0.000 HD 
HETATM    5  C   UNL     1     -10.389   5.510  70.628  1.00  0.00    -0.262 C  
HETATM    6  OXT UNL     1     -10.050   4.933  71.649  1.00  0.00    -0.185 OA 
HETATM    7  O   UNL     1     -10.264   4.971  69.386  1.00  0.00    -0.228 OA 
ENDROOT
BRANCH   2   8
HETATM    8  C   UNL     1     -12.182   7.023  71.529  1.00  0.00    -0.407 C  
BRANCH   8   9
HETATM    9  C   UNL     1     -12.146   8.268  72.418  1.00  0.00    -0.430 C  
BRANCH   9  10
HETATM   10  C   UNL     1     -13.322   9.191  72.108  1.00  0.00    -0.463 C  
BRANCH  10  11
HETATM   11  N   UNL     1     -13.279   9.657  70.739  1.00  0.00    -0.589 N  
HETATM   12  H   UNL     1     -13.893   9.224  70.049  1.00  0.00     0.000 HD 
BRANCH  11  13
HETATM   13  C   UNL     1     -12.443  10.657  70.346  1.00  0.00    -0.338 C  
HETATM   14  N   UNL     1     -11.801  10.371  69.187  1.00  0.00    -0.518 N  
HETATM   15  O   UNL     1     -12.252  11.702  70.948  1.00  0.00    -0.364 OA 
HETATM   16  H1  UNL     1     -11.174  11.119  68.893  1.00  0.00     0.000 HD 
HETATM   17  H2  UNL     1     -11.930   9.502  68.667  1.00  0.00     0.000 HD 
ENDBRANCH  11  13
ENDBRANCH  10  11
ENDBRANCH   9  10
ENDBRANCH   8   9
ENDBRANCH   2   8
TORSDOF 5
ENDMDL
MODEL       87
REMARK 921   NORMALIZED FREE ENERGY PREDICTED BY IDOCK:   -3.37 KCAL/MOL
REMARK 922        TOTAL FREE ENERGY PREDICTED BY IDOCK:   -5.23 KCAL/MOL
REMARK 923 INTER-LIGAND FREE ENERGY PREDICTED BY IDOCK:   -4.55 KCAL/MOL
REMARK 924 INTRA-LIGAND FREE ENERGY PREDICTED BY IDOCK:   -0.69 KCAL/MOL
REMARK 927      BINDING AFFINITY PREDICTED BY RF-SCORE:    0.00 PKD
ROOT
HETATM    1  N   UNL     1     -10.534  16.515  69.322  1.00  0.00    -0.306 NA 
HETATM    2  CA  UNL     1     -11.898  15.910  69.239  1.00  0.00    -0.318 C  
HETATM    3  H1  UNL     1     -10.526  17.371  69.876  1.00  0.00     0.000 HD 
HETATM    4  H2  UNL     1     -10.145  16.674  68.392  1.00  0.00     0.000 HD 
HETATM    5  C   UNL     1     -12.382  15.607  70.671  1.00  0.00    -0.413 C  
HETATM    6  OXT UNL     1     -13.412  15.021  70.958  1.00  0.00    -0.409 OA 
HETATM    7  O   UNL     1     -11.510  16.088  71.597  1.00  0.00    -0.417 OA 
ENDROOT
BRANCH   2   8
HETATM    8  C   UNL     1     -11.910  14.624  68.406  1.00  0.00    -0.330 C  
BRANCH   8   9
HETATM    9  C   UNL     1     -10.932  13.560  68.908  1.00  0.00    -0.286 C  
BRANCH   9  10
HETATM   10  C   UNL     1     -11.667  12.270  69.264  1.00  0.00    -0.330 C  
BRANCH  10  11
HETATM   11  N   UNL     1     -11.839  12.138  70.694  1.00  0.00    -0.466 N  
HETATM   12  H   UNL     1     -11.152  12.564  71.317  1.00  0.00     0.000 HD 
BRANCH  11  13
HETATM   13  C   UNL     1     -12.891  11.462  71.232  1.00  0.00    -0.379 C  
HETATM   14  N   UNL     1     -13.434  12.108  72.293  1.00  0.00    -0.556 N  
HETATM   15  O   UNL     1     -13.319  10.387  70.843  1.00  0.00    -0.337 OA 
HETATM   16  H1  UNL     1     -14.222  11.601  72.697  1.00  0.00     0.000 HD 
HETATM   17  H2  UNL     1     -13.092  13.001  72.649  1.00  0.00     0.000 HD 
ENDBRANCH  11  13
ENDBRANCH  10  11
ENDBRANCH   9  10
ENDBRANCH   8   9
ENDBRANCH   2   8
TORSDOF 5
ENDMDL
MODEL       88
REMARK 921   NORMALIZED FREE ENERGY PREDICTED BY IDOCK:   -3.37 KCAL/MOL
REMARK 922        TOTAL FREE ENERGY PREDICTED BY IDOCK:   -5.23 KCAL/MOL
REMARK 923 INTER-LIGAND FREE ENERGY PREDICTED BY IDOCK:   -4.95 KCAL/MOL
REMARK 924 INTRA-LIGAND FREE ENERGY PREDICTED BY IDOCK:   -0.27 KCAL/MOL
REMARK 927      BINDING AFFINITY PREDICTED BY RF-SCORE:    0.00 PKD
ROOT
HETATM    1  N   UNL     1     -11.627  11.827  65.941  1.00  0.00    -0.371 NA 
HETATM    2  CA  UNL     1     -12.512  12.848  65.305  1.00  0.00    -0.493 C  
HETATM    3  H1  UNL     1     -11.633  10.943  65.434  1.00  0.00     0.000 HD 
HETATM    4  H2  UNL     1     -11.867  11.692  66.923  1.00  0.00     0.000 HD 
HETATM    5  C   UNL     1     -12.032  13.074  63.858  1.00  0.00    -0.485 C  
HETATM    6  OXT UNL     1     -12.472  13.914  63.091  1.00  0.00    -0.766 OA 
HETATM    7  O   UNL     1     -11.041  12.203  63.527  1.00  0.00    -0.415 OA 
ENDROOT
BRANCH   2   8
HETATM    8  C   UNL     1     -12.503  14.178  66.067  1.00  0.00    -0.454 C  
BRANCH   8   9
HETATM    9  C   UNL     1     -11.118  14.581  66.576  1.00  0.00    -0.332 C  
BRANCH   9  10
HETATM   10  C   UNL     1     -10.652  15.876  65.916  1.00  0.00    -0.337 C  
BRANCH  10  11
HETATM   11  N   UNL     1      -9.745  16.608  66.772  1.00  0.00    -0.250 N  
HETATM   12  H   UNL     1     -10.092  16.986  67.654  1.00  0.00     0.000 HD 
BRANCH  11  13
HETATM   13  C   UNL     1      -8.441  16.807  66.435  1.00  0.00    -0.303 C  
HETATM   14  N   UNL     1      -7.607  15.930  67.047  1.00  0.00    -0.219 N  
HETATM   15  O   UNL     1      -8.025  17.674  65.683  1.00  0.00    -0.529 OA 
HETATM   16  H1  UNL     1      -6.630  16.078  66.795  1.00  0.00     0.000 HD 
HETATM   17  H2  UNL     1      -7.923  15.202  67.689  1.00  0.00     0.000 HD 
ENDBRANCH  11  13
ENDBRANCH  10  11
ENDBRANCH   9  10
ENDBRANCH   8   9
ENDBRANCH   2   8
TORSDOF 5
ENDMDL
MODEL       89
REMARK 921   NORMALIZED FREE ENERGY PREDICTED BY IDOCK:   -3.36 KCAL/MOL
REMARK 922        TOTAL FREE ENERGY PREDICTED BY IDOCK:   -5.22 KCAL/MOL
REMARK 923 INTER-LIGAND FREE ENERGY PREDICTED BY IDOCK:   -4.79 KCAL/MOL
REMARK 924 INTRA-LIGAND FREE ENERGY PREDICTED BY IDOCK:   -0.43 KCAL/MOL
REMARK 927      BINDING AFFINITY PREDICTED BY RF-SCORE:    0.00 PKD
ROOT
HETATM    1  N   UNL     1     -10.715  17.698  69.086  1.00  0.00    -0.321 NA 
HETATM    2  CA  UNL     1      -9.602  17.539  68.102  1.00  0.00    -0.294 C  
HETATM    3  H1  UNL     1     -10.762  18.644  69.464  1.00  0.00     0.000 HD 
HETATM    4  H2  UNL     1     -10.651  17.005  69.831  1.00  0.00     0.000 HD 
HETATM    5  C   UNL     1      -9.817  18.548  66.958  1.00  0.00    -0.325 C  
HETATM    6  OXT UNL     1      -9.146  18.617  65.942  1.00  0.00    -0.467 OA 
HETATM    7  O   UNL     1     -10.863  19.376  67.222  1.00  0.00    -0.484 OA 
ENDROOT
BRANCH   2   8
HETATM    8  C   UNL     1      -9.532  16.118  67.533  1.00  0.00    -0.223 C  
BRANCH   8   9
HETATM    9  C   UNL     1     -10.888  15.571  67.083  1.00  0.00    -0.316 C  
BRANCH   9  10
HETATM   10  C   UNL     1     -11.415  14.540  68.077  1.00  0.00    -0.321 C  
BRANCH  10  11
HETATM   11  N   UNL     1     -12.504  15.076  68.864  1.00  0.00    -0.549 N  
HETATM   12  H   UNL     1     -13.396  15.271  68.408  1.00  0.00     0.000 HD 
BRANCH  11  13
HETATM   13  C   UNL     1     -12.373  15.326  70.196  1.00  0.00    -0.353 C  
HETATM   14  N   UNL     1     -13.562  15.578  70.796  1.00  0.00    -0.847 N  
HETATM   15  O   UNL     1     -11.321  15.347  70.815  1.00  0.00    -0.291 OA 
HETATM   16  H1  UNL     1     -13.464  15.766  71.794  1.00  0.00     0.000 HD 
HETATM   17  H2  UNL     1     -14.456  15.580  70.304  1.00  0.00     0.000 HD 
ENDBRANCH  11  13
ENDBRANCH  10  11
ENDBRANCH   9  10
ENDBRANCH   8   9
ENDBRANCH   2   8
TORSDOF 5
ENDMDL
MODEL       90
REMARK 921   NORMALIZED FREE ENERGY PREDICTED BY IDOCK:   -3.36 KCAL/MOL
REMARK 922        TOTAL FREE ENERGY PREDICTED BY IDOCK:   -5.22 KCAL/MOL
REMARK 923 INTER-LIGAND FREE ENERGY PREDICTED BY IDOCK:   -5.03 KCAL/MOL
REMARK 924 INTRA-LIGAND FREE ENERGY PREDICTED BY IDOCK:   -0.18 KCAL/MOL
REMARK 927      BINDING AFFINITY PREDICTED BY RF-SCORE:    0.00 PKD
ROOT
HETATM    1  N   UNL     1      -9.860  11.064  69.243  1.00  0.00    -0.414 NA 
HETATM    2  CA  UNL     1     -11.187  11.588  69.686  1.00  0.00    -0.204 C  
HETATM    3  H1  UNL     1      -9.364  10.586  69.995  1.00  0.00     0.000 HD 
HETATM    4  H2  UNL     1      -9.289  11.805  68.836  1.00  0.00     0.000 HD 
HETATM    5  C   UNL     1     -12.030  10.403  70.197  1.00  0.00    -0.276 C  
HETATM    6  OXT UNL     1     -13.199  10.465  70.541  1.00  0.00    -0.300 OA 
HETATM    7  O   UNL     1     -11.301   9.256  70.226  1.00  0.00    -0.250 OA 
ENDROOT
BRANCH   2   8
HETATM    8  C   UNL     1     -11.933  12.305  68.557  1.00  0.00    -0.272 C  
BRANCH   8   9
HETATM    9  C   UNL     1     -11.579  11.785  67.163  1.00  0.00    -0.342 C  
BRANCH   9  10
HETATM   10  C   UNL     1     -11.657  12.906  66.129  1.00  0.00    -0.372 C  
BRANCH  10  11
HETATM   11  N   UNL     1     -11.323  12.426  64.805  1.00  0.00    -0.305 N  
HETATM   12  H   UNL     1     -10.465  11.891  64.674  1.00  0.00     0.000 HD 
BRANCH  11  13
HETATM   13  C   UNL     1     -12.124  12.668  63.731  1.00  0.00    -0.522 C  
HETATM   14  N   UNL     1     -12.309  11.566  62.963  1.00  0.00    -0.935 N  
HETATM   15  O   UNL     1     -12.626  13.744  63.446  1.00  0.00    -0.842 OA 
HETATM   16  H1  UNL     1     -12.908  11.747  62.158  1.00  0.00     0.000 HD 
HETATM   17  H2  UNL     1     -11.894  10.656  63.168  1.00  0.00     0.000 HD 
ENDBRANCH  11  13
ENDBRANCH  10  11
ENDBRANCH   9  10
ENDBRANCH   8   9
ENDBRANCH   2   8
TORSDOF 5
ENDMDL
MODEL       91
REMARK 921   NORMALIZED FREE ENERGY PREDICTED BY IDOCK:   -3.34 KCAL/MOL
REMARK 922        TOTAL FREE ENERGY PREDICTED BY IDOCK:   -5.19 KCAL/MOL
REMARK 923 INTER-LIGAND FREE ENERGY PREDICTED BY IDOCK:   -4.63 KCAL/MOL
REMARK 924 INTRA-LIGAND FREE ENERGY PREDICTED BY IDOCK:   -0.57 KCAL/MOL
REMARK 927      BINDING AFFINITY PREDICTED BY RF-SCORE:    0.00 PKD
ROOT
HETATM    1  N   UNL     1     -11.977  11.832  67.382  1.00  0.00    -0.612 NA 
HETATM    2  CA  UNL     1     -12.181  13.285  67.101  1.00  0.00    -0.227 C  
HETATM    3  H1  UNL     1     -12.718  11.256  66.983  1.00  0.00     0.000 HD 
HETATM    4  H2  UNL     1     -11.874  11.661  68.382  1.00  0.00     0.000 HD 
HETATM    5  C   UNL     1     -12.229  13.483  65.574  1.00  0.00    -0.451 C  
HETATM    6  OXT UNL     1     -12.286  14.559  65.003  1.00  0.00    -0.403 OA 
HETATM    7  O   UNL     1     -12.208  12.289  64.922  1.00  0.00    -0.410 OA 
ENDROOT
BRANCH   2   8
HETATM    8  C   UNL     1     -11.069  14.152  67.700  1.00  0.00    -0.296 C  
BRANCH   8   9
HETATM    9  C   UNL     1     -11.576  15.201  68.690  1.00  0.00    -0.358 C  
BRANCH   9  10
HETATM   10  C   UNL     1     -12.399  14.550  69.799  1.00  0.00    -0.272 C  
BRANCH  10  11
HETATM   11  N   UNL     1     -11.718  13.400  70.355  1.00  0.00    -0.541 N  
HETATM   12  H   UNL     1     -10.699  13.366  70.324  1.00  0.00     0.000 HD 
BRANCH  11  13
HETATM   13  C   UNL     1     -12.399  12.364  70.916  1.00  0.00    -0.262 C  
HETATM   14  N   UNL     1     -12.025  11.163  70.411  1.00  0.00    -0.353 N  
HETATM   15  O   UNL     1     -13.267  12.463  71.770  1.00  0.00    -0.440 OA 
HETATM   16  H1  UNL     1     -12.535  10.386  70.831  1.00  0.00     0.000 HD 
HETATM   17  H2  UNL     1     -11.312  11.049  69.690  1.00  0.00     0.000 HD 
ENDBRANCH  11  13
ENDBRANCH  10  11
ENDBRANCH   9  10
ENDBRANCH   8   9
ENDBRANCH   2   8
TORSDOF 5
ENDMDL
MODEL       92
REMARK 921   NORMALIZED FREE ENERGY PREDICTED BY IDOCK:   -3.32 KCAL/MOL
REMARK 922        TOTAL FREE ENERGY PREDICTED BY IDOCK:   -5.17 KCAL/MOL
REMARK 923 INTER-LIGAND FREE ENERGY PREDICTED BY IDOCK:   -5.03 KCAL/MOL
REMARK 924 INTRA-LIGAND FREE ENERGY PREDICTED BY IDOCK:   -0.14 KCAL/MOL
REMARK 927      BINDING AFFINITY PREDICTED BY RF-SCORE:    0.00 PKD
ROOT
HETATM    1  N   UNL     1      -8.261  18.906  68.306  1.00  0.00    -0.316 NA 
HETATM    2  CA  UNL     1      -9.049  17.701  67.908  1.00  0.00    -0.260 C  
HETATM    3  H1  UNL     1      -7.407  19.006  67.758  1.00  0.00     0.000 HD 
HETATM    4  H2  UNL     1      -8.059  18.901  69.306  1.00  0.00     0.000 HD 
HETATM    5  C   UNL     1      -9.401  17.823  66.413  1.00  0.00    -0.249 C  
HETATM    6  OXT UNL     1     -10.121  17.058  65.793  1.00  0.00    -0.516 OA 
HETATM    7  O   UNL     1      -8.796  18.904  65.851  1.00  0.00    -0.460 OA 
ENDROOT
BRANCH   2   8
HETATM    8  C   UNL     1     -10.332  17.551  68.732  1.00  0.00    -0.358 C  
BRANCH   8   9
HETATM    9  C   UNL     1     -10.385  16.261  69.553  1.00  0.00    -0.284 C  
BRANCH   9  10
HETATM   10  C   UNL     1     -11.830  15.852  69.828  1.00  0.00    -0.295 C  
BRANCH  10  11
HETATM   11  N   UNL     1     -12.211  16.148  71.192  1.00  0.00    -0.567 N  
HETATM   12  H   UNL     1     -11.598  16.731  71.762  1.00  0.00     0.000 HD 
BRANCH  11  13
HETATM   13  C   UNL     1     -13.365  15.671  71.735  1.00  0.00    -0.455 C  
HETATM   14  N   UNL     1     -14.300  15.384  70.796  1.00  0.00    -0.758 N  
HETATM   15  O   UNL     1     -13.580  15.519  72.928  1.00  0.00    -0.510 OA 
HETATM   16  H1  UNL     1     -15.165  15.027  71.203  1.00  0.00     0.000 HD 
HETATM   17  H2  UNL     1     -14.155  15.510  69.794  1.00  0.00     0.000 HD 
ENDBRANCH  11  13
ENDBRANCH  10  11
ENDBRANCH   9  10
ENDBRANCH   8   9
ENDBRANCH   2   8
TORSDOF 5
ENDMDL
MODEL       93
REMARK 921   NORMALIZED FREE ENERGY PREDICTED BY IDOCK:   -3.32 KCAL/MOL
REMARK 922        TOTAL FREE ENERGY PREDICTED BY IDOCK:   -5.16 KCAL/MOL
REMARK 923 INTER-LIGAND FREE ENERGY PREDICTED BY IDOCK:   -4.99 KCAL/MOL
REMARK 924 INTRA-LIGAND FREE ENERGY PREDICTED BY IDOCK:   -0.17 KCAL/MOL
REMARK 927      BINDING AFFINITY PREDICTED BY RF-SCORE:    0.00 PKD
ROOT
HETATM    1  N   UNL     1     -12.509  14.240  63.474  1.00  0.00    -1.102 NA 
HETATM    2  CA  UNL     1     -11.790  14.407  64.773  1.00  0.00    -0.433 C  
HETATM    3  H1  UNL     1     -13.258  14.923  63.358  1.00  0.00     0.000 HD 
HETATM    4  H2  UNL     1     -12.858  13.288  63.365  1.00  0.00     0.000 HD 
HETATM    5  C   UNL     1     -11.208  15.833  64.825  1.00  0.00    -0.366 C  
HETATM    6  OXT UNL     1     -10.480  16.266  65.703  1.00  0.00    -0.359 OA 
HETATM    7  O   UNL     1     -11.615  16.571  63.758  1.00  0.00    -1.109 OA 
ENDROOT
BRANCH   2   8
HETATM    8  C   UNL     1     -10.665  13.382  64.947  1.00  0.00    -0.381 C  
BRANCH   8   9
HETATM    9  C   UNL     1     -11.077  11.954  64.584  1.00  0.00    -0.373 C  
BRANCH   9  10
HETATM   10  C   UNL     1     -10.487  10.951  65.572  1.00  0.00    -0.219 C  
BRANCH  10  11
HETATM   11  N   UNL     1      -9.288  11.467  66.195  1.00  0.00    -0.210 N  
HETATM   12  H   UNL     1      -8.705  12.124  65.677  1.00  0.00     0.000 HD 
BRANCH  11  13
HETATM   13  C   UNL     1      -8.916  11.100  67.452  1.00  0.00    -0.139 C  
HETATM   14  N   UNL     1      -8.525   9.803  67.519  1.00  0.00    -0.121 N  
HETATM   15  O   UNL     1      -8.932  11.821  68.437  1.00  0.00    -0.178 OA 
HETATM   16  H1  UNL     1      -8.246   9.527  68.461  1.00  0.00     0.000 HD 
HETATM   17  H2  UNL     1      -8.511   9.173  66.717  1.00  0.00     0.000 HD 
ENDBRANCH  11  13
ENDBRANCH  10  11
ENDBRANCH   9  10
ENDBRANCH   8   9
ENDBRANCH   2   8
TORSDOF 5
ENDMDL
MODEL       94
REMARK 921   NORMALIZED FREE ENERGY PREDICTED BY IDOCK:   -3.29 KCAL/MOL
REMARK 922        TOTAL FREE ENERGY PREDICTED BY IDOCK:   -5.13 KCAL/MOL
REMARK 923 INTER-LIGAND FREE ENERGY PREDICTED BY IDOCK:   -4.60 KCAL/MOL
REMARK 924 INTRA-LIGAND FREE ENERGY PREDICTED BY IDOCK:   -0.53 KCAL/MOL
REMARK 927      BINDING AFFINITY PREDICTED BY RF-SCORE:    0.00 PKD
ROOT
HETATM    1  N   UNL     1     -11.789   8.866  70.441  1.00  0.00    -0.476 NA 
HETATM    2  CA  UNL     1     -11.766  10.350  70.613  1.00  0.00    -0.351 C  
HETATM    3  H1  UNL     1     -11.727   8.375  71.332  1.00  0.00     0.000 HD 
HETATM    4  H2  UNL     1     -11.060   8.559  69.798  1.00  0.00     0.000 HD 
HETATM    5  C   UNL     1     -12.951  10.753  71.514  1.00  0.00    -0.456 C  
HETATM    6  OXT UNL     1     -13.281  11.897  71.775  1.00  0.00    -0.454 OA 
HETATM    7  O   UNL     1     -13.594   9.658  72.000  1.00  0.00    -0.408 OA 
ENDROOT
BRANCH   2   8
HETATM    8  C   UNL     1     -11.860  11.089  69.274  1.00  0.00    -0.411 C  
BRANCH   8   9
HETATM    9  C   UNL     1     -11.047  12.385  69.232  1.00  0.00    -0.209 C  
BRANCH   9  10
HETATM   10  C   UNL     1     -11.879  13.530  68.659  1.00  0.00    -0.369 C  
BRANCH  10  11
HETATM   11  N   UNL     1     -12.629  14.205  69.695  1.00  0.00    -0.459 N  
HETATM   12  H   UNL     1     -13.639  14.068  69.746  1.00  0.00     0.000 HD 
BRANCH  11  13
HETATM   13  C   UNL     1     -12.026  15.019  70.605  1.00  0.00    -0.318 C  
HETATM   14  N   UNL     1     -11.456  16.106  70.030  1.00  0.00    -0.341 N  
HETATM   15  O   UNL     1     -11.968  14.821  71.809  1.00  0.00    -0.351 OA 
HETATM   16  H1  UNL     1     -11.003  16.716  70.711  1.00  0.00     0.000 HD 
HETATM   17  H2  UNL     1     -11.477  16.294  69.027  1.00  0.00     0.000 HD 
ENDBRANCH  11  13
ENDBRANCH  10  11
ENDBRANCH   9  10
ENDBRANCH   8   9
ENDBRANCH   2   8
TORSDOF 5
ENDMDL
MODEL       95
REMARK 921   NORMALIZED FREE ENERGY PREDICTED BY IDOCK:   -3.28 KCAL/MOL
REMARK 922        TOTAL FREE ENERGY PREDICTED BY IDOCK:   -5.12 KCAL/MOL
REMARK 923 INTER-LIGAND FREE ENERGY PREDICTED BY IDOCK:   -4.97 KCAL/MOL
REMARK 924 INTRA-LIGAND FREE ENERGY PREDICTED BY IDOCK:   -0.16 KCAL/MOL
REMARK 927      BINDING AFFINITY PREDICTED BY RF-SCORE:    0.00 PKD
ROOT
HETATM    1  N   UNL     1     -12.243  10.708  68.488  1.00  0.00    -0.801 NA 
HETATM    2  CA  UNL     1     -11.749  10.691  69.898  1.00  0.00    -0.317 C  
HETATM    3  H1  UNL     1     -11.483  10.807  67.815  1.00  0.00     0.000 HD 
HETATM    4  H2  UNL     1     -12.952  11.429  68.353  1.00  0.00     0.000 HD 
HETATM    5  C   UNL     1     -10.760   9.520  70.052  1.00  0.00    -0.243 C  
HETATM    6  OXT UNL     1     -10.248   9.162  71.100  1.00  0.00    -0.262 OA 
HETATM    7  O   UNL     1     -10.514   8.922  68.855  1.00  0.00    -0.217 OA 
ENDROOT
BRANCH   2   8
HETATM    8  C   UNL     1     -12.891  10.542  70.908  1.00  0.00    -0.485 C  
BRANCH   8   9
HETATM    9  C   UNL     1     -13.172  11.815  71.708  1.00  0.00    -0.434 C  
BRANCH   9  10
HETATM   10  C   UNL     1     -12.644  13.045  70.973  1.00  0.00    -0.299 C  
BRANCH  10  11
HETATM   11  N   UNL     1     -12.412  14.144  71.885  1.00  0.00    -0.291 N  
HETATM   12  H   UNL     1     -12.250  13.944  72.872  1.00  0.00     0.000 HD 
BRANCH  11  13
HETATM   13  C   UNL     1     -12.403  15.439  71.462  1.00  0.00    -0.377 C  
HETATM   14  N   UNL     1     -13.233  15.647  70.411  1.00  0.00    -0.748 N  
HETATM   15  O   UNL     1     -11.727  16.337  71.939  1.00  0.00    -0.491 OA 
HETATM   16  H1  UNL     1     -13.226  16.616  70.094  1.00  0.00     0.000 HD 
HETATM   17  H2  UNL     1     -13.801  14.915  69.984  1.00  0.00     0.000 HD 
ENDBRANCH  11  13
ENDBRANCH  10  11
ENDBRANCH   9  10
ENDBRANCH   8   9
ENDBRANCH   2   8
TORSDOF 5
ENDMDL
MODEL       96
REMARK 921   NORMALIZED FREE ENERGY PREDICTED BY IDOCK:   -3.27 KCAL/MOL
REMARK 922        TOTAL FREE ENERGY PREDICTED BY IDOCK:   -5.10 KCAL/MOL
REMARK 923 INTER-LIGAND FREE ENERGY PREDICTED BY IDOCK:   -5.03 KCAL/MOL
REMARK 924 INTRA-LIGAND FREE ENERGY PREDICTED BY IDOCK:   -0.07 KCAL/MOL
REMARK 927      BINDING AFFINITY PREDICTED BY RF-SCORE:    0.00 PKD
ROOT
HETATM    1  N   UNL     1     -10.201  15.919  69.335  1.00  0.00    -0.244 NA 
HETATM    2  CA  UNL     1     -11.345  14.984  69.114  1.00  0.00    -0.296 C  
HETATM    3  H1  UNL     1     -10.504  16.814  69.719  1.00  0.00     0.000 HD 
HETATM    4  H2  UNL     1      -9.660  16.047  68.480  1.00  0.00     0.000 HD 
HETATM    5  C   UNL     1     -12.056  14.759  70.463  1.00  0.00    -0.315 C  
HETATM    6  OXT UNL     1     -12.970  13.974  70.657  1.00  0.00    -0.297 OA 
HETATM    7  O   UNL     1     -11.538  15.560  71.432  1.00  0.00    -0.344 OA 
ENDROOT
BRANCH   2   8
HETATM    8  C   UNL     1     -10.890  13.639  68.538  1.00  0.00    -0.275 C  
BRANCH   8   9
HETATM    9  C   UNL     1     -11.960  12.939  67.698  1.00  0.00    -0.344 C  
BRANCH   9  10
HETATM   10  C   UNL     1     -11.967  13.477  66.269  1.00  0.00    -0.413 C  
BRANCH  10  11
HETATM   11  N   UNL     1     -12.045  12.403  65.303  1.00  0.00    -0.428 N  
HETATM   12  H   UNL     1     -11.866  11.447  65.609  1.00  0.00     0.000 HD 
BRANCH  11  13
HETATM   13  C   UNL     1     -12.352  12.633  63.996  1.00  0.00    -0.443 C  
HETATM   14  N   UNL     1     -12.456  11.488  63.279  1.00  0.00    -0.849 N  
HETATM   15  O   UNL     1     -12.508  13.732  63.486  1.00  0.00    -0.780 OA 
HETATM   16  H1  UNL     1     -12.685  11.660  62.300  1.00  0.00     0.000 HD 
HETATM   17  H2  UNL     1     -12.320  10.557  63.674  1.00  0.00     0.000 HD 
ENDBRANCH  11  13
ENDBRANCH  10  11
ENDBRANCH   9  10
ENDBRANCH   8   9
ENDBRANCH   2   8
TORSDOF 5
ENDMDL
MODEL       97
REMARK 921   NORMALIZED FREE ENERGY PREDICTED BY IDOCK:   -3.26 KCAL/MOL
REMARK 922        TOTAL FREE ENERGY PREDICTED BY IDOCK:   -5.09 KCAL/MOL
REMARK 923 INTER-LIGAND FREE ENERGY PREDICTED BY IDOCK:   -4.63 KCAL/MOL
REMARK 924 INTRA-LIGAND FREE ENERGY PREDICTED BY IDOCK:   -0.45 KCAL/MOL
REMARK 927      BINDING AFFINITY PREDICTED BY RF-SCORE:    0.00 PKD
ROOT
HETATM    1  N   UNL     1     -11.423  10.345  68.183  1.00  0.00    -0.625 NA 
HETATM    2  CA  UNL     1     -12.130  11.431  68.926  1.00  0.00    -0.219 C  
HETATM    3  H1  UNL     1     -11.624  10.368  67.183  1.00  0.00     0.000 HD 
HETATM    4  H2  UNL     1     -11.632   9.429  68.581  1.00  0.00     0.000 HD 
HETATM    5  C   UNL     1     -11.692  12.786  68.337  1.00  0.00    -0.339 C  
HETATM    6  OXT UNL     1     -12.005  13.881  68.777  1.00  0.00    -0.341 OA 
HETATM    7  O   UNL     1     -10.904  12.616  67.242  1.00  0.00    -0.239 OA 
ENDROOT
BRANCH   2   8
HETATM    8  C   UNL     1     -11.828  11.397  70.427  1.00  0.00    -0.428 C  
BRANCH   8   9
HETATM    9  C   UNL     1     -12.963  10.806  71.266  1.00  0.00    -0.502 C  
BRANCH   9  10
HETATM   10  C   UNL     1     -12.585   9.425  71.796  1.00  0.00    -0.387 C  
BRANCH  10  11
HETATM   11  N   UNL     1     -12.590   8.436  70.741  1.00  0.00    -0.479 N  
HETATM   12  H   UNL     1     -13.438   8.305  70.190  1.00  0.00     0.000 HD 
BRANCH  11  13
HETATM   13  C   UNL     1     -11.495   7.676  70.462  1.00  0.00    -0.218 C  
HETATM   14  N   UNL     1     -11.780   6.639  69.638  1.00  0.00    -0.657 N  
HETATM   15  O   UNL     1     -10.370   7.865  70.898  1.00  0.00    -0.199 OA 
HETATM   16  H1  UNL     1     -10.960   6.069  69.429  1.00  0.00     0.000 HD 
HETATM   17  H2  UNL     1     -12.711   6.449  69.267  1.00  0.00     0.000 HD 
ENDBRANCH  11  13
ENDBRANCH  10  11
ENDBRANCH   9  10
ENDBRANCH   8   9
ENDBRANCH   2   8
TORSDOF 5
ENDMDL
MODEL       98
REMARK 921   NORMALIZED FREE ENERGY PREDICTED BY IDOCK:   -3.25 KCAL/MOL
REMARK 922        TOTAL FREE ENERGY PREDICTED BY IDOCK:   -5.08 KCAL/MOL
REMARK 923 INTER-LIGAND FREE ENERGY PREDICTED BY IDOCK:   -4.56 KCAL/MOL
REMARK 924 INTRA-LIGAND FREE ENERGY PREDICTED BY IDOCK:   -0.52 KCAL/MOL
REMARK 927      BINDING AFFINITY PREDICTED BY RF-SCORE:    0.00 PKD
ROOT
HETATM    1  N   UNL     1     -12.250  15.032  68.949  1.00  0.00    -0.587 NA 
HETATM    2  CA  UNL     1     -11.375  14.596  67.819  1.00  0.00    -0.322 C  
HETATM    3  H1  UNL     1     -11.727  15.525  69.672  1.00  0.00     0.000 HD 
HETATM    4  H2  UNL     1     -12.768  14.244  69.339  1.00  0.00     0.000 HD 
HETATM    5  C   UNL     1     -10.702  15.845  67.217  1.00  0.00    -0.306 C  
HETATM    6  OXT UNL     1     -10.002  15.857  66.218  1.00  0.00    -0.261 OA 
HETATM    7  O   UNL     1     -10.981  16.956  67.950  1.00  0.00    -0.342 OA 
ENDROOT
BRANCH   2   8
HETATM    8  C   UNL     1     -12.160  13.856  66.731  1.00  0.00    -0.476 C  
BRANCH   8   9
HETATM    9  C   UNL     1     -11.728  12.400  66.548  1.00  0.00    -0.443 C  
BRANCH   9  10
HETATM   10  C   UNL     1     -10.988  11.893  67.784  1.00  0.00    -0.228 C  
BRANCH  10  11
HETATM   11  N   UNL     1     -11.788  10.943  68.525  1.00  0.00    -0.420 N  
HETATM   12  H   UNL     1     -12.259  10.192  68.021  1.00  0.00     0.000 HD 
BRANCH  11  13
HETATM   13  C   UNL     1     -11.930  11.024  69.877  1.00  0.00    -0.351 C  
HETATM   14  N   UNL     1     -11.664  12.265  70.353  1.00  0.00    -0.534 N  
HETATM   15  O   UNL     1     -12.246  10.103  70.615  1.00  0.00    -0.285 OA 
HETATM   16  H1  UNL     1     -11.770  12.325  71.366  1.00  0.00     0.000 HD 
HETATM   17  H2  UNL     1     -11.387  13.051  69.764  1.00  0.00     0.000 HD 
ENDBRANCH  11  13
ENDBRANCH  10  11
ENDBRANCH   9  10
ENDBRANCH   8   9
ENDBRANCH   2   8
TORSDOF 5
ENDMDL
MODEL       99
REMARK 921   NORMALIZED FREE ENERGY PREDICTED BY IDOCK:   -3.25 KCAL/MOL
REMARK 922        TOTAL FREE ENERGY PREDICTED BY IDOCK:   -5.08 KCAL/MOL
REMARK 923 INTER-LIGAND FREE ENERGY PREDICTED BY IDOCK:   -4.85 KCAL/MOL
REMARK 924 INTRA-LIGAND FREE ENERGY PREDICTED BY IDOCK:   -0.22 KCAL/MOL
REMARK 927      BINDING AFFINITY PREDICTED BY RF-SCORE:    0.00 PKD
ROOT
HETATM    1  N   UNL     1     -10.126  11.987  65.692  1.00  0.00    -0.238 NA 
HETATM    2  CA  UNL     1     -11.489  12.419  65.257  1.00  0.00    -0.344 C  
HETATM    3  H1  UNL     1      -9.759  11.232  65.114  1.00  0.00     0.000 HD 
HETATM    4  H2  UNL     1     -10.118  11.732  66.680  1.00  0.00     0.000 HD 
HETATM    5  C   UNL     1     -11.406  12.881  63.789  1.00  0.00    -0.435 C  
HETATM    6  OXT UNL     1     -12.317  13.387  63.156  1.00  0.00    -0.668 OA 
HETATM    7  O   UNL     1     -10.172  12.646  63.268  1.00  0.00    -0.314 OA 
ENDROOT
BRANCH   2   8
HETATM    8  C   UNL     1     -12.041  13.553  66.126  1.00  0.00    -0.482 C  
BRANCH   8   9
HETATM    9  C   UNL     1     -11.125  13.933  67.292  1.00  0.00    -0.312 C  
BRANCH   9  10
HETATM   10  C   UNL     1     -11.835  13.729  68.628  1.00  0.00    -0.374 C  
BRANCH  10  11
HETATM   11  N   UNL     1     -11.232  12.654  69.386  1.00  0.00    -0.433 N  
HETATM   12  H   UNL     1     -10.216  12.602  69.450  1.00  0.00     0.000 HD 
BRANCH  11  13
HETATM   13  C   UNL     1     -11.985  11.710  70.016  1.00  0.00    -0.351 C  
HETATM   14  N   UNL     1     -12.104  10.572  69.289  1.00  0.00    -0.544 N  
HETATM   15  O   UNL     1     -12.522  11.840  71.106  1.00  0.00    -0.358 OA 
HETATM   16  H1  UNL     1     -12.667   9.865  69.761  1.00  0.00     0.000 HD 
HETATM   17  H2  UNL     1     -11.677  10.438  68.372  1.00  0.00     0.000 HD 
ENDBRANCH  11  13
ENDBRANCH  10  11
ENDBRANCH   9  10
ENDBRANCH   8   9
ENDBRANCH   2   8
TORSDOF 5
ENDMDL
MODEL      100
REMARK 921   NORMALIZED FREE ENERGY PREDICTED BY IDOCK:   -3.22 KCAL/MOL
REMARK 922        TOTAL FREE ENERGY PREDICTED BY IDOCK:   -5.04 KCAL/MOL
REMARK 923 INTER-LIGAND FREE ENERGY PREDICTED BY IDOCK:   -4.13 KCAL/MOL
REMARK 924 INTRA-LIGAND FREE ENERGY PREDICTED BY IDOCK:   -0.90 KCAL/MOL
REMARK 927      BINDING AFFINITY PREDICTED BY RF-SCORE:    0.00 PKD
ROOT
HETATM    1  N   UNL     1     -12.277  10.916  68.379  1.00  0.00    -0.810 NA 
HETATM    2  CA  UNL     1     -11.049  10.887  67.529  1.00  0.00    -0.310 C  
HETATM    3  H1  UNL     1     -12.336  10.108  68.999  1.00  0.00     0.000 HD 
HETATM    4  H2  UNL     1     -13.118  11.005  67.808  1.00  0.00     0.000 HD 
HETATM    5  C   UNL     1      -9.818  10.852  68.455  1.00  0.00    -0.184 C  
HETATM    6  OXT UNL     1      -8.657  10.921  68.089  1.00  0.00    -0.123 OA 
HETATM    7  O   UNL     1     -10.186  10.724  69.758  1.00  0.00    -0.144 OA 
ENDROOT
BRANCH   2   8
HETATM    8  C   UNL     1     -10.961  12.100  66.597  1.00  0.00    -0.325 C  
BRANCH   8   9
HETATM    9  C   UNL     1     -12.013  13.172  66.887  1.00  0.00    -0.421 C  
BRANCH   9  10
HETATM   10  C   UNL     1     -11.354  14.472  67.341  1.00  0.00    -0.356 C  
BRANCH  10  11
HETATM   11  N   UNL     1     -10.882  14.375  68.705  1.00  0.00    -0.243 N  
HETATM   12  H   UNL     1      -9.890  14.215  68.876  1.00  0.00     0.000 HD 
BRANCH  11  13
HETATM   13  C   UNL     1     -11.727  14.493  69.767  1.00  0.00    -0.303 C  
HETATM   14  N   UNL     1     -11.852  13.335  70.460  1.00  0.00    -0.542 N  
HETATM   15  O   UNL     1     -12.334  15.505  70.084  1.00  0.00    -0.373 OA 
HETATM   16  H1  UNL     1     -12.485  13.423  71.255  1.00  0.00     0.000 HD 
HETATM   17  H2  UNL     1     -11.368  12.472  70.214  1.00  0.00     0.000 HD 
ENDBRANCH  11  13
ENDBRANCH  10  11
ENDBRANCH   9  10
ENDBRANCH   8   9
ENDBRANCH   2   8
TORSDOF 5
ENDMDL
MODEL      101
REMARK 921   NORMALIZED FREE ENERGY PREDICTED BY IDOCK:   -3.21 KCAL/MOL
REMARK 922        TOTAL FREE ENERGY PREDICTED BY IDOCK:   -5.02 KCAL/MOL
REMARK 923 INTER-LIGAND FREE ENERGY PREDICTED BY IDOCK:   -4.78 KCAL/MOL
REMARK 924 INTRA-LIGAND FREE ENERGY PREDICTED BY IDOCK:   -0.24 KCAL/MOL
REMARK 927      BINDING AFFINITY PREDICTED BY RF-SCORE:    0.00 PKD
ROOT
HETATM    1  N   UNL     1     -10.297  13.965  64.351  1.00  0.00    -0.673 NA 
HETATM    2  CA  UNL     1     -10.806  12.618  63.952  1.00  0.00    -0.429 C  
HETATM    3  H1  UNL     1     -10.359  14.641  63.590  1.00  0.00     0.000 HD 
HETATM    4  H2  UNL     1      -9.346  13.906  64.716  1.00  0.00     0.000 HD 
HETATM    5  C   UNL     1     -12.274  12.768  63.506  1.00  0.00    -0.525 C  
HETATM    6  OXT UNL     1     -13.019  11.848  63.211  1.00  0.00    -0.707 OA 
HETATM    7  O   UNL     1     -12.648  14.075  63.473  1.00  0.00    -0.842 OA 
ENDROOT
BRANCH   2   8
HETATM    8  C   UNL     1     -10.713  11.602  65.094  1.00  0.00    -0.351 C  
BRANCH   8   9
HETATM    9  C   UNL     1     -11.456  12.034  66.360  1.00  0.00    -0.417 C  
BRANCH   9  10
HETATM   10  C   UNL     1     -10.871  11.350  67.593  1.00  0.00    -0.237 C  
BRANCH  10  11
HETATM   11  N   UNL     1      -9.914  10.330  67.226  1.00  0.00    -0.182 N  
HETATM   12  H   UNL     1      -9.861  10.027  66.254  1.00  0.00     0.000 HD 
BRANCH  11  13
HETATM   13  C   UNL     1      -9.081   9.763  68.142  1.00  0.00    -0.125 C  
HETATM   14  N   UNL     1      -8.428  10.686  68.891  1.00  0.00    -0.148 N  
HETATM   15  O   UNL     1      -8.902   8.565  68.295  1.00  0.00    -0.141 OA 
HETATM   16  H1  UNL     1      -7.804  10.262  69.577  1.00  0.00     0.000 HD 
HETATM   17  H2  UNL     1      -8.548  11.693  68.780  1.00  0.00     0.000 HD 
ENDBRANCH  11  13
ENDBRANCH  10  11
ENDBRANCH   9  10
ENDBRANCH   8   9
ENDBRANCH   2   8
TORSDOF 5
ENDMDL
MODEL      102
REMARK 921   NORMALIZED FREE ENERGY PREDICTED BY IDOCK:   -3.20 KCAL/MOL
REMARK 922        TOTAL FREE ENERGY PREDICTED BY IDOCK:   -5.01 KCAL/MOL
REMARK 923 INTER-LIGAND FREE ENERGY PREDICTED BY IDOCK:   -4.88 KCAL/MOL
REMARK 924 INTRA-LIGAND FREE ENERGY PREDICTED BY IDOCK:   -0.13 KCAL/MOL
REMARK 927      BINDING AFFINITY PREDICTED BY RF-SCORE:    0.00 PKD
ROOT
HETATM    1  N   UNL     1     -12.672   7.252  70.873  1.00  0.00    -0.592 NA 
HETATM    2  CA  UNL     1     -11.806   8.417  71.226  1.00  0.00    -0.289 C  
HETATM    3  H1  UNL     1     -12.143   6.498  70.435  1.00  0.00     0.000 HD 
HETATM    4  H2  UNL     1     -13.457   7.539  70.289  1.00  0.00     0.000 HD 
HETATM    5  C   UNL     1     -10.703   7.930  72.184  1.00  0.00    -0.257 C  
HETATM    6  OXT UNL     1      -9.886   8.644  72.742  1.00  0.00    -0.213 OA 
HETATM    7  O   UNL     1     -10.742   6.579  72.334  1.00  0.00    -0.210 OA 
ENDROOT
BRANCH   2   8
HETATM    8  C   UNL     1     -12.601   9.549  71.884  1.00  0.00    -0.479 C  
BRANCH   8   9
HETATM    9  C   UNL     1     -12.354  10.920  71.251  1.00  0.00    -0.448 C  
BRANCH   9  10
HETATM   10  C   UNL     1     -13.242  11.983  71.892  1.00  0.00    -0.364 C  
BRANCH  10  11
HETATM   11  N   UNL     1     -12.817  13.316  71.524  1.00  0.00    -0.358 N  
HETATM   12  H   UNL     1     -12.027  13.427  70.889  1.00  0.00     0.000 HD 
BRANCH  11  13
HETATM   13  C   UNL     1     -13.444  14.427  72.001  1.00  0.00    -0.402 C  
HETATM   14  N   UNL     1     -14.068  15.130  71.025  1.00  0.00    -0.726 N  
HETATM   15  O   UNL     1     -13.454  14.792  73.167  1.00  0.00    -0.544 OA 
HETATM   16  H1  UNL     1     -14.537  15.962  71.382  1.00  0.00     0.000 HD 
HETATM   17  H2  UNL     1     -14.068  14.857  70.041  1.00  0.00     0.000 HD 
ENDBRANCH  11  13
ENDBRANCH  10  11
ENDBRANCH   9  10
ENDBRANCH   8   9
ENDBRANCH   2   8
TORSDOF 5
ENDMDL
MODEL      103
REMARK 921   NORMALIZED FREE ENERGY PREDICTED BY IDOCK:   -3.20 KCAL/MOL
REMARK 922        TOTAL FREE ENERGY PREDICTED BY IDOCK:   -5.01 KCAL/MOL
REMARK 923 INTER-LIGAND FREE ENERGY PREDICTED BY IDOCK:   -4.86 KCAL/MOL
REMARK 924 INTRA-LIGAND FREE ENERGY PREDICTED BY IDOCK:   -0.14 KCAL/MOL
REMARK 927      BINDING AFFINITY PREDICTED BY RF-SCORE:    0.00 PKD
ROOT
HETATM    1  N   UNL     1     -12.353  13.047  70.937  1.00  0.00    -0.400 NA 
HETATM    2  CA  UNL     1     -12.296  14.428  71.503  1.00  0.00    -0.353 C  
HETATM    3  H1  UNL     1     -12.287  12.331  71.660  1.00  0.00     0.000 HD 
HETATM    4  H2  UNL     1     -11.642  12.913  70.218  1.00  0.00     0.000 HD 
HETATM    5  C   UNL     1     -13.456  14.590  72.505  1.00  0.00    -0.483 C  
HETATM    6  OXT UNL     1     -13.757  15.626  73.074  1.00  0.00    -0.541 OA 
HETATM    7  O   UNL     1     -14.114  13.414  72.691  1.00  0.00    -0.767 OA 
ENDROOT
BRANCH   2   8
HETATM    8  C   UNL     1     -12.396  15.503  70.417  1.00  0.00    -0.451 C  
BRANCH   8   9
HETATM    9  C   UNL     1     -11.037  15.986  69.906  1.00  0.00    -0.352 C  
BRANCH   9  10
HETATM   10  C   UNL     1     -11.159  16.558  68.496  1.00  0.00    -0.335 C  
BRANCH  10  11
HETATM   11  N   UNL     1     -10.370  17.761  68.345  1.00  0.00    -0.374 N  
HETATM   12  H   UNL     1     -10.804  18.665  68.529  1.00  0.00     0.000 HD 
BRANCH  11  13
HETATM   13  C   UNL     1      -9.063  17.719  67.965  1.00  0.00    -0.269 C  
HETATM   14  N   UNL     1      -8.905  17.909  66.632  1.00  0.00    -0.261 N  
HETATM   15  O   UNL     1      -8.113  17.521  68.706  1.00  0.00    -0.275 OA 
HETATM   16  H1  UNL     1      -7.926  17.878  66.346  1.00  0.00     0.000 HD 
HETATM   17  H2  UNL     1      -9.679  18.066  65.986  1.00  0.00     0.000 HD 
ENDBRANCH  11  13
ENDBRANCH  10  11
ENDBRANCH   9  10
ENDBRANCH   8   9
ENDBRANCH   2   8
TORSDOF 5
ENDMDL
MODEL      104
REMARK 921   NORMALIZED FREE ENERGY PREDICTED BY IDOCK:   -3.20 KCAL/MOL
REMARK 922        TOTAL FREE ENERGY PREDICTED BY IDOCK:   -5.01 KCAL/MOL
REMARK 923 INTER-LIGAND FREE ENERGY PREDICTED BY IDOCK:   -4.39 KCAL/MOL
REMARK 924 INTRA-LIGAND FREE ENERGY PREDICTED BY IDOCK:   -0.62 KCAL/MOL
REMARK 927      BINDING AFFINITY PREDICTED BY RF-SCORE:    0.00 PKD
ROOT
HETATM    1  N   UNL     1     -12.373  10.621  69.066  1.00  0.00    -0.779 NA 
HETATM    2  CA  UNL     1     -10.971  10.409  68.595  1.00  0.00    -0.243 C  
HETATM    3  H1  UNL     1     -12.612  11.611  69.130  1.00  0.00     0.000 HD 
HETATM    4  H2  UNL     1     -12.541  10.143  69.951  1.00  0.00     0.000 HD 
HETATM    5  C   UNL     1     -10.818  11.072  67.212  1.00  0.00    -0.281 C  
HETATM    6  OXT UNL     1      -9.829  11.003  66.502  1.00  0.00    -0.193 OA 
HETATM    7  O   UNL     1     -11.938  11.766  66.872  1.00  0.00    -0.605 OA 
ENDROOT
BRANCH   2   8
HETATM    8  C   UNL     1     -10.612   8.923  68.499  1.00  0.00    -0.183 C  
BRANCH   8   9
HETATM    9  C   UNL     1      -9.765   8.421  69.669  1.00  0.00    -0.173 C  
BRANCH   9  10
HETATM   10  C   UNL     1     -10.533   7.391  70.494  1.00  0.00    -0.218 C  
BRANCH  10  11
HETATM   11  N   UNL     1     -11.957   7.643  70.457  1.00  0.00    -0.502 N  
HETATM   12  H   UNL     1     -12.489   7.361  69.634  1.00  0.00     0.000 HD 
BRANCH  11  13
HETATM   13  C   UNL     1     -12.606   8.245  71.492  1.00  0.00    -0.309 C  
HETATM   14  N   UNL     1     -13.542   7.441  72.054  1.00  0.00    -0.539 N  
HETATM   15  O   UNL     1     -12.409   9.383  71.889  1.00  0.00    -0.359 OA 
HETATM   16  H1  UNL     1     -14.029   7.892  72.829  1.00  0.00     0.000 HD 
HETATM   17  H2  UNL     1     -13.738   6.491  71.738  1.00  0.00     0.000 HD 
ENDBRANCH  11  13
ENDBRANCH  10  11
ENDBRANCH   9  10
ENDBRANCH   8   9
ENDBRANCH   2   8
TORSDOF 5
ENDMDL
MODEL      105
REMARK 921   NORMALIZED FREE ENERGY PREDICTED BY IDOCK:   -3.19 KCAL/MOL
REMARK 922        TOTAL FREE ENERGY PREDICTED BY IDOCK:   -5.00 KCAL/MOL
REMARK 923 INTER-LIGAND FREE ENERGY PREDICTED BY IDOCK:   -4.80 KCAL/MOL
REMARK 924 INTRA-LIGAND FREE ENERGY PREDICTED BY IDOCK:   -0.21 KCAL/MOL
REMARK 927      BINDING AFFINITY PREDICTED BY RF-SCORE:    0.00 PKD
ROOT
HETATM    1  N   UNL     1     -11.813   7.544  70.746  1.00  0.00    -0.419 NA 
HETATM    2  CA  UNL     1     -12.179   8.515  71.821  1.00  0.00    -0.334 C  
HETATM    3  H1  UNL     1     -12.060   6.586  70.993  1.00  0.00     0.000 HD 
HETATM    4  H2  UNL     1     -10.825   7.620  70.503  1.00  0.00     0.000 HD 
HETATM    5  C   UNL     1     -13.697   8.415  72.068  1.00  0.00    -0.374 C  
HETATM    6  OXT UNL     1     -14.340   9.138  72.811  1.00  0.00    -0.563 OA 
HETATM    7  O   UNL     1     -14.247   7.399  71.350  1.00  0.00    -0.433 OA 
ENDROOT
BRANCH   2   8
HETATM    8  C   UNL     1     -11.809   9.954  71.452  1.00  0.00    -0.476 C  
BRANCH   8   9
HETATM    9  C   UNL     1     -12.320  10.384  70.076  1.00  0.00    -0.229 C  
BRANCH   9  10
HETATM   10  C   UNL     1     -11.726  11.732  69.672  1.00  0.00    -0.344 C  
BRANCH  10  11
HETATM   11  N   UNL     1     -11.990  12.744  70.670  1.00  0.00    -0.521 N  
HETATM   12  H   UNL     1     -12.267  12.455  71.608  1.00  0.00     0.000 HD 
BRANCH  11  13
HETATM   13  C   UNL     1     -11.879  14.073  70.393  1.00  0.00    -0.286 C  
HETATM   14  N   UNL     1     -11.546  14.804  71.485  1.00  0.00    -0.496 N  
HETATM   15  O   UNL     1     -12.064  14.589  69.302  1.00  0.00    -0.321 OA 
HETATM   16  H1  UNL     1     -11.463  15.799  71.278  1.00  0.00     0.000 HD 
HETATM   17  H2  UNL     1     -11.396  14.404  72.411  1.00  0.00     0.000 HD 
ENDBRANCH  11  13
ENDBRANCH  10  11
ENDBRANCH   9  10
ENDBRANCH   8   9
ENDBRANCH   2   8
TORSDOF 5
ENDMDL
MODEL      106
REMARK 921   NORMALIZED FREE ENERGY PREDICTED BY IDOCK:   -3.16 KCAL/MOL
REMARK 922        TOTAL FREE ENERGY PREDICTED BY IDOCK:   -4.96 KCAL/MOL
REMARK 923 INTER-LIGAND FREE ENERGY PREDICTED BY IDOCK:   -4.76 KCAL/MOL
REMARK 924 INTRA-LIGAND FREE ENERGY PREDICTED BY IDOCK:   -0.19 KCAL/MOL
REMARK 927      BINDING AFFINITY PREDICTED BY RF-SCORE:    0.00 PKD
ROOT
HETATM    1  N   UNL     1     -10.340  16.171  65.478  1.00  0.00    -0.473 NA 
HETATM    2  CA  UNL     1     -10.836  14.779  65.260  1.00  0.00    -0.383 C  
HETATM    3  H1  UNL     1     -10.050  16.618  64.608  1.00  0.00     0.000 HD 
HETATM    4  H2  UNL     1      -9.591  16.191  66.170  1.00  0.00     0.000 HD 
HETATM    5  C   UNL     1     -12.026  14.836  64.282  1.00  0.00    -0.368 C  
HETATM    6  OXT UNL     1     -12.726  13.888  63.966  1.00  0.00    -0.665 OA 
HETATM    7  O   UNL     1     -12.205  16.094  63.796  1.00  0.00    -0.934 OA 
ENDROOT
BRANCH   2   8
HETATM    8  C   UNL     1     -11.271  14.109  66.566  1.00  0.00    -0.333 C  
BRANCH   8   9
HETATM    9  C   UNL     1     -10.964  14.940  67.813  1.00  0.00    -0.294 C  
BRANCH   9  10
HETATM   10  C   UNL     1      -9.935  14.237  68.695  1.00  0.00    -0.234 C  
BRANCH  10  11
HETATM   11  N   UNL     1      -9.293  15.166  69.599  1.00  0.00    -0.443 N  
HETATM   12  H   UNL     1      -9.822  15.535  70.389  1.00  0.00     0.000 HD 
BRANCH  11  13
HETATM   13  C   UNL     1      -8.001  15.562  69.424  1.00  0.00    -0.229 C  
HETATM   14  N   UNL     1      -7.907  16.763  68.801  1.00  0.00    -0.234 N  
HETATM   15  O   UNL     1      -7.012  14.930  69.761  1.00  0.00    -0.172 OA 
HETATM   16  H1  UNL     1      -6.940  17.059  68.670  1.00  0.00     0.000 HD 
HETATM   17  H2  UNL     1      -8.714  17.309  68.498  1.00  0.00     0.000 HD 
ENDBRANCH  11  13
ENDBRANCH  10  11
ENDBRANCH   9  10
ENDBRANCH   8   9
ENDBRANCH   2   8
TORSDOF 5
ENDMDL
MODEL      107
REMARK 921   NORMALIZED FREE ENERGY PREDICTED BY IDOCK:   -3.13 KCAL/MOL
REMARK 922        TOTAL FREE ENERGY PREDICTED BY IDOCK:   -4.92 KCAL/MOL
REMARK 923 INTER-LIGAND FREE ENERGY PREDICTED BY IDOCK:   -4.65 KCAL/MOL
REMARK 924 INTRA-LIGAND FREE ENERGY PREDICTED BY IDOCK:   -0.27 KCAL/MOL
REMARK 927      BINDING AFFINITY PREDICTED BY RF-SCORE:    0.00 PKD
ROOT
HETATM    1  N   UNL     1     -11.725   8.882  70.445  1.00  0.00    -0.460 NA 
HETATM    2  CA  UNL     1     -11.776  10.360  70.656  1.00  0.00    -0.351 C  
HETATM    3  H1  UNL     1     -11.502   8.379  71.303  1.00  0.00     0.000 HD 
HETATM    4  H2  UNL     1     -11.078   8.639  69.695  1.00  0.00     0.000 HD 
HETATM    5  C   UNL     1     -12.841  10.661  71.728  1.00  0.00    -0.444 C  
HETATM    6  OXT UNL     1     -13.205  11.775  72.068  1.00  0.00    -0.506 OA 
HETATM    7  O   UNL     1     -13.332   9.515  72.270  1.00  0.00    -0.438 OA 
ENDROOT
BRANCH   2   8
HETATM    8  C   UNL     1     -12.112  11.117  69.367  1.00  0.00    -0.396 C  
BRANCH   8   9
HETATM    9  C   UNL     1     -11.272  12.379  69.161  1.00  0.00    -0.295 C  
BRANCH   9  10
HETATM   10  C   UNL     1     -12.156  13.623  69.141  1.00  0.00    -0.319 C  
BRANCH  10  11
HETATM   11  N   UNL     1     -11.620  14.637  68.259  1.00  0.00    -0.311 N  
HETATM   12  H   UNL     1     -11.182  15.464  68.663  1.00  0.00     0.000 HD 
BRANCH  11  13
HETATM   13  C   UNL     1     -11.685  14.517  66.904  1.00  0.00    -0.382 C  
HETATM   14  N   UNL     1     -10.678  15.173  66.277  1.00  0.00    -0.314 N  
HETATM   15  O   UNL     1     -12.544  13.909  66.284  1.00  0.00    -0.435 OA 
HETATM   16  H1  UNL     1     -10.726  15.083  65.262  1.00  0.00     0.000 HD 
HETATM   17  H2  UNL     1      -9.952  15.698  66.766  1.00  0.00     0.000 HD 
ENDBRANCH  11  13
ENDBRANCH  10  11
ENDBRANCH   9  10
ENDBRANCH   8   9
ENDBRANCH   2   8
TORSDOF 5
ENDMDL
MODEL      108
REMARK 921   NORMALIZED FREE ENERGY PREDICTED BY IDOCK:   -3.12 KCAL/MOL
REMARK 922        TOTAL FREE ENERGY PREDICTED BY IDOCK:   -4.91 KCAL/MOL
REMARK 923 INTER-LIGAND FREE ENERGY PREDICTED BY IDOCK:   -4.42 KCAL/MOL
REMARK 924 INTRA-LIGAND FREE ENERGY PREDICTED BY IDOCK:   -0.49 KCAL/MOL
REMARK 927      BINDING AFFINITY PREDICTED BY RF-SCORE:    0.00 PKD
ROOT
HETATM    1  N   UNL     1     -10.245  13.329  63.990  1.00  0.00    -0.758 NA 
HETATM    2  CA  UNL     1     -10.508  13.230  65.457  1.00  0.00    -0.288 C  
HETATM    3  H1  UNL     1     -10.864  12.729  63.447  1.00  0.00     0.000 HD 
HETATM    4  H2  UNL     1      -9.266  13.138  63.778  1.00  0.00     0.000 HD 
HETATM    5  C   UNL     1     -11.975  13.625  65.715  1.00  0.00    -0.395 C  
HETATM    6  OXT UNL     1     -12.490  13.746  66.814  1.00  0.00    -0.366 OA 
HETATM    7  O   UNL     1     -12.645  13.821  64.548  1.00  0.00    -0.620 OA 
ENDROOT
BRANCH   2   8
HETATM    8  C   UNL     1      -9.577  14.132  66.274  1.00  0.00    -0.295 C  
BRANCH   8   9
HETATM    9  C   UNL     1      -8.933  13.425  67.468  1.00  0.00    -0.207 C  
BRANCH   9  10
HETATM   10  C   UNL     1      -9.483  12.009  67.624  1.00  0.00    -0.185 C  
BRANCH  10  11
HETATM   11  N   UNL     1      -9.951  11.771  68.972  1.00  0.00    -0.419 N  
HETATM   12  H   UNL     1      -9.543  12.304  69.739  1.00  0.00     0.000 HD 
BRANCH  11  13
HETATM   13  C   UNL     1     -10.920  10.854  69.244  1.00  0.00    -0.244 C  
HETATM   14  N   UNL     1     -11.965  10.933  68.383  1.00  0.00    -0.381 N  
HETATM   15  O   UNL     1     -10.897  10.045  70.158  1.00  0.00    -0.267 OA 
HETATM   16  H1  UNL     1     -12.691  10.247  68.587  1.00  0.00     0.000 HD 
HETATM   17  H2  UNL     1     -12.018  11.605  67.617  1.00  0.00     0.000 HD 
ENDBRANCH  11  13
ENDBRANCH  10  11
ENDBRANCH   9  10
ENDBRANCH   8   9
ENDBRANCH   2   8
TORSDOF 5
ENDMDL
MODEL      109
REMARK 921   NORMALIZED FREE ENERGY PREDICTED BY IDOCK:   -3.12 KCAL/MOL
REMARK 922        TOTAL FREE ENERGY PREDICTED BY IDOCK:   -4.91 KCAL/MOL
REMARK 923 INTER-LIGAND FREE ENERGY PREDICTED BY IDOCK:   -4.70 KCAL/MOL
REMARK 924 INTRA-LIGAND FREE ENERGY PREDICTED BY IDOCK:   -0.21 KCAL/MOL
REMARK 927      BINDING AFFINITY PREDICTED BY RF-SCORE:    0.00 PKD
ROOT
HETATM    1  N   UNL     1     -11.395  11.324  70.292  1.00  0.00    -0.491 NA 
HETATM    2  CA  UNL     1     -11.727   9.971  70.831  1.00  0.00    -0.374 C  
HETATM    3  H1  UNL     1     -12.200  11.772  69.855  1.00  0.00     0.000 HD 
HETATM    4  H2  UNL     1     -10.603  11.282  69.651  1.00  0.00     0.000 HD 
HETATM    5  C   UNL     1     -12.862  10.124  71.862  1.00  0.00    -0.427 C  
HETATM    6  OXT UNL     1     -13.305   9.228  72.562  1.00  0.00    -0.457 OA 
HETATM    7  O   UNL     1     -13.328  11.401  71.895  1.00  0.00    -0.435 OA 
ENDROOT
BRANCH   2   8
HETATM    8  C   UNL     1     -10.518   9.298  71.488  1.00  0.00    -0.385 C  
BRANCH   8   9
HETATM    9  C   UNL     1     -10.029   8.055  70.743  1.00  0.00    -0.202 C  
BRANCH   9  10
HETATM   10  C   UNL     1     -10.499   8.072  69.290  1.00  0.00    -0.215 C  
BRANCH  10  11
HETATM   11  N   UNL     1     -11.237   6.873  68.961  1.00  0.00    -0.505 N  
HETATM   12  H   UNL     1     -12.060   6.630  69.513  1.00  0.00     0.000 HD 
BRANCH  11  13
HETATM   13  C   UNL     1     -10.865   6.059  67.934  1.00  0.00    -0.290 C  
HETATM   14  N   UNL     1     -11.395   6.446  66.748  1.00  0.00    -0.769 N  
HETATM   15  O   UNL     1     -10.149   5.075  68.031  1.00  0.00    -0.153 OA 
HETATM   16  H1  UNL     1     -11.117   5.837  65.978  1.00  0.00     0.000 HD 
HETATM   17  H2  UNL     1     -12.005   7.257  66.637  1.00  0.00     0.000 HD 
ENDBRANCH  11  13
ENDBRANCH  10  11
ENDBRANCH   9  10
ENDBRANCH   8   9
ENDBRANCH   2   8
TORSDOF 5
ENDMDL
MODEL      110
REMARK 921   NORMALIZED FREE ENERGY PREDICTED BY IDOCK:   -3.11 KCAL/MOL
REMARK 922        TOTAL FREE ENERGY PREDICTED BY IDOCK:   -4.90 KCAL/MOL
REMARK 923 INTER-LIGAND FREE ENERGY PREDICTED BY IDOCK:   -4.73 KCAL/MOL
REMARK 924 INTRA-LIGAND FREE ENERGY PREDICTED BY IDOCK:   -0.16 KCAL/MOL
REMARK 927      BINDING AFFINITY PREDICTED BY RF-SCORE:    0.00 PKD
ROOT
HETATM    1  N   UNL     1     -12.521  10.885  69.246  1.00  0.00    -0.643 NA 
HETATM    2  CA  UNL     1     -11.655  12.069  68.961  1.00  0.00    -0.313 C  
HETATM    3  H1  UNL     1     -12.344  10.492  70.170  1.00  0.00     0.000 HD 
HETATM    4  H2  UNL     1     -12.428  10.176  68.519  1.00  0.00     0.000 HD 
HETATM    5  C   UNL     1     -11.920  13.135  70.042  1.00  0.00    -0.321 C  
HETATM    6  OXT UNL     1     -11.451  14.261  70.051  1.00  0.00    -0.260 OA 
HETATM    7  O   UNL     1     -12.751  12.662  71.008  1.00  0.00    -0.324 OA 
ENDROOT
BRANCH   2   8
HETATM    8  C   UNL     1     -11.921  12.660  67.574  1.00  0.00    -0.314 C  
BRANCH   8   9
HETATM    9  C   UNL     1     -10.782  12.427  66.580  1.00  0.00    -0.265 C  
BRANCH   9  10
HETATM   10  C   UNL     1     -10.890  13.383  65.394  1.00  0.00    -0.294 C  
BRANCH  10  11
HETATM   11  N   UNL     1     -10.002  12.994  64.321  1.00  0.00    -0.621 N  
HETATM   12  H   UNL     1      -9.367  13.688  63.928  1.00  0.00     0.000 HD 
BRANCH  11  13
HETATM   13  C   UNL     1      -9.991  11.727  63.821  1.00  0.00    -0.355 C  
HETATM   14  N   UNL     1     -11.186  11.370  63.288  1.00  0.00    -0.838 N  
HETATM   15  O   UNL     1      -9.040  10.962  63.843  1.00  0.00    -0.187 OA 
HETATM   16  H1  UNL     1     -11.178  10.421  62.914  1.00  0.00     0.000 HD 
HETATM   17  H2  UNL     1     -12.002  11.982  63.264  1.00  0.00     0.000 HD 
ENDBRANCH  11  13
ENDBRANCH  10  11
ENDBRANCH   9  10
ENDBRANCH   8   9
ENDBRANCH   2   8
TORSDOF 5
ENDMDL
MODEL      111
REMARK 921   NORMALIZED FREE ENERGY PREDICTED BY IDOCK:   -3.11 KCAL/MOL
REMARK 922        TOTAL FREE ENERGY PREDICTED BY IDOCK:   -4.89 KCAL/MOL
REMARK 923 INTER-LIGAND FREE ENERGY PREDICTED BY IDOCK:   -4.55 KCAL/MOL
REMARK 924 INTRA-LIGAND FREE ENERGY PREDICTED BY IDOCK:   -0.34 KCAL/MOL
REMARK 927      BINDING AFFINITY PREDICTED BY RF-SCORE:    0.00 PKD
ROOT
HETATM    1  N   UNL     1      -9.424  15.322  66.605  1.00  0.00    -0.242 NA 
HETATM    2  CA  UNL     1     -10.581  16.151  66.149  1.00  0.00    -0.283 C  
HETATM    3  H1  UNL     1      -9.672  14.338  66.704  1.00  0.00     0.000 HD 
HETATM    4  H2  UNL     1      -9.024  15.691  67.468  1.00  0.00     0.000 HD 
HETATM    5  C   UNL     1     -11.071  15.598  64.797  1.00  0.00    -0.412 C  
HETATM    6  OXT UNL     1     -11.937  16.102  64.101  1.00  0.00    -0.774 OA 
HETATM    7  O   UNL     1     -10.416  14.453  64.466  1.00  0.00    -0.349 OA 
ENDROOT
BRANCH   2   8
HETATM    8  C   UNL     1     -10.210  17.630  66.000  1.00  0.00    -0.301 C  
BRANCH   8   9
HETATM    9  C   UNL     1     -10.531  18.469  67.238  1.00  0.00    -0.455 C  
BRANCH   9  10
HETATM   10  C   UNL     1      -9.822  17.913  68.471  1.00  0.00    -0.367 C  
BRANCH  10  11
HETATM   11  N   UNL     1     -10.770  17.512  69.487  1.00  0.00    -0.273 N  
HETATM   12  H   UNL     1     -11.282  18.231  69.999  1.00  0.00     0.000 HD 
BRANCH  11  13
HETATM   13  C   UNL     1     -10.998  16.202  69.780  1.00  0.00    -0.349 C  
HETATM   14  N   UNL     1      -9.864  15.459  69.751  1.00  0.00    -0.386 N  
HETATM   15  O   UNL     1     -12.087  15.708  70.031  1.00  0.00    -0.360 OA 
HETATM   16  H1  UNL     1     -10.035  14.478  69.970  1.00  0.00     0.000 HD 
HETATM   17  H2  UNL     1      -8.943  15.840  69.535  1.00  0.00     0.000 HD 
ENDBRANCH  11  13
ENDBRANCH  10  11
ENDBRANCH   9  10
ENDBRANCH   8   9
ENDBRANCH   2   8
TORSDOF 5
ENDMDL
MODEL      112
REMARK 921   NORMALIZED FREE ENERGY PREDICTED BY IDOCK:   -3.10 KCAL/MOL
REMARK 922        TOTAL FREE ENERGY PREDICTED BY IDOCK:   -4.88 KCAL/MOL
REMARK 923 INTER-LIGAND FREE ENERGY PREDICTED BY IDOCK:   -4.71 KCAL/MOL
REMARK 924 INTRA-LIGAND FREE ENERGY PREDICTED BY IDOCK:   -0.17 KCAL/MOL
REMARK 927      BINDING AFFINITY PREDICTED BY RF-SCORE:    0.00 PKD
ROOT
HETATM    1  N   UNL     1     -11.234   7.279  73.497  1.00  0.00    -0.570 NA 
HETATM    2  CA  UNL     1     -11.889   7.524  72.177  1.00  0.00    -0.298 C  
HETATM    3  H1  UNL     1     -11.452   6.356  73.870  1.00  0.00     0.000 HD 
HETATM    4  H2  UNL     1     -11.468   8.013  74.167  1.00  0.00     0.000 HD 
HETATM    5  C   UNL     1     -11.415   6.439  71.191  1.00  0.00    -0.323 C  
HETATM    6  OXT UNL     1     -11.681   6.402  70.001  1.00  0.00    -0.429 OA 
HETATM    7  O   UNL     1     -10.653   5.503  71.818  1.00  0.00    -0.225 OA 
ENDROOT
BRANCH   2   8
HETATM    8  C   UNL     1     -11.561   8.912  71.617  1.00  0.00    -0.408 C  
BRANCH   8   9
HETATM    9  C   UNL     1     -12.683   9.933  71.815  1.00  0.00    -0.523 C  
BRANCH   9  10
HETATM   10  C   UNL     1     -12.856  10.799  70.569  1.00  0.00    -0.256 C  
BRANCH  10  11
HETATM   11  N   UNL     1     -11.648  11.536  70.268  1.00  0.00    -0.504 N  
HETATM   12  H   UNL     1     -11.058  11.856  71.037  1.00  0.00     0.000 HD 
BRANCH  11  13
HETATM   13  C   UNL     1     -11.277  11.816  68.988  1.00  0.00    -0.265 C  
HETATM   14  N   UNL     1      -9.931  11.831  68.830  1.00  0.00    -0.398 N  
HETATM   15  O   UNL     1     -12.038  12.048  68.062  1.00  0.00    -0.514 OA 
HETATM   16  H1  UNL     1      -9.652  12.041  67.872  1.00  0.00     0.000 HD 
HETATM   17  H2  UNL     1      -9.269  11.653  69.587  1.00  0.00     0.000 HD 
ENDBRANCH  11  13
ENDBRANCH  10  11
ENDBRANCH   9  10
ENDBRANCH   8   9
ENDBRANCH   2   8
TORSDOF 5
ENDMDL
MODEL      113
REMARK 921   NORMALIZED FREE ENERGY PREDICTED BY IDOCK:   -3.09 KCAL/MOL
REMARK 922        TOTAL FREE ENERGY PREDICTED BY IDOCK:   -4.87 KCAL/MOL
REMARK 923 INTER-LIGAND FREE ENERGY PREDICTED BY IDOCK:   -4.69 KCAL/MOL
REMARK 924 INTRA-LIGAND FREE ENERGY PREDICTED BY IDOCK:   -0.18 KCAL/MOL
REMARK 927      BINDING AFFINITY PREDICTED BY RF-SCORE:    0.00 PKD
ROOT
HETATM    1  N   UNL     1     -10.471  18.613  66.183  1.00  0.00    -0.449 NA 
HETATM    2  CA  UNL     1     -10.363  17.303  66.893  1.00  0.00    -0.310 C  
HETATM    3  H1  UNL     1     -10.808  19.356  66.795  1.00  0.00     0.000 HD 
HETATM    4  H2  UNL     1     -11.051  18.533  65.347  1.00  0.00     0.000 HD 
HETATM    5  C   UNL     1      -9.399  17.474  68.083  1.00  0.00    -0.276 C  
HETATM    6  OXT UNL     1      -9.012  16.576  68.812  1.00  0.00    -0.232 OA 
HETATM    7  O   UNL     1      -9.028  18.774  68.233  1.00  0.00    -0.304 OA 
ENDROOT
BRANCH   2   8
HETATM    8  C   UNL     1      -9.857  16.187  65.973  1.00  0.00    -0.375 C  
BRANCH   8   9
HETATM    9  C   UNL     1     -10.842  15.815  64.864  1.00  0.00    -0.433 C  
BRANCH   9  10
HETATM   10  C   UNL     1     -10.728  14.334  64.510  1.00  0.00    -0.259 C  
BRANCH  10  11
HETATM   11  N   UNL     1     -10.877  13.499  65.682  1.00  0.00    -0.284 N  
HETATM   12  H   UNL     1     -10.153  13.518  66.400  1.00  0.00     0.000 HD 
BRANCH  11  13
HETATM   13  C   UNL     1     -11.959  12.689  65.854  1.00  0.00    -0.438 C  
HETATM   14  N   UNL     1     -12.893  12.859  64.887  1.00  0.00    -0.738 N  
HETATM   15  O   UNL     1     -12.115  11.897  66.771  1.00  0.00    -0.593 OA 
HETATM   16  H1  UNL     1     -13.703  12.253  65.016  1.00  0.00     0.000 HD 
HETATM   17  H2  UNL     1     -12.796  13.520  64.116  1.00  0.00     0.000 HD 
ENDBRANCH  11  13
ENDBRANCH  10  11
ENDBRANCH   9  10
ENDBRANCH   8   9
ENDBRANCH   2   8
TORSDOF 5
ENDMDL
MODEL      114
REMARK 921   NORMALIZED FREE ENERGY PREDICTED BY IDOCK:   -3.09 KCAL/MOL
REMARK 922        TOTAL FREE ENERGY PREDICTED BY IDOCK:   -4.87 KCAL/MOL
REMARK 923 INTER-LIGAND FREE ENERGY PREDICTED BY IDOCK:   -4.59 KCAL/MOL
REMARK 924 INTRA-LIGAND FREE ENERGY PREDICTED BY IDOCK:   -0.28 KCAL/MOL
REMARK 927      BINDING AFFINITY PREDICTED BY RF-SCORE:    0.00 PKD
ROOT
HETATM    1  N   UNL     1      -9.820  12.880  63.734  1.00  0.00    -0.710 NA 
HETATM    2  CA  UNL     1     -10.707  12.804  64.934  1.00  0.00    -0.305 C  
HETATM    3  H1  UNL     1     -10.009  12.132  63.067  1.00  0.00     0.000 HD 
HETATM    4  H2  UNL     1      -8.836  12.895  64.003  1.00  0.00     0.000 HD 
HETATM    5  C   UNL     1     -12.171  12.885  64.461  1.00  0.00    -0.426 C  
HETATM    6  OXT UNL     1     -13.146  12.950  65.192  1.00  0.00    -0.753 OA 
HETATM    7  O   UNL     1     -12.252  12.869  63.104  1.00  0.00    -0.557 OA 
ENDROOT
BRANCH   2   8
HETATM    8  C   UNL     1     -10.423  13.928  65.935  1.00  0.00    -0.309 C  
BRANCH   8   9
HETATM    9  C   UNL     1     -10.425  15.323  65.307  1.00  0.00    -0.436 C  
BRANCH   9  10
HETATM   10  C   UNL     1      -9.723  16.329  66.216  1.00  0.00    -0.304 C  
BRANCH  10  11
HETATM   11  N   UNL     1      -9.432  15.756  67.511  1.00  0.00    -0.217 N  
HETATM   12  H   UNL     1     -10.152  15.210  67.985  1.00  0.00     0.000 HD 
BRANCH  11  13
HETATM   13  C   UNL     1      -8.224  15.924  68.117  1.00  0.00    -0.149 C  
HETATM   14  N   UNL     1      -7.199  15.443  67.371  1.00  0.00    -0.199 N  
HETATM   15  O   UNL     1      -8.043  16.432  69.213  1.00  0.00    -0.228 OA 
HETATM   16  H1  UNL     1      -6.294  15.569  67.825  1.00  0.00     0.000 HD 
HETATM   17  H2  UNL     1      -7.320  15.004  66.458  1.00  0.00     0.000 HD 
ENDBRANCH  11  13
ENDBRANCH  10  11
ENDBRANCH   9  10
ENDBRANCH   8   9
ENDBRANCH   2   8
TORSDOF 5
ENDMDL
MODEL      115
REMARK 921   NORMALIZED FREE ENERGY PREDICTED BY IDOCK:   -3.09 KCAL/MOL
REMARK 922        TOTAL FREE ENERGY PREDICTED BY IDOCK:   -4.87 KCAL/MOL
REMARK 923 INTER-LIGAND FREE ENERGY PREDICTED BY IDOCK:   -4.15 KCAL/MOL
REMARK 924 INTRA-LIGAND FREE ENERGY PREDICTED BY IDOCK:   -0.72 KCAL/MOL
REMARK 927      BINDING AFFINITY PREDICTED BY RF-SCORE:    0.00 PKD
ROOT
HETATM    1  N   UNL     1     -10.244   8.893  71.532  1.00  0.00    -0.300 NA 
HETATM    2  CA  UNL     1     -10.361   7.845  70.474  1.00  0.00    -0.205 C  
HETATM    3  H1  UNL     1      -9.393   9.446  71.434  1.00  0.00     0.000 HD 
HETATM    4  H2  UNL     1     -10.314   8.485  72.464  1.00  0.00     0.000 HD 
HETATM    5  C   UNL     1     -10.346   8.541  69.099  1.00  0.00    -0.217 C  
HETATM    6  OXT UNL     1     -10.522   7.987  68.026  1.00  0.00    -0.215 OA 
HETATM    7  O   UNL     1     -10.102   9.873  69.223  1.00  0.00    -0.180 OA 
ENDROOT
BRANCH   2   8
HETATM    8  C   UNL     1     -11.640   7.015  70.621  1.00  0.00    -0.379 C  
BRANCH   8   9
HETATM    9  C   UNL     1     -12.363   7.234  71.951  1.00  0.00    -0.346 C  
BRANCH   9  10
HETATM   10  C   UNL     1     -13.578   8.140  71.766  1.00  0.00    -0.359 C  
BRANCH  10  11
HETATM   11  N   UNL     1     -13.367   9.436  72.372  1.00  0.00    -0.557 N  
HETATM   12  H   UNL     1     -13.387   9.517  73.388  1.00  0.00     0.000 HD 
BRANCH  11  13
HETATM   13  C   UNL     1     -13.141  10.551  71.624  1.00  0.00    -0.446 C  
HETATM   14  N   UNL     1     -13.061  10.279  70.298  1.00  0.00    -0.527 N  
HETATM   15  O   UNL     1     -13.005  11.684  72.059  1.00  0.00    -0.416 OA 
HETATM   16  H1  UNL     1     -12.892  11.113  69.737  1.00  0.00     0.000 HD 
HETATM   17  H2  UNL     1     -13.159   9.342  69.905  1.00  0.00     0.000 HD 
ENDBRANCH  11  13
ENDBRANCH  10  11
ENDBRANCH   9  10
ENDBRANCH   8   9
ENDBRANCH   2   8
TORSDOF 5
ENDMDL
MODEL      116
REMARK 921   NORMALIZED FREE ENERGY PREDICTED BY IDOCK:   -3.08 KCAL/MOL
REMARK 922        TOTAL FREE ENERGY PREDICTED BY IDOCK:   -4.85 KCAL/MOL
REMARK 923 INTER-LIGAND FREE ENERGY PREDICTED BY IDOCK:   -4.55 KCAL/MOL
REMARK 924 INTRA-LIGAND FREE ENERGY PREDICTED BY IDOCK:   -0.30 KCAL/MOL
REMARK 927      BINDING AFFINITY PREDICTED BY RF-SCORE:    0.00 PKD
ROOT
HETATM    1  N   UNL     1     -11.056  13.541  67.524  1.00  0.00    -0.267 NA 
HETATM    2  CA  UNL     1     -11.353  13.789  68.967  1.00  0.00    -0.289 C  
HETATM    3  H1  UNL     1     -10.458  12.726  67.389  1.00  0.00     0.000 HD 
HETATM    4  H2  UNL     1     -10.656  14.369  67.083  1.00  0.00     0.000 HD 
HETATM    5  C   UNL     1     -12.042  12.536  69.543  1.00  0.00    -0.187 C  
HETATM    6  OXT UNL     1     -12.506  12.440  70.667  1.00  0.00    -0.315 OA 
HETATM    7  O   UNL     1     -12.067  11.526  68.633  1.00  0.00    -0.483 OA 
ENDROOT
BRANCH   2   8
HETATM    8  C   UNL     1     -12.250  15.013  69.171  1.00  0.00    -0.186 C  
BRANCH   8   9
HETATM    9  C   UNL     1     -11.530  16.200  69.812  1.00  0.00    -0.282 C  
BRANCH   9  10
HETATM   10  C   UNL     1     -11.074  15.859  71.229  1.00  0.00    -0.134 C  
BRANCH  10  11
HETATM   11  N   UNL     1     -11.890  16.524  72.220  1.00  0.00    -0.613 N  
HETATM   12  H   UNL     1     -11.672  17.487  72.477  1.00  0.00     0.000 HD 
BRANCH  11  13
HETATM   13  C   UNL     1     -12.942  15.901  72.820  1.00  0.00    -0.483 C  
HETATM   14  N   UNL     1     -13.151  16.338  74.086  1.00  0.00    -0.942 N  
HETATM   15  O   UNL     1     -13.636  15.032  72.315  1.00  0.00    -0.367 OA 
HETATM   16  H1  UNL     1     -13.938  15.872  74.536  1.00  0.00     0.000 HD 
HETATM   17  H2  UNL     1     -12.582  17.055  74.539  1.00  0.00     0.000 HD 
ENDBRANCH  11  13
ENDBRANCH  10  11
ENDBRANCH   9  10
ENDBRANCH   8   9
ENDBRANCH   2   8
TORSDOF 5
ENDMDL
MODEL      117
REMARK 921   NORMALIZED FREE ENERGY PREDICTED BY IDOCK:   -3.07 KCAL/MOL
REMARK 922        TOTAL FREE ENERGY PREDICTED BY IDOCK:   -4.85 KCAL/MOL
REMARK 923 INTER-LIGAND FREE ENERGY PREDICTED BY IDOCK:   -4.11 KCAL/MOL
REMARK 924 INTRA-LIGAND FREE ENERGY PREDICTED BY IDOCK:   -0.74 KCAL/MOL
REMARK 927      BINDING AFFINITY PREDICTED BY RF-SCORE:    0.00 PKD
ROOT
HETATM    1  N   UNL     1     -10.549  19.591  68.416  1.00  0.00    -0.443 NA 
HETATM    2  CA  UNL     1     -10.492  19.432  66.932  1.00  0.00    -0.464 C  
HETATM    3  H1  UNL     1     -11.411  19.216  68.811  1.00  0.00     0.000 HD 
HETATM    4  H2  UNL     1     -10.412  20.565  68.688  1.00  0.00     0.000 HD 
HETATM    5  C   UNL     1     -10.607  17.932  66.600  1.00  0.00    -0.238 C  
HETATM    6  OXT UNL     1     -10.497  17.445  65.487  1.00  0.00    -0.624 OA 
HETATM    7  O   UNL     1     -10.857  17.198  67.718  1.00  0.00    -0.348 OA 
ENDROOT
BRANCH   2   8
HETATM    8  C   UNL     1      -9.197  19.996  66.339  1.00  0.00    -0.453 C  
BRANCH   8   9
HETATM    9  C   UNL     1      -8.360  20.792  67.342  1.00  0.00    -0.216 C  
BRANCH   9  10
HETATM   10  C   UNL     1      -7.167  19.972  67.827  1.00  0.00    -0.291 C  
BRANCH  10  11
HETATM   11  N   UNL     1      -7.536  19.102  68.922  1.00  0.00    -0.346 N  
HETATM   12  H   UNL     1      -8.215  19.431  69.609  1.00  0.00     0.000 HD 
BRANCH  11  13
HETATM   13  C   UNL     1      -7.002  17.857  69.062  1.00  0.00    -0.243 C  
HETATM   14  N   UNL     1      -7.904  16.875  68.816  1.00  0.00    -0.244 N  
HETATM   15  O   UNL     1      -5.851  17.609  69.386  1.00  0.00    -0.202 OA 
HETATM   16  H1  UNL     1      -7.505  15.943  68.921  1.00  0.00     0.000 HD 
HETATM   17  H2  UNL     1      -8.875  17.050  68.555  1.00  0.00     0.000 HD 
ENDBRANCH  11  13
ENDBRANCH  10  11
ENDBRANCH   9  10
ENDBRANCH   8   9
ENDBRANCH   2   8
TORSDOF 5
ENDMDL
MODEL      118
REMARK 921   NORMALIZED FREE ENERGY PREDICTED BY IDOCK:   -3.07 KCAL/MOL
REMARK 922        TOTAL FREE ENERGY PREDICTED BY IDOCK:   -4.85 KCAL/MOL
REMARK 923 INTER-LIGAND FREE ENERGY PREDICTED BY IDOCK:   -4.23 KCAL/MOL
REMARK 924 INTRA-LIGAND FREE ENERGY PREDICTED BY IDOCK:   -0.62 KCAL/MOL
REMARK 927      BINDING AFFINITY PREDICTED BY RF-SCORE:    0.00 PKD
ROOT
HETATM    1  N   UNL     1     -11.291   9.862  70.197  1.00  0.00    -0.266 NA 
HETATM    2  CA  UNL     1     -12.526   9.966  71.032  1.00  0.00    -0.346 C  
HETATM    3  H1  UNL     1     -11.369  10.387  69.327  1.00  0.00     0.000 HD 
HETATM    4  H2  UNL     1     -11.048   8.887  70.020  1.00  0.00     0.000 HD 
HETATM    5  C   UNL     1     -12.777  11.455  71.343  1.00  0.00    -0.384 C  
HETATM    6  OXT UNL     1     -13.646  11.884  72.083  1.00  0.00    -0.377 OA 
HETATM    7  O   UNL     1     -11.901  12.252  70.675  1.00  0.00    -0.232 OA 
ENDROOT
BRANCH   2   8
HETATM    8  C   UNL     1     -12.409   9.177  72.340  1.00  0.00    -0.310 C  
BRANCH   8   9
HETATM    9  C   UNL     1     -11.172   8.279  72.404  1.00  0.00    -0.451 C  
BRANCH   9  10
HETATM   10  C   UNL     1     -11.548   6.819  72.167  1.00  0.00    -0.288 C  
BRANCH  10  11
HETATM   11  N   UNL     1     -12.063   6.617  70.831  1.00  0.00    -0.366 N  
HETATM   12  H   UNL     1     -13.059   6.756  70.657  1.00  0.00     0.000 HD 
BRANCH  11  13
HETATM   13  C   UNL     1     -11.257   6.247  69.798  1.00  0.00    -0.430 C  
HETATM   14  N   UNL     1     -11.282   7.137  68.775  1.00  0.00    -0.471 N  
HETATM   15  O   UNL     1     -10.582   5.230  69.752  1.00  0.00    -0.307 OA 
HETATM   16  H1  UNL     1     -10.678   6.860  68.002  1.00  0.00     0.000 HD 
HETATM   17  H2  UNL     1     -11.844   7.989  68.780  1.00  0.00     0.000 HD 
ENDBRANCH  11  13
ENDBRANCH  10  11
ENDBRANCH   9  10
ENDBRANCH   8   9
ENDBRANCH   2   8
TORSDOF 5
ENDMDL
MODEL      119
REMARK 921   NORMALIZED FREE ENERGY PREDICTED BY IDOCK:   -3.06 KCAL/MOL
REMARK 922        TOTAL FREE ENERGY PREDICTED BY IDOCK:   -4.83 KCAL/MOL
REMARK 923 INTER-LIGAND FREE ENERGY PREDICTED BY IDOCK:   -4.69 KCAL/MOL
REMARK 924 INTRA-LIGAND FREE ENERGY PREDICTED BY IDOCK:   -0.14 KCAL/MOL
REMARK 927      BINDING AFFINITY PREDICTED BY RF-SCORE:    0.00 PKD
ROOT
HETATM    1  N   UNL     1      -9.529  11.719  65.262  1.00  0.00    -0.387 NA 
HETATM    2  CA  UNL     1     -10.963  11.617  65.670  1.00  0.00    -0.266 C  
HETATM    3  H1  UNL     1      -9.378  11.402  64.305  1.00  0.00     0.000 HD 
HETATM    4  H2  UNL     1      -8.925  11.221  65.916  1.00  0.00     0.000 HD 
HETATM    5  C   UNL     1     -11.804  12.470  64.699  1.00  0.00    -0.378 C  
HETATM    6  OXT UNL     1     -13.000  12.685  64.805  1.00  0.00    -0.816 OA 
HETATM    7  O   UNL     1     -11.042  12.958  63.685  1.00  0.00    -0.419 OA 
ENDROOT
BRANCH   2   8
HETATM    8  C   UNL     1     -11.191  12.093  67.108  1.00  0.00    -0.372 C  
BRANCH   8   9
HETATM    9  C   UNL     1     -10.321  11.370  68.137  1.00  0.00    -0.206 C  
BRANCH   9  10
HETATM   10  C   UNL     1     -11.186  10.628  69.154  1.00  0.00    -0.265 C  
BRANCH  10  11
HETATM   11  N   UNL     1     -12.003  11.545  69.919  1.00  0.00    -0.336 N  
HETATM   12  H   UNL     1     -12.181  12.478  69.548  1.00  0.00     0.000 HD 
BRANCH  11  13
HETATM   13  C   UNL     1     -12.540  11.196  71.121  1.00  0.00    -0.409 C  
HETATM   14  N   UNL     1     -12.374   9.880  71.401  1.00  0.00    -0.374 N  
HETATM   15  O   UNL     1     -13.126  11.949  71.883  1.00  0.00    -0.458 OA 
HETATM   16  H1  UNL     1     -12.777   9.618  72.301  1.00  0.00     0.000 HD 
HETATM   17  H2  UNL     1     -11.900   9.224  70.780  1.00  0.00     0.000 HD 
ENDBRANCH  11  13
ENDBRANCH  10  11
ENDBRANCH   9  10
ENDBRANCH   8   9
ENDBRANCH   2   8
TORSDOF 5
ENDMDL
MODEL      120
REMARK 921   NORMALIZED FREE ENERGY PREDICTED BY IDOCK:   -3.06 KCAL/MOL
REMARK 922        TOTAL FREE ENERGY PREDICTED BY IDOCK:   -4.83 KCAL/MOL
REMARK 923 INTER-LIGAND FREE ENERGY PREDICTED BY IDOCK:   -4.23 KCAL/MOL
REMARK 924 INTRA-LIGAND FREE ENERGY PREDICTED BY IDOCK:   -0.60 KCAL/MOL
REMARK 927      BINDING AFFINITY PREDICTED BY RF-SCORE:    0.00 PKD
ROOT
HETATM    1  N   UNL     1     -12.070  10.019  69.874  1.00  0.00    -0.478 NA 
HETATM    2  CA  UNL     1     -13.039  10.339  70.965  1.00  0.00    -0.373 C  
HETATM    3  H1  UNL     1     -12.214  10.600  69.049  1.00  0.00     0.000 HD 
HETATM    4  H2  UNL     1     -12.097   9.027  69.637  1.00  0.00     0.000 HD 
HETATM    5  C   UNL     1     -12.874  11.825  71.339  1.00  0.00    -0.335 C  
HETATM    6  OXT UNL     1     -13.443  12.388  72.260  1.00  0.00    -0.541 OA 
HETATM    7  O   UNL     1     -12.007  12.451  70.499  1.00  0.00    -0.330 OA 
ENDROOT
BRANCH   2   8
HETATM    8  C   UNL     1     -12.823   9.466  72.205  1.00  0.00    -0.452 C  
BRANCH   8   9
HETATM    9  C   UNL     1     -12.296   8.067  71.885  1.00  0.00    -0.360 C  
BRANCH   9  10
HETATM   10  C   UNL     1     -11.003   7.785  72.646  1.00  0.00    -0.364 C  
BRANCH  10  11
HETATM   11  N   UNL     1      -9.946   8.685  72.240  1.00  0.00    -0.311 N  
HETATM   12  H   UNL     1      -9.667   9.437  72.870  1.00  0.00     0.000 HD 
BRANCH  11  13
HETATM   13  C   UNL     1      -9.314   8.557  71.041  1.00  0.00    -0.185 C  
HETATM   14  N   UNL     1      -9.139   9.748  70.417  1.00  0.00    -0.351 N  
HETATM   15  O   UNL     1      -8.943   7.506  70.542  1.00  0.00    -0.150 OA 
HETATM   16  H1  UNL     1      -8.665   9.652  69.519  1.00  0.00     0.000 HD 
HETATM   17  H2  UNL     1      -9.447  10.641  70.803  1.00  0.00     0.000 HD 
ENDBRANCH  11  13
ENDBRANCH  10  11
ENDBRANCH   9  10
ENDBRANCH   8   9
ENDBRANCH   2   8
TORSDOF 5
ENDMDL
MODEL      121
REMARK 921   NORMALIZED FREE ENERGY PREDICTED BY IDOCK:   -3.02 KCAL/MOL
REMARK 922        TOTAL FREE ENERGY PREDICTED BY IDOCK:   -4.79 KCAL/MOL
REMARK 923 INTER-LIGAND FREE ENERGY PREDICTED BY IDOCK:   -4.62 KCAL/MOL
REMARK 924 INTRA-LIGAND FREE ENERGY PREDICTED BY IDOCK:   -0.17 KCAL/MOL
REMARK 927      BINDING AFFINITY PREDICTED BY RF-SCORE:    0.00 PKD
ROOT
HETATM    1  N   UNL     1      -9.055  11.282  69.096  1.00  0.00    -0.402 NA 
HETATM    2  CA  UNL     1      -9.418  12.213  67.985  1.00  0.00    -0.201 C  
HETATM    3  H1  UNL     1      -8.202  10.760  68.897  1.00  0.00     0.000 HD 
HETATM    4  H2  UNL     1      -9.828  10.655  69.319  1.00  0.00     0.000 HD 
HETATM    5  C   UNL     1      -8.247  13.191  67.769  1.00  0.00    -0.168 C  
HETATM    6  OXT UNL     1      -8.254  14.143  67.005  1.00  0.00    -0.170 OA 
HETATM    7  O   UNL     1      -7.178  12.858  68.541  1.00  0.00    -0.097 OA 
ENDROOT
BRANCH   2   8
HETATM    8  C   UNL     1     -10.700  12.998  68.284  1.00  0.00    -0.261 C  
BRANCH   8   9
HETATM    9  C   UNL     1     -11.795  12.803  67.234  1.00  0.00    -0.414 C  
BRANCH   9  10
HETATM   10  C   UNL     1     -12.241  14.146  66.659  1.00  0.00    -0.418 C  
BRANCH  10  11
HETATM   11  N   UNL     1     -12.814  13.990  65.340  1.00  0.00    -0.716 N  
HETATM   12  H   UNL     1     -13.815  13.817  65.252  1.00  0.00     0.000 HD 
BRANCH  11  13
HETATM   13  C   UNL     1     -12.054  14.067  64.212  1.00  0.00    -0.445 C  
HETATM   14  N   UNL     1     -10.780  14.449  64.471  1.00  0.00    -0.616 N  
HETATM   15  O   UNL     1     -12.442  13.840  63.077  1.00  0.00    -0.712 OA 
HETATM   16  H1  UNL     1     -10.211  14.507  63.627  1.00  0.00     0.000 HD 
HETATM   17  H2  UNL     1     -10.429  14.656  65.407  1.00  0.00     0.000 HD 
ENDBRANCH  11  13
ENDBRANCH  10  11
ENDBRANCH   9  10
ENDBRANCH   8   9
ENDBRANCH   2   8
TORSDOF 5
ENDMDL
MODEL      122
REMARK 921   NORMALIZED FREE ENERGY PREDICTED BY IDOCK:   -3.02 KCAL/MOL
REMARK 922        TOTAL FREE ENERGY PREDICTED BY IDOCK:   -4.79 KCAL/MOL
REMARK 923 INTER-LIGAND FREE ENERGY PREDICTED BY IDOCK:   -4.31 KCAL/MOL
REMARK 924 INTRA-LIGAND FREE ENERGY PREDICTED BY IDOCK:   -0.47 KCAL/MOL
REMARK 927      BINDING AFFINITY PREDICTED BY RF-SCORE:    0.00 PKD
ROOT
HETATM    1  N   UNL     1     -12.264  12.329  67.144  1.00  0.00    -0.415 NA 
HETATM    2  CA  UNL     1     -11.092  13.064  66.579  1.00  0.00    -0.288 C  
HETATM    3  H1  UNL     1     -13.019  12.958  67.413  1.00  0.00     0.000 HD 
HETATM    4  H2  UNL     1     -11.984  11.733  67.923  1.00  0.00     0.000 HD 
HETATM    5  C   UNL     1     -11.567  13.862  65.349  1.00  0.00    -0.325 C  
HETATM    6  OXT UNL     1     -10.845  14.494  64.596  1.00  0.00    -0.391 OA 
HETATM    7  O   UNL     1     -12.917  13.785  65.204  1.00  0.00    -0.738 OA 
ENDROOT
BRANCH   2   8
HETATM    8  C   UNL     1      -9.957  12.118  66.174  1.00  0.00    -0.253 C  
BRANCH   8   9
HETATM    9  C   UNL     1     -10.408  10.671  65.970  1.00  0.00    -0.290 C  
BRANCH   9  10
HETATM   10  C   UNL     1      -9.997   9.801  67.156  1.00  0.00    -0.198 C  
BRANCH  10  11
HETATM   11  N   UNL     1     -11.075   9.667  68.110  1.00  0.00    -0.504 N  
HETATM   12  H   UNL     1     -11.985   9.340  67.787  1.00  0.00     0.000 HD 
BRANCH  11  13
HETATM   13  C   UNL     1     -10.909   9.965  69.429  1.00  0.00    -0.237 C  
HETATM   14  N   UNL     1      -9.687  10.492  69.691  1.00  0.00    -0.419 N  
HETATM   15  O   UNL     1     -11.735   9.780  70.309  1.00  0.00    -0.251 OA 
HETATM   16  H1  UNL     1      -9.562  10.715  70.678  1.00  0.00     0.000 HD 
HETATM   17  H2  UNL     1      -8.973  10.648  68.980  1.00  0.00     0.000 HD 
ENDBRANCH  11  13
ENDBRANCH  10  11
ENDBRANCH   9  10
ENDBRANCH   8   9
ENDBRANCH   2   8
TORSDOF 5
ENDMDL
MODEL      123
REMARK 921   NORMALIZED FREE ENERGY PREDICTED BY IDOCK:   -3.01 KCAL/MOL
REMARK 922        TOTAL FREE ENERGY PREDICTED BY IDOCK:   -4.77 KCAL/MOL
REMARK 923 INTER-LIGAND FREE ENERGY PREDICTED BY IDOCK:   -4.21 KCAL/MOL
REMARK 924 INTRA-LIGAND FREE ENERGY PREDICTED BY IDOCK:   -0.56 KCAL/MOL
REMARK 927      BINDING AFFINITY PREDICTED BY RF-SCORE:    0.00 PKD
ROOT
HETATM    1  N   UNL     1      -9.842   7.777  66.109  1.00  0.00    -0.460 NA 
HETATM    2  CA  UNL     1     -10.642   7.954  67.358  1.00  0.00    -0.272 C  
HETATM    3  H1  UNL     1     -10.222   8.314  65.329  1.00  0.00     0.000 HD 
HETATM    4  H2  UNL     1      -9.749   6.790  65.867  1.00  0.00     0.000 HD 
HETATM    5  C   UNL     1     -10.657   9.453  67.716  1.00  0.00    -0.258 C  
HETATM    6  OXT UNL     1     -11.138   9.932  68.730  1.00  0.00    -0.209 OA 
HETATM    7  O   UNL     1     -10.065  10.198  66.744  1.00  0.00    -0.201 OA 
ENDROOT
BRANCH   2   8
HETATM    8  C   UNL     1     -10.071   7.149  68.529  1.00  0.00    -0.177 C  
BRANCH   8   9
HETATM    9  C   UNL     1     -11.094   6.224  69.192  1.00  0.00    -0.457 C  
BRANCH   9  10
HETATM   10  C   UNL     1     -11.352   6.646  70.636  1.00  0.00    -0.347 C  
BRANCH  10  11
HETATM   11  N   UNL     1     -12.098   7.884  70.698  1.00  0.00    -0.492 N  
HETATM   12  H   UNL     1     -12.520   8.251  69.846  1.00  0.00     0.000 HD 
BRANCH  11  13
HETATM   13  C   UNL     1     -12.251   8.572  71.863  1.00  0.00    -0.352 C  
HETATM   14  N   UNL     1     -12.005   7.806  72.954  1.00  0.00    -0.609 N  
HETATM   15  O   UNL     1     -12.586   9.743  71.958  1.00  0.00    -0.380 OA 
HETATM   16  H1  UNL     1     -12.120   8.322  73.827  1.00  0.00     0.000 HD 
HETATM   17  H2  UNL     1     -11.735   6.824  72.908  1.00  0.00     0.000 HD 
ENDBRANCH  11  13
ENDBRANCH  10  11
ENDBRANCH   9  10
ENDBRANCH   8   9
ENDBRANCH   2   8
TORSDOF 5
ENDMDL
MODEL      124
REMARK 921   NORMALIZED FREE ENERGY PREDICTED BY IDOCK:   -2.99 KCAL/MOL
REMARK 922        TOTAL FREE ENERGY PREDICTED BY IDOCK:   -4.74 KCAL/MOL
REMARK 923 INTER-LIGAND FREE ENERGY PREDICTED BY IDOCK:   -4.17 KCAL/MOL
REMARK 924 INTRA-LIGAND FREE ENERGY PREDICTED BY IDOCK:   -0.57 KCAL/MOL
REMARK 927      BINDING AFFINITY PREDICTED BY RF-SCORE:    0.00 PKD
ROOT
HETATM    1  N   UNL     1      -5.713  17.788  68.672  1.00  0.00    -0.170 NA 
HETATM    2  CA  UNL     1      -6.644  18.444  67.705  1.00  0.00    -0.213 C  
HETATM    3  H1  UNL     1      -6.089  16.912  69.034  1.00  0.00     0.000 HD 
HETATM    4  H2  UNL     1      -5.461  18.423  69.430  1.00  0.00     0.000 HD 
HETATM    5  C   UNL     1      -6.903  17.467  66.542  1.00  0.00    -0.254 C  
HETATM    6  OXT UNL     1      -7.539  17.723  65.533  1.00  0.00    -0.489 OA 
HETATM    7  O   UNL     1      -6.331  16.256  66.779  1.00  0.00    -0.298 OA 
ENDROOT
BRANCH   2   8
HETATM    8  C   UNL     1      -6.080  19.760  67.161  1.00  0.00    -0.196 C  
BRANCH   8   9
HETATM    9  C   UNL     1      -7.137  20.851  66.982  1.00  0.00    -0.379 C  
BRANCH   9  10
HETATM   10  C   UNL     1      -8.440  20.466  67.678  1.00  0.00    -0.221 C  
BRANCH  10  11
HETATM   11  N   UNL     1      -9.584  20.716  66.830  1.00  0.00    -0.665 N  
HETATM   12  H   UNL     1      -9.850  21.679  66.627  1.00  0.00     0.000 HD 
BRANCH  11  13
HETATM   13  C   UNL     1     -10.316  19.700  66.294  1.00  0.00    -0.518 C  
HETATM   14  N   UNL     1     -10.225  18.557  67.017  1.00  0.00    -0.360 N  
HETATM   15  O   UNL     1     -10.981  19.766  65.271  1.00  0.00    -0.410 OA 
HETATM   16  H1  UNL     1     -10.773  17.797  66.616  1.00  0.00     0.000 HD 
HETATM   17  H2  UNL     1      -9.670  18.468  67.868  1.00  0.00     0.000 HD 
ENDBRANCH  11  13
ENDBRANCH  10  11
ENDBRANCH   9  10
ENDBRANCH   8   9
ENDBRANCH   2   8
TORSDOF 5
ENDMDL
MODEL      125
REMARK 921   NORMALIZED FREE ENERGY PREDICTED BY IDOCK:   -2.99 KCAL/MOL
REMARK 922        TOTAL FREE ENERGY PREDICTED BY IDOCK:   -4.74 KCAL/MOL
REMARK 923 INTER-LIGAND FREE ENERGY PREDICTED BY IDOCK:   -4.53 KCAL/MOL
REMARK 924 INTRA-LIGAND FREE ENERGY PREDICTED BY IDOCK:   -0.21 KCAL/MOL
REMARK 927      BINDING AFFINITY PREDICTED BY RF-SCORE:    0.00 PKD
ROOT
HETATM    1  N   UNL     1     -10.186  17.553  65.086  1.00  0.00    -0.111 NA 
HETATM    2  CA  UNL     1      -9.736  16.876  66.339  1.00  0.00    -0.284 C  
HETATM    3  H1  UNL     1     -10.023  18.559  65.112  1.00  0.00     0.000 HD 
HETATM    4  H2  UNL     1     -11.163  17.342  64.883  1.00  0.00     0.000 HD 
HETATM    5  C   UNL     1      -8.232  17.155  66.528  1.00  0.00    -0.273 C  
HETATM    6  OXT UNL     1      -7.528  16.670  67.398  1.00  0.00    -0.144 OA 
HETATM    7  O   UNL     1      -7.773  18.032  65.596  1.00  0.00    -0.539 OA 
ENDROOT
BRANCH   2   8
HETATM    8  C   UNL     1      -9.980  15.364  66.299  1.00  0.00    -0.308 C  
BRANCH   8   9
HETATM    9  C   UNL     1     -11.170  14.913  67.148  1.00  0.00    -0.345 C  
BRANCH   9  10
HETATM   10  C   UNL     1     -12.002  13.869  66.406  1.00  0.00    -0.438 C  
BRANCH  10  11
HETATM   11  N   UNL     1     -11.739  13.900  64.984  1.00  0.00    -0.343 N  
HETATM   12  H   UNL     1     -11.069  14.576  64.618  1.00  0.00     0.000 HD 
BRANCH  11  13
HETATM   13  C   UNL     1     -12.362  13.050  64.120  1.00  0.00    -0.358 C  
HETATM   14  N   UNL     1     -11.998  13.263  62.832  1.00  0.00    -0.630 N  
HETATM   15  O   UNL     1     -13.173  12.191  64.429  1.00  0.00    -0.758 OA 
HETATM   16  H1  UNL     1     -12.464  12.628  62.185  1.00  0.00     0.000 HD 
HETATM   17  H2  UNL     1     -11.332  13.980  62.542  1.00  0.00     0.000 HD 
ENDBRANCH  11  13
ENDBRANCH  10  11
ENDBRANCH   9  10
ENDBRANCH   8   9
ENDBRANCH   2   8
TORSDOF 5
ENDMDL
MODEL      126
REMARK 921   NORMALIZED FREE ENERGY PREDICTED BY IDOCK:   -2.96 KCAL/MOL
REMARK 922        TOTAL FREE ENERGY PREDICTED BY IDOCK:   -4.70 KCAL/MOL
REMARK 923 INTER-LIGAND FREE ENERGY PREDICTED BY IDOCK:   -3.90 KCAL/MOL
REMARK 924 INTRA-LIGAND FREE ENERGY PREDICTED BY IDOCK:   -0.80 KCAL/MOL
REMARK 927      BINDING AFFINITY PREDICTED BY RF-SCORE:    0.00 PKD
ROOT
HETATM    1  N   UNL     1     -10.539  11.971  68.489  1.00  0.00    -0.225 NA 
HETATM    2  CA  UNL     1     -11.470  10.880  68.907  1.00  0.00    -0.300 C  
HETATM    3  H1  UNL     1     -11.029  12.847  68.307  1.00  0.00     0.000 HD 
HETATM    4  H2  UNL     1      -9.978  11.688  67.685  1.00  0.00     0.000 HD 
HETATM    5  C   UNL     1     -12.211  11.336  70.179  1.00  0.00    -0.330 C  
HETATM    6  OXT UNL     1     -12.972  10.647  70.838  1.00  0.00    -0.370 OA 
HETATM    7  O   UNL     1     -11.917  12.628  70.484  1.00  0.00    -0.325 OA 
ENDROOT
BRANCH   2   8
HETATM    8  C   UNL     1     -10.735   9.564  69.180  1.00  0.00    -0.228 C  
BRANCH   8   9
HETATM    9  C   UNL     1      -9.502   9.726  70.071  1.00  0.00    -0.278 C  
BRANCH   9  10
HETATM   10  C   UNL     1      -9.629   8.878  71.334  1.00  0.00    -0.289 C  
BRANCH  10  11
HETATM   11  N   UNL     1     -10.901   8.190  71.381  1.00  0.00    -0.229 N  
HETATM   12  H   UNL     1     -11.367   7.951  70.506  1.00  0.00     0.000 HD 
BRANCH  11  13
HETATM   13  C   UNL     1     -11.492   7.851  72.560  1.00  0.00    -0.398 C  
HETATM   14  N   UNL     1     -12.805   8.184  72.596  1.00  0.00    -0.586 N  
HETATM   15  O   UNL     1     -10.934   7.320  73.508  1.00  0.00    -0.345 OA 
HETATM   16  H1  UNL     1     -13.248   7.931  73.479  1.00  0.00     0.000 HD 
HETATM   17  H2  UNL     1     -13.296   8.638  71.825  1.00  0.00     0.000 HD 
ENDBRANCH  11  13
ENDBRANCH  10  11
ENDBRANCH   9  10
ENDBRANCH   8   9
ENDBRANCH   2   8
TORSDOF 5
ENDMDL
MODEL      127
REMARK 921   NORMALIZED FREE ENERGY PREDICTED BY IDOCK:   -2.95 KCAL/MOL
REMARK 922        TOTAL FREE ENERGY PREDICTED BY IDOCK:   -4.68 KCAL/MOL
REMARK 923 INTER-LIGAND FREE ENERGY PREDICTED BY IDOCK:   -4.12 KCAL/MOL
REMARK 924 INTRA-LIGAND FREE ENERGY PREDICTED BY IDOCK:   -0.56 KCAL/MOL
REMARK 927      BINDING AFFINITY PREDICTED BY RF-SCORE:    0.00 PKD
ROOT
HETATM    1  N   UNL     1      -5.528  15.447  67.299  1.00  0.00    -0.312 NA 
HETATM    2  CA  UNL     1      -6.998  15.637  67.483  1.00  0.00    -0.189 C  
HETATM    3  H1  UNL     1      -5.135  14.800  67.982  1.00  0.00     0.000 HD 
HETATM    4  H2  UNL     1      -5.036  16.340  67.311  1.00  0.00     0.000 HD 
HETATM    5  C   UNL     1      -7.686  14.264  67.356  1.00  0.00    -0.173 C  
HETATM    6  OXT UNL     1      -8.891  14.075  67.356  1.00  0.00    -0.185 OA 
HETATM    7  O   UNL     1      -6.771  13.264  67.247  1.00  0.00    -0.172 OA 
ENDROOT
BRANCH   2   8
HETATM    8  C   UNL     1      -7.589  16.609  66.456  1.00  0.00    -0.327 C  
BRANCH   8   9
HETATM    9  C   UNL     1      -8.471  17.694  67.076  1.00  0.00    -0.252 C  
BRANCH   9  10
HETATM   10  C   UNL     1      -9.806  17.794  66.342  1.00  0.00    -0.324 C  
BRANCH  10  11
HETATM   11  N   UNL     1     -10.417  16.493  66.180  1.00  0.00    -0.315 N  
HETATM   12  H   UNL     1     -10.334  15.809  66.932  1.00  0.00     0.000 HD 
BRANCH  11  13
HETATM   13  C   UNL     1     -11.100  16.155  65.051  1.00  0.00    -0.294 C  
HETATM   14  N   UNL     1     -11.534  14.871  65.072  1.00  0.00    -0.373 N  
HETATM   15  O   UNL     1     -11.307  16.891  64.099  1.00  0.00    -1.208 OA 
HETATM   16  H1  UNL     1     -12.046  14.618  64.227  1.00  0.00     0.000 HD 
HETATM   17  H2  UNL     1     -11.368  14.229  65.848  1.00  0.00     0.000 HD 
ENDBRANCH  11  13
ENDBRANCH  10  11
ENDBRANCH   9  10
ENDBRANCH   8   9
ENDBRANCH   2   8
TORSDOF 5
ENDMDL
MODEL      128
REMARK 921   NORMALIZED FREE ENERGY PREDICTED BY IDOCK:   -2.92 KCAL/MOL
REMARK 922        TOTAL FREE ENERGY PREDICTED BY IDOCK:   -4.65 KCAL/MOL
REMARK 923 INTER-LIGAND FREE ENERGY PREDICTED BY IDOCK:   -4.09 KCAL/MOL
REMARK 924 INTRA-LIGAND FREE ENERGY PREDICTED BY IDOCK:   -0.56 KCAL/MOL
REMARK 927      BINDING AFFINITY PREDICTED BY RF-SCORE:    0.00 PKD
ROOT
HETATM    1  N   UNL     1      -7.953   6.553  71.414  1.00  0.00    -0.107 NA 
HETATM    2  CA  UNL     1      -9.252   7.204  71.065  1.00  0.00    -0.158 C  
HETATM    3  H1  UNL     1      -7.190   6.873  70.819  1.00  0.00     0.000 HD 
HETATM    4  H2  UNL     1      -8.034   5.536  71.396  1.00  0.00     0.000 HD 
HETATM    5  C   UNL     1      -9.084   8.729  71.208  1.00  0.00    -0.234 C  
HETATM    6  OXT UNL     1      -9.978   9.551  71.093  1.00  0.00    -0.269 OA 
HETATM    7  O   UNL     1      -7.792   9.059  71.476  1.00  0.00    -0.290 OA 
ENDROOT
BRANCH   2   8
HETATM    8  C   UNL     1     -10.399   6.723  71.959  1.00  0.00    -0.217 C  
BRANCH   8   9
HETATM    9  C   UNL     1     -11.672   6.374  71.187  1.00  0.00    -0.359 C  
BRANCH   9  10
HETATM   10  C   UNL     1     -12.862   7.173  71.712  1.00  0.00    -0.330 C  
BRANCH  10  11
HETATM   11  N   UNL     1     -12.859   8.524  71.195  1.00  0.00    -0.491 N  
HETATM   12  H   UNL     1     -12.508   8.693  70.252  1.00  0.00     0.000 HD 
BRANCH  11  13
HETATM   13  C   UNL     1     -13.310   9.577  71.931  1.00  0.00    -0.437 C  
HETATM   14  N   UNL     1     -13.875   9.187  73.100  1.00  0.00    -0.781 N  
HETATM   15  O   UNL     1     -13.246  10.752  71.606  1.00  0.00    -0.413 OA 
HETATM   16  H1  UNL     1     -14.213   9.975  73.652  1.00  0.00     0.000 HD 
HETATM   17  H2  UNL     1     -13.953   8.213  73.395  1.00  0.00     0.000 HD 
ENDBRANCH  11  13
ENDBRANCH  10  11
ENDBRANCH   9  10
ENDBRANCH   8   9
ENDBRANCH   2   8
TORSDOF 5
ENDMDL
MODEL      129
REMARK 921   NORMALIZED FREE ENERGY PREDICTED BY IDOCK:   -2.91 KCAL/MOL
REMARK 922        TOTAL FREE ENERGY PREDICTED BY IDOCK:   -4.63 KCAL/MOL
REMARK 923 INTER-LIGAND FREE ENERGY PREDICTED BY IDOCK:   -4.35 KCAL/MOL
REMARK 924 INTRA-LIGAND FREE ENERGY PREDICTED BY IDOCK:   -0.29 KCAL/MOL
REMARK 927      BINDING AFFINITY PREDICTED BY RF-SCORE:    0.00 PKD
ROOT
HETATM    1  N   UNL     1     -10.886   8.901  68.312  1.00  0.00    -0.458 NA 
HETATM    2  CA  UNL     1     -11.151  10.365  68.455  1.00  0.00    -0.268 C  
HETATM    3  H1  UNL     1     -10.960   8.590  67.344  1.00  0.00     0.000 HD 
HETATM    4  H2  UNL     1     -11.493   8.355  68.923  1.00  0.00     0.000 HD 
HETATM    5  C   UNL     1     -10.137  11.129  67.583  1.00  0.00    -0.179 C  
HETATM    6  OXT UNL     1     -10.011  12.342  67.545  1.00  0.00    -0.193 OA 
HETATM    7  O   UNL     1      -9.385  10.275  66.838  1.00  0.00    -0.155 OA 
ENDROOT
BRANCH   2   8
HETATM    8  C   UNL     1     -11.041  10.833  69.909  1.00  0.00    -0.339 C  
BRANCH   8   9
HETATM    9  C   UNL     1     -12.317  11.489  70.440  1.00  0.00    -0.390 C  
BRANCH   9  10
HETATM   10  C   UNL     1     -13.033  10.567  71.423  1.00  0.00    -0.440 C  
BRANCH  10  11
HETATM   11  N   UNL     1     -13.223   9.246  70.864  1.00  0.00    -0.556 N  
HETATM   12  H   UNL     1     -13.283   9.141  69.852  1.00  0.00     0.000 HD 
BRANCH  11  13
HETATM   13  C   UNL     1     -13.326   8.140  71.652  1.00  0.00    -0.331 C  
HETATM   14  N   UNL     1     -12.363   8.092  72.606  1.00  0.00    -0.606 N  
HETATM   15  O   UNL     1     -14.165   7.261  71.538  1.00  0.00    -0.430 OA 
HETATM   16  H1  UNL     1     -12.439   7.264  73.196  1.00  0.00     0.000 HD 
HETATM   17  H2  UNL     1     -11.642   8.805  72.720  1.00  0.00     0.000 HD 
ENDBRANCH  11  13
ENDBRANCH  10  11
ENDBRANCH   9  10
ENDBRANCH   8   9
ENDBRANCH   2   8
TORSDOF 5
ENDMDL
MODEL      130
REMARK 921   NORMALIZED FREE ENERGY PREDICTED BY IDOCK:   -2.90 KCAL/MOL
REMARK 922        TOTAL FREE ENERGY PREDICTED BY IDOCK:   -4.63 KCAL/MOL
REMARK 923 INTER-LIGAND FREE ENERGY PREDICTED BY IDOCK:   -4.42 KCAL/MOL
REMARK 924 INTRA-LIGAND FREE ENERGY PREDICTED BY IDOCK:   -0.21 KCAL/MOL
REMARK 927      BINDING AFFINITY PREDICTED BY RF-SCORE:    0.00 PKD
ROOT
HETATM    1  N   UNL     1      -8.996  16.543  69.229  1.00  0.00    -0.155 NA 
HETATM    2  CA  UNL     1     -10.033  16.808  68.186  1.00  0.00    -0.270 C  
HETATM    3  H1  UNL     1      -8.155  17.101  69.086  1.00  0.00     0.000 HD 
HETATM    4  H2  UNL     1      -8.775  15.548  69.284  1.00  0.00     0.000 HD 
HETATM    5  C   UNL     1     -10.389  18.306  68.226  1.00  0.00    -0.357 C  
HETATM    6  OXT UNL     1     -11.271  18.839  67.573  1.00  0.00    -0.194 OA 
HETATM    7  O   UNL     1      -9.583  18.981  69.088  1.00  0.00    -0.322 OA 
ENDROOT
BRANCH   2   8
HETATM    8  C   UNL     1     -11.297  15.969  68.400  1.00  0.00    -0.355 C  
BRANCH   8   9
HETATM    9  C   UNL     1     -11.313  15.215  69.731  1.00  0.00    -0.307 C  
BRANCH   9  10
HETATM   10  C   UNL     1     -12.450  15.711  70.622  1.00  0.00    -0.417 C  
BRANCH  10  11
HETATM   11  N   UNL     1     -13.391  14.652  70.913  1.00  0.00    -0.493 N  
HETATM   12  H   UNL     1     -13.985  14.297  70.164  1.00  0.00     0.000 HD 
BRANCH  11  13
HETATM   13  C   UNL     1     -13.505  14.115  72.159  1.00  0.00    -0.454 C  
HETATM   14  N   UNL     1     -13.453  12.760  72.147  1.00  0.00    -0.542 N  
HETATM   15  O   UNL     1     -13.654  14.745  73.194  1.00  0.00    -0.552 OA 
HETATM   16  H1  UNL     1     -13.539  12.357  73.080  1.00  0.00     0.000 HD 
HETATM   17  H2  UNL     1     -13.341  12.205  71.298  1.00  0.00     0.000 HD 
ENDBRANCH  11  13
ENDBRANCH  10  11
ENDBRANCH   9  10
ENDBRANCH   8   9
ENDBRANCH   2   8
TORSDOF 5
ENDMDL
MODEL      131
REMARK 921   NORMALIZED FREE ENERGY PREDICTED BY IDOCK:   -2.90 KCAL/MOL
REMARK 922        TOTAL FREE ENERGY PREDICTED BY IDOCK:   -4.63 KCAL/MOL
REMARK 923 INTER-LIGAND FREE ENERGY PREDICTED BY IDOCK:   -3.87 KCAL/MOL
REMARK 924 INTRA-LIGAND FREE ENERGY PREDICTED BY IDOCK:   -0.76 KCAL/MOL
REMARK 927      BINDING AFFINITY PREDICTED BY RF-SCORE:    0.00 PKD
ROOT
HETATM    1  N   UNL     1     -10.621   7.163  71.246  1.00  0.00    -0.214 NA 
HETATM    2  CA  UNL     1     -11.274   8.295  70.522  1.00  0.00    -0.239 C  
HETATM    3  H1  UNL     1     -10.611   6.307  70.693  1.00  0.00     0.000 HD 
HETATM    4  H2  UNL     1     -11.054   7.010  72.157  1.00  0.00     0.000 HD 
HETATM    5  C   UNL     1     -10.510   8.534  69.205  1.00  0.00    -0.215 C  
HETATM    6  OXT UNL     1     -10.721   9.446  68.423  1.00  0.00    -0.219 OA 
HETATM    7  O   UNL     1      -9.558   7.583  69.009  1.00  0.00    -0.152 OA 
ENDROOT
BRANCH   2   8
HETATM    8  C   UNL     1     -11.289   9.582  71.353  1.00  0.00    -0.462 C  
BRANCH   8   9
HETATM    9  C   UNL     1     -12.654  10.272  71.390  1.00  0.00    -0.539 C  
BRANCH   9  10
HETATM   10  C   UNL     1     -12.523  11.754  71.049  1.00  0.00    -0.309 C  
BRANCH  10  11
HETATM   11  N   UNL     1     -11.552  11.970  69.999  1.00  0.00    -0.510 N  
HETATM   12  H   UNL     1     -10.677  11.447  70.018  1.00  0.00     0.000 HD 
BRANCH  11  13
HETATM   13  C   UNL     1     -11.774  12.852  68.985  1.00  0.00    -0.327 C  
HETATM   14  N   UNL     1     -11.604  12.290  67.763  1.00  0.00    -0.335 N  
HETATM   15  O   UNL     1     -12.079  14.027  69.119  1.00  0.00    -0.346 OA 
HETATM   16  H1  UNL     1     -11.770  12.950  67.003  1.00  0.00     0.000 HD 
HETATM   17  H2  UNL     1     -11.340  11.315  67.619  1.00  0.00     0.000 HD 
ENDBRANCH  11  13
ENDBRANCH  10  11
ENDBRANCH   9  10
ENDBRANCH   8   9
ENDBRANCH   2   8
TORSDOF 5
ENDMDL
MODEL      132
REMARK 921   NORMALIZED FREE ENERGY PREDICTED BY IDOCK:   -2.89 KCAL/MOL
REMARK 922        TOTAL FREE ENERGY PREDICTED BY IDOCK:   -4.61 KCAL/MOL
REMARK 923 INTER-LIGAND FREE ENERGY PREDICTED BY IDOCK:   -4.07 KCAL/MOL
REMARK 924 INTRA-LIGAND FREE ENERGY PREDICTED BY IDOCK:   -0.55 KCAL/MOL
REMARK 927      BINDING AFFINITY PREDICTED BY RF-SCORE:    0.00 PKD
ROOT
HETATM    1  N   UNL     1      -6.114  16.088  67.928  1.00  0.00    -0.121 NA 
HETATM    2  CA  UNL     1      -7.134  17.177  67.852  1.00  0.00    -0.162 C  
HETATM    3  H1  UNL     1      -5.859  15.866  68.890  1.00  0.00     0.000 HD 
HETATM    4  H2  UNL     1      -5.290  16.316  67.371  1.00  0.00     0.000 HD 
HETATM    5  C   UNL     1      -8.385  16.725  68.630  1.00  0.00    -0.252 C  
HETATM    6  OXT UNL     1      -9.440  17.335  68.686  1.00  0.00    -0.267 OA 
HETATM    7  O   UNL     1      -8.167  15.544  69.269  1.00  0.00    -0.224 OA 
ENDROOT
BRANCH   2   8
HETATM    8  C   UNL     1      -7.517  17.511  66.407  1.00  0.00    -0.334 C  
BRANCH   8   9
HETATM    9  C   UNL     1      -7.164  18.942  65.995  1.00  0.00    -0.293 C  
BRANCH   9  10
HETATM   10  C   UNL     1      -8.057  19.950  66.715  1.00  0.00    -0.315 C  
BRANCH  10  11
HETATM   11  N   UNL     1      -9.249  20.240  65.950  1.00  0.00    -0.575 N  
HETATM   12  H   UNL     1      -9.245  21.034  65.309  1.00  0.00     0.000 HD 
BRANCH  11  13
HETATM   13  C   UNL     1     -10.375  19.483  66.059  1.00  0.00    -0.511 C  
HETATM   14  N   UNL     1     -10.901  19.514  67.309  1.00  0.00    -0.491 N  
HETATM   15  O   UNL     1     -10.880  18.825  65.163  1.00  0.00    -0.523 OA 
HETATM   16  H1  UNL     1     -11.744  18.947  67.392  1.00  0.00     0.000 HD 
HETATM   17  H2  UNL     1     -10.497  20.045  68.081  1.00  0.00     0.000 HD 
ENDBRANCH  11  13
ENDBRANCH  10  11
ENDBRANCH   9  10
ENDBRANCH   8   9
ENDBRANCH   2   8
TORSDOF 5
ENDMDL
MODEL      133
REMARK 921   NORMALIZED FREE ENERGY PREDICTED BY IDOCK:   -2.89 KCAL/MOL
REMARK 922        TOTAL FREE ENERGY PREDICTED BY IDOCK:   -4.61 KCAL/MOL
REMARK 923 INTER-LIGAND FREE ENERGY PREDICTED BY IDOCK:   -4.16 KCAL/MOL
REMARK 924 INTRA-LIGAND FREE ENERGY PREDICTED BY IDOCK:   -0.45 KCAL/MOL
REMARK 927      BINDING AFFINITY PREDICTED BY RF-SCORE:    0.00 PKD
ROOT
HETATM    1  N   UNL     1     -11.782   6.623  69.251  1.00  0.00    -0.628 NA 
HETATM    2  CA  UNL     1     -10.584   6.781  70.129  1.00  0.00    -0.218 C  
HETATM    3  H1  UNL     1     -11.751   7.243  68.442  1.00  0.00     0.000 HD 
HETATM    4  H2  UNL     1     -12.645   6.747  69.779  1.00  0.00     0.000 HD 
HETATM    5  C   UNL     1      -9.325   6.484  69.292  1.00  0.00    -0.141 C  
HETATM    6  OXT UNL     1      -8.186   6.427  69.725  1.00  0.00    -0.121 OA 
HETATM    7  O   UNL     1      -9.638   6.295  67.982  1.00  0.00    -0.116 OA 
ENDROOT
BRANCH   2   8
HETATM    8  C   UNL     1     -10.630   5.849  71.344  1.00  0.00    -0.309 C  
BRANCH   8   9
HETATM    9  C   UNL     1     -11.410   6.423  72.528  1.00  0.00    -0.299 C  
BRANCH   9  10
HETATM   10  C   UNL     1     -11.279   7.943  72.578  1.00  0.00    -0.376 C  
BRANCH  10  11
HETATM   11  N   UNL     1     -12.549   8.572  72.872  1.00  0.00    -0.489 N  
HETATM   12  H   UNL     1     -13.024   8.343  73.745  1.00  0.00     0.000 HD 
BRANCH  11  13
HETATM   13  C   UNL     1     -13.126   9.459  72.016  1.00  0.00    -0.433 C  
HETATM   14  N   UNL     1     -13.757   8.849  70.984  1.00  0.00    -0.571 N  
HETATM   15  O   UNL     1     -13.090  10.676  72.122  1.00  0.00    -0.460 OA 
HETATM   16  H1  UNL     1     -14.190   9.513  70.343  1.00  0.00     0.000 HD 
HETATM   17  H2  UNL     1     -13.796   7.836  70.862  1.00  0.00     0.000 HD 
ENDBRANCH  11  13
ENDBRANCH  10  11
ENDBRANCH   9  10
ENDBRANCH   8   9
ENDBRANCH   2   8
TORSDOF 5
ENDMDL
MODEL      134
REMARK 921   NORMALIZED FREE ENERGY PREDICTED BY IDOCK:   -2.88 KCAL/MOL
REMARK 922        TOTAL FREE ENERGY PREDICTED BY IDOCK:   -4.60 KCAL/MOL
REMARK 923 INTER-LIGAND FREE ENERGY PREDICTED BY IDOCK:   -4.12 KCAL/MOL
REMARK 924 INTRA-LIGAND FREE ENERGY PREDICTED BY IDOCK:   -0.48 KCAL/MOL
REMARK 927      BINDING AFFINITY PREDICTED BY RF-SCORE:    0.00 PKD
ROOT
HETATM    1  N   UNL     1     -11.988  14.511  67.216  1.00  0.00    -0.511 NA 
HETATM    2  CA  UNL     1     -11.529  14.849  65.835  1.00  0.00    -0.276 C  
HETATM    3  H1  UNL     1     -12.904  14.907  67.425  1.00  0.00     0.000 HD 
HETATM    4  H2  UNL     1     -11.297  14.791  67.913  1.00  0.00     0.000 HD 
HETATM    5  C   UNL     1     -12.568  14.312  64.833  1.00  0.00    -0.324 C  
HETATM    6  OXT UNL     1     -12.454  14.331  63.619  1.00  0.00    -0.816 OA 
HETATM    7  O   UNL     1     -13.657  13.809  65.475  1.00  0.00    -0.511 OA 
ENDROOT
BRANCH   2   8
HETATM    8  C   UNL     1     -10.152  14.255  65.522  1.00  0.00    -0.370 C  
BRANCH   8   9
HETATM    9  C   UNL     1      -9.891  12.917  66.214  1.00  0.00    -0.273 C  
BRANCH   9  10
HETATM   10  C   UNL     1      -8.733  13.033  67.203  1.00  0.00    -0.204 C  
BRANCH  10  11
HETATM   11  N   UNL     1      -8.975  14.075  68.177  1.00  0.00    -0.178 N  
HETATM   12  H   UNL     1      -9.912  14.183  68.565  1.00  0.00     0.000 HD 
BRANCH  11  13
HETATM   13  C   UNL     1      -7.986  14.915  68.591  1.00  0.00    -0.144 C  
HETATM   14  N   UNL     1      -7.752  14.824  69.923  1.00  0.00    -0.393 N  
HETATM   15  O   UNL     1      -7.367  15.690  67.878  1.00  0.00    -0.120 OA 
HETATM   16  H1  UNL     1      -7.012  15.453  70.233  1.00  0.00     0.000 HD 
HETATM   17  H2  UNL     1      -8.259  14.195  70.546  1.00  0.00     0.000 HD 
ENDBRANCH  11  13
ENDBRANCH  10  11
ENDBRANCH   9  10
ENDBRANCH   8   9
ENDBRANCH   2   8
TORSDOF 5
ENDMDL
MODEL      135
REMARK 921   NORMALIZED FREE ENERGY PREDICTED BY IDOCK:   -2.87 KCAL/MOL
REMARK 922        TOTAL FREE ENERGY PREDICTED BY IDOCK:   -4.58 KCAL/MOL
REMARK 923 INTER-LIGAND FREE ENERGY PREDICTED BY IDOCK:   -4.04 KCAL/MOL
REMARK 924 INTRA-LIGAND FREE ENERGY PREDICTED BY IDOCK:   -0.54 KCAL/MOL
REMARK 927      BINDING AFFINITY PREDICTED BY RF-SCORE:    0.00 PKD
ROOT
HETATM    1  N   UNL     1     -10.643  14.671  66.084  1.00  0.00    -0.303 NA 
HETATM    2  CA  UNL     1     -10.578  16.063  66.623  1.00  0.00    -0.297 C  
HETATM    3  H1  UNL     1     -11.531  14.479  65.620  1.00  0.00     0.000 HD 
HETATM    4  H2  UNL     1     -10.451  13.984  66.813  1.00  0.00     0.000 HD 
HETATM    5  C   UNL     1     -10.779  17.047  65.454  1.00  0.00    -0.116 C  
HETATM    6  OXT UNL     1     -10.685  18.261  65.529  1.00  0.00    -0.596 OA 
HETATM    7  O   UNL     1     -11.086  16.389  64.304  1.00  0.00    -0.845 OA 
ENDROOT
BRANCH   2   8
HETATM    8  C   UNL     1      -9.244  16.352  67.320  1.00  0.00    -0.224 C  
BRANCH   8   9
HETATM    9  C   UNL     1      -8.044  16.341  66.372  1.00  0.00    -0.334 C  
BRANCH   9  10
HETATM   10  C   UNL     1      -7.171  17.575  66.586  1.00  0.00    -0.234 C  
BRANCH  10  11
HETATM   11  N   UNL     1      -7.960  18.787  66.575  1.00  0.00    -0.270 N  
HETATM   12  H   UNL     1      -8.658  18.918  65.843  1.00  0.00     0.000 HD 
BRANCH  11  13
HETATM   13  C   UNL     1      -7.798  19.758  67.516  1.00  0.00    -0.282 C  
HETATM   14  N   UNL     1      -6.897  19.412  68.468  1.00  0.00    -0.278 N  
HETATM   15  O   UNL     1      -8.388  20.827  67.543  1.00  0.00    -0.265 OA 
HETATM   16  H1  UNL     1      -6.775  20.140  69.173  1.00  0.00     0.000 HD 
HETATM   17  H2  UNL     1      -6.397  18.523  68.479  1.00  0.00     0.000 HD 
ENDBRANCH  11  13
ENDBRANCH  10  11
ENDBRANCH   9  10
ENDBRANCH   8   9
ENDBRANCH   2   8
TORSDOF 5
ENDMDL
MODEL      136
REMARK 921   NORMALIZED FREE ENERGY PREDICTED BY IDOCK:   -2.85 KCAL/MOL
REMARK 922        TOTAL FREE ENERGY PREDICTED BY IDOCK:   -4.56 KCAL/MOL
REMARK 923 INTER-LIGAND FREE ENERGY PREDICTED BY IDOCK:   -4.34 KCAL/MOL
REMARK 924 INTRA-LIGAND FREE ENERGY PREDICTED BY IDOCK:   -0.22 KCAL/MOL
REMARK 927      BINDING AFFINITY PREDICTED BY RF-SCORE:    0.00 PKD
ROOT
HETATM    1  N   UNL     1     -10.033  18.114  68.131  1.00  0.00    -0.338 NA 
HETATM    2  CA  UNL     1      -8.850  18.099  67.220  1.00  0.00    -0.251 C  
HETATM    3  H1  UNL     1     -10.066  18.956  68.706  1.00  0.00     0.000 HD 
HETATM    4  H2  UNL     1     -10.066  17.273  68.707  1.00  0.00     0.000 HD 
HETATM    5  C   UNL     1      -8.919  19.345  66.315  1.00  0.00    -0.346 C  
HETATM    6  OXT UNL     1      -8.161  19.589  65.391  1.00  0.00    -0.263 OA 
HETATM    7  O   UNL     1      -9.941  20.163  66.681  1.00  0.00    -0.425 OA 
ENDROOT
BRANCH   2   8
HETATM    8  C   UNL     1      -8.801  16.835  66.356  1.00  0.00    -0.331 C  
BRANCH   8   9
HETATM    9  C   UNL     1     -10.149  16.466  65.734  1.00  0.00    -0.352 C  
BRANCH   9  10
HETATM   10  C   UNL     1     -10.274  14.954  65.565  1.00  0.00    -0.374 C  
BRANCH  10  11
HETATM   11  N   UNL     1     -11.638  14.513  65.758  1.00  0.00    -0.350 N  
HETATM   12  H   UNL     1     -12.368  14.877  65.146  1.00  0.00     0.000 HD 
BRANCH  11  13
HETATM   13  C   UNL     1     -11.975  13.626  66.734  1.00  0.00    -0.414 C  
HETATM   14  N   UNL     1     -11.901  14.167  67.975  1.00  0.00    -0.381 N  
HETATM   15  O   UNL     1     -12.299  12.461  66.556  1.00  0.00    -0.511 OA 
HETATM   16  H1  UNL     1     -12.153  13.502  68.707  1.00  0.00     0.000 HD 
HETATM   17  H2  UNL     1     -11.623  15.132  68.157  1.00  0.00     0.000 HD 
ENDBRANCH  11  13
ENDBRANCH  10  11
ENDBRANCH   9  10
ENDBRANCH   8   9
ENDBRANCH   2   8
TORSDOF 5
ENDMDL
MODEL      137
REMARK 921   NORMALIZED FREE ENERGY PREDICTED BY IDOCK:   -2.85 KCAL/MOL
REMARK 922        TOTAL FREE ENERGY PREDICTED BY IDOCK:   -4.56 KCAL/MOL
REMARK 923 INTER-LIGAND FREE ENERGY PREDICTED BY IDOCK:   -4.32 KCAL/MOL
REMARK 924 INTRA-LIGAND FREE ENERGY PREDICTED BY IDOCK:   -0.24 KCAL/MOL
REMARK 927      BINDING AFFINITY PREDICTED BY RF-SCORE:    0.00 PKD
ROOT
HETATM    1  N   UNL     1     -10.051  13.405  64.811  1.00  0.00    -0.596 NA 
HETATM    2  CA  UNL     1     -11.273  13.613  65.644  1.00  0.00    -0.297 C  
HETATM    3  H1  UNL     1      -9.793  14.243  64.290  1.00  0.00     0.000 HD 
HETATM    4  H2  UNL     1     -10.161  12.603  64.189  1.00  0.00     0.000 HD 
HETATM    5  C   UNL     1     -11.000  14.772  66.624  1.00  0.00    -0.326 C  
HETATM    6  OXT UNL     1     -11.753  15.137  67.512  1.00  0.00    -0.322 OA 
HETATM    7  O   UNL     1      -9.799  15.357  66.371  1.00  0.00    -0.251 OA 
ENDROOT
BRANCH   2   8
HETATM    8  C   UNL     1     -11.661  12.355  66.427  1.00  0.00    -0.453 C  
BRANCH   8   9
HETATM    9  C   UNL     1     -10.606  11.918  67.445  1.00  0.00    -0.257 C  
BRANCH   9  10
HETATM   10  C   UNL     1     -11.201  10.943  68.459  1.00  0.00    -0.274 C  
BRANCH  10  11
HETATM   11  N   UNL     1     -11.037  11.425  69.813  1.00  0.00    -0.455 N  
HETATM   12  H   UNL     1     -10.116  11.379  70.247  1.00  0.00     0.000 HD 
BRANCH  11  13
HETATM   13  C   UNL     1     -12.079  11.939  70.523  1.00  0.00    -0.331 C  
HETATM   14  N   UNL     1     -12.760  10.987  71.207  1.00  0.00    -0.417 N  
HETATM   15  O   UNL     1     -12.406  13.115  70.555  1.00  0.00    -0.344 OA 
HETATM   16  H1  UNL     1     -13.541  11.372  71.739  1.00  0.00     0.000 HD 
HETATM   17  H2  UNL     1     -12.519   9.996  71.191  1.00  0.00     0.000 HD 
ENDBRANCH  11  13
ENDBRANCH  10  11
ENDBRANCH   9  10
ENDBRANCH   8   9
ENDBRANCH   2   8
TORSDOF 5
ENDMDL
MODEL      138
REMARK 921   NORMALIZED FREE ENERGY PREDICTED BY IDOCK:   -2.83 KCAL/MOL
REMARK 922        TOTAL FREE ENERGY PREDICTED BY IDOCK:   -4.53 KCAL/MOL
REMARK 923 INTER-LIGAND FREE ENERGY PREDICTED BY IDOCK:   -4.04 KCAL/MOL
REMARK 924 INTRA-LIGAND FREE ENERGY PREDICTED BY IDOCK:   -0.49 KCAL/MOL
REMARK 927      BINDING AFFINITY PREDICTED BY RF-SCORE:    0.00 PKD
ROOT
HETATM    1  N   UNL     1     -12.154  11.449  68.773  1.00  0.00    -0.514 NA 
HETATM    2  CA  UNL     1     -11.892  11.843  67.356  1.00  0.00    -0.168 C  
HETATM    3  H1  UNL     1     -12.295  10.444  68.874  1.00  0.00     0.000 HD 
HETATM    4  H2  UNL     1     -12.939  11.973  69.162  1.00  0.00     0.000 HD 
HETATM    5  C   UNL     1     -10.640  11.090  66.867  1.00  0.00    -0.258 C  
HETATM    6  OXT UNL     1     -10.093  11.254  65.789  1.00  0.00    -0.228 OA 
HETATM    7  O   UNL     1     -10.209  10.194  67.796  1.00  0.00    -0.171 OA 
ENDROOT
BRANCH   2   8
HETATM    8  C   UNL     1     -11.680  13.352  67.205  1.00  0.00    -0.424 C  
BRANCH   8   9
HETATM    9  C   UNL     1     -10.870  13.974  68.344  1.00  0.00    -0.263 C  
BRANCH   9  10
HETATM   10  C   UNL     1     -11.692  15.025  69.086  1.00  0.00    -0.319 C  
BRANCH  10  11
HETATM   11  N   UNL     1     -12.816  14.426  69.773  1.00  0.00    -0.467 N  
HETATM   12  H   UNL     1     -13.477  13.861  69.241  1.00  0.00     0.000 HD 
BRANCH  11  13
HETATM   13  C   UNL     1     -13.014  14.596  71.109  1.00  0.00    -0.350 C  
HETATM   14  N   UNL     1     -12.753  15.863  71.515  1.00  0.00    -0.522 N  
HETATM   15  O   UNL     1     -13.372  13.729  71.891  1.00  0.00    -0.357 OA 
HETATM   16  H1  UNL     1     -12.902  15.991  72.516  1.00  0.00     0.000 HD 
HETATM   17  H2  UNL     1     -12.442  16.606  70.889  1.00  0.00     0.000 HD 
ENDBRANCH  11  13
ENDBRANCH  10  11
ENDBRANCH   9  10
ENDBRANCH   8   9
ENDBRANCH   2   8
TORSDOF 5
ENDMDL
MODEL      139
REMARK 921   NORMALIZED FREE ENERGY PREDICTED BY IDOCK:   -2.82 KCAL/MOL
REMARK 922        TOTAL FREE ENERGY PREDICTED BY IDOCK:   -4.52 KCAL/MOL
REMARK 923 INTER-LIGAND FREE ENERGY PREDICTED BY IDOCK:   -3.86 KCAL/MOL
REMARK 924 INTRA-LIGAND FREE ENERGY PREDICTED BY IDOCK:   -0.66 KCAL/MOL
REMARK 927      BINDING AFFINITY PREDICTED BY RF-SCORE:    0.00 PKD
ROOT
HETATM    1  N   UNL     1     -12.276  10.879  68.396  1.00  0.00    -0.810 NA 
HETATM    2  CA  UNL     1     -11.120  10.043  67.952  1.00  0.00    -0.195 C  
HETATM    3  H1  UNL     1     -12.998  10.324  68.854  1.00  0.00     0.000 HD 
HETATM    4  H2  UNL     1     -12.660  11.418  67.620  1.00  0.00     0.000 HD 
HETATM    5  C   UNL     1     -10.529   9.336  69.187  1.00  0.00    -0.217 C  
HETATM    6  OXT UNL     1      -9.517   8.655  69.194  1.00  0.00    -0.156 OA 
HETATM    7  O   UNL     1     -11.289   9.558  70.292  1.00  0.00    -0.247 OA 
ENDROOT
BRANCH   2   8
HETATM    8  C   UNL     1     -10.034  10.876  67.264  1.00  0.00    -0.216 C  
BRANCH   8   9
HETATM    9  C   UNL     1     -10.262  11.060  65.762  1.00  0.00    -0.316 C  
BRANCH   9  10
HETATM   10  C   UNL     1     -10.504  12.529  65.425  1.00  0.00    -0.282 C  
BRANCH  10  11
HETATM   11  N   UNL     1     -11.741  13.006  66.004  1.00  0.00    -0.372 N  
HETATM   12  H   UNL     1     -12.620  12.572  65.723  1.00  0.00     0.000 HD 
BRANCH  11  13
HETATM   13  C   UNL     1     -11.764  14.018  66.915  1.00  0.00    -0.410 C  
HETATM   14  N   UNL     1     -11.170  15.145  66.453  1.00  0.00    -0.317 N  
HETATM   15  O   UNL     1     -12.243  13.954  68.037  1.00  0.00    -0.326 OA 
HETATM   16  H1  UNL     1     -11.187  15.904  67.134  1.00  0.00     0.000 HD 
HETATM   17  H2  UNL     1     -10.751  15.226  65.525  1.00  0.00     0.000 HD 
ENDBRANCH  11  13
ENDBRANCH  10  11
ENDBRANCH   9  10
ENDBRANCH   8   9
ENDBRANCH   2   8
TORSDOF 5
ENDMDL
MODEL      140
REMARK 921   NORMALIZED FREE ENERGY PREDICTED BY IDOCK:   -2.82 KCAL/MOL
REMARK 922        TOTAL FREE ENERGY PREDICTED BY IDOCK:   -4.52 KCAL/MOL
REMARK 923 INTER-LIGAND FREE ENERGY PREDICTED BY IDOCK:   -3.99 KCAL/MOL
REMARK 924 INTRA-LIGAND FREE ENERGY PREDICTED BY IDOCK:   -0.53 KCAL/MOL
REMARK 927      BINDING AFFINITY PREDICTED BY RF-SCORE:    0.00 PKD
ROOT
HETATM    1  N   UNL     1      -8.322   5.759  70.446  1.00  0.00    -0.119 NA 
HETATM    2  CA  UNL     1      -9.665   6.339  70.749  1.00  0.00    -0.180 C  
HETATM    3  H1  UNL     1      -8.351   4.743  70.363  1.00  0.00     0.000 HD 
HETATM    4  H2  UNL     1      -7.629   6.053  71.135  1.00  0.00     0.000 HD 
HETATM    5  C   UNL     1     -10.633   5.936  69.620  1.00  0.00    -0.313 C  
HETATM    6  OXT UNL     1     -11.784   6.324  69.505  1.00  0.00    -0.360 OA 
HETATM    7  O   UNL     1     -10.044   5.073  68.750  1.00  0.00    -0.170 OA 
ENDROOT
BRANCH   2   8
HETATM    8  C   UNL     1      -9.621   7.865  70.874  1.00  0.00    -0.172 C  
BRANCH   8   9
HETATM    9  C   UNL     1      -9.882   8.371  72.293  1.00  0.00    -0.383 C  
BRANCH   9  10
HETATM   10  C   UNL     1     -11.308   8.047  72.732  1.00  0.00    -0.374 C  
BRANCH  10  11
HETATM   11  N   UNL     1     -12.273   8.465  71.738  1.00  0.00    -0.311 N  
HETATM   12  H   UNL     1     -11.939   8.823  70.843  1.00  0.00     0.000 HD 
BRANCH  11  13
HETATM   13  C   UNL     1     -13.614   8.393  71.964  1.00  0.00    -0.357 C  
HETATM   14  N   UNL     1     -14.026   9.264  72.918  1.00  0.00    -0.823 N  
HETATM   15  O   UNL     1     -14.390   7.635  71.403  1.00  0.00    -0.433 OA 
HETATM   16  H1  UNL     1     -15.031   9.210  73.087  1.00  0.00     0.000 HD 
HETATM   17  H2  UNL     1     -13.401   9.902  73.411  1.00  0.00     0.000 HD 
ENDBRANCH  11  13
ENDBRANCH  10  11
ENDBRANCH   9  10
ENDBRANCH   8   9
ENDBRANCH   2   8
TORSDOF 5
ENDMDL
MODEL      141
REMARK 921   NORMALIZED FREE ENERGY PREDICTED BY IDOCK:   -2.81 KCAL/MOL
REMARK 922        TOTAL FREE ENERGY PREDICTED BY IDOCK:   -4.50 KCAL/MOL
REMARK 923 INTER-LIGAND FREE ENERGY PREDICTED BY IDOCK:   -3.76 KCAL/MOL
REMARK 924 INTRA-LIGAND FREE ENERGY PREDICTED BY IDOCK:   -0.75 KCAL/MOL
REMARK 927      BINDING AFFINITY PREDICTED BY RF-SCORE:    0.00 PKD
ROOT
HETATM    1  N   UNL     1      -9.023  15.132  69.293  1.00  0.00    -0.315 NA 
HETATM    2  CA  UNL     1      -9.097  16.326  68.398  1.00  0.00    -0.203 C  
HETATM    3  H1  UNL     1      -9.160  15.377  70.274  1.00  0.00     0.000 HD 
HETATM    4  H2  UNL     1      -8.149  14.624  69.159  1.00  0.00     0.000 HD 
HETATM    5  C   UNL     1     -10.478  16.985  68.582  1.00  0.00    -0.363 C  
HETATM    6  OXT UNL     1     -10.904  17.924  67.930  1.00  0.00    -0.365 OA 
HETATM    7  O   UNL     1     -11.178  16.390  69.584  1.00  0.00    -0.323 OA 
ENDROOT
BRANCH   2   8
HETATM    8  C   UNL     1      -8.891  15.958  66.926  1.00  0.00    -0.264 C  
BRANCH   8   9
HETATM    9  C   UNL     1      -9.359  14.544  66.576  1.00  0.00    -0.307 C  
BRANCH   9  10
HETATM   10  C   UNL     1     -10.811  14.553  66.106  1.00  0.00    -0.317 C  
BRANCH  10  11
HETATM   11  N   UNL     1     -11.716  14.217  67.183  1.00  0.00    -0.386 N  
HETATM   12  H   UNL     1     -12.506  14.832  67.376  1.00  0.00     0.000 HD 
BRANCH  11  13
HETATM   13  C   UNL     1     -11.542  13.103  67.947  1.00  0.00    -0.336 C  
HETATM   14  N   UNL     1     -11.610  11.961  67.221  1.00  0.00    -0.316 N  
HETATM   15  O   UNL     1     -11.358  13.091  69.155  1.00  0.00    -0.261 OA 
HETATM   16  H1  UNL     1     -11.480  11.126  67.793  1.00  0.00     0.000 HD 
HETATM   17  H2  UNL     1     -11.774  11.938  66.214  1.00  0.00     0.000 HD 
ENDBRANCH  11  13
ENDBRANCH  10  11
ENDBRANCH   9  10
ENDBRANCH   8   9
ENDBRANCH   2   8
TORSDOF 5
ENDMDL
MODEL      142
REMARK 921   NORMALIZED FREE ENERGY PREDICTED BY IDOCK:   -2.79 KCAL/MOL
REMARK 922        TOTAL FREE ENERGY PREDICTED BY IDOCK:   -4.48 KCAL/MOL
REMARK 923 INTER-LIGAND FREE ENERGY PREDICTED BY IDOCK:   -4.23 KCAL/MOL
REMARK 924 INTRA-LIGAND FREE ENERGY PREDICTED BY IDOCK:   -0.25 KCAL/MOL
REMARK 927      BINDING AFFINITY PREDICTED BY RF-SCORE:    0.00 PKD
ROOT
HETATM    1  N   UNL     1     -11.578   7.216  69.948  1.00  0.00    -0.533 NA 
HETATM    2  CA  UNL     1     -10.985   8.526  70.353  1.00  0.00    -0.238 C  
HETATM    3  H1  UNL     1     -11.036   6.758  69.216  1.00  0.00     0.000 HD 
HETATM    4  H2  UNL     1     -12.554   7.323  69.672  1.00  0.00     0.000 HD 
HETATM    5  C   UNL     1      -9.548   8.275  70.849  1.00  0.00    -0.165 C  
HETATM    6  OXT UNL     1      -8.816   9.115  71.345  1.00  0.00    -0.298 OA 
HETATM    7  O   UNL     1      -9.180   6.979  70.659  1.00  0.00    -0.158 OA 
ENDROOT
BRANCH   2   8
HETATM    8  C   UNL     1     -11.799   9.215  71.452  1.00  0.00    -0.415 C  
BRANCH   8   9
HETATM    9  C   UNL     1     -12.762  10.280  70.925  1.00  0.00    -0.462 C  
BRANCH   9  10
HETATM   10  C   UNL     1     -12.146  11.035  69.749  1.00  0.00    -0.353 C  
BRANCH  10  11
HETATM   11  N   UNL     1     -11.395  12.186  70.199  1.00  0.00    -0.479 N  
HETATM   12  H   UNL     1     -10.629  12.051  70.858  1.00  0.00     0.000 HD 
BRANCH  11  13
HETATM   13  C   UNL     1     -11.682  13.445  69.765  1.00  0.00    -0.286 C  
HETATM   14  N   UNL     1     -11.539  14.375  70.742  1.00  0.00    -0.489 N  
HETATM   15  O   UNL     1     -12.045  13.744  68.638  1.00  0.00    -0.359 OA 
HETATM   16  H1  UNL     1     -11.754  15.317  70.418  1.00  0.00     0.000 HD 
HETATM   17  H2  UNL     1     -11.248  14.155  71.695  1.00  0.00     0.000 HD 
ENDBRANCH  11  13
ENDBRANCH  10  11
ENDBRANCH   9  10
ENDBRANCH   8   9
ENDBRANCH   2   8
TORSDOF 5
ENDMDL
MODEL      143
REMARK 921   NORMALIZED FREE ENERGY PREDICTED BY IDOCK:   -2.78 KCAL/MOL
REMARK 922        TOTAL FREE ENERGY PREDICTED BY IDOCK:   -4.47 KCAL/MOL
REMARK 923 INTER-LIGAND FREE ENERGY PREDICTED BY IDOCK:   -3.77 KCAL/MOL
REMARK 924 INTRA-LIGAND FREE ENERGY PREDICTED BY IDOCK:   -0.70 KCAL/MOL
REMARK 927      BINDING AFFINITY PREDICTED BY RF-SCORE:    0.00 PKD
ROOT
HETATM    1  N   UNL     1     -10.799  13.227  69.367  1.00  0.00    -0.450 NA 
HETATM    2  CA  UNL     1     -11.511  14.527  69.176  1.00  0.00    -0.294 C  
HETATM    3  H1  UNL     1     -10.057  13.091  68.681  1.00  0.00     0.000 HD 
HETATM    4  H2  UNL     1     -11.454  12.444  69.363  1.00  0.00     0.000 HD 
HETATM    5  C   UNL     1     -10.481  15.666  69.291  1.00  0.00    -0.247 C  
HETATM    6  OXT UNL     1     -10.742  16.858  69.283  1.00  0.00    -0.335 OA 
HETATM    7  O   UNL     1      -9.216  15.178  69.398  1.00  0.00    -0.220 OA 
ENDROOT
BRANCH   2   8
HETATM    8  C   UNL     1     -12.627  14.732  70.207  1.00  0.00    -0.365 C  
BRANCH   8   9
HETATM    9  C   UNL     1     -12.192  14.443  71.645  1.00  0.00    -0.385 C  
BRANCH   9  10
HETATM   10  C   UNL     1     -13.002  13.291  72.236  1.00  0.00    -0.271 C  
BRANCH  10  11
HETATM   11  N   UNL     1     -13.161  12.215  71.282  1.00  0.00    -0.216 N  
HETATM   12  H   UNL     1     -13.511  12.428  70.348  1.00  0.00     0.000 HD 
BRANCH  11  13
HETATM   13  C   UNL     1     -12.856  10.925  71.596  1.00  0.00    -0.449 C  
HETATM   14  N   UNL     1     -11.589  10.592  71.248  1.00  0.00    -0.168 N  
HETATM   15  O   UNL     1     -13.614  10.123  72.118  1.00  0.00    -0.368 OA 
HETATM   16  H1  UNL     1     -11.361   9.626  71.483  1.00  0.00     0.000 HD 
HETATM   17  H2  UNL     1     -10.936  11.236  70.801  1.00  0.00     0.000 HD 
ENDBRANCH  11  13
ENDBRANCH  10  11
ENDBRANCH   9  10
ENDBRANCH   8   9
ENDBRANCH   2   8
TORSDOF 5
ENDMDL
MODEL      144
REMARK 921   NORMALIZED FREE ENERGY PREDICTED BY IDOCK:   -2.77 KCAL/MOL
REMARK 922        TOTAL FREE ENERGY PREDICTED BY IDOCK:   -4.46 KCAL/MOL
REMARK 923 INTER-LIGAND FREE ENERGY PREDICTED BY IDOCK:   -4.21 KCAL/MOL
REMARK 924 INTRA-LIGAND FREE ENERGY PREDICTED BY IDOCK:   -0.25 KCAL/MOL
REMARK 927      BINDING AFFINITY PREDICTED BY RF-SCORE:    0.00 PKD
ROOT
HETATM    1  N   UNL     1      -8.500   8.619  67.035  1.00  0.00    -0.109 NA 
HETATM    2  CA  UNL     1      -9.105   9.152  65.778  1.00  0.00    -0.213 C  
HETATM    3  H1  UNL     1      -8.400   7.604  67.014  1.00  0.00     0.000 HD 
HETATM    4  H2  UNL     1      -9.027   8.921  67.855  1.00  0.00     0.000 HD 
HETATM    5  C   UNL     1      -8.207   8.742  64.595  1.00  0.00    -0.165 C  
HETATM    6  OXT UNL     1      -8.358   9.097  63.438  1.00  0.00    -0.173 OA 
HETATM    7  O   UNL     1      -7.208   7.913  65.000  1.00  0.00    -0.059 OA 
ENDROOT
BRANCH   2   8
HETATM    8  C   UNL     1      -9.255  10.677  65.810  1.00  0.00    -0.218 C  
BRANCH   8   9
HETATM    9  C   UNL     1     -10.546  11.178  65.162  1.00  0.00    -0.319 C  
BRANCH   9  10
HETATM   10  C   UNL     1     -10.243  12.185  64.054  1.00  0.00    -0.370 C  
BRANCH  10  11
HETATM   11  N   UNL     1     -10.662  13.519  64.425  1.00  0.00    -0.499 N  
HETATM   12  H   UNL     1      -9.960  14.189  64.739  1.00  0.00     0.000 HD 
BRANCH  11  13
HETATM   13  C   UNL     1     -11.966  13.905  64.368  1.00  0.00    -0.450 C  
HETATM   14  N   UNL     1     -12.394  14.097  63.096  1.00  0.00    -1.046 N  
HETATM   15  O   UNL     1     -12.698  14.084  65.329  1.00  0.00    -0.595 OA 
HETATM   16  H1  UNL     1     -13.371  14.386  63.052  1.00  0.00     0.000 HD 
HETATM   17  H2  UNL     1     -11.804  13.966  62.273  1.00  0.00     0.000 HD 
ENDBRANCH  11  13
ENDBRANCH  10  11
ENDBRANCH   9  10
ENDBRANCH   8   9
ENDBRANCH   2   8
TORSDOF 5
ENDMDL
MODEL      145
REMARK 921   NORMALIZED FREE ENERGY PREDICTED BY IDOCK:   -2.77 KCAL/MOL
REMARK 922        TOTAL FREE ENERGY PREDICTED BY IDOCK:   -4.45 KCAL/MOL
REMARK 923 INTER-LIGAND FREE ENERGY PREDICTED BY IDOCK:   -4.27 KCAL/MOL
REMARK 924 INTRA-LIGAND FREE ENERGY PREDICTED BY IDOCK:   -0.18 KCAL/MOL
REMARK 927      BINDING AFFINITY PREDICTED BY RF-SCORE:    0.00 PKD
ROOT
HETATM    1  N   UNL     1      -9.324  10.942  69.134  1.00  0.00    -0.378 NA 
HETATM    2  CA  UNL     1     -10.757  10.842  68.725  1.00  0.00    -0.207 C  
HETATM    3  H1  UNL     1      -8.693  10.584  68.417  1.00  0.00     0.000 HD 
HETATM    4  H2  UNL     1      -9.163  10.482  70.030  1.00  0.00     0.000 HD 
HETATM    5  C   UNL     1     -10.946  11.639  67.420  1.00  0.00    -0.261 C  
HETATM    6  OXT UNL     1     -12.014  11.845  66.867  1.00  0.00    -0.614 OA 
HETATM    7  O   UNL     1      -9.756  12.090  66.941  1.00  0.00    -0.197 OA 
ENDROOT
BRANCH   2   8
HETATM    8  C   UNL     1     -11.705  11.380  69.802  1.00  0.00    -0.418 C  
BRANCH   8   9
HETATM    9  C   UNL     1     -11.564  12.884  70.045  1.00  0.00    -0.189 C  
BRANCH   9  10
HETATM   10  C   UNL     1     -12.660  13.388  70.981  1.00  0.00    -0.343 C  
BRANCH  10  11
HETATM   11  N   UNL     1     -13.243  14.619  70.496  1.00  0.00    -0.558 N  
HETATM   12  H   UNL     1     -14.251  14.667  70.351  1.00  0.00     0.000 HD 
BRANCH  11  13
HETATM   13  C   UNL     1     -12.482  15.717  70.227  1.00  0.00    -0.334 C  
HETATM   14  N   UNL     1     -12.042  16.331  71.352  1.00  0.00    -0.617 N  
HETATM   15  O   UNL     1     -12.216  16.142  69.113  1.00  0.00    -0.152 OA 
HETATM   16  H1  UNL     1     -11.473  17.153  71.151  1.00  0.00     0.000 HD 
HETATM   17  H2  UNL     1     -12.257  16.007  72.296  1.00  0.00     0.000 HD 
ENDBRANCH  11  13
ENDBRANCH  10  11
ENDBRANCH   9  10
ENDBRANCH   8   9
ENDBRANCH   2   8
TORSDOF 5
ENDMDL
MODEL      146
REMARK 921   NORMALIZED FREE ENERGY PREDICTED BY IDOCK:   -2.76 KCAL/MOL
REMARK 922        TOTAL FREE ENERGY PREDICTED BY IDOCK:   -4.44 KCAL/MOL
REMARK 923 INTER-LIGAND FREE ENERGY PREDICTED BY IDOCK:   -4.27 KCAL/MOL
REMARK 924 INTRA-LIGAND FREE ENERGY PREDICTED BY IDOCK:   -0.17 KCAL/MOL
REMARK 927      BINDING AFFINITY PREDICTED BY RF-SCORE:    0.00 PKD
ROOT
HETATM    1  N   UNL     1     -10.475  16.867  65.256  1.00  0.00    -0.662 NA 
HETATM    2  CA  UNL     1     -10.189  16.580  66.694  1.00  0.00    -0.300 C  
HETATM    3  H1  UNL     1     -10.256  17.830  65.004  1.00  0.00     0.000 HD 
HETATM    4  H2  UNL     1     -11.439  16.633  65.018  1.00  0.00     0.000 HD 
HETATM    5  C   UNL     1      -8.697  16.862  66.958  1.00  0.00    -0.209 C  
HETATM    6  OXT UNL     1      -8.111  16.637  68.004  1.00  0.00    -0.173 OA 
HETATM    7  O   UNL     1      -8.099  17.408  65.866  1.00  0.00    -0.537 OA 
ENDROOT
BRANCH   2   8
HETATM    8  C   UNL     1     -10.518  15.133  67.072  1.00  0.00    -0.282 C  
BRANCH   8   9
HETATM    9  C   UNL     1     -11.777  14.593  66.392  1.00  0.00    -0.329 C  
BRANCH   9  10
HETATM   10  C   UNL     1     -12.018  13.134  66.773  1.00  0.00    -0.373 C  
BRANCH  10  11
HETATM   11  N   UNL     1     -11.006  12.655  67.689  1.00  0.00    -0.233 N  
HETATM   12  H   UNL     1     -10.148  13.194  67.805  1.00  0.00     0.000 HD 
BRANCH  11  13
HETATM   13  C   UNL     1     -11.167  11.505  68.400  1.00  0.00    -0.255 C  
HETATM   14  N   UNL     1     -10.117  11.250  69.218  1.00  0.00    -0.426 N  
HETATM   15  O   UNL     1     -12.126  10.752  68.327  1.00  0.00    -0.496 OA 
HETATM   16  H1  UNL     1     -10.237  10.388  69.751  1.00  0.00     0.000 HD 
HETATM   17  H2  UNL     1      -9.297  11.853  69.293  1.00  0.00     0.000 HD 
ENDBRANCH  11  13
ENDBRANCH  10  11
ENDBRANCH   9  10
ENDBRANCH   8   9
ENDBRANCH   2   8
TORSDOF 5
ENDMDL
MODEL      147
REMARK 921   NORMALIZED FREE ENERGY PREDICTED BY IDOCK:   -2.76 KCAL/MOL
REMARK 922        TOTAL FREE ENERGY PREDICTED BY IDOCK:   -4.44 KCAL/MOL
REMARK 923 INTER-LIGAND FREE ENERGY PREDICTED BY IDOCK:   -3.50 KCAL/MOL
REMARK 924 INTRA-LIGAND FREE ENERGY PREDICTED BY IDOCK:   -0.94 KCAL/MOL
REMARK 927      BINDING AFFINITY PREDICTED BY RF-SCORE:    0.00 PKD
ROOT
HETATM    1  N   UNL     1      -9.652  10.185  70.142  1.00  0.00    -0.396 NA 
HETATM    2  CA  UNL     1      -9.194   9.182  69.135  1.00  0.00    -0.144 C  
HETATM    3  H1  UNL     1      -9.787  11.109  69.732  1.00  0.00     0.000 HD 
HETATM    4  H2  UNL     1      -9.016  10.225  70.939  1.00  0.00     0.000 HD 
HETATM    5  C   UNL     1     -10.248   9.104  68.013  1.00  0.00    -0.211 C  
HETATM    6  OXT UNL     1     -10.233   8.313  67.085  1.00  0.00    -0.237 OA 
HETATM    7  O   UNL     1     -11.214  10.046  68.180  1.00  0.00    -0.232 OA 
ENDROOT
BRANCH   2   8
HETATM    8  C   UNL     1      -8.992   7.794  69.752  1.00  0.00    -0.146 C  
BRANCH   8   9
HETATM    9  C   UNL     1      -9.673   7.623  71.111  1.00  0.00    -0.172 C  
BRANCH   9  10
HETATM   10  C   UNL     1     -10.974   6.836  70.971  1.00  0.00    -0.255 C  
BRANCH  10  11
HETATM   11  N   UNL     1     -12.056   7.683  70.521  1.00  0.00    -0.507 N  
HETATM   12  H   UNL     1     -12.393   7.590  69.563  1.00  0.00     0.000 HD 
BRANCH  11  13
HETATM   13  C   UNL     1     -12.638   8.602  71.341  1.00  0.00    -0.291 C  
HETATM   14  N   UNL     1     -13.004   9.728  70.680  1.00  0.00    -0.570 N  
HETATM   15  O   UNL     1     -12.814   8.473  72.542  1.00  0.00    -0.345 OA 
HETATM   16  H1  UNL     1     -13.439  10.417  71.293  1.00  0.00     0.000 HD 
HETATM   17  H2  UNL     1     -12.860   9.871  69.680  1.00  0.00     0.000 HD 
ENDBRANCH  11  13
ENDBRANCH  10  11
ENDBRANCH   9  10
ENDBRANCH   8   9
ENDBRANCH   2   8
TORSDOF 5
ENDMDL
MODEL      148
REMARK 921   NORMALIZED FREE ENERGY PREDICTED BY IDOCK:   -2.74 KCAL/MOL
REMARK 922        TOTAL FREE ENERGY PREDICTED BY IDOCK:   -4.42 KCAL/MOL
REMARK 923 INTER-LIGAND FREE ENERGY PREDICTED BY IDOCK:   -4.26 KCAL/MOL
REMARK 924 INTRA-LIGAND FREE ENERGY PREDICTED BY IDOCK:   -0.15 KCAL/MOL
REMARK 927      BINDING AFFINITY PREDICTED BY RF-SCORE:    0.00 PKD
ROOT
HETATM    1  N   UNL     1      -9.159  14.720  69.383  1.00  0.00    -0.412 NA 
HETATM    2  CA  UNL     1      -9.021  15.692  68.256  1.00  0.00    -0.181 C  
HETATM    3  H1  UNL     1      -9.138  15.181  70.293  1.00  0.00     0.000 HD 
HETATM    4  H2  UNL     1      -8.452  13.987  69.325  1.00  0.00     0.000 HD 
HETATM    5  C   UNL     1     -10.174  16.710  68.351  1.00  0.00    -0.284 C  
HETATM    6  OXT UNL     1     -10.416  17.580  67.530  1.00  0.00    -0.343 OA 
HETATM    7  O   UNL     1     -10.902  16.526  69.484  1.00  0.00    -0.310 OA 
ENDROOT
BRANCH   2   8
HETATM    8  C   UNL     1      -9.052  15.001  66.889  1.00  0.00    -0.269 C  
BRANCH   8   9
HETATM    9  C   UNL     1      -9.267  13.489  66.973  1.00  0.00    -0.248 C  
BRANCH   9  10
HETATM   10  C   UNL     1     -10.418  13.053  66.069  1.00  0.00    -0.279 C  
BRANCH  10  11
HETATM   11  N   UNL     1     -10.555  13.934  64.929  1.00  0.00    -0.398 N  
HETATM   12  H   UNL     1      -9.772  14.032  64.282  1.00  0.00     0.000 HD 
BRANCH  11  13
HETATM   13  C   UNL     1     -11.699  14.634  64.695  1.00  0.00    -0.426 C  
HETATM   14  N   UNL     1     -12.814  13.899  64.927  1.00  0.00    -0.715 N  
HETATM   15  O   UNL     1     -11.758  15.790  64.306  1.00  0.00    -0.400 OA 
HETATM   16  H1  UNL     1     -13.671  14.423  64.752  1.00  0.00     0.000 HD 
HETATM   17  H2  UNL     1     -12.797  12.928  65.242  1.00  0.00     0.000 HD 
ENDBRANCH  11  13
ENDBRANCH  10  11
ENDBRANCH   9  10
ENDBRANCH   8   9
ENDBRANCH   2   8
TORSDOF 5
ENDMDL
MODEL      149
REMARK 921   NORMALIZED FREE ENERGY PREDICTED BY IDOCK:   -2.74 KCAL/MOL
REMARK 922        TOTAL FREE ENERGY PREDICTED BY IDOCK:   -4.41 KCAL/MOL
REMARK 923 INTER-LIGAND FREE ENERGY PREDICTED BY IDOCK:   -3.67 KCAL/MOL
REMARK 924 INTRA-LIGAND FREE ENERGY PREDICTED BY IDOCK:   -0.74 KCAL/MOL
REMARK 927      BINDING AFFINITY PREDICTED BY RF-SCORE:    0.00 PKD
ROOT
HETATM    1  N   UNL     1      -8.923   9.349  69.116  1.00  0.00    -0.142 NA 
HETATM    2  CA  UNL     1      -9.805   8.943  70.252  1.00  0.00    -0.183 C  
HETATM    3  H1  UNL     1      -9.441   9.455  68.245  1.00  0.00     0.000 HD 
HETATM    4  H2  UNL     1      -8.143   8.701  69.006  1.00  0.00     0.000 HD 
HETATM    5  C   UNL     1     -10.899  10.015  70.423  1.00  0.00    -0.318 C  
HETATM    6  OXT UNL     1     -11.724  10.043  71.321  1.00  0.00    -0.361 OA 
HETATM    7  O   UNL     1     -10.839  10.943  69.431  1.00  0.00    -0.222 OA 
ENDROOT
BRANCH   2   8
HETATM    8  C   UNL     1      -9.026   8.784  71.561  1.00  0.00    -0.306 C  
BRANCH   8   9
HETATM    9  C   UNL     1      -9.157   7.394  72.187  1.00  0.00    -0.156 C  
BRANCH   9  10
HETATM   10  C   UNL     1     -10.048   7.438  73.426  1.00  0.00    -0.338 C  
BRANCH  10  11
HETATM   11  N   UNL     1     -11.447   7.514  73.067  1.00  0.00    -0.607 N  
HETATM   12  H   UNL     1     -12.004   8.297  73.408  1.00  0.00     0.000 HD 
BRANCH  11  13
HETATM   13  C   UNL     1     -12.041   6.569  72.286  1.00  0.00    -0.193 C  
HETATM   14  N   UNL     1     -12.076   5.352  72.881  1.00  0.00    -0.479 N  
HETATM   15  O   UNL     1     -12.490   6.753  71.165  1.00  0.00    -0.367 OA 
HETATM   16  H1  UNL     1     -12.520   4.644  72.297  1.00  0.00     0.000 HD 
HETATM   17  H2  UNL     1     -11.699   5.165  73.811  1.00  0.00     0.000 HD 
ENDBRANCH  11  13
ENDBRANCH  10  11
ENDBRANCH   9  10
ENDBRANCH   8   9
ENDBRANCH   2   8
TORSDOF 5
ENDMDL
MODEL      150
REMARK 921   NORMALIZED FREE ENERGY PREDICTED BY IDOCK:   -2.73 KCAL/MOL
REMARK 922        TOTAL FREE ENERGY PREDICTED BY IDOCK:   -4.41 KCAL/MOL
REMARK 923 INTER-LIGAND FREE ENERGY PREDICTED BY IDOCK:   -4.21 KCAL/MOL
REMARK 924 INTRA-LIGAND FREE ENERGY PREDICTED BY IDOCK:   -0.19 KCAL/MOL
REMARK 927      BINDING AFFINITY PREDICTED BY RF-SCORE:    0.00 PKD
ROOT
HETATM    1  N   UNL     1     -11.099  15.413  67.685  1.00  0.00    -0.313 NA 
HETATM    2  CA  UNL     1     -11.554  14.084  68.192  1.00  0.00    -0.334 C  
HETATM    3  H1  UNL     1     -11.800  16.140  67.827  1.00  0.00     0.000 HD 
HETATM    4  H2  UNL     1     -10.817  15.357  66.706  1.00  0.00     0.000 HD 
HETATM    5  C   UNL     1     -11.867  14.219  69.695  1.00  0.00    -0.318 C  
HETATM    6  OXT UNL     1     -12.168  13.300  70.439  1.00  0.00    -0.346 OA 
HETATM    7  O   UNL     1     -11.773  15.513  70.103  1.00  0.00    -0.293 OA 
ENDROOT
BRANCH   2   8
HETATM    8  C   UNL     1     -10.501  12.992  67.980  1.00  0.00    -0.234 C  
BRANCH   8   9
HETATM    9  C   UNL     1     -10.816  12.056  66.811  1.00  0.00    -0.307 C  
BRANCH   9  10
HETATM   10  C   UNL     1     -10.390  12.680  65.485  1.00  0.00    -0.286 C  
BRANCH  10  11
HETATM   11  N   UNL     1      -9.431  11.846  64.794  1.00  0.00    -0.437 N  
HETATM   12  H   UNL     1      -8.436  12.043  64.901  1.00  0.00     0.000 HD 
BRANCH  11  13
HETATM   13  C   UNL     1      -9.819  10.806  64.006  1.00  0.00    -0.332 C  
HETATM   14  N   UNL     1     -10.892  11.112  63.236  1.00  0.00    -0.787 N  
HETATM   15  O   UNL     1      -9.297   9.702  63.977  1.00  0.00    -0.227 OA 
HETATM   16  H1  UNL     1     -11.184  10.333  62.645  1.00  0.00     0.000 HD 
HETATM   17  H2  UNL     1     -11.357  12.020  63.246  1.00  0.00     0.000 HD 
ENDBRANCH  11  13
ENDBRANCH  10  11
ENDBRANCH   9  10
ENDBRANCH   8   9
ENDBRANCH   2   8
TORSDOF 5
ENDMDL
MODEL      151
REMARK 921   NORMALIZED FREE ENERGY PREDICTED BY IDOCK:   -2.72 KCAL/MOL
REMARK 922        TOTAL FREE ENERGY PREDICTED BY IDOCK:   -4.39 KCAL/MOL
REMARK 923 INTER-LIGAND FREE ENERGY PREDICTED BY IDOCK:   -4.14 KCAL/MOL
REMARK 924 INTRA-LIGAND FREE ENERGY PREDICTED BY IDOCK:   -0.25 KCAL/MOL
REMARK 927      BINDING AFFINITY PREDICTED BY RF-SCORE:    0.00 PKD
ROOT
HETATM    1  N   UNL     1     -10.455  15.369  65.093  1.00  0.00    -0.410 NA 
HETATM    2  CA  UNL     1     -10.861  13.932  65.042  1.00  0.00    -0.382 C  
HETATM    3  H1  UNL     1     -10.418  15.791  64.165  1.00  0.00     0.000 HD 
HETATM    4  H2  UNL     1      -9.569  15.484  65.586  1.00  0.00     0.000 HD 
HETATM    5  C   UNL     1     -12.247  13.843  64.374  1.00  0.00    -0.413 C  
HETATM    6  OXT UNL     1     -12.913  12.827  64.264  1.00  0.00    -0.708 OA 
HETATM    7  O   UNL     1     -12.646  15.055  63.906  1.00  0.00    -0.813 OA 
ENDROOT
BRANCH   2   8
HETATM    8  C   UNL     1     -10.916  13.297  66.436  1.00  0.00    -0.301 C  
BRANCH   8   9
HETATM    9  C   UNL     1     -10.355  11.875  66.483  1.00  0.00    -0.249 C  
BRANCH   9  10
HETATM   10  C   UNL     1      -9.588  11.637  67.782  1.00  0.00    -0.178 C  
BRANCH  10  11
HETATM   11  N   UNL     1      -8.250  11.150  67.522  1.00  0.00    -0.117 N  
HETATM   12  H   UNL     1      -8.032  10.174  67.718  1.00  0.00     0.000 HD 
BRANCH  11  13
HETATM   13  C   UNL     1      -7.275  11.960  67.023  1.00  0.00    -0.118 C  
HETATM   14  N   UNL     1      -6.375  11.282  66.270  1.00  0.00    -0.319 N  
HETATM   15  O   UNL     1      -7.179  13.161  67.221  1.00  0.00    -0.136 OA 
HETATM   16  H1  UNL     1      -5.644  11.888  65.896  1.00  0.00     0.000 HD 
HETATM   17  H2  UNL     1      -6.422  10.278  66.096  1.00  0.00     0.000 HD 
ENDBRANCH  11  13
ENDBRANCH  10  11
ENDBRANCH   9  10
ENDBRANCH   8   9
ENDBRANCH   2   8
TORSDOF 5
ENDMDL
MODEL      152
REMARK 921   NORMALIZED FREE ENERGY PREDICTED BY IDOCK:   -2.70 KCAL/MOL
REMARK 922        TOTAL FREE ENERGY PREDICTED BY IDOCK:   -4.37 KCAL/MOL
REMARK 923 INTER-LIGAND FREE ENERGY PREDICTED BY IDOCK:   -4.03 KCAL/MOL
REMARK 924 INTRA-LIGAND FREE ENERGY PREDICTED BY IDOCK:   -0.34 KCAL/MOL
REMARK 927      BINDING AFFINITY PREDICTED BY RF-SCORE:    0.00 PKD
ROOT
HETATM    1  N   UNL     1      -7.406   9.792  65.510  1.00  0.00    -0.106 NA 
HETATM    2  CA  UNL     1      -8.769  10.306  65.840  1.00  0.00    -0.156 C  
HETATM    3  H1  UNL     1      -6.730   9.995  66.246  1.00  0.00     0.000 HD 
HETATM    4  H2  UNL     1      -7.087  10.145  64.608  1.00  0.00     0.000 HD 
HETATM    5  C   UNL     1      -9.226   9.657  67.162  1.00  0.00    -0.134 C  
HETATM    6  OXT UNL     1     -10.330   9.783  67.665  1.00  0.00    -0.198 OA 
HETATM    7  O   UNL     1      -8.229   8.917  67.717  1.00  0.00    -0.109 OA 
ENDROOT
BRANCH   2   8
HETATM    8  C   UNL     1      -9.786  10.001  64.736  1.00  0.00    -0.363 C  
BRANCH   8   9
HETATM    9  C   UNL     1      -9.814  11.050  63.623  1.00  0.00    -0.397 C  
BRANCH   9  10
HETATM   10  C   UNL     1     -10.176  12.424  64.180  1.00  0.00    -0.351 C  
BRANCH  10  11
HETATM   11  N   UNL     1     -11.609  12.616  64.218  1.00  0.00    -0.348 N  
HETATM   12  H   UNL     1     -12.141  12.551  63.350  1.00  0.00     0.000 HD 
BRANCH  11  13
HETATM   13  C   UNL     1     -12.268  12.882  65.380  1.00  0.00    -0.478 C  
HETATM   14  N   UNL     1     -13.105  13.943  65.270  1.00  0.00    -0.770 N  
HETATM   15  O   UNL     1     -12.137  12.269  66.428  1.00  0.00    -0.623 OA 
HETATM   16  H1  UNL     1     -13.598  14.143  66.140  1.00  0.00     0.000 HD 
HETATM   17  H2  UNL     1     -13.227  14.482  64.412  1.00  0.00     0.000 HD 
ENDBRANCH  11  13
ENDBRANCH  10  11
ENDBRANCH   9  10
ENDBRANCH   8   9
ENDBRANCH   2   8
TORSDOF 5
ENDMDL
MODEL      153
REMARK 921   NORMALIZED FREE ENERGY PREDICTED BY IDOCK:   -2.70 KCAL/MOL
REMARK 922        TOTAL FREE ENERGY PREDICTED BY IDOCK:   -4.37 KCAL/MOL
REMARK 923 INTER-LIGAND FREE ENERGY PREDICTED BY IDOCK:   -4.17 KCAL/MOL
REMARK 924 INTRA-LIGAND FREE ENERGY PREDICTED BY IDOCK:   -0.19 KCAL/MOL
REMARK 927      BINDING AFFINITY PREDICTED BY RF-SCORE:    0.00 PKD
ROOT
HETATM    1  N   UNL     1      -7.375  19.659  69.329  1.00  0.00    -0.326 NA 
HETATM    2  CA  UNL     1      -8.306  19.212  68.249  1.00  0.00    -0.335 C  
HETATM    3  H1  UNL     1      -6.409  19.715  69.007  1.00  0.00     0.000 HD 
HETATM    4  H2  UNL     1      -7.454  19.064  70.154  1.00  0.00     0.000 HD 
HETATM    5  C   UNL     1      -8.205  20.210  67.079  1.00  0.00    -0.327 C  
HETATM    6  OXT UNL     1      -8.902  20.196  66.078  1.00  0.00    -0.295 OA 
HETATM    7  O   UNL     1      -7.221  21.124  67.294  1.00  0.00    -0.441 OA 
ENDROOT
BRANCH   2   8
HETATM    8  C   UNL     1      -9.756  19.128  68.734  1.00  0.00    -0.491 C  
BRANCH   8   9
HETATM    9  C   UNL     1     -10.516  17.920  68.184  1.00  0.00    -0.380 C  
BRANCH   9  10
HETATM   10  C   UNL     1     -10.471  16.754  69.169  1.00  0.00    -0.343 C  
BRANCH  10  11
HETATM   11  N   UNL     1     -10.018  15.540  68.527  1.00  0.00    -0.205 N  
HETATM   12  H   UNL     1      -9.044  15.468  68.233  1.00  0.00     0.000 HD 
BRANCH  11  13
HETATM   13  C   UNL     1     -10.855  14.489  68.304  1.00  0.00    -0.241 C  
HETATM   14  N   UNL     1     -10.606  13.443  69.130  1.00  0.00    -0.436 N  
HETATM   15  O   UNL     1     -11.733  14.447  67.457  1.00  0.00    -0.353 OA 
HETATM   16  H1  UNL     1     -11.233  12.656  68.963  1.00  0.00     0.000 HD 
HETATM   17  H2  UNL     1      -9.873  13.444  69.840  1.00  0.00     0.000 HD 
ENDBRANCH  11  13
ENDBRANCH  10  11
ENDBRANCH   9  10
ENDBRANCH   8   9
ENDBRANCH   2   8
TORSDOF 5
ENDMDL
MODEL      154
REMARK 921   NORMALIZED FREE ENERGY PREDICTED BY IDOCK:   -2.69 KCAL/MOL
REMARK 922        TOTAL FREE ENERGY PREDICTED BY IDOCK:   -4.35 KCAL/MOL
REMARK 923 INTER-LIGAND FREE ENERGY PREDICTED BY IDOCK:   -4.13 KCAL/MOL
REMARK 924 INTRA-LIGAND FREE ENERGY PREDICTED BY IDOCK:   -0.22 KCAL/MOL
REMARK 927      BINDING AFFINITY PREDICTED BY RF-SCORE:    0.00 PKD
ROOT
HETATM    1  N   UNL     1      -8.640  10.551  62.642  1.00  0.00    -0.192 NA 
HETATM    2  CA  UNL     1      -8.787  10.366  64.118  1.00  0.00    -0.214 C  
HETATM    3  H1  UNL     1      -7.694  10.350  62.322  1.00  0.00     0.000 HD 
HETATM    4  H2  UNL     1      -8.937  11.484  62.357  1.00  0.00     0.000 HD 
HETATM    5  C   UNL     1      -8.418   8.910  64.463  1.00  0.00    -0.161 C  
HETATM    6  OXT UNL     1      -8.524   8.397  65.565  1.00  0.00    -0.151 OA 
HETATM    7  O   UNL     1      -7.943   8.250  63.372  1.00  0.00    -0.150 OA 
ENDROOT
BRANCH   2   8
HETATM    8  C   UNL     1     -10.210  10.667  64.600  1.00  0.00    -0.404 C  
BRANCH   8   9
HETATM    9  C   UNL     1     -10.908  11.767  63.798  1.00  0.00    -0.490 C  
BRANCH   9  10
HETATM   10  C   UNL     1     -10.478  13.149  64.283  1.00  0.00    -0.389 C  
BRANCH  10  11
HETATM   11  N   UNL     1     -11.614  14.032  64.433  1.00  0.00    -0.501 N  
HETATM   12  H   UNL     1     -11.823  14.700  63.692  1.00  0.00     0.000 HD 
BRANCH  11  13
HETATM   13  C   UNL     1     -12.412  13.995  65.536  1.00  0.00    -0.509 C  
HETATM   14  N   UNL     1     -11.701  13.951  66.689  1.00  0.00    -0.373 N  
HETATM   15  O   UNL     1     -13.633  13.986  65.529  1.00  0.00    -0.596 OA 
HETATM   16  H1  UNL     1     -12.299  13.922  67.515  1.00  0.00     0.000 HD 
HETATM   17  H2  UNL     1     -10.682  13.946  66.727  1.00  0.00     0.000 HD 
ENDBRANCH  11  13
ENDBRANCH  10  11
ENDBRANCH   9  10
ENDBRANCH   8   9
ENDBRANCH   2   8
TORSDOF 5
ENDMDL
MODEL      155
REMARK 921   NORMALIZED FREE ENERGY PREDICTED BY IDOCK:   -2.68 KCAL/MOL
REMARK 922        TOTAL FREE ENERGY PREDICTED BY IDOCK:   -4.33 KCAL/MOL
REMARK 923 INTER-LIGAND FREE ENERGY PREDICTED BY IDOCK:   -4.13 KCAL/MOL
REMARK 924 INTRA-LIGAND FREE ENERGY PREDICTED BY IDOCK:   -0.20 KCAL/MOL
REMARK 927      BINDING AFFINITY PREDICTED BY RF-SCORE:    0.00 PKD
ROOT
HETATM    1  N   UNL     1      -9.643  10.672  69.653  1.00  0.00    -0.431 NA 
HETATM    2  CA  UNL     1     -11.051  11.159  69.535  1.00  0.00    -0.252 C  
HETATM    3  H1  UNL     1      -9.270  10.798  70.593  1.00  0.00     0.000 HD 
HETATM    4  H2  UNL     1      -9.042  11.109  68.955  1.00  0.00     0.000 HD 
HETATM    5  C   UNL     1     -11.918  10.388  70.548  1.00  0.00    -0.334 C  
HETATM    6  OXT UNL     1     -13.131  10.471  70.646  1.00  0.00    -0.353 OA 
HETATM    7  O   UNL     1     -11.155   9.591  71.344  1.00  0.00    -0.351 OA 
ENDROOT
BRANCH   2   8
HETATM    8  C   UNL     1     -11.612  10.969  68.122  1.00  0.00    -0.345 C  
BRANCH   8   9
HETATM    9  C   UNL     1     -11.488  12.214  67.242  1.00  0.00    -0.413 C  
BRANCH   9  10
HETATM   10  C   UNL     1     -12.156  13.417  67.904  1.00  0.00    -0.251 C  
BRANCH  10  11
HETATM   11  N   UNL     1     -11.461  14.646  67.587  1.00  0.00    -0.332 N  
HETATM   12  H   UNL     1     -10.942  14.709  66.711  1.00  0.00     0.000 HD 
BRANCH  11  13
HETATM   13  C   UNL     1     -11.482  15.719  68.424  1.00  0.00    -0.365 C  
HETATM   14  N   UNL     1     -10.771  16.768  67.940  1.00  0.00    -0.354 N  
HETATM   15  O   UNL     1     -12.050  15.768  69.504  1.00  0.00    -0.353 OA 
HETATM   16  H1  UNL     1     -10.786  17.572  68.567  1.00  0.00     0.000 HD 
HETATM   17  H2  UNL     1     -10.276  16.753  67.048  1.00  0.00     0.000 HD 
ENDBRANCH  11  13
ENDBRANCH  10  11
ENDBRANCH   9  10
ENDBRANCH   8   9
ENDBRANCH   2   8
TORSDOF 5
ENDMDL
MODEL      156
REMARK 921   NORMALIZED FREE ENERGY PREDICTED BY IDOCK:   -2.66 KCAL/MOL
REMARK 922        TOTAL FREE ENERGY PREDICTED BY IDOCK:   -4.31 KCAL/MOL
REMARK 923 INTER-LIGAND FREE ENERGY PREDICTED BY IDOCK:   -4.09 KCAL/MOL
REMARK 924 INTRA-LIGAND FREE ENERGY PREDICTED BY IDOCK:   -0.22 KCAL/MOL
REMARK 927      BINDING AFFINITY PREDICTED BY RF-SCORE:    0.00 PKD
ROOT
HETATM    1  N   UNL     1      -8.982  11.332  69.043  1.00  0.00    -0.381 NA 
HETATM    2  CA  UNL     1     -10.130  10.379  69.106  1.00  0.00    -0.222 C  
HETATM    3  H1  UNL     1      -8.110  10.906  69.356  1.00  0.00     0.000 HD 
HETATM    4  H2  UNL     1      -9.183  12.186  69.562  1.00  0.00     0.000 HD 
HETATM    5  C   UNL     1      -9.799   9.160  68.223  1.00  0.00    -0.160 C  
HETATM    6  OXT UNL     1     -10.561   8.241  67.974  1.00  0.00    -0.201 OA 
HETATM    7  O   UNL     1      -8.526   9.227  67.749  1.00  0.00    -0.116 OA 
ENDROOT
BRANCH   2   8
HETATM    8  C   UNL     1     -11.440  11.019  68.635  1.00  0.00    -0.375 C  
BRANCH   8   9
HETATM    9  C   UNL     1     -11.554  12.505  68.979  1.00  0.00    -0.365 C  
BRANCH   9  10
HETATM   10  C   UNL     1     -11.634  13.352  67.711  1.00  0.00    -0.340 C  
BRANCH  10  11
HETATM   11  N   UNL     1     -11.908  12.536  66.549  1.00  0.00    -0.394 N  
HETATM   12  H   UNL     1     -12.006  11.527  66.664  1.00  0.00     0.000 HD 
BRANCH  11  13
HETATM   13  C   UNL     1     -12.040  13.077  65.306  1.00  0.00    -0.441 C  
HETATM   14  N   UNL     1     -12.982  14.051  65.262  1.00  0.00    -0.767 N  
HETATM   15  O   UNL     1     -11.411  12.741  64.314  1.00  0.00    -0.331 OA 
HETATM   16  H1  UNL     1     -13.081  14.456  64.331  1.00  0.00     0.000 HD 
HETATM   17  H2  UNL     1     -13.531  14.346  66.070  1.00  0.00     0.000 HD 
ENDBRANCH  11  13
ENDBRANCH  10  11
ENDBRANCH   9  10
ENDBRANCH   8   9
ENDBRANCH   2   8
TORSDOF 5
ENDMDL
MODEL      157
REMARK 921   NORMALIZED FREE ENERGY PREDICTED BY IDOCK:   -2.65 KCAL/MOL
REMARK 922        TOTAL FREE ENERGY PREDICTED BY IDOCK:   -4.30 KCAL/MOL
REMARK 923 INTER-LIGAND FREE ENERGY PREDICTED BY IDOCK:   -3.78 KCAL/MOL
REMARK 924 INTRA-LIGAND FREE ENERGY PREDICTED BY IDOCK:   -0.53 KCAL/MOL
REMARK 927      BINDING AFFINITY PREDICTED BY RF-SCORE:    0.00 PKD
ROOT
HETATM    1  N   UNL     1      -6.693  17.686  67.350  1.00  0.00    -0.157 NA 
HETATM    2  CA  UNL     1      -7.305  18.523  66.274  1.00  0.00    -0.258 C  
HETATM    3  H1  UNL     1      -6.399  16.772  67.006  1.00  0.00     0.000 HD 
HETATM    4  H2  UNL     1      -7.321  17.596  68.148  1.00  0.00     0.000 HD 
HETATM    5  C   UNL     1      -6.268  18.699  65.147  1.00  0.00    -0.250 C  
HETATM    6  OXT UNL     1      -6.408  19.407  64.164  1.00  0.00    -0.398 OA 
HETATM    7  O   UNL     1      -5.157  17.949  65.379  1.00  0.00    -0.168 OA 
ENDROOT
BRANCH   2   8
HETATM    8  C   UNL     1      -7.747  19.896  66.790  1.00  0.00    -0.317 C  
BRANCH   8   9
HETATM    9  C   UNL     1      -9.255  20.007  67.022  1.00  0.00    -0.491 C  
BRANCH   9  10
HETATM   10  C   UNL     1      -9.963  18.717  66.615  1.00  0.00    -0.365 C  
BRANCH  10  11
HETATM   11  N   UNL     1     -10.755  18.185  67.703  1.00  0.00    -0.399 N  
HETATM   12  H   UNL     1     -11.538  18.733  68.060  1.00  0.00     0.000 HD 
BRANCH  11  13
HETATM   13  C   UNL     1     -10.484  16.974  68.263  1.00  0.00    -0.363 C  
HETATM   14  N   UNL     1      -9.244  16.920  68.808  1.00  0.00    -0.266 N  
HETATM   15  O   UNL     1     -11.239  16.014  68.281  1.00  0.00    -0.343 OA 
HETATM   16  H1  UNL     1      -9.041  16.013  69.228  1.00  0.00     0.000 HD 
HETATM   17  H2  UNL     1      -8.587  17.701  68.799  1.00  0.00     0.000 HD 
ENDBRANCH  11  13
ENDBRANCH  10  11
ENDBRANCH   9  10
ENDBRANCH   8   9
ENDBRANCH   2   8
TORSDOF 5
ENDMDL
MODEL      158
REMARK 921   NORMALIZED FREE ENERGY PREDICTED BY IDOCK:   -2.65 KCAL/MOL
REMARK 922        TOTAL FREE ENERGY PREDICTED BY IDOCK:   -4.30 KCAL/MOL
REMARK 923 INTER-LIGAND FREE ENERGY PREDICTED BY IDOCK:   -3.84 KCAL/MOL
REMARK 924 INTRA-LIGAND FREE ENERGY PREDICTED BY IDOCK:   -0.46 KCAL/MOL
REMARK 927      BINDING AFFINITY PREDICTED BY RF-SCORE:    0.00 PKD
ROOT
HETATM    1  N   UNL     1     -10.341  19.074  67.123  1.00  0.00    -0.389 NA 
HETATM    2  CA  UNL     1      -9.235  18.324  67.793  1.00  0.00    -0.270 C  
HETATM    3  H1  UNL     1     -10.831  18.503  66.435  1.00  0.00     0.000 HD 
HETATM    4  H2  UNL     1      -9.999  19.941  66.709  1.00  0.00     0.000 HD 
HETATM    5  C   UNL     1      -9.838  17.082  68.478  1.00  0.00    -0.290 C  
HETATM    6  OXT UNL     1      -9.227  16.307  69.196  1.00  0.00    -0.251 OA 
HETATM    7  O   UNL     1     -11.157  16.944  68.178  1.00  0.00    -0.347 OA 
ENDROOT
BRANCH   2   8
HETATM    8  C   UNL     1      -8.499  19.180  68.828  1.00  0.00    -0.376 C  
BRANCH   8   9
HETATM    9  C   UNL     1      -6.980  19.002  68.801  1.00  0.00    -0.343 C  
BRANCH   9  10
HETATM   10  C   UNL     1      -6.278  20.347  68.634  1.00  0.00    -0.319 C  
BRANCH  10  11
HETATM   11  N   UNL     1      -6.780  21.064  67.482  1.00  0.00    -0.365 N  
HETATM   12  H   UNL     1      -7.308  21.925  67.626  1.00  0.00     0.000 HD 
BRANCH  11  13
HETATM   13  C   UNL     1      -6.568  20.622  66.212  1.00  0.00    -0.236 C  
HETATM   14  N   UNL     1      -7.719  20.504  65.505  1.00  0.00    -0.489 N  
HETATM   15  O   UNL     1      -5.483  20.338  65.730  1.00  0.00    -0.165 OA 
HETATM   16  H1  UNL     1      -7.561  20.173  64.554  1.00  0.00     0.000 HD 
HETATM   17  H2  UNL     1      -8.641  20.723  65.883  1.00  0.00     0.000 HD 
ENDBRANCH  11  13
ENDBRANCH  10  11
ENDBRANCH   9  10
ENDBRANCH   8   9
ENDBRANCH   2   8
TORSDOF 5
ENDMDL
MODEL      159
REMARK 921   NORMALIZED FREE ENERGY PREDICTED BY IDOCK:   -2.63 KCAL/MOL
REMARK 922        TOTAL FREE ENERGY PREDICTED BY IDOCK:   -4.28 KCAL/MOL
REMARK 923 INTER-LIGAND FREE ENERGY PREDICTED BY IDOCK:   -4.11 KCAL/MOL
REMARK 924 INTRA-LIGAND FREE ENERGY PREDICTED BY IDOCK:   -0.17 KCAL/MOL
REMARK 927      BINDING AFFINITY PREDICTED BY RF-SCORE:    0.00 PKD
ROOT
HETATM    1  N   UNL     1     -10.144  13.526  64.645  1.00  0.00    -0.630 NA 
HETATM    2  CA  UNL     1     -11.040  12.628  63.856  1.00  0.00    -0.427 C  
HETATM    3  H1  UNL     1     -10.481  14.489  64.661  1.00  0.00     0.000 HD 
HETATM    4  H2  UNL     1      -9.183  13.478  64.306  1.00  0.00     0.000 HD 
HETATM    5  C   UNL     1     -12.447  12.676  64.482  1.00  0.00    -0.448 C  
HETATM    6  OXT UNL     1     -13.394  11.985  64.143  1.00  0.00    -0.725 OA 
HETATM    7  O   UNL     1     -12.514  13.604  65.473  1.00  0.00    -0.450 OA 
ENDROOT
BRANCH   2   8
HETATM    8  C   UNL     1     -10.533  11.182  63.832  1.00  0.00    -0.445 C  
BRANCH   8   9
HETATM    9  C   UNL     1      -9.903  10.732  65.151  1.00  0.00    -0.333 C  
BRANCH   9  10
HETATM   10  C   UNL     1      -9.106   9.444  64.961  1.00  0.00    -0.215 C  
BRANCH  10  11
HETATM   11  N   UNL     1      -8.839   8.798  66.228  1.00  0.00    -0.148 N  
HETATM   12  H   UNL     1      -9.198   9.219  67.084  1.00  0.00     0.000 HD 
BRANCH  11  13
HETATM   13  C   UNL     1      -8.121   7.643  66.308  1.00  0.00    -0.112 C  
HETATM   14  N   UNL     1      -6.806   7.831  66.040  1.00  0.00    -0.056 N  
HETATM   15  O   UNL     1      -8.575   6.541  66.573  1.00  0.00    -0.115 OA 
HETATM   16  H1  UNL     1      -6.268   6.966  66.100  1.00  0.00     0.000 HD 
HETATM   17  H2  UNL     1      -6.399   8.736  65.804  1.00  0.00     0.000 HD 
ENDBRANCH  11  13
ENDBRANCH  10  11
ENDBRANCH   9  10
ENDBRANCH   8   9
ENDBRANCH   2   8
TORSDOF 5
ENDMDL
MODEL      160
REMARK 921   NORMALIZED FREE ENERGY PREDICTED BY IDOCK:   -2.63 KCAL/MOL
REMARK 922        TOTAL FREE ENERGY PREDICTED BY IDOCK:   -4.28 KCAL/MOL
REMARK 923 INTER-LIGAND FREE ENERGY PREDICTED BY IDOCK:   -4.13 KCAL/MOL
REMARK 924 INTRA-LIGAND FREE ENERGY PREDICTED BY IDOCK:   -0.15 KCAL/MOL
REMARK 927      BINDING AFFINITY PREDICTED BY RF-SCORE:    0.00 PKD
ROOT
HETATM    1  N   UNL     1      -9.598  12.441  65.122  1.00  0.00    -0.460 NA 
HETATM    2  CA  UNL     1     -10.417  12.842  66.306  1.00  0.00    -0.270 C  
HETATM    3  H1  UNL     1      -8.889  11.749  65.362  1.00  0.00     0.000 HD 
HETATM    4  H2  UNL     1      -9.182  13.255  64.669  1.00  0.00     0.000 HD 
HETATM    5  C   UNL     1     -11.092  11.581  66.878  1.00  0.00    -0.307 C  
HETATM    6  OXT UNL     1     -11.907  11.567  67.786  1.00  0.00    -0.584 OA 
HETATM    7  O   UNL     1     -10.659  10.459  66.243  1.00  0.00    -0.198 OA 
ENDROOT
BRANCH   2   8
HETATM    8  C   UNL     1     -11.483  13.882  65.947  1.00  0.00    -0.328 C  
BRANCH   8   9
HETATM    9  C   UNL     1     -11.070  14.813  64.805  1.00  0.00    -0.393 C  
BRANCH   9  10
HETATM   10  C   UNL     1     -10.591  16.158  65.347  1.00  0.00    -0.380 C  
BRANCH  10  11
HETATM   11  N   UNL     1     -10.723  16.224  66.786  1.00  0.00    -0.257 N  
HETATM   12  H   UNL     1     -11.248  15.495  67.269  1.00  0.00     0.000 HD 
BRANCH  11  13
HETATM   13  C   UNL     1     -10.166  17.231  67.513  1.00  0.00    -0.328 C  
HETATM   14  N   UNL     1     -10.236  18.428  66.880  1.00  0.00    -0.360 N  
HETATM   15  O   UNL     1      -9.639  17.110  68.608  1.00  0.00    -0.264 OA 
HETATM   16  H1  UNL     1      -9.819  19.183  67.424  1.00  0.00     0.000 HD 
HETATM   17  H2  UNL     1     -10.660  18.559  65.961  1.00  0.00     0.000 HD 
ENDBRANCH  11  13
ENDBRANCH  10  11
ENDBRANCH   9  10
ENDBRANCH   8   9
ENDBRANCH   2   8
TORSDOF 5
ENDMDL
MODEL      161
REMARK 921   NORMALIZED FREE ENERGY PREDICTED BY IDOCK:   -2.63 KCAL/MOL
REMARK 922        TOTAL FREE ENERGY PREDICTED BY IDOCK:   -4.27 KCAL/MOL
REMARK 923 INTER-LIGAND FREE ENERGY PREDICTED BY IDOCK:   -3.62 KCAL/MOL
REMARK 924 INTRA-LIGAND FREE ENERGY PREDICTED BY IDOCK:   -0.65 KCAL/MOL
REMARK 927      BINDING AFFINITY PREDICTED BY RF-SCORE:    0.00 PKD
ROOT
HETATM    1  N   UNL     1      -8.219  17.660  68.319  1.00  0.00    -0.267 NA 
HETATM    2  CA  UNL     1      -9.595  17.188  68.660  1.00  0.00    -0.281 C  
HETATM    3  H1  UNL     1      -7.604  17.672  69.132  1.00  0.00     0.000 HD 
HETATM    4  H2  UNL     1      -8.245  18.572  67.862  1.00  0.00     0.000 HD 
HETATM    5  C   UNL     1      -9.488  15.770  69.253  1.00  0.00    -0.270 C  
HETATM    6  OXT UNL     1     -10.432  15.055  69.547  1.00  0.00    -0.241 OA 
HETATM    7  O   UNL     1      -8.189  15.403  69.422  1.00  0.00    -0.236 OA 
ENDROOT
BRANCH   2   8
HETATM    8  C   UNL     1     -10.520  17.170  67.439  1.00  0.00    -0.334 C  
BRANCH   8   9
HETATM    9  C   UNL     1      -9.791  16.892  66.123  1.00  0.00    -0.318 C  
BRANCH   9  10
HETATM   10  C   UNL     1     -10.449  15.738  65.371  1.00  0.00    -0.414 C  
BRANCH  10  11
HETATM   11  N   UNL     1     -11.213  14.895  66.264  1.00  0.00    -0.342 N  
HETATM   12  H   UNL     1     -12.011  15.293  66.760  1.00  0.00     0.000 HD 
BRANCH  11  13
HETATM   13  C   UNL     1     -10.898  13.585  66.462  1.00  0.00    -0.282 C  
HETATM   14  N   UNL     1     -11.713  12.986  67.364  1.00  0.00    -0.361 N  
HETATM   15  O   UNL     1      -9.984  12.984  65.919  1.00  0.00    -0.275 OA 
HETATM   16  H1  UNL     1     -11.477  12.005  67.513  1.00  0.00     0.000 HD 
HETATM   17  H2  UNL     1     -12.478  13.464  67.842  1.00  0.00     0.000 HD 
ENDBRANCH  11  13
ENDBRANCH  10  11
ENDBRANCH   9  10
ENDBRANCH   8   9
ENDBRANCH   2   8
TORSDOF 5
ENDMDL
MODEL      162
REMARK 921   NORMALIZED FREE ENERGY PREDICTED BY IDOCK:   -2.62 KCAL/MOL
REMARK 922        TOTAL FREE ENERGY PREDICTED BY IDOCK:   -4.26 KCAL/MOL
REMARK 923 INTER-LIGAND FREE ENERGY PREDICTED BY IDOCK:   -4.21 KCAL/MOL
REMARK 924 INTRA-LIGAND FREE ENERGY PREDICTED BY IDOCK:   -0.05 KCAL/MOL
REMARK 927      BINDING AFFINITY PREDICTED BY RF-SCORE:    0.00 PKD
ROOT
HETATM    1  N   UNL     1     -12.262  12.556  67.135  1.00  0.00    -0.416 NA 
HETATM    2  CA  UNL     1     -12.235  13.924  66.536  1.00  0.00    -0.442 C  
HETATM    3  H1  UNL     1     -13.200  12.156  67.137  1.00  0.00     0.000 HD 
HETATM    4  H2  UNL     1     -11.859  12.556  68.073  1.00  0.00     0.000 HD 
HETATM    5  C   UNL     1     -12.764  13.832  65.091  1.00  0.00    -0.397 C  
HETATM    6  OXT UNL     1     -12.783  14.749  64.287  1.00  0.00    -0.691 OA 
HETATM    7  O   UNL     1     -13.225  12.583  64.815  1.00  0.00    -0.839 OA 
ENDROOT
BRANCH   2   8
HETATM    8  C   UNL     1     -10.826  14.526  66.533  1.00  0.00    -0.314 C  
BRANCH   8   9
HETATM    9  C   UNL     1      -9.712  13.478  66.520  1.00  0.00    -0.287 C  
BRANCH   9  10
HETATM   10  C   UNL     1      -9.671  12.747  65.180  1.00  0.00     0.025 C  
BRANCH  10  11
HETATM   11  N   UNL     1      -9.174  11.397  65.332  1.00  0.00    -0.326 N  
HETATM   12  H   UNL     1      -8.620  10.986  64.581  1.00  0.00     0.000 HD 
BRANCH  11  13
HETATM   13  C   UNL     1      -9.425  10.660  66.449  1.00  0.00    -0.171 C  
HETATM   14  N   UNL     1      -8.294  10.339  67.123  1.00  0.00    -0.121 N  
HETATM   15  O   UNL     1     -10.528  10.297  66.828  1.00  0.00    -0.234 OA 
HETATM   16  H1  UNL     1      -8.481   9.787  67.960  1.00  0.00     0.000 HD 
HETATM   17  H2  UNL     1      -7.358  10.618  66.826  1.00  0.00     0.000 HD 
ENDBRANCH  11  13
ENDBRANCH  10  11
ENDBRANCH   9  10
ENDBRANCH   8   9
ENDBRANCH   2   8
TORSDOF 5
ENDMDL
MODEL      163
REMARK 921   NORMALIZED FREE ENERGY PREDICTED BY IDOCK:   -2.61 KCAL/MOL
REMARK 922        TOTAL FREE ENERGY PREDICTED BY IDOCK:   -4.25 KCAL/MOL
REMARK 923 INTER-LIGAND FREE ENERGY PREDICTED BY IDOCK:   -4.00 KCAL/MOL
REMARK 924 INTRA-LIGAND FREE ENERGY PREDICTED BY IDOCK:   -0.25 KCAL/MOL
REMARK 927      BINDING AFFINITY PREDICTED BY RF-SCORE:    0.00 PKD
ROOT
HETATM    1  N   UNL     1      -9.973  12.129  68.904  1.00  0.00    -0.422 NA 
HETATM    2  CA  UNL     1      -9.815  10.643  68.864  1.00  0.00    -0.201 C  
HETATM    3  H1  UNL     1      -9.622  12.575  68.057  1.00  0.00     0.000 HD 
HETATM    4  H2  UNL     1      -9.536  12.523  69.737  1.00  0.00     0.000 HD 
HETATM    5  C   UNL     1     -10.579  10.107  67.638  1.00  0.00    -0.265 C  
HETATM    6  OXT UNL     1     -10.738   8.929  67.365  1.00  0.00    -0.272 OA 
HETATM    7  O   UNL     1     -11.061  11.124  66.874  1.00  0.00    -0.289 OA 
ENDROOT
BRANCH   2   8
HETATM    8  C   UNL     1     -10.342   9.972  70.136  1.00  0.00    -0.321 C  
BRANCH   8   9
HETATM    9  C   UNL     1     -11.649  10.577  70.652  1.00  0.00    -0.445 C  
BRANCH   9  10
HETATM   10  C   UNL     1     -12.599   9.486  71.138  1.00  0.00    -0.301 C  
BRANCH  10  11
HETATM   11  N   UNL     1     -12.058   8.788  72.283  1.00  0.00    -0.368 N  
HETATM   12  H   UNL     1     -11.722   9.328  73.080  1.00  0.00     0.000 HD 
BRANCH  11  13
HETATM   13  C   UNL     1     -11.986   7.428  72.328  1.00  0.00    -0.239 C  
HETATM   14  N   UNL     1     -11.051   6.987  73.206  1.00  0.00    -0.534 N  
HETATM   15  O   UNL     1     -12.658   6.658  71.659  1.00  0.00    -0.347 OA 
HETATM   16  H1  UNL     1     -10.997   5.970  73.239  1.00  0.00     0.000 HD 
HETATM   17  H2  UNL     1     -10.467   7.605  73.770  1.00  0.00     0.000 HD 
ENDBRANCH  11  13
ENDBRANCH  10  11
ENDBRANCH   9  10
ENDBRANCH   8   9
ENDBRANCH   2   8
TORSDOF 5
ENDMDL
MODEL      164
REMARK 921   NORMALIZED FREE ENERGY PREDICTED BY IDOCK:   -2.61 KCAL/MOL
REMARK 922        TOTAL FREE ENERGY PREDICTED BY IDOCK:   -4.25 KCAL/MOL
REMARK 923 INTER-LIGAND FREE ENERGY PREDICTED BY IDOCK:   -3.89 KCAL/MOL
REMARK 924 INTRA-LIGAND FREE ENERGY PREDICTED BY IDOCK:   -0.36 KCAL/MOL
REMARK 927      BINDING AFFINITY PREDICTED BY RF-SCORE:    0.00 PKD
ROOT
HETATM    1  N   UNL     1      -9.820  18.041  65.782  1.00  0.00    -0.522 NA 
HETATM    2  CA  UNL     1      -9.518  16.626  66.153  1.00  0.00    -0.287 C  
HETATM    3  H1  UNL     1      -9.697  18.212  64.784  1.00  0.00     0.000 HD 
HETATM    4  H2  UNL     1      -9.268  18.694  66.339  1.00  0.00     0.000 HD 
HETATM    5  C   UNL     1     -10.453  15.703  65.348  1.00  0.00    -0.411 C  
HETATM    6  OXT UNL     1     -10.538  14.494  65.482  1.00  0.00    -0.310 OA 
HETATM    7  O   UNL     1     -11.184  16.410  64.445  1.00  0.00    -0.807 OA 
ENDROOT
BRANCH   2   8
HETATM    8  C   UNL     1      -9.702  16.369  67.652  1.00  0.00    -0.238 C  
BRANCH   8   9
HETATM    9  C   UNL     1      -8.385  16.278  68.424  1.00  0.00    -0.190 C  
BRANCH   9  10
HETATM   10  C   UNL     1      -7.789  17.666  68.649  1.00  0.00    -0.280 C  
BRANCH  10  11
HETATM   11  N   UNL     1      -6.818  17.993  67.628  1.00  0.00    -0.189 N  
HETATM   12  H   UNL     1      -6.222  17.254  67.255  1.00  0.00     0.000 HD 
BRANCH  11  13
HETATM   13  C   UNL     1      -6.678  19.261  67.150  1.00  0.00    -0.193 C  
HETATM   14  N   UNL     1      -7.364  19.459  65.998  1.00  0.00    -0.279 N  
HETATM   15  O   UNL     1      -6.007  20.143  67.662  1.00  0.00    -0.185 OA 
HETATM   16  H1  UNL     1      -7.259  20.408  65.639  1.00  0.00     0.000 HD 
HETATM   17  H2  UNL     1      -7.924  18.739  65.540  1.00  0.00     0.000 HD 
ENDBRANCH  11  13
ENDBRANCH  10  11
ENDBRANCH   9  10
ENDBRANCH   8   9
ENDBRANCH   2   8
TORSDOF 5
ENDMDL
MODEL      165
REMARK 921   NORMALIZED FREE ENERGY PREDICTED BY IDOCK:   -2.61 KCAL/MOL
REMARK 922        TOTAL FREE ENERGY PREDICTED BY IDOCK:   -4.25 KCAL/MOL
REMARK 923 INTER-LIGAND FREE ENERGY PREDICTED BY IDOCK:   -4.11 KCAL/MOL
REMARK 924 INTRA-LIGAND FREE ENERGY PREDICTED BY IDOCK:   -0.14 KCAL/MOL
REMARK 927      BINDING AFFINITY PREDICTED BY RF-SCORE:    0.00 PKD
ROOT
HETATM    1  N   UNL     1     -10.587  10.472  69.406  1.00  0.00    -0.226 NA 
HETATM    2  CA  UNL     1     -11.720  10.186  70.337  1.00  0.00    -0.308 C  
HETATM    3  H1  UNL     1     -10.887  10.992  68.583  1.00  0.00     0.000 HD 
HETATM    4  H2  UNL     1     -10.100   9.614  69.144  1.00  0.00     0.000 HD 
HETATM    5  C   UNL     1     -12.344  11.528  70.768  1.00  0.00    -0.375 C  
HETATM    6  OXT UNL     1     -13.226  11.661  71.600  1.00  0.00    -0.409 OA 
HETATM    7  O   UNL     1     -11.788  12.569  70.092  1.00  0.00    -0.324 OA 
ENDROOT
BRANCH   2   8
HETATM    8  C   UNL     1     -11.269   9.404  71.575  1.00  0.00    -0.457 C  
BRANCH   8   9
HETATM    9  C   UNL     1     -12.332   8.445  72.114  1.00  0.00    -0.426 C  
BRANCH   9  10
HETATM   10  C   UNL     1     -12.063   7.016  71.647  1.00  0.00    -0.347 C  
BRANCH  10  11
HETATM   11  N   UNL     1     -12.217   6.071  72.731  1.00  0.00    -0.501 N  
HETATM   12  H   UNL     1     -13.049   6.121  73.318  1.00  0.00     0.000 HD 
BRANCH  11  13
HETATM   13  C   UNL     1     -11.281   5.115  72.989  1.00  0.00    -0.322 C  
HETATM   14  N   UNL     1     -10.051   5.458  72.536  1.00  0.00    -0.171 N  
HETATM   15  O   UNL     1     -11.489   4.049  73.548  1.00  0.00    -0.244 OA 
HETATM   16  H1  UNL     1      -9.350   4.743  72.729  1.00  0.00     0.000 HD 
HETATM   17  H2  UNL     1      -9.848   6.336  72.056  1.00  0.00     0.000 HD 
ENDBRANCH  11  13
ENDBRANCH  10  11
ENDBRANCH   9  10
ENDBRANCH   8   9
ENDBRANCH   2   8
TORSDOF 5
ENDMDL
MODEL      166
REMARK 921   NORMALIZED FREE ENERGY PREDICTED BY IDOCK:   -2.60 KCAL/MOL
REMARK 922        TOTAL FREE ENERGY PREDICTED BY IDOCK:   -4.23 KCAL/MOL
REMARK 923 INTER-LIGAND FREE ENERGY PREDICTED BY IDOCK:   -4.11 KCAL/MOL
REMARK 924 INTRA-LIGAND FREE ENERGY PREDICTED BY IDOCK:   -0.12 KCAL/MOL
REMARK 927      BINDING AFFINITY PREDICTED BY RF-SCORE:    0.00 PKD
ROOT
HETATM    1  N   UNL     1     -12.022  11.806  67.432  1.00  0.00    -0.612 NA 
HETATM    2  CA  UNL     1     -10.859  12.008  66.516  1.00  0.00    -0.277 C  
HETATM    3  H1  UNL     1     -12.636  12.620  67.459  1.00  0.00     0.000 HD 
HETATM    4  H2  UNL     1     -11.712  11.547  68.369  1.00  0.00     0.000 HD 
HETATM    5  C   UNL     1     -11.399  12.299  65.103  1.00  0.00    -0.329 C  
HETATM    6  OXT UNL     1     -10.719  12.415  64.097  1.00  0.00    -0.321 OA 
HETATM    7  O   UNL     1     -12.754  12.421  65.109  1.00  0.00    -0.630 OA 
ENDROOT
BRANCH   2   8
HETATM    8  C   UNL     1      -9.935  10.787  66.476  1.00  0.00    -0.260 C  
BRANCH   8   9
HETATM    9  C   UNL     1     -10.612   9.492  66.929  1.00  0.00    -0.241 C  
BRANCH   9  10
HETATM   10  C   UNL     1     -10.096   9.059  68.299  1.00  0.00    -0.192 C  
BRANCH  10  11
HETATM   11  N   UNL     1     -10.860   7.948  68.822  1.00  0.00    -0.418 N  
HETATM   12  H   UNL     1     -11.430   7.394  68.184  1.00  0.00     0.000 HD 
BRANCH  11  13
HETATM   13  C   UNL     1     -10.839   7.621  70.144  1.00  0.00    -0.248 C  
HETATM   14  N   UNL     1     -11.594   6.529  70.421  1.00  0.00    -0.401 N  
HETATM   15  O   UNL     1     -10.235   8.226  71.017  1.00  0.00    -0.186 OA 
HETATM   16  H1  UNL     1     -11.579   6.285  71.411  1.00  0.00     0.000 HD 
HETATM   17  H2  UNL     1     -12.119   6.010  69.716  1.00  0.00     0.000 HD 
ENDBRANCH  11  13
ENDBRANCH  10  11
ENDBRANCH   9  10
ENDBRANCH   8   9
ENDBRANCH   2   8
TORSDOF 5
ENDMDL
MODEL      167
REMARK 921   NORMALIZED FREE ENERGY PREDICTED BY IDOCK:   -2.60 KCAL/MOL
REMARK 922        TOTAL FREE ENERGY PREDICTED BY IDOCK:   -4.23 KCAL/MOL
REMARK 923 INTER-LIGAND FREE ENERGY PREDICTED BY IDOCK:   -3.87 KCAL/MOL
REMARK 924 INTRA-LIGAND FREE ENERGY PREDICTED BY IDOCK:   -0.36 KCAL/MOL
REMARK 927      BINDING AFFINITY PREDICTED BY RF-SCORE:    0.00 PKD
ROOT
HETATM    1  N   UNL     1     -13.886   6.985  71.999  1.00  0.00    -0.556 NA 
HETATM    2  CA  UNL     1     -12.409   7.167  71.873  1.00  0.00    -0.317 C  
HETATM    3  H1  UNL     1     -14.243   7.334  72.888  1.00  0.00     0.000 HD 
HETATM    4  H2  UNL     1     -14.152   6.011  71.851  1.00  0.00     0.000 HD 
HETATM    5  C   UNL     1     -12.092   8.669  72.008  1.00  0.00    -0.375 C  
HETATM    6  OXT UNL     1     -10.992   9.175  71.855  1.00  0.00    -0.364 OA 
HETATM    7  O   UNL     1     -13.205   9.380  72.331  1.00  0.00    -0.434 OA 
ENDROOT
BRANCH   2   8
HETATM    8  C   UNL     1     -11.873   6.643  70.536  1.00  0.00    -0.430 C  
BRANCH   8   9
HETATM    9  C   UNL     1     -10.572   5.851  70.667  1.00  0.00    -0.334 C  
BRANCH   9  10
HETATM   10  C   UNL     1      -9.408   6.608  70.031  1.00  0.00    -0.158 C  
BRANCH  10  11
HETATM   11  N   UNL     1      -9.818   7.281  68.818  1.00  0.00    -0.158 N  
HETATM   12  H   UNL     1     -10.163   6.726  68.035  1.00  0.00     0.000 HD 
BRANCH  11  13
HETATM   13  C   UNL     1      -9.757   8.636  68.693  1.00  0.00    -0.163 C  
HETATM   14  N   UNL     1     -10.980   9.198  68.534  1.00  0.00    -0.456 N  
HETATM   15  O   UNL     1      -8.736   9.305  68.703  1.00  0.00    -0.129 OA 
HETATM   16  H1  UNL     1     -10.935  10.212  68.440  1.00  0.00     0.000 HD 
HETATM   17  H2  UNL     1     -11.850   8.665  68.510  1.00  0.00     0.000 HD 
ENDBRANCH  11  13
ENDBRANCH  10  11
ENDBRANCH   9  10
ENDBRANCH   8   9
ENDBRANCH   2   8
TORSDOF 5
ENDMDL
MODEL      168
REMARK 921   NORMALIZED FREE ENERGY PREDICTED BY IDOCK:   -2.60 KCAL/MOL
REMARK 922        TOTAL FREE ENERGY PREDICTED BY IDOCK:   -4.23 KCAL/MOL
REMARK 923 INTER-LIGAND FREE ENERGY PREDICTED BY IDOCK:   -3.67 KCAL/MOL
REMARK 924 INTRA-LIGAND FREE ENERGY PREDICTED BY IDOCK:   -0.57 KCAL/MOL
REMARK 927      BINDING AFFINITY PREDICTED BY RF-SCORE:    0.00 PKD
ROOT
HETATM    1  N   UNL     1     -10.470   7.838  69.545  1.00  0.00    -0.223 NA 
HETATM    2  CA  UNL     1     -10.818   9.290  69.612  1.00  0.00    -0.212 C  
HETATM    3  H1  UNL     1     -10.333   7.519  68.586  1.00  0.00     0.000 HD 
HETATM    4  H2  UNL     1     -11.167   7.270  70.027  1.00  0.00     0.000 HD 
HETATM    5  C   UNL     1      -9.678  10.092  68.955  1.00  0.00    -0.187 C  
HETATM    6  OXT UNL     1      -9.596  11.309  68.928  1.00  0.00    -0.183 OA 
HETATM    7  O   UNL     1      -8.757   9.267  68.389  1.00  0.00    -0.127 OA 
ENDROOT
BRANCH   2   8
HETATM    8  C   UNL     1     -11.024   9.769  71.053  1.00  0.00    -0.402 C  
BRANCH   8   9
HETATM    9  C   UNL     1     -12.488   9.768  71.495  1.00  0.00    -0.495 C  
BRANCH   9  10
HETATM   10  C   UNL     1     -12.836   8.470  72.221  1.00  0.00    -0.355 C  
BRANCH  10  11
HETATM   11  N   UNL     1     -11.665   7.876  72.827  1.00  0.00    -0.580 N  
HETATM   12  H   UNL     1     -11.046   8.461  73.388  1.00  0.00     0.000 HD 
BRANCH  11  13
HETATM   13  C   UNL     1     -11.365   6.557  72.670  1.00  0.00    -0.222 C  
HETATM   14  N   UNL     1     -10.845   6.006  73.794  1.00  0.00    -0.419 N  
HETATM   15  O   UNL     1     -11.519   5.910  71.645  1.00  0.00    -0.259 OA 
HETATM   16  H1  UNL     1     -10.620   5.018  73.677  1.00  0.00     0.000 HD 
HETATM   17  H2  UNL     1     -10.694   6.522  74.661  1.00  0.00     0.000 HD 
ENDBRANCH  11  13
ENDBRANCH  10  11
ENDBRANCH   9  10
ENDBRANCH   8   9
ENDBRANCH   2   8
TORSDOF 5
ENDMDL
MODEL      169
REMARK 921   NORMALIZED FREE ENERGY PREDICTED BY IDOCK:   -2.58 KCAL/MOL
REMARK 922        TOTAL FREE ENERGY PREDICTED BY IDOCK:   -4.21 KCAL/MOL
REMARK 923 INTER-LIGAND FREE ENERGY PREDICTED BY IDOCK:   -4.02 KCAL/MOL
REMARK 924 INTRA-LIGAND FREE ENERGY PREDICTED BY IDOCK:   -0.19 KCAL/MOL
REMARK 927      BINDING AFFINITY PREDICTED BY RF-SCORE:    0.00 PKD
ROOT
HETATM    1  N   UNL     1     -11.317  14.967  65.647  1.00  0.00    -0.342 NA 
HETATM    2  CA  UNL     1     -11.984  14.267  66.786  1.00  0.00    -0.436 C  
HETATM    3  H1  UNL     1     -11.557  15.957  65.610  1.00  0.00     0.000 HD 
HETATM    4  H2  UNL     1     -11.520  14.504  64.761  1.00  0.00     0.000 HD 
HETATM    5  C   UNL     1     -11.556  14.956  68.096  1.00  0.00    -0.334 C  
HETATM    6  OXT UNL     1     -11.840  14.575  69.220  1.00  0.00    -0.291 OA 
HETATM    7  O   UNL     1     -10.814  16.068  67.848  1.00  0.00    -0.316 OA 
ENDROOT
BRANCH   2   8
HETATM    8  C   UNL     1     -11.623  12.779  66.842  1.00  0.00    -0.428 C  
BRANCH   8   9
HETATM    9  C   UNL     1     -11.330  12.169  65.471  1.00  0.00    -0.393 C  
BRANCH   9  10
HETATM   10  C   UNL     1     -10.229  11.115  65.569  1.00  0.00    -0.263 C  
BRANCH  10  11
HETATM   11  N   UNL     1     -10.102  10.611  66.919  1.00  0.00    -0.206 N  
HETATM   12  H   UNL     1      -9.632  11.184  67.620  1.00  0.00     0.000 HD 
BRANCH  11  13
HETATM   13  C   UNL     1     -10.592   9.392  67.280  1.00  0.00    -0.244 C  
HETATM   14  N   UNL     1     -11.210   9.419  68.487  1.00  0.00    -0.473 N  
HETATM   15  O   UNL     1     -10.494   8.365  66.628  1.00  0.00    -0.294 OA 
HETATM   16  H1  UNL     1     -11.577   8.507  68.758  1.00  0.00     0.000 HD 
HETATM   17  H2  UNL     1     -11.298  10.258  69.060  1.00  0.00     0.000 HD 
ENDBRANCH  11  13
ENDBRANCH  10  11
ENDBRANCH   9  10
ENDBRANCH   8   9
ENDBRANCH   2   8
TORSDOF 5
ENDMDL
MODEL      170
REMARK 921   NORMALIZED FREE ENERGY PREDICTED BY IDOCK:   -2.58 KCAL/MOL
REMARK 922        TOTAL FREE ENERGY PREDICTED BY IDOCK:   -4.21 KCAL/MOL
REMARK 923 INTER-LIGAND FREE ENERGY PREDICTED BY IDOCK:   -4.06 KCAL/MOL
REMARK 924 INTRA-LIGAND FREE ENERGY PREDICTED BY IDOCK:   -0.15 KCAL/MOL
REMARK 927      BINDING AFFINITY PREDICTED BY RF-SCORE:    0.00 PKD
ROOT
HETATM    1  N   UNL     1     -11.106   4.655  65.440  1.00  0.00    -0.958 NA 
HETATM    2  CA  UNL     1     -10.127   5.477  66.214  1.00  0.00    -0.145 C  
HETATM    3  H1  UNL     1     -10.652   3.907  64.917  1.00  0.00     0.000 HD 
HETATM    4  H2  UNL     1     -11.676   5.239  64.829  1.00  0.00     0.000 HD 
HETATM    5  C   UNL     1      -9.372   4.547  67.183  1.00  0.00    -0.147 C  
HETATM    6  OXT UNL     1      -8.572   4.911  68.030  1.00  0.00    -0.103 OA 
HETATM    7  O   UNL     1      -9.704   3.245  66.976  1.00  0.00    -0.117 OA 
ENDROOT
BRANCH   2   8
HETATM    8  C   UNL     1     -10.810   6.601  67.000  1.00  0.00    -0.467 C  
BRANCH   8   9
HETATM    9  C   UNL     1     -10.042   7.924  66.969  1.00  0.00    -0.347 C  
BRANCH   9  10
HETATM   10  C   UNL     1     -10.464   8.824  68.127  1.00  0.00    -0.191 C  
BRANCH  10  11
HETATM   11  N   UNL     1     -11.189   9.984  67.655  1.00  0.00    -0.432 N  
HETATM   12  H   UNL     1     -11.270  10.143  66.651  1.00  0.00     0.000 HD 
BRANCH  11  13
HETATM   13  C   UNL     1     -11.765  10.870  68.514  1.00  0.00    -0.237 C  
HETATM   14  N   UNL     1     -12.024  10.321  69.727  1.00  0.00    -0.467 N  
HETATM   15  O   UNL     1     -12.047  12.029  68.256  1.00  0.00    -0.447 OA 
HETATM   16  H1  UNL     1     -12.457  10.984  70.370  1.00  0.00     0.000 HD 
HETATM   17  H2  UNL     1     -11.811   9.353  69.968  1.00  0.00     0.000 HD 
ENDBRANCH  11  13
ENDBRANCH  10  11
ENDBRANCH   9  10
ENDBRANCH   8   9
ENDBRANCH   2   8
TORSDOF 5
ENDMDL
MODEL      171
REMARK 921   NORMALIZED FREE ENERGY PREDICTED BY IDOCK:   -2.56 KCAL/MOL
REMARK 922        TOTAL FREE ENERGY PREDICTED BY IDOCK:   -4.19 KCAL/MOL
REMARK 923 INTER-LIGAND FREE ENERGY PREDICTED BY IDOCK:   -3.67 KCAL/MOL
REMARK 924 INTRA-LIGAND FREE ENERGY PREDICTED BY IDOCK:   -0.52 KCAL/MOL
REMARK 927      BINDING AFFINITY PREDICTED BY RF-SCORE:    0.00 PKD
ROOT
HETATM    1  N   UNL     1      -9.846   8.192  66.130  1.00  0.00    -0.464 NA 
HETATM    2  CA  UNL     1     -10.386   9.541  66.477  1.00  0.00    -0.193 C  
HETATM    3  H1  UNL     1     -10.276   7.810  65.288  1.00  0.00     0.000 HD 
HETATM    4  H2  UNL     1      -9.935   7.547  66.915  1.00  0.00     0.000 HD 
HETATM    5  C   UNL     1     -10.130  10.487  65.287  1.00  0.00    -0.300 C  
HETATM    6  OXT UNL     1     -10.357  11.685  65.276  1.00  0.00    -0.247 OA 
HETATM    7  O   UNL     1      -9.617   9.812  64.224  1.00  0.00    -0.236 OA 
ENDROOT
BRANCH   2   8
HETATM    8  C   UNL     1      -9.740  10.115  67.742  1.00  0.00    -0.176 C  
BRANCH   8   9
HETATM    9  C   UNL     1     -10.711  10.253  68.916  1.00  0.00    -0.256 C  
BRANCH   9  10
HETATM   10  C   UNL     1     -11.746  11.341  68.640  1.00  0.00    -0.324 C  
BRANCH  10  11
HETATM   11  N   UNL     1     -11.113  12.596  68.297  1.00  0.00    -0.244 N  
HETATM   12  H   UNL     1     -10.114  12.607  68.093  1.00  0.00     0.000 HD 
BRANCH  11  13
HETATM   13  C   UNL     1     -11.814  13.762  68.240  1.00  0.00    -0.378 C  
HETATM   14  N   UNL     1     -12.310  14.008  67.002  1.00  0.00    -0.538 N  
HETATM   15  O   UNL     1     -11.988  14.534  69.170  1.00  0.00    -0.313 OA 
HETATM   16  H1  UNL     1     -12.835  14.882  66.959  1.00  0.00     0.000 HD 
HETATM   17  H2  UNL     1     -12.173  13.389  66.203  1.00  0.00     0.000 HD 
ENDBRANCH  11  13
ENDBRANCH  10  11
ENDBRANCH   9  10
ENDBRANCH   8   9
ENDBRANCH   2   8
TORSDOF 5
ENDMDL
MODEL      172
REMARK 921   NORMALIZED FREE ENERGY PREDICTED BY IDOCK:   -2.56 KCAL/MOL
REMARK 922        TOTAL FREE ENERGY PREDICTED BY IDOCK:   -4.19 KCAL/MOL
REMARK 923 INTER-LIGAND FREE ENERGY PREDICTED BY IDOCK:   -3.64 KCAL/MOL
REMARK 924 INTRA-LIGAND FREE ENERGY PREDICTED BY IDOCK:   -0.55 KCAL/MOL
REMARK 927      BINDING AFFINITY PREDICTED BY RF-SCORE:    0.00 PKD
ROOT
HETATM    1  N   UNL     1      -9.867  13.268  68.674  1.00  0.00    -0.392 NA 
HETATM    2  CA  UNL     1      -8.585  12.776  68.086  1.00  0.00    -0.185 C  
HETATM    3  H1  UNL     1      -9.728  13.711  69.582  1.00  0.00     0.000 HD 
HETATM    4  H2  UNL     1     -10.557  12.519  68.730  1.00  0.00     0.000 HD 
HETATM    5  C   UNL     1      -7.627  13.975  67.939  1.00  0.00    -0.155 C  
HETATM    6  OXT UNL     1      -6.532  13.941  67.402  1.00  0.00    -0.299 OA 
HETATM    7  O   UNL     1      -8.154  15.097  68.498  1.00  0.00    -0.133 OA 
ENDROOT
BRANCH   2   8
HETATM    8  C   UNL     1      -8.792  12.110  66.722  1.00  0.00    -0.198 C  
BRANCH   8   9
HETATM    9  C   UNL     1      -9.812  10.970  66.746  1.00  0.00    -0.229 C  
BRANCH   9  10
HETATM   10  C   UNL     1     -11.121  11.398  66.087  1.00  0.00    -0.198 C  
BRANCH  10  11
HETATM   11  N   UNL     1     -11.091  12.796  65.715  1.00  0.00    -0.279 N  
HETATM   12  H   UNL     1     -10.286  13.155  65.202  1.00  0.00     0.000 HD 
BRANCH  11  13
HETATM   13  C   UNL     1     -12.108  13.645  66.030  1.00  0.00    -0.441 C  
HETATM   14  N   UNL     1     -13.132  13.579  65.143  1.00  0.00    -0.713 N  
HETATM   15  O   UNL     1     -12.129  14.406  66.984  1.00  0.00    -0.418 OA 
HETATM   16  H1  UNL     1     -13.893  14.215  65.378  1.00  0.00     0.000 HD 
HETATM   17  H2  UNL     1     -13.139  12.962  64.330  1.00  0.00     0.000 HD 
ENDBRANCH  11  13
ENDBRANCH  10  11
ENDBRANCH   9  10
ENDBRANCH   8   9
ENDBRANCH   2   8
TORSDOF 5
ENDMDL
MODEL      173
REMARK 921   NORMALIZED FREE ENERGY PREDICTED BY IDOCK:   -2.56 KCAL/MOL
REMARK 922        TOTAL FREE ENERGY PREDICTED BY IDOCK:   -4.18 KCAL/MOL
REMARK 923 INTER-LIGAND FREE ENERGY PREDICTED BY IDOCK:   -4.02 KCAL/MOL
REMARK 924 INTRA-LIGAND FREE ENERGY PREDICTED BY IDOCK:   -0.16 KCAL/MOL
REMARK 927      BINDING AFFINITY PREDICTED BY RF-SCORE:    0.00 PKD
ROOT
HETATM    1  N   UNL     1     -10.284  12.913  63.604  1.00  0.00    -0.682 NA 
HETATM    2  CA  UNL     1      -9.981  11.886  64.647  1.00  0.00    -0.230 C  
HETATM    3  H1  UNL     1      -9.495  13.070  62.978  1.00  0.00     0.000 HD 
HETATM    4  H2  UNL     1     -10.601  13.785  64.027  1.00  0.00     0.000 HD 
HETATM    5  C   UNL     1      -9.607  10.570  63.938  1.00  0.00    -0.309 C  
HETATM    6  OXT UNL     1      -9.399   9.504  64.493  1.00  0.00    -0.232 OA 
HETATM    7  O   UNL     1      -9.528  10.741  62.591  1.00  0.00    -0.297 OA 
ENDROOT
BRANCH   2   8
HETATM    8  C   UNL     1     -11.167  11.649  65.587  1.00  0.00    -0.275 C  
BRANCH   8   9
HETATM    9  C   UNL     1     -11.786  12.938  66.129  1.00  0.00    -0.487 C  
BRANCH   9  10
HETATM   10  C   UNL     1     -11.856  12.908  67.654  1.00  0.00    -0.346 C  
BRANCH  10  11
HETATM   11  N   UNL     1     -11.841  11.552  68.155  1.00  0.00    -0.279 N  
HETATM   12  H   UNL     1     -12.552  10.896  67.832  1.00  0.00     0.000 HD 
BRANCH  11  13
HETATM   13  C   UNL     1     -10.904  11.126  69.047  1.00  0.00    -0.231 C  
HETATM   14  N   UNL     1      -9.799  11.911  69.053  1.00  0.00    -0.415 N  
HETATM   15  O   UNL     1     -11.002  10.145  69.768  1.00  0.00    -0.243 OA 
HETATM   16  H1  UNL     1      -9.097  11.593  69.721  1.00  0.00     0.000 HD 
HETATM   17  H2  UNL     1      -9.683  12.730  68.456  1.00  0.00     0.000 HD 
ENDBRANCH  11  13
ENDBRANCH  10  11
ENDBRANCH   9  10
ENDBRANCH   8   9
ENDBRANCH   2   8
TORSDOF 5
ENDMDL
MODEL      174
REMARK 921   NORMALIZED FREE ENERGY PREDICTED BY IDOCK:   -2.56 KCAL/MOL
REMARK 922        TOTAL FREE ENERGY PREDICTED BY IDOCK:   -4.18 KCAL/MOL
REMARK 923 INTER-LIGAND FREE ENERGY PREDICTED BY IDOCK:   -3.65 KCAL/MOL
REMARK 924 INTRA-LIGAND FREE ENERGY PREDICTED BY IDOCK:   -0.53 KCAL/MOL
REMARK 927      BINDING AFFINITY PREDICTED BY RF-SCORE:    0.00 PKD
ROOT
HETATM    1  N   UNL     1      -9.475  10.615  69.601  1.00  0.00    -0.419 NA 
HETATM    2  CA  UNL     1     -10.914  10.952  69.820  1.00  0.00    -0.226 C  
HETATM    3  H1  UNL     1      -8.951  10.579  70.475  1.00  0.00     0.000 HD 
HETATM    4  H2  UNL     1      -9.043  11.258  68.937  1.00  0.00     0.000 HD 
HETATM    5  C   UNL     1     -11.526   9.887  70.752  1.00  0.00    -0.354 C  
HETATM    6  OXT UNL     1     -12.705   9.808  71.054  1.00  0.00    -0.322 OA 
HETATM    7  O   UNL     1     -10.574   9.032  71.213  1.00  0.00    -0.254 OA 
ENDROOT
BRANCH   2   8
HETATM    8  C   UNL     1     -11.702  11.005  68.508  1.00  0.00    -0.348 C  
BRANCH   8   9
HETATM    9  C   UNL     1     -11.907  12.424  67.974  1.00  0.00    -0.376 C  
BRANCH   9  10
HETATM   10  C   UNL     1     -11.476  12.522  66.513  1.00  0.00    -0.362 C  
BRANCH  10  11
HETATM   11  N   UNL     1     -10.195  13.183  66.385  1.00  0.00    -0.279 N  
HETATM   12  H   UNL     1     -10.167  14.152  66.069  1.00  0.00     0.000 HD 
BRANCH  11  13
HETATM   13  C   UNL     1      -9.026  12.546  66.675  1.00  0.00    -0.174 C  
HETATM   14  N   UNL     1      -8.724  11.582  65.771  1.00  0.00    -0.387 N  
HETATM   15  O   UNL     1      -8.311  12.777  67.637  1.00  0.00    -0.151 OA 
HETATM   16  H1  UNL     1      -7.849  11.105  65.988  1.00  0.00     0.000 HD 
HETATM   17  H2  UNL     1      -9.306  11.358  64.964  1.00  0.00     0.000 HD 
ENDBRANCH  11  13
ENDBRANCH  10  11
ENDBRANCH   9  10
ENDBRANCH   8   9
ENDBRANCH   2   8
TORSDOF 5
ENDMDL
MODEL      175
REMARK 921   NORMALIZED FREE ENERGY PREDICTED BY IDOCK:   -2.54 KCAL/MOL
REMARK 922        TOTAL FREE ENERGY PREDICTED BY IDOCK:   -4.16 KCAL/MOL
REMARK 923 INTER-LIGAND FREE ENERGY PREDICTED BY IDOCK:   -3.94 KCAL/MOL
REMARK 924 INTRA-LIGAND FREE ENERGY PREDICTED BY IDOCK:   -0.23 KCAL/MOL
REMARK 927      BINDING AFFINITY PREDICTED BY RF-SCORE:    0.00 PKD
ROOT
HETATM    1  N   UNL     1      -7.986   6.914  68.473  1.00  0.00    -0.118 NA 
HETATM    2  CA  UNL     1      -9.423   6.508  68.505  1.00  0.00    -0.121 C  
HETATM    3  H1  UNL     1      -7.483   6.487  67.695  1.00  0.00     0.000 HD 
HETATM    4  H2  UNL     1      -7.527   6.717  69.362  1.00  0.00     0.000 HD 
HETATM    5  C   UNL     1     -10.075   6.924  67.172  1.00  0.00    -0.209 C  
HETATM    6  OXT UNL     1     -11.262   6.829  66.907  1.00  0.00    -0.375 OA 
HETATM    7  O   UNL     1      -9.150   7.413  66.303  1.00  0.00    -0.166 OA 
ENDROOT
BRANCH   2   8
HETATM    8  C   UNL     1     -10.179   7.149  69.673  1.00  0.00    -0.215 C  
BRANCH   8   9
HETATM    9  C   UNL     1     -11.090   6.175  70.422  1.00  0.00    -0.420 C  
BRANCH   9  10
HETATM   10  C   UNL     1     -12.230   6.918  71.113  1.00  0.00    -0.379 C  
BRANCH  10  11
HETATM   11  N   UNL     1     -12.168   8.339  70.851  1.00  0.00    -0.484 N  
HETATM   12  H   UNL     1     -11.761   8.664  69.974  1.00  0.00     0.000 HD 
BRANCH  11  13
HETATM   13  C   UNL     1     -12.636   9.255  71.743  1.00  0.00    -0.382 C  
HETATM   14  N   UNL     1     -13.400   8.692  72.711  1.00  0.00    -0.674 N  
HETATM   15  O   UNL     1     -12.428  10.458  71.703  1.00  0.00    -0.391 OA 
HETATM   16  H1  UNL     1     -13.751   9.378  73.380  1.00  0.00     0.000 HD 
HETATM   17  H2  UNL     1     -13.601   7.694  72.766  1.00  0.00     0.000 HD 
ENDBRANCH  11  13
ENDBRANCH  10  11
ENDBRANCH   9  10
ENDBRANCH   8   9
ENDBRANCH   2   8
TORSDOF 5
ENDMDL
MODEL      176
REMARK 921   NORMALIZED FREE ENERGY PREDICTED BY IDOCK:   -2.52 KCAL/MOL
REMARK 922        TOTAL FREE ENERGY PREDICTED BY IDOCK:   -4.13 KCAL/MOL
REMARK 923 INTER-LIGAND FREE ENERGY PREDICTED BY IDOCK:   -3.99 KCAL/MOL
REMARK 924 INTRA-LIGAND FREE ENERGY PREDICTED BY IDOCK:   -0.14 KCAL/MOL
REMARK 927      BINDING AFFINITY PREDICTED BY RF-SCORE:    0.00 PKD
ROOT
HETATM    1  N   UNL     1     -11.425  11.547  67.584  1.00  0.00    -0.437 NA 
HETATM    2  CA  UNL     1     -11.443  12.560  68.682  1.00  0.00    -0.306 C  
HETATM    3  H1  UNL     1     -10.953  10.687  67.862  1.00  0.00     0.000 HD 
HETATM    4  H2  UNL     1     -11.016  11.934  66.733  1.00  0.00     0.000 HD 
HETATM    5  C   UNL     1     -12.160  11.943  69.899  1.00  0.00    -0.272 C  
HETATM    6  OXT UNL     1     -12.435  12.534  70.931  1.00  0.00    -0.365 OA 
HETATM    7  O   UNL     1     -12.451  10.632  69.687  1.00  0.00    -0.257 OA 
ENDROOT
BRANCH   2   8
HETATM    8  C   UNL     1     -12.151  13.853  68.265  1.00  0.00    -0.322 C  
BRANCH   8   9
HETATM    9  C   UNL     1     -11.206  14.913  67.697  1.00  0.00    -0.330 C  
BRANCH   9  10
HETATM   10  C   UNL     1     -11.352  16.231  68.453  1.00  0.00    -0.312 C  
BRANCH  10  11
HETATM   11  N   UNL     1     -10.122  16.993  68.426  1.00  0.00    -0.283 N  
HETATM   12  H   UNL     1      -9.243  16.523  68.638  1.00  0.00     0.000 HD 
BRANCH  11  13
HETATM   13  C   UNL     1     -10.107  18.321  68.124  1.00  0.00    -0.379 C  
HETATM   14  N   UNL     1      -9.933  18.550  66.799  1.00  0.00    -0.338 N  
HETATM   15  O   UNL     1     -10.217  19.234  68.927  1.00  0.00    -0.392 OA 
HETATM   16  H1  UNL     1      -9.921  19.544  66.573  1.00  0.00     0.000 HD 
HETATM   17  H2  UNL     1      -9.827  17.809  66.105  1.00  0.00     0.000 HD 
ENDBRANCH  11  13
ENDBRANCH  10  11
ENDBRANCH   9  10
ENDBRANCH   8   9
ENDBRANCH   2   8
TORSDOF 5
ENDMDL
MODEL      177
REMARK 921   NORMALIZED FREE ENERGY PREDICTED BY IDOCK:   -2.51 KCAL/MOL
REMARK 922        TOTAL FREE ENERGY PREDICTED BY IDOCK:   -4.12 KCAL/MOL
REMARK 923 INTER-LIGAND FREE ENERGY PREDICTED BY IDOCK:   -3.91 KCAL/MOL
REMARK 924 INTRA-LIGAND FREE ENERGY PREDICTED BY IDOCK:   -0.21 KCAL/MOL
REMARK 927      BINDING AFFINITY PREDICTED BY RF-SCORE:    0.00 PKD
ROOT
HETATM    1  N   UNL     1     -12.343  12.372  65.325  1.00  0.00    -0.595 NA 
HETATM    2  CA  UNL     1     -11.985  13.037  66.615  1.00  0.00    -0.387 C  
HETATM    3  H1  UNL     1     -12.669  13.039  64.626  1.00  0.00     0.000 HD 
HETATM    4  H2  UNL     1     -13.024  11.628  65.471  1.00  0.00     0.000 HD 
HETATM    5  C   UNL     1     -10.884  14.078  66.335  1.00  0.00    -0.299 C  
HETATM    6  OXT UNL     1     -10.296  14.728  67.184  1.00  0.00    -0.252 OA 
HETATM    7  O   UNL     1     -10.644  14.195  65.002  1.00  0.00    -0.368 OA 
ENDROOT
BRANCH   2   8
HETATM    8  C   UNL     1     -11.495  12.035  67.665  1.00  0.00    -0.392 C  
BRANCH   8   9
HETATM    9  C   UNL     1     -12.109  12.250  69.050  1.00  0.00    -0.197 C  
BRANCH   9  10
HETATM   10  C   UNL     1     -11.547  11.248  70.055  1.00  0.00    -0.321 C  
BRANCH  10  11
HETATM   11  N   UNL     1     -10.183  10.887  69.733  1.00  0.00    -0.438 N  
HETATM   12  H   UNL     1      -9.519  11.624  69.497  1.00  0.00     0.000 HD 
BRANCH  11  13
HETATM   13  C   UNL     1      -9.763   9.592  69.737  1.00  0.00    -0.224 C  
HETATM   14  N   UNL     1      -8.792   9.365  70.656  1.00  0.00    -0.238 N  
HETATM   15  O   UNL     1     -10.176   8.708  69.003  1.00  0.00    -0.198 OA 
HETATM   16  H1  UNL     1      -8.476   8.395  70.659  1.00  0.00     0.000 HD 
HETATM   17  H2  UNL     1      -8.418  10.085  71.276  1.00  0.00     0.000 HD 
ENDBRANCH  11  13
ENDBRANCH  10  11
ENDBRANCH   9  10
ENDBRANCH   8   9
ENDBRANCH   2   8
TORSDOF 5
ENDMDL
MODEL      178
REMARK 921   NORMALIZED FREE ENERGY PREDICTED BY IDOCK:   -2.49 KCAL/MOL
REMARK 922        TOTAL FREE ENERGY PREDICTED BY IDOCK:   -4.09 KCAL/MOL
REMARK 923 INTER-LIGAND FREE ENERGY PREDICTED BY IDOCK:   -3.57 KCAL/MOL
REMARK 924 INTRA-LIGAND FREE ENERGY PREDICTED BY IDOCK:   -0.52 KCAL/MOL
REMARK 927      BINDING AFFINITY PREDICTED BY RF-SCORE:    0.00 PKD
ROOT
HETATM    1  N   UNL     1      -8.065   6.219  70.896  1.00  0.00    -0.122 NA 
HETATM    2  CA  UNL     1      -9.271   7.101  70.906  1.00  0.00    -0.152 C  
HETATM    3  H1  UNL     1      -8.035   5.599  71.705  1.00  0.00     0.000 HD 
HETATM    4  H2  UNL     1      -7.208   6.768  70.819  1.00  0.00     0.000 HD 
HETATM    5  C   UNL     1     -10.526   6.206  70.923  1.00  0.00    -0.228 C  
HETATM    6  OXT UNL     1     -11.676   6.603  70.835  1.00  0.00    -0.339 OA 
HETATM    7  O   UNL     1     -10.193   4.894  71.057  1.00  0.00    -0.217 OA 
ENDROOT
BRANCH   2   8
HETATM    8  C   UNL     1      -9.316   8.033  69.691  1.00  0.00    -0.156 C  
BRANCH   8   9
HETATM    9  C   UNL     1      -9.497   9.507  70.057  1.00  0.00    -0.265 C  
BRANCH   9  10
HETATM   10  C   UNL     1     -10.905   9.985  69.707  1.00  0.00    -0.273 C  
BRANCH  10  11
HETATM   11  N   UNL     1     -11.481  10.760  70.784  1.00  0.00    -0.387 N  
HETATM   12  H   UNL     1     -10.958  11.551  71.159  1.00  0.00     0.000 HD 
BRANCH  11  13
HETATM   13  C   UNL     1     -12.701  10.463  71.310  1.00  0.00    -0.432 C  
HETATM   14  N   UNL     1     -13.098   9.200  71.017  1.00  0.00    -0.537 N  
HETATM   15  O   UNL     1     -13.398  11.223  71.964  1.00  0.00    -0.462 OA 
HETATM   16  H1  UNL     1     -14.012   8.977  71.410  1.00  0.00     0.000 HD 
HETATM   17  H2  UNL     1     -12.544   8.545  70.464  1.00  0.00     0.000 HD 
ENDBRANCH  11  13
ENDBRANCH  10  11
ENDBRANCH   9  10
ENDBRANCH   8   9
ENDBRANCH   2   8
TORSDOF 5
ENDMDL
MODEL      179
REMARK 921   NORMALIZED FREE ENERGY PREDICTED BY IDOCK:   -2.49 KCAL/MOL
REMARK 922        TOTAL FREE ENERGY PREDICTED BY IDOCK:   -4.09 KCAL/MOL
REMARK 923 INTER-LIGAND FREE ENERGY PREDICTED BY IDOCK:   -3.98 KCAL/MOL
REMARK 924 INTRA-LIGAND FREE ENERGY PREDICTED BY IDOCK:   -0.11 KCAL/MOL
REMARK 927      BINDING AFFINITY PREDICTED BY RF-SCORE:    0.00 PKD
ROOT
HETATM    1  N   UNL     1      -9.618  17.119  68.580  1.00  0.00    -0.278 NA 
HETATM    2  CA  UNL     1      -9.764  16.967  67.101  1.00  0.00    -0.259 C  
HETATM    3  H1  UNL     1      -9.014  17.902  68.828  1.00  0.00     0.000 HD 
HETATM    4  H2  UNL     1      -9.295  16.253  69.010  1.00  0.00     0.000 HD 
HETATM    5  C   UNL     1     -10.347  18.276  66.533  1.00  0.00    -0.392 C  
HETATM    6  OXT UNL     1     -10.683  18.454  65.374  1.00  0.00    -0.594 OA 
HETATM    7  O   UNL     1     -10.439  19.232  67.496  1.00  0.00    -0.403 OA 
ENDROOT
BRANCH   2   8
HETATM    8  C   UNL     1     -10.672  15.791  66.727  1.00  0.00    -0.293 C  
BRANCH   8   9
HETATM    9  C   UNL     1     -10.923  14.821  67.883  1.00  0.00    -0.282 C  
BRANCH   9  10
HETATM   10  C   UNL     1     -11.658  13.574  67.396  1.00  0.00    -0.356 C  
BRANCH  10  11
HETATM   11  N   UNL     1     -10.746  12.469  67.198  1.00  0.00    -0.234 N  
HETATM   12  H   UNL     1     -10.036  12.537  66.469  1.00  0.00     0.000 HD 
BRANCH  11  13
HETATM   13  C   UNL     1     -10.810  11.340  67.957  1.00  0.00    -0.218 C  
HETATM   14  N   UNL     1     -10.864  11.610  69.284  1.00  0.00    -0.393 N  
HETATM   15  O   UNL     1     -10.806  10.195  67.531  1.00  0.00    -0.281 OA 
HETATM   16  H1  UNL     1     -10.912  10.765  69.853  1.00  0.00     0.000 HD 
HETATM   17  H2  UNL     1     -10.858  12.554  69.671  1.00  0.00     0.000 HD 
ENDBRANCH  11  13
ENDBRANCH  10  11
ENDBRANCH   9  10
ENDBRANCH   8   9
ENDBRANCH   2   8
TORSDOF 5
ENDMDL
MODEL      180
REMARK 921   NORMALIZED FREE ENERGY PREDICTED BY IDOCK:   -2.47 KCAL/MOL
REMARK 922        TOTAL FREE ENERGY PREDICTED BY IDOCK:   -4.07 KCAL/MOL
REMARK 923 INTER-LIGAND FREE ENERGY PREDICTED BY IDOCK:   -3.84 KCAL/MOL
REMARK 924 INTRA-LIGAND FREE ENERGY PREDICTED BY IDOCK:   -0.23 KCAL/MOL
REMARK 927      BINDING AFFINITY PREDICTED BY RF-SCORE:    0.00 PKD
ROOT
HETATM    1  N   UNL     1     -11.578  14.815  66.708  1.00  0.00    -0.354 NA 
HETATM    2  CA  UNL     1     -10.120  15.129  66.795  1.00  0.00    -0.258 C  
HETATM    3  H1  UNL     1     -11.788  14.170  65.947  1.00  0.00     0.000 HD 
HETATM    4  H2  UNL     1     -12.134  15.667  66.634  1.00  0.00     0.000 HD 
HETATM    5  C   UNL     1      -9.352  13.809  67.004  1.00  0.00    -0.248 C  
HETATM    6  OXT UNL     1      -8.154  13.716  67.214  1.00  0.00    -0.176 OA 
HETATM    7  O   UNL     1     -10.183  12.736  66.919  1.00  0.00    -0.233 OA 
ENDROOT
BRANCH   2   8
HETATM    8  C   UNL     1      -9.804  16.099  67.938  1.00  0.00    -0.235 C  
BRANCH   8   9
HETATM    9  C   UNL     1     -10.880  17.164  68.152  1.00  0.00    -0.316 C  
BRANCH   9  10
HETATM   10  C   UNL     1     -10.491  18.475  67.474  1.00  0.00    -0.418 C  
BRANCH  10  11
HETATM   11  N   UNL     1      -9.096  18.789  67.695  1.00  0.00    -0.280 N  
HETATM   12  H   UNL     1      -8.687  18.609  68.612  1.00  0.00     0.000 HD 
BRANCH  11  13
HETATM   13  C   UNL     1      -8.314  19.317  66.714  1.00  0.00    -0.296 C  
HETATM   14  N   UNL     1      -8.025  20.624  66.929  1.00  0.00    -0.546 N  
HETATM   15  O   UNL     1      -7.910  18.720  65.728  1.00  0.00    -0.484 OA 
HETATM   16  H1  UNL     1      -7.439  21.020  66.194  1.00  0.00     0.000 HD 
HETATM   17  H2  UNL     1      -8.356  21.153  67.736  1.00  0.00     0.000 HD 
ENDBRANCH  11  13
ENDBRANCH  10  11
ENDBRANCH   9  10
ENDBRANCH   8   9
ENDBRANCH   2   8
TORSDOF 5
ENDMDL
MODEL      181
REMARK 921   NORMALIZED FREE ENERGY PREDICTED BY IDOCK:   -2.47 KCAL/MOL
REMARK 922        TOTAL FREE ENERGY PREDICTED BY IDOCK:   -4.07 KCAL/MOL
REMARK 923 INTER-LIGAND FREE ENERGY PREDICTED BY IDOCK:   -3.89 KCAL/MOL
REMARK 924 INTRA-LIGAND FREE ENERGY PREDICTED BY IDOCK:   -0.18 KCAL/MOL
REMARK 927      BINDING AFFINITY PREDICTED BY RF-SCORE:    0.00 PKD
ROOT
HETATM    1  N   UNL     1     -12.105   8.614  70.234  1.00  0.00    -0.348 NA 
HETATM    2  CA  UNL     1     -10.716   9.064  69.919  1.00  0.00    -0.229 C  
HETATM    3  H1  UNL     1     -12.598   9.277  70.832  1.00  0.00     0.000 HD 
HETATM    4  H2  UNL     1     -12.107   7.679  70.641  1.00  0.00     0.000 HD 
HETATM    5  C   UNL     1     -10.796  10.435  69.221  1.00  0.00    -0.241 C  
HETATM    6  OXT UNL     1      -9.851  11.040  68.742  1.00  0.00    -0.191 OA 
HETATM    7  O   UNL     1     -12.072  10.906  69.206  1.00  0.00    -0.332 OA 
ENDROOT
BRANCH   2   8
HETATM    8  C   UNL     1      -9.975   8.068  69.021  1.00  0.00    -0.186 C  
BRANCH   8   9
HETATM    9  C   UNL     1     -10.591   7.925  67.628  1.00  0.00    -0.276 C  
BRANCH   9  10
HETATM   10  C   UNL     1     -11.135   6.514  67.416  1.00  0.00    -0.327 C  
BRANCH  10  11
HETATM   11  N   UNL     1     -10.690   5.962  66.156  1.00  0.00    -0.540 N  
HETATM   12  H   UNL     1     -10.524   6.590  65.370  1.00  0.00     0.000 HD 
BRANCH  11  13
HETATM   13  C   UNL     1     -10.486   4.626  65.989  1.00  0.00    -0.264 C  
HETATM   14  N   UNL     1     -11.189   4.120  64.945  1.00  0.00    -0.745 N  
HETATM   15  O   UNL     1      -9.773   3.923  66.687  1.00  0.00    -0.211 OA 
HETATM   16  H1  UNL     1     -11.037   3.120  64.820  1.00  0.00     0.000 HD 
HETATM   17  H2  UNL     1     -11.802   4.679  64.351  1.00  0.00     0.000 HD 
ENDBRANCH  11  13
ENDBRANCH  10  11
ENDBRANCH   9  10
ENDBRANCH   8   9
ENDBRANCH   2   8
TORSDOF 5
ENDMDL
MODEL      182
REMARK 921   NORMALIZED FREE ENERGY PREDICTED BY IDOCK:   -2.47 KCAL/MOL
REMARK 922        TOTAL FREE ENERGY PREDICTED BY IDOCK:   -4.06 KCAL/MOL
REMARK 923 INTER-LIGAND FREE ENERGY PREDICTED BY IDOCK:   -3.65 KCAL/MOL
REMARK 924 INTRA-LIGAND FREE ENERGY PREDICTED BY IDOCK:   -0.41 KCAL/MOL
REMARK 927      BINDING AFFINITY PREDICTED BY RF-SCORE:    0.00 PKD
ROOT
HETATM    1  N   UNL     1     -10.217   7.870  66.339  1.00  0.00    -0.485 NA 
HETATM    2  CA  UNL     1     -10.258   9.007  67.307  1.00  0.00    -0.256 C  
HETATM    3  H1  UNL     1     -10.961   7.928  65.645  1.00  0.00     0.000 HD 
HETATM    4  H2  UNL     1     -10.234   6.972  66.824  1.00  0.00     0.000 HD 
HETATM    5  C   UNL     1     -10.129  10.323  66.515  1.00  0.00    -0.231 C  
HETATM    6  OXT UNL     1     -10.029  11.435  67.007  1.00  0.00    -0.196 OA 
HETATM    7  O   UNL     1     -10.149  10.095  65.175  1.00  0.00    -0.326 OA 
ENDROOT
BRANCH   2   8
HETATM    8  C   UNL     1      -9.140   8.920  68.351  1.00  0.00    -0.137 C  
BRANCH   8   9
HETATM    9  C   UNL     1      -9.631   8.511  69.741  1.00  0.00    -0.170 C  
BRANCH   9  10
HETATM   10  C   UNL     1     -10.966   9.177  70.064  1.00  0.00    -0.220 C  
BRANCH  10  11
HETATM   11  N   UNL     1     -10.812  10.604  70.246  1.00  0.00    -0.459 N  
HETATM   12  H   UNL     1      -9.959  10.959  70.678  1.00  0.00     0.000 HD 
BRANCH  11  13
HETATM   13  C   UNL     1     -11.774  11.486  69.857  1.00  0.00    -0.343 C  
HETATM   14  N   UNL     1     -11.690  12.668  70.515  1.00  0.00    -0.494 N  
HETATM   15  O   UNL     1     -12.642  11.270  69.025  1.00  0.00    -0.332 OA 
HETATM   16  H1  UNL     1     -12.411  13.329  70.224  1.00  0.00     0.000 HD 
HETATM   17  H2  UNL     1     -10.984  12.874  71.223  1.00  0.00     0.000 HD 
ENDBRANCH  11  13
ENDBRANCH  10  11
ENDBRANCH   9  10
ENDBRANCH   8   9
ENDBRANCH   2   8
TORSDOF 5
ENDMDL
MODEL      183
REMARK 921   NORMALIZED FREE ENERGY PREDICTED BY IDOCK:   -2.46 KCAL/MOL
REMARK 922        TOTAL FREE ENERGY PREDICTED BY IDOCK:   -4.06 KCAL/MOL
REMARK 923 INTER-LIGAND FREE ENERGY PREDICTED BY IDOCK:   -3.70 KCAL/MOL
REMARK 924 INTRA-LIGAND FREE ENERGY PREDICTED BY IDOCK:   -0.36 KCAL/MOL
REMARK 927      BINDING AFFINITY PREDICTED BY RF-SCORE:    0.00 PKD
ROOT
HETATM    1  N   UNL     1      -6.923  16.382  66.612  1.00  0.00    -0.206 NA 
HETATM    2  CA  UNL     1      -8.251  15.726  66.416  1.00  0.00    -0.171 C  
HETATM    3  H1  UNL     1      -6.664  16.971  65.821  1.00  0.00     0.000 HD 
HETATM    4  H2  UNL     1      -6.198  15.692  66.812  1.00  0.00     0.000 HD 
HETATM    5  C   UNL     1      -9.311  16.827  66.218  1.00  0.00    -0.279 C  
HETATM    6  OXT UNL     1     -10.513  16.642  66.130  1.00  0.00    -0.319 OA 
HETATM    7  O   UNL     1      -8.735  18.057  66.144  1.00  0.00    -0.459 OA 
ENDROOT
BRANCH   2   8
HETATM    8  C   UNL     1      -8.640  14.841  67.605  1.00  0.00    -0.180 C  
BRANCH   8   9
HETATM    9  C   UNL     1      -8.563  15.559  68.953  1.00  0.00    -0.209 C  
BRANCH   9  10
HETATM   10  C   UNL     1      -9.948  15.678  69.585  1.00  0.00    -0.289 C  
BRANCH  10  11
HETATM   11  N   UNL     1     -10.594  14.388  69.687  1.00  0.00    -0.446 N  
HETATM   12  H   UNL     1     -10.286  13.735  70.408  1.00  0.00     0.000 HD 
BRANCH  11  13
HETATM   13  C   UNL     1     -11.600  14.020  68.847  1.00  0.00    -0.315 C  
HETATM   14  N   UNL     1     -12.095  15.066  68.141  1.00  0.00    -0.544 N  
HETATM   15  O   UNL     1     -12.047  12.890  68.725  1.00  0.00    -0.280 OA 
HETATM   16  H1  UNL     1     -12.849  14.791  67.512  1.00  0.00     0.000 HD 
HETATM   17  H2  UNL     1     -11.751  16.023  68.229  1.00  0.00     0.000 HD 
ENDBRANCH  11  13
ENDBRANCH  10  11
ENDBRANCH   9  10
ENDBRANCH   8   9
ENDBRANCH   2   8
TORSDOF 5
ENDMDL
MODEL      184
REMARK 921   NORMALIZED FREE ENERGY PREDICTED BY IDOCK:   -2.45 KCAL/MOL
REMARK 922        TOTAL FREE ENERGY PREDICTED BY IDOCK:   -4.05 KCAL/MOL
REMARK 923 INTER-LIGAND FREE ENERGY PREDICTED BY IDOCK:   -3.82 KCAL/MOL
REMARK 924 INTRA-LIGAND FREE ENERGY PREDICTED BY IDOCK:   -0.22 KCAL/MOL
REMARK 927      BINDING AFFINITY PREDICTED BY RF-SCORE:    0.00 PKD
ROOT
HETATM    1  N   UNL     1     -10.809  10.843  70.006  1.00  0.00    -0.465 NA 
HETATM    2  CA  UNL     1     -11.402   9.670  70.718  1.00  0.00    -0.340 C  
HETATM    3  H1  UNL     1     -11.470  11.276  69.362  1.00  0.00     0.000 HD 
HETATM    4  H2  UNL     1      -9.944  10.586  69.531  1.00  0.00     0.000 HD 
HETATM    5  C   UNL     1     -12.645  10.150  71.492  1.00  0.00    -0.434 C  
HETATM    6  OXT UNL     1     -13.307   9.467  72.256  1.00  0.00    -0.438 OA 
HETATM    7  O   UNL     1     -12.929  11.450  71.211  1.00  0.00    -0.385 OA 
ENDROOT
BRANCH   2   8
HETATM    8  C   UNL     1     -10.409   9.018  71.685  1.00  0.00    -0.420 C  
BRANCH   8   9
HETATM    9  C   UNL     1      -9.675   7.815  71.092  1.00  0.00    -0.175 C  
BRANCH   9  10
HETATM   10  C   UNL     1     -10.595   7.018  70.170  1.00  0.00    -0.228 C  
BRANCH  10  11
HETATM   11  N   UNL     1     -11.365   6.042  70.909  1.00  0.00    -0.278 N  
HETATM   12  H   UNL     1     -12.326   5.850  70.625  1.00  0.00     0.000 HD 
BRANCH  11  13
HETATM   13  C   UNL     1     -10.844   5.374  71.975  1.00  0.00    -0.202 C  
HETATM   14  N   UNL     1      -9.968   4.409  71.603  1.00  0.00    -0.187 N  
HETATM   15  O   UNL     1     -11.120   5.579  73.147  1.00  0.00    -0.272 OA 
HETATM   16  H1  UNL     1      -9.577   3.907  72.401  1.00  0.00     0.000 HD 
HETATM   17  H2  UNL     1      -9.726   4.206  70.633  1.00  0.00     0.000 HD 
ENDBRANCH  11  13
ENDBRANCH  10  11
ENDBRANCH   9  10
ENDBRANCH   8   9
ENDBRANCH   2   8
TORSDOF 5
ENDMDL
MODEL      185
REMARK 921   NORMALIZED FREE ENERGY PREDICTED BY IDOCK:   -2.43 KCAL/MOL
REMARK 922        TOTAL FREE ENERGY PREDICTED BY IDOCK:   -4.01 KCAL/MOL
REMARK 923 INTER-LIGAND FREE ENERGY PREDICTED BY IDOCK:   -3.79 KCAL/MOL
REMARK 924 INTRA-LIGAND FREE ENERGY PREDICTED BY IDOCK:   -0.23 KCAL/MOL
REMARK 927      BINDING AFFINITY PREDICTED BY RF-SCORE:    0.00 PKD
ROOT
HETATM    1  N   UNL     1      -9.615  12.179  68.686  1.00  0.00    -0.384 NA 
HETATM    2  CA  UNL     1     -10.367  12.977  67.671  1.00  0.00    -0.222 C  
HETATM    3  H1  UNL     1      -8.897  11.594  68.260  1.00  0.00     0.000 HD 
HETATM    4  H2  UNL     1     -10.249  11.626  69.263  1.00  0.00     0.000 HD 
HETATM    5  C   UNL     1      -9.362  13.859  66.905  1.00  0.00    -0.258 C  
HETATM    6  OXT UNL     1      -9.655  14.704  66.075  1.00  0.00    -0.304 OA 
HETATM    7  O   UNL     1      -8.083  13.574  67.266  1.00  0.00    -0.168 OA 
ENDROOT
BRANCH   2   8
HETATM    8  C   UNL     1     -11.446  13.857  68.311  1.00  0.00    -0.346 C  
BRANCH   8   9
HETATM    9  C   UNL     1     -10.882  14.976  69.187  1.00  0.00    -0.251 C  
BRANCH   9  10
HETATM   10  C   UNL     1     -11.971  15.569  70.079  1.00  0.00    -0.364 C  
BRANCH  10  11
HETATM   11  N   UNL     1     -11.862  15.082  71.437  1.00  0.00    -0.336 N  
HETATM   12  H   UNL     1     -11.126  15.452  72.038  1.00  0.00     0.000 HD 
BRANCH  11  13
HETATM   13  C   UNL     1     -12.715  14.145  71.935  1.00  0.00    -0.320 C  
HETATM   14  N   UNL     1     -13.246  14.508  73.128  1.00  0.00    -0.481 N  
HETATM   15  O   UNL     1     -12.986  13.078  71.406  1.00  0.00    -0.354 OA 
HETATM   16  H1  UNL     1     -13.885  13.806  73.501  1.00  0.00     0.000 HD 
HETATM   17  H2  UNL     1     -13.031  15.387  73.600  1.00  0.00     0.000 HD 
ENDBRANCH  11  13
ENDBRANCH  10  11
ENDBRANCH   9  10
ENDBRANCH   8   9
ENDBRANCH   2   8
TORSDOF 5
ENDMDL
MODEL      186
REMARK 921   NORMALIZED FREE ENERGY PREDICTED BY IDOCK:   -2.41 KCAL/MOL
REMARK 922        TOTAL FREE ENERGY PREDICTED BY IDOCK:   -3.99 KCAL/MOL
REMARK 923 INTER-LIGAND FREE ENERGY PREDICTED BY IDOCK:   -3.78 KCAL/MOL
REMARK 924 INTRA-LIGAND FREE ENERGY PREDICTED BY IDOCK:   -0.21 KCAL/MOL
REMARK 927      BINDING AFFINITY PREDICTED BY RF-SCORE:    0.00 PKD
ROOT
HETATM    1  N   UNL     1     -11.227   7.643  68.490  1.00  0.00    -0.278 NA 
HETATM    2  CA  UNL     1     -10.215   8.537  69.129  1.00  0.00    -0.211 C  
HETATM    3  H1  UNL     1     -11.175   6.688  68.844  1.00  0.00     0.000 HD 
HETATM    4  H2  UNL     1     -11.149   7.665  67.474  1.00  0.00     0.000 HD 
HETATM    5  C   UNL     1     -10.455   8.532  70.651  1.00  0.00    -0.201 C  
HETATM    6  OXT UNL     1      -9.868   9.231  71.461  1.00  0.00    -0.288 OA 
HETATM    7  O   UNL     1     -11.413   7.631  70.996  1.00  0.00    -0.269 OA 
ENDROOT
BRANCH   2   8
HETATM    8  C   UNL     1     -10.294   9.972  68.598  1.00  0.00    -0.211 C  
BRANCH   8   9
HETATM    9  C   UNL     1     -11.615  10.673  68.921  1.00  0.00    -0.320 C  
BRANCH   9  10
HETATM   10  C   UNL     1     -11.546  12.155  68.561  1.00  0.00    -0.315 C  
BRANCH  10  11
HETATM   11  N   UNL     1     -11.143  12.345  67.185  1.00  0.00    -0.265 N  
HETATM   12  H   UNL     1     -10.186  12.118  66.913  1.00  0.00     0.000 HD 
BRANCH  11  13
HETATM   13  C   UNL     1     -12.005  12.818  66.243  1.00  0.00    -0.395 C  
HETATM   14  N   UNL     1     -12.388  14.095  66.486  1.00  0.00    -0.507 N  
HETATM   15  O   UNL     1     -12.421  12.191  65.282  1.00  0.00    -0.520 OA 
HETATM   16  H1  UNL     1     -13.034  14.450  65.780  1.00  0.00     0.000 HD 
HETATM   17  H2  UNL     1     -12.066  14.642  67.285  1.00  0.00     0.000 HD 
ENDBRANCH  11  13
ENDBRANCH  10  11
ENDBRANCH   9  10
ENDBRANCH   8   9
ENDBRANCH   2   8
TORSDOF 5
ENDMDL
MODEL      187
REMARK 921   NORMALIZED FREE ENERGY PREDICTED BY IDOCK:   -2.40 KCAL/MOL
REMARK 922        TOTAL FREE ENERGY PREDICTED BY IDOCK:   -3.98 KCAL/MOL
REMARK 923 INTER-LIGAND FREE ENERGY PREDICTED BY IDOCK:   -3.82 KCAL/MOL
REMARK 924 INTRA-LIGAND FREE ENERGY PREDICTED BY IDOCK:   -0.16 KCAL/MOL
REMARK 927      BINDING AFFINITY PREDICTED BY RF-SCORE:    0.00 PKD
ROOT
HETATM    1  N   UNL     1      -9.137   6.743  69.288  1.00  0.00    -0.139 NA 
HETATM    2  CA  UNL     1     -10.594   7.043  69.148  1.00  0.00    -0.219 C  
HETATM    3  H1  UNL     1      -8.687   7.339  69.982  1.00  0.00     0.000 HD 
HETATM    4  H2  UNL     1      -8.661   6.800  68.388  1.00  0.00     0.000 HD 
HETATM    5  C   UNL     1     -11.265   6.842  70.521  1.00  0.00    -0.320 C  
HETATM    6  OXT UNL     1     -12.464   6.907  70.737  1.00  0.00    -0.356 OA 
HETATM    7  O   UNL     1     -10.343   6.584  71.486  1.00  0.00    -0.208 OA 
ENDROOT
BRANCH   2   8
HETATM    8  C   UNL     1     -11.271   6.148  68.105  1.00  0.00    -0.166 C  
BRANCH   8   9
HETATM    9  C   UNL     1     -10.594   6.186  66.734  1.00  0.00    -0.351 C  
BRANCH   9  10
HETATM   10  C   UNL     1     -10.324   4.773  66.222  1.00  0.00    -0.291 C  
BRANCH  10  11
HETATM   11  N   UNL     1     -11.195   4.438  65.116  1.00  0.00    -0.935 N  
HETATM   12  H   UNL     1     -12.195   4.615  65.203  1.00  0.00     0.000 HD 
BRANCH  11  13
HETATM   13  C   UNL     1     -10.715   3.892  63.964  1.00  0.00    -0.208 C  
HETATM   14  N   UNL     1      -9.655   4.576  63.469  1.00  0.00    -0.337 N  
HETATM   15  O   UNL     1     -11.170   2.909  63.400  1.00  0.00    -0.288 OA 
HETATM   16  H1  UNL     1      -9.296   4.168  62.606  1.00  0.00     0.000 HD 
HETATM   17  H2  UNL     1      -9.259   5.406  63.910  1.00  0.00     0.000 HD 
ENDBRANCH  11  13
ENDBRANCH  10  11
ENDBRANCH   9  10
ENDBRANCH   8   9
ENDBRANCH   2   8
TORSDOF 5
ENDMDL
MODEL      188
REMARK 921   NORMALIZED FREE ENERGY PREDICTED BY IDOCK:   -2.40 KCAL/MOL
REMARK 922        TOTAL FREE ENERGY PREDICTED BY IDOCK:   -3.98 KCAL/MOL
REMARK 923 INTER-LIGAND FREE ENERGY PREDICTED BY IDOCK:   -3.72 KCAL/MOL
REMARK 924 INTRA-LIGAND FREE ENERGY PREDICTED BY IDOCK:   -0.26 KCAL/MOL
REMARK 927      BINDING AFFINITY PREDICTED BY RF-SCORE:    0.00 PKD
ROOT
HETATM    1  N   UNL     1     -10.155  11.992  68.899  1.00  0.00    -0.411 NA 
HETATM    2  CA  UNL     1     -10.630  12.479  67.569  1.00  0.00    -0.220 C  
HETATM    3  H1  UNL     1      -9.765  12.744  69.467  1.00  0.00     0.000 HD 
HETATM    4  H2  UNL     1      -9.491  11.225  68.795  1.00  0.00     0.000 HD 
HETATM    5  C   UNL     1     -11.699  13.565  67.803  1.00  0.00    -0.359 C  
HETATM    6  OXT UNL     1     -12.362  14.102  66.932  1.00  0.00    -0.419 OA 
HETATM    7  O   UNL     1     -11.813  13.866  69.124  1.00  0.00    -0.313 OA 
ENDROOT
BRANCH   2   8
HETATM    8  C   UNL     1     -11.217  11.350  66.716  1.00  0.00    -0.319 C  
BRANCH   8   9
HETATM    9  C   UNL     1     -10.607  11.260  65.316  1.00  0.00    -0.323 C  
BRANCH   9  10
HETATM   10  C   UNL     1      -9.431  10.287  65.298  1.00  0.00    -0.240 C  
BRANCH  10  11
HETATM   11  N   UNL     1      -9.881   8.915  65.384  1.00  0.00    -0.356 N  
HETATM   12  H   UNL     1     -10.478   8.542  64.646  1.00  0.00     0.000 HD 
BRANCH  11  13
HETATM   13  C   UNL     1      -9.529   8.107  66.423  1.00  0.00    -0.218 C  
HETATM   14  N   UNL     1      -9.809   6.802  66.182  1.00  0.00    -0.406 N  
HETATM   15  O   UNL     1      -9.031   8.477  67.474  1.00  0.00    -0.134 OA 
HETATM   16  H1  UNL     1      -9.546   6.197  66.960  1.00  0.00     0.000 HD 
HETATM   17  H2  UNL     1     -10.235   6.464  65.319  1.00  0.00     0.000 HD 
ENDBRANCH  11  13
ENDBRANCH  10  11
ENDBRANCH   9  10
ENDBRANCH   8   9
ENDBRANCH   2   8
TORSDOF 5
ENDMDL
MODEL      189
REMARK 921   NORMALIZED FREE ENERGY PREDICTED BY IDOCK:   -2.39 KCAL/MOL
REMARK 922        TOTAL FREE ENERGY PREDICTED BY IDOCK:   -3.97 KCAL/MOL
REMARK 923 INTER-LIGAND FREE ENERGY PREDICTED BY IDOCK:   -3.79 KCAL/MOL
REMARK 924 INTRA-LIGAND FREE ENERGY PREDICTED BY IDOCK:   -0.18 KCAL/MOL
REMARK 927      BINDING AFFINITY PREDICTED BY RF-SCORE:    0.00 PKD
ROOT
HETATM    1  N   UNL     1     -10.337  17.401  65.249  1.00  0.00    -0.511 NA 
HETATM    2  CA  UNL     1     -10.403  16.719  66.577  1.00  0.00    -0.301 C  
HETATM    3  H1  UNL     1     -10.267  18.415  65.340  1.00  0.00     0.000 HD 
HETATM    4  H2  UNL     1     -11.127  17.138  64.660  1.00  0.00     0.000 HD 
HETATM    5  C   UNL     1      -9.134  17.084  67.373  1.00  0.00    -0.222 C  
HETATM    6  OXT UNL     1      -8.823  16.618  68.457  1.00  0.00    -0.217 OA 
HETATM    7  O   UNL     1      -8.389  18.011  66.714  1.00  0.00    -0.236 OA 
ENDROOT
BRANCH   2   8
HETATM    8  C   UNL     1     -10.508  15.197  66.440  1.00  0.00    -0.300 C  
BRANCH   8   9
HETATM    9  C   UNL     1     -11.016  14.739  65.072  1.00  0.00    -0.426 C  
BRANCH   9  10
HETATM   10  C   UNL     1     -10.912  13.222  64.933  1.00  0.00    -0.330 C  
BRANCH  10  11
HETATM   11  N   UNL     1      -9.562  12.762  65.174  1.00  0.00    -0.478 N  
HETATM   12  H   UNL     1      -8.780  13.358  64.901  1.00  0.00     0.000 HD 
BRANCH  11  13
HETATM   13  C   UNL     1      -9.305  11.557  65.754  1.00  0.00    -0.221 C  
HETATM   14  N   UNL     1      -8.202  10.959  65.241  1.00  0.00    -0.348 N  
HETATM   15  O   UNL     1      -9.976  11.033  66.629  1.00  0.00    -0.198 OA 
HETATM   16  H1  UNL     1      -8.010  10.056  65.675  1.00  0.00     0.000 HD 
HETATM   17  H2  UNL     1      -7.628  11.366  64.502  1.00  0.00     0.000 HD 
ENDBRANCH  11  13
ENDBRANCH  10  11
ENDBRANCH   9  10
ENDBRANCH   8   9
ENDBRANCH   2   8
TORSDOF 5
ENDMDL
MODEL      190
REMARK 921   NORMALIZED FREE ENERGY PREDICTED BY IDOCK:   -2.39 KCAL/MOL
REMARK 922        TOTAL FREE ENERGY PREDICTED BY IDOCK:   -3.97 KCAL/MOL
REMARK 923 INTER-LIGAND FREE ENERGY PREDICTED BY IDOCK:   -3.24 KCAL/MOL
REMARK 924 INTRA-LIGAND FREE ENERGY PREDICTED BY IDOCK:   -0.73 KCAL/MOL
REMARK 927      BINDING AFFINITY PREDICTED BY RF-SCORE:    0.00 PKD
ROOT
HETATM    1  N   UNL     1     -10.943   6.664  69.152  1.00  0.00    -0.358 NA 
HETATM    2  CA  UNL     1     -10.353   7.369  70.330  1.00  0.00    -0.212 C  
HETATM    3  H1  UNL     1     -10.391   5.853  68.874  1.00  0.00     0.000 HD 
HETATM    4  H2  UNL     1     -11.078   7.304  68.369  1.00  0.00     0.000 HD 
HETATM    5  C   UNL     1     -10.269   6.371  71.501  1.00  0.00    -0.194 C  
HETATM    6  OXT UNL     1      -9.927   6.646  72.639  1.00  0.00    -0.169 OA 
HETATM    7  O   UNL     1     -10.621   5.118  71.106  1.00  0.00    -0.205 OA 
ENDROOT
BRANCH   2   8
HETATM    8  C   UNL     1     -11.182   8.589  70.748  1.00  0.00    -0.289 C  
BRANCH   8   9
HETATM    9  C   UNL     1     -10.580   9.921  70.297  1.00  0.00    -0.359 C  
BRANCH   9  10
HETATM   10  C   UNL     1     -11.447  10.573  69.223  1.00  0.00    -0.256 C  
BRANCH  10  11
HETATM   11  N   UNL     1     -11.535   9.743  68.041  1.00  0.00    -0.423 N  
HETATM   12  H   UNL     1     -12.354   9.149  67.913  1.00  0.00     0.000 HD 
BRANCH  11  13
HETATM   13  C   UNL     1     -10.555   9.733  67.096  1.00  0.00    -0.229 C  
HETATM   14  N   UNL     1     -10.357   8.500  66.568  1.00  0.00    -0.362 N  
HETATM   15  O   UNL     1      -9.896  10.699  66.745  1.00  0.00    -0.186 OA 
HETATM   16  H1  UNL     1      -9.623   8.492  65.859  1.00  0.00     0.000 HD 
HETATM   17  H2  UNL     1     -10.884   7.672  66.848  1.00  0.00     0.000 HD 
ENDBRANCH  11  13
ENDBRANCH  10  11
ENDBRANCH   9  10
ENDBRANCH   8   9
ENDBRANCH   2   8
TORSDOF 5
ENDMDL
MODEL      191
REMARK 921   NORMALIZED FREE ENERGY PREDICTED BY IDOCK:   -2.39 KCAL/MOL
REMARK 922        TOTAL FREE ENERGY PREDICTED BY IDOCK:   -3.96 KCAL/MOL
REMARK 923 INTER-LIGAND FREE ENERGY PREDICTED BY IDOCK:   -3.62 KCAL/MOL
REMARK 924 INTRA-LIGAND FREE ENERGY PREDICTED BY IDOCK:   -0.34 KCAL/MOL
REMARK 927      BINDING AFFINITY PREDICTED BY RF-SCORE:    0.00 PKD
ROOT
HETATM    1  N   UNL     1     -10.737   8.984  67.130  1.00  0.00    -0.334 NA 
HETATM    2  CA  UNL     1     -10.391  10.399  67.460  1.00  0.00    -0.224 C  
HETATM    3  H1  UNL     1      -9.967   8.496  66.673  1.00  0.00     0.000 HD 
HETATM    4  H2  UNL     1     -11.589   8.934  66.571  1.00  0.00     0.000 HD 
HETATM    5  C   UNL     1      -9.157  10.394  68.384  1.00  0.00    -0.147 C  
HETATM    6  OXT UNL     1      -8.673  11.378  68.919  1.00  0.00    -0.116 OA 
HETATM    7  O   UNL     1      -8.656   9.139  68.530  1.00  0.00    -0.126 OA 
ENDROOT
BRANCH   2   8
HETATM    8  C   UNL     1     -11.548  11.133  68.146  1.00  0.00    -0.350 C  
BRANCH   8   9
HETATM    9  C   UNL     1     -12.001  10.476  69.452  1.00  0.00    -0.230 C  
BRANCH   9  10
HETATM   10  C   UNL     1     -12.110  11.509  70.570  1.00  0.00    -0.378 C  
BRANCH  10  11
HETATM   11  N   UNL     1     -11.811  12.840  70.089  1.00  0.00    -0.513 N  
HETATM   12  H   UNL     1     -11.331  12.948  69.196  1.00  0.00     0.000 HD 
BRANCH  11  13
HETATM   13  C   UNL     1     -12.153  13.953  70.796  1.00  0.00    -0.330 C  
HETATM   14  N   UNL     1     -11.101  14.786  70.992  1.00  0.00    -0.535 N  
HETATM   15  O   UNL     1     -13.265  14.204  71.234  1.00  0.00    -0.338 OA 
HETATM   16  H1  UNL     1     -11.357  15.620  71.521  1.00  0.00     0.000 HD 
HETATM   17  H2  UNL     1     -10.159  14.600  70.649  1.00  0.00     0.000 HD 
ENDBRANCH  11  13
ENDBRANCH  10  11
ENDBRANCH   9  10
ENDBRANCH   8   9
ENDBRANCH   2   8
TORSDOF 5
ENDMDL
MODEL      192
REMARK 921   NORMALIZED FREE ENERGY PREDICTED BY IDOCK:   -2.38 KCAL/MOL
REMARK 922        TOTAL FREE ENERGY PREDICTED BY IDOCK:   -3.95 KCAL/MOL
REMARK 923 INTER-LIGAND FREE ENERGY PREDICTED BY IDOCK:   -3.54 KCAL/MOL
REMARK 924 INTRA-LIGAND FREE ENERGY PREDICTED BY IDOCK:   -0.41 KCAL/MOL
REMARK 927      BINDING AFFINITY PREDICTED BY RF-SCORE:    0.00 PKD
ROOT
HETATM    1  N   UNL     1     -11.345  11.347  69.898  1.00  0.00    -0.443 NA 
HETATM    2  CA  UNL     1     -11.850  10.020  70.364  1.00  0.00    -0.262 C  
HETATM    3  H1  UNL     1     -12.103  11.980  69.644  1.00  0.00     0.000 HD 
HETATM    4  H2  UNL     1     -10.681  11.239  69.130  1.00  0.00     0.000 HD 
HETATM    5  C   UNL     1     -12.765  10.251  71.583  1.00  0.00    -0.456 C  
HETATM    6  OXT UNL     1     -13.265   9.373  72.267  1.00  0.00    -0.422 OA 
HETATM    7  O   UNL     1     -12.961  11.578  71.807  1.00  0.00    -0.446 OA 
ENDROOT
BRANCH   2   8
HETATM    8  C   UNL     1     -10.712   9.069  70.745  1.00  0.00    -0.301 C  
BRANCH   8   9
HETATM    9  C   UNL     1     -10.223   8.202  69.583  1.00  0.00    -0.205 C  
BRANCH   9  10
HETATM   10  C   UNL     1      -8.742   8.448  69.306  1.00  0.00    -0.138 C  
BRANCH  10  11
HETATM   11  N   UNL     1      -8.492   8.624  67.893  1.00  0.00    -0.129 N  
HETATM   12  H   UNL     1      -7.633   8.249  67.491  1.00  0.00     0.000 HD 
BRANCH  11  13
HETATM   13  C   UNL     1      -9.372   9.277  67.083  1.00  0.00    -0.132 C  
HETATM   14  N   UNL     1      -9.757   8.525  66.023  1.00  0.00    -0.451 N  
HETATM   15  O   UNL     1      -9.780  10.416  67.250  1.00  0.00    -0.160 OA 
HETATM   16  H1  UNL     1     -10.415   9.014  65.416  1.00  0.00     0.000 HD 
HETATM   17  H2  UNL     1      -9.425   7.576  65.851  1.00  0.00     0.000 HD 
ENDBRANCH  11  13
ENDBRANCH  10  11
ENDBRANCH   9  10
ENDBRANCH   8   9
ENDBRANCH   2   8
TORSDOF 5
ENDMDL
MODEL      193
REMARK 921   NORMALIZED FREE ENERGY PREDICTED BY IDOCK:   -2.38 KCAL/MOL
REMARK 922        TOTAL FREE ENERGY PREDICTED BY IDOCK:   -3.95 KCAL/MOL
REMARK 923 INTER-LIGAND FREE ENERGY PREDICTED BY IDOCK:   -3.80 KCAL/MOL
REMARK 924 INTRA-LIGAND FREE ENERGY PREDICTED BY IDOCK:   -0.15 KCAL/MOL
REMARK 927      BINDING AFFINITY PREDICTED BY RF-SCORE:    0.00 PKD
ROOT
HETATM    1  N   UNL     1      -8.952   9.937  70.482  1.00  0.00    -0.347 NA 
HETATM    2  CA  UNL     1     -10.371   9.575  70.778  1.00  0.00    -0.306 C  
HETATM    3  H1  UNL     1      -8.294   9.427  71.071  1.00  0.00     0.000 HD 
HETATM    4  H2  UNL     1      -8.806  10.944  70.552  1.00  0.00     0.000 HD 
HETATM    5  C   UNL     1     -10.541   8.059  70.557  1.00  0.00    -0.220 C  
HETATM    6  OXT UNL     1     -11.597   7.452  70.616  1.00  0.00    -0.291 OA 
HETATM    7  O   UNL     1      -9.348   7.464  70.291  1.00  0.00    -0.161 OA 
ENDROOT
BRANCH   2   8
HETATM    8  C   UNL     1     -11.360  10.341  69.893  1.00  0.00    -0.354 C  
BRANCH   8   9
HETATM    9  C   UNL     1     -10.691  11.355  68.963  1.00  0.00    -0.245 C  
BRANCH   9  10
HETATM   10  C   UNL     1     -11.730  12.080  68.112  1.00  0.00    -0.333 C  
BRANCH  10  11
HETATM   11  N   UNL     1     -12.133  13.328  68.721  1.00  0.00    -0.290 N  
HETATM   12  H   UNL     1     -12.701  13.306  69.568  1.00  0.00     0.000 HD 
BRANCH  11  13
HETATM   13  C   UNL     1     -11.775  14.532  68.195  1.00  0.00    -0.337 C  
HETATM   14  N   UNL     1     -12.231  15.576  68.932  1.00  0.00    -0.608 N  
HETATM   15  O   UNL     1     -11.132  14.698  67.171  1.00  0.00    -0.307 OA 
HETATM   16  H1  UNL     1     -11.963  16.478  68.539  1.00  0.00     0.000 HD 
HETATM   17  H2  UNL     1     -12.780  15.470  69.785  1.00  0.00     0.000 HD 
ENDBRANCH  11  13
ENDBRANCH  10  11
ENDBRANCH   9  10
ENDBRANCH   8   9
ENDBRANCH   2   8
TORSDOF 5
ENDMDL
MODEL      194
REMARK 921   NORMALIZED FREE ENERGY PREDICTED BY IDOCK:   -2.38 KCAL/MOL
REMARK 922        TOTAL FREE ENERGY PREDICTED BY IDOCK:   -3.95 KCAL/MOL
REMARK 923 INTER-LIGAND FREE ENERGY PREDICTED BY IDOCK:   -3.78 KCAL/MOL
REMARK 924 INTRA-LIGAND FREE ENERGY PREDICTED BY IDOCK:   -0.17 KCAL/MOL
REMARK 927      BINDING AFFINITY PREDICTED BY RF-SCORE:    0.00 PKD
ROOT
HETATM    1  N   UNL     1      -9.879   5.113  70.585  1.00  0.00    -0.190 NA 
HETATM    2  CA  UNL     1     -10.278   6.355  71.313  1.00  0.00    -0.200 C  
HETATM    3  H1  UNL     1      -8.941   4.802  70.840  1.00  0.00     0.000 HD 
HETATM    4  H2  UNL     1      -9.966   5.232  69.576  1.00  0.00     0.000 HD 
HETATM    5  C   UNL     1     -10.217   6.071  72.826  1.00  0.00    -0.188 C  
HETATM    6  OXT UNL     1     -10.575   6.840  73.703  1.00  0.00    -0.314 OA 
HETATM    7  O   UNL     1      -9.699   4.839  73.076  1.00  0.00    -0.137 OA 
ENDROOT
BRANCH   2   8
HETATM    8  C   UNL     1     -11.686   6.821  70.930  1.00  0.00    -0.424 C  
BRANCH   8   9
HETATM    9  C   UNL     1     -11.903   8.325  71.109  1.00  0.00    -0.302 C  
BRANCH   9  10
HETATM   10  C   UNL     1     -10.773   9.118  70.456  1.00  0.00    -0.238 C  
BRANCH  10  11
HETATM   11  N   UNL     1     -11.136   9.554  69.126  1.00  0.00    -0.425 N  
HETATM   12  H   UNL     1     -11.147   8.873  68.367  1.00  0.00     0.000 HD 
BRANCH  11  13
HETATM   13  C   UNL     1     -11.463  10.849  68.858  1.00  0.00    -0.300 C  
HETATM   14  N   UNL     1     -10.877  11.720  69.717  1.00  0.00    -0.438 N  
HETATM   15  O   UNL     1     -12.207  11.225  67.966  1.00  0.00    -0.621 OA 
HETATM   16  H1  UNL     1     -11.122  12.689  69.518  1.00  0.00     0.000 HD 
HETATM   17  H2  UNL     1     -10.260  11.436  70.479  1.00  0.00     0.000 HD 
ENDBRANCH  11  13
ENDBRANCH  10  11
ENDBRANCH   9  10
ENDBRANCH   8   9
ENDBRANCH   2   8
TORSDOF 5
ENDMDL
MODEL      195
REMARK 921   NORMALIZED FREE ENERGY PREDICTED BY IDOCK:   -2.35 KCAL/MOL
REMARK 922        TOTAL FREE ENERGY PREDICTED BY IDOCK:   -3.91 KCAL/MOL
REMARK 923 INTER-LIGAND FREE ENERGY PREDICTED BY IDOCK:   -3.70 KCAL/MOL
REMARK 924 INTRA-LIGAND FREE ENERGY PREDICTED BY IDOCK:   -0.22 KCAL/MOL
REMARK 927      BINDING AFFINITY PREDICTED BY RF-SCORE:    0.00 PKD
ROOT
HETATM    1  N   UNL     1     -13.008   8.081  71.048  1.00  0.00    -0.522 NA 
HETATM    2  CA  UNL     1     -11.684   8.764  70.933  1.00  0.00    -0.258 C  
HETATM    3  H1  UNL     1     -12.922   7.066  71.010  1.00  0.00     0.000 HD 
HETATM    4  H2  UNL     1     -13.662   8.423  70.343  1.00  0.00     0.000 HD 
HETATM    5  C   UNL     1     -10.784   8.274  72.084  1.00  0.00    -0.319 C  
HETATM    6  OXT UNL     1      -9.672   8.704  72.342  1.00  0.00    -0.295 OA 
HETATM    7  O   UNL     1     -11.385   7.279  72.790  1.00  0.00    -0.300 OA 
ENDROOT
BRANCH   2   8
HETATM    8  C   UNL     1     -11.813  10.289  70.989  1.00  0.00    -0.472 C  
BRANCH   8   9
HETATM    9  C   UNL     1     -12.643  10.877  69.847  1.00  0.00    -0.211 C  
BRANCH   9  10
HETATM   10  C   UNL     1     -11.775  11.123  68.615  1.00  0.00    -0.320 C  
BRANCH  10  11
HETATM   11  N   UNL     1     -10.489  11.677  68.979  1.00  0.00    -0.366 N  
HETATM   12  H   UNL     1      -9.999  11.300  69.790  1.00  0.00     0.000 HD 
BRANCH  11  13
HETATM   13  C   UNL     1      -9.916  12.688  68.270  1.00  0.00    -0.229 C  
HETATM   14  N   UNL     1     -10.774  13.711  68.038  1.00  0.00    -0.242 N  
HETATM   15  O   UNL     1      -8.766  12.703  67.857  1.00  0.00    -0.163 OA 
HETATM   16  H1  UNL     1     -10.345  14.468  67.506  1.00  0.00     0.000 HD 
HETATM   17  H2  UNL     1     -11.742  13.723  68.360  1.00  0.00     0.000 HD 
ENDBRANCH  11  13
ENDBRANCH  10  11
ENDBRANCH   9  10
ENDBRANCH   8   9
ENDBRANCH   2   8
TORSDOF 5
ENDMDL
MODEL      196
REMARK 921   NORMALIZED FREE ENERGY PREDICTED BY IDOCK:   -2.34 KCAL/MOL
REMARK 922        TOTAL FREE ENERGY PREDICTED BY IDOCK:   -3.90 KCAL/MOL
REMARK 923 INTER-LIGAND FREE ENERGY PREDICTED BY IDOCK:   -3.32 KCAL/MOL
REMARK 924 INTRA-LIGAND FREE ENERGY PREDICTED BY IDOCK:   -0.58 KCAL/MOL
REMARK 927      BINDING AFFINITY PREDICTED BY RF-SCORE:    0.00 PKD
ROOT
HETATM    1  N   UNL     1      -7.141  17.947  69.035  1.00  0.00    -0.254 NA 
HETATM    2  CA  UNL     1      -7.761  16.599  68.861  1.00  0.00    -0.239 C  
HETATM    3  H1  UNL     1      -6.997  18.181  70.017  1.00  0.00     0.000 HD 
HETATM    4  H2  UNL     1      -7.687  18.668  68.561  1.00  0.00     0.000 HD 
HETATM    5  C   UNL     1      -6.837  15.553  69.514  1.00  0.00    -0.186 C  
HETATM    6  OXT UNL     1      -6.996  14.344  69.467  1.00  0.00    -0.144 OA 
HETATM    7  O   UNL     1      -5.805  16.148  70.170  1.00  0.00    -0.183 OA 
ENDROOT
BRANCH   2   8
HETATM    8  C   UNL     1      -7.978  16.249  67.386  1.00  0.00    -0.179 C  
BRANCH   8   9
HETATM    9  C   UNL     1      -9.440  15.972  67.031  1.00  0.00    -0.230 C  
BRANCH   9  10
HETATM   10  C   UNL     1     -10.105  17.221  66.457  1.00  0.00    -0.309 C  
BRANCH  10  11
HETATM   11  N   UNL     1      -9.166  18.316  66.348  1.00  0.00    -0.290 N  
HETATM   12  H   UNL     1      -8.267  18.154  65.894  1.00  0.00     0.000 HD 
BRANCH  11  13
HETATM   13  C   UNL     1      -9.448  19.555  66.836  1.00  0.00    -0.344 C  
HETATM   14  N   UNL     1      -9.845  20.416  65.866  1.00  0.00    -0.623 N  
HETATM   15  O   UNL     1      -9.353  19.899  68.004  1.00  0.00    -0.339 OA 
HETATM   16  H1  UNL     1     -10.057  21.344  66.231  1.00  0.00     0.000 HD 
HETATM   17  H2  UNL     1      -9.924  20.162  64.881  1.00  0.00     0.000 HD 
ENDBRANCH  11  13
ENDBRANCH  10  11
ENDBRANCH   9  10
ENDBRANCH   8   9
ENDBRANCH   2   8
TORSDOF 5
ENDMDL
MODEL      197
REMARK 921   NORMALIZED FREE ENERGY PREDICTED BY IDOCK:   -2.33 KCAL/MOL
REMARK 922        TOTAL FREE ENERGY PREDICTED BY IDOCK:   -3.89 KCAL/MOL
REMARK 923 INTER-LIGAND FREE ENERGY PREDICTED BY IDOCK:   -3.20 KCAL/MOL
REMARK 924 INTRA-LIGAND FREE ENERGY PREDICTED BY IDOCK:   -0.69 KCAL/MOL
REMARK 927      BINDING AFFINITY PREDICTED BY RF-SCORE:    0.00 PKD
ROOT
HETATM    1  N   UNL     1      -9.499   8.941  69.274  1.00  0.00    -0.159 NA 
HETATM    2  CA  UNL     1     -10.930   9.366  69.241  1.00  0.00    -0.117 C  
HETATM    3  H1  UNL     1      -9.149   8.691  68.350  1.00  0.00     0.000 HD 
HETATM    4  H2  UNL     1      -9.355   8.181  69.940  1.00  0.00     0.000 HD 
HETATM    5  C   UNL     1     -11.055  10.575  68.294  1.00  0.00    -0.284 C  
HETATM    6  OXT UNL     1     -12.069  11.229  68.114  1.00  0.00    -0.635 OA 
HETATM    7  O   UNL     1      -9.877  10.830  67.662  1.00  0.00    -0.167 OA 
ENDROOT
BRANCH   2   8
HETATM    8  C   UNL     1     -11.455   9.740  70.630  1.00  0.00    -0.397 C  
BRANCH   8   9
HETATM    9  C   UNL     1     -12.223   8.611  71.319  1.00  0.00    -0.320 C  
BRANCH   9  10
HETATM   10  C   UNL     1     -11.479   8.128  72.562  1.00  0.00    -0.404 C  
BRANCH  10  11
HETATM   11  N   UNL     1     -10.100   8.562  72.552  1.00  0.00    -0.287 N  
HETATM   12  H   UNL     1      -9.894   9.557  72.463  1.00  0.00     0.000 HD 
BRANCH  11  13
HETATM   13  C   UNL     1      -9.068   7.680  72.660  1.00  0.00    -0.157 C  
HETATM   14  N   UNL     1      -9.037   6.792  71.636  1.00  0.00    -0.144 N  
HETATM   15  O   UNL     1      -8.251   7.648  73.567  1.00  0.00    -0.130 OA 
HETATM   16  H1  UNL     1      -8.264   6.131  71.716  1.00  0.00     0.000 HD 
HETATM   17  H2  UNL     1      -9.711   6.786  70.870  1.00  0.00     0.000 HD 
ENDBRANCH  11  13
ENDBRANCH  10  11
ENDBRANCH   9  10
ENDBRANCH   8   9
ENDBRANCH   2   8
TORSDOF 5
ENDMDL
MODEL      198
REMARK 921   NORMALIZED FREE ENERGY PREDICTED BY IDOCK:   -2.33 KCAL/MOL
REMARK 922        TOTAL FREE ENERGY PREDICTED BY IDOCK:   -3.89 KCAL/MOL
REMARK 923 INTER-LIGAND FREE ENERGY PREDICTED BY IDOCK:   -3.44 KCAL/MOL
REMARK 924 INTRA-LIGAND FREE ENERGY PREDICTED BY IDOCK:   -0.45 KCAL/MOL
REMARK 927      BINDING AFFINITY PREDICTED BY RF-SCORE:    0.00 PKD
ROOT
HETATM    1  N   UNL     1      -9.762   9.136  65.537  1.00  0.00    -0.462 NA 
HETATM    2  CA  UNL     1     -10.425  10.453  65.298  1.00  0.00    -0.108 C  
HETATM    3  H1  UNL     1      -9.990   8.454  64.814  1.00  0.00     0.000 HD 
HETATM    4  H2  UNL     1      -9.981   8.776  66.466  1.00  0.00     0.000 HD 
HETATM    5  C   UNL     1      -9.974  10.981  63.923  1.00  0.00    -0.341 C  
HETATM    6  OXT UNL     1     -10.250  12.076  63.462  1.00  0.00    -0.406 OA 
HETATM    7  O   UNL     1      -9.220  10.060  63.265  1.00  0.00    -0.262 OA 
ENDROOT
BRANCH   2   8
HETATM    8  C   UNL     1     -10.082  11.478  66.384  1.00  0.00    -0.250 C  
BRANCH   8   9
HETATM    9  C   UNL     1     -11.311  12.069  67.078  1.00  0.00    -0.396 C  
BRANCH   9  10
HETATM   10  C   UNL     1     -11.807  13.311  66.340  1.00  0.00    -0.396 C  
BRANCH  10  11
HETATM   11  N   UNL     1     -10.715  14.205  66.021  1.00  0.00    -0.294 N  
HETATM   12  H   UNL     1     -10.120  13.995  65.221  1.00  0.00     0.000 HD 
BRANCH  11  13
HETATM   13  C   UNL     1     -10.462  15.321  66.761  1.00  0.00    -0.293 C  
HETATM   14  N   UNL     1     -11.576  15.812  67.357  1.00  0.00    -0.020 N  
HETATM   15  O   UNL     1      -9.372  15.858  66.886  1.00  0.00    -0.211 OA 
HETATM   16  H1  UNL     1     -11.387  16.647  67.910  1.00  0.00     0.000 HD 
HETATM   17  H2  UNL     1     -12.501  15.392  67.262  1.00  0.00     0.000 HD 
ENDBRANCH  11  13
ENDBRANCH  10  11
ENDBRANCH   9  10
ENDBRANCH   8   9
ENDBRANCH   2   8
TORSDOF 5
ENDMDL
MODEL      199
REMARK 921   NORMALIZED FREE ENERGY PREDICTED BY IDOCK:   -2.33 KCAL/MOL
REMARK 922        TOTAL FREE ENERGY PREDICTED BY IDOCK:   -3.88 KCAL/MOL
REMARK 923 INTER-LIGAND FREE ENERGY PREDICTED BY IDOCK:   -3.75 KCAL/MOL
REMARK 924 INTRA-LIGAND FREE ENERGY PREDICTED BY IDOCK:   -0.13 KCAL/MOL
REMARK 927      BINDING AFFINITY PREDICTED BY RF-SCORE:    0.00 PKD
ROOT
HETATM    1  N   UNL     1     -10.316   7.229  66.451  1.00  0.00    -0.474 NA 
HETATM    2  CA  UNL     1      -9.704   8.112  67.489  1.00  0.00    -0.161 C  
HETATM    3  H1  UNL     1      -9.972   6.271  66.509  1.00  0.00     0.000 HD 
HETATM    4  H2  UNL     1     -10.182   7.613  65.515  1.00  0.00     0.000 HD 
HETATM    5  C   UNL     1     -10.029   7.525  68.877  1.00  0.00    -0.168 C  
HETATM    6  OXT UNL     1      -9.763   8.051  69.945  1.00  0.00    -0.178 OA 
HETATM    7  O   UNL     1     -10.653   6.322  68.769  1.00  0.00    -0.205 OA 
ENDROOT
BRANCH   2   8
HETATM    8  C   UNL     1     -10.221   9.551  67.402  1.00  0.00    -0.285 C  
BRANCH   8   9
HETATM    9  C   UNL     1     -10.085  10.167  66.009  1.00  0.00    -0.317 C  
BRANCH   9  10
HETATM   10  C   UNL     1     -10.932  11.432  65.889  1.00  0.00    -0.207 C  
BRANCH  10  11
HETATM   11  N   UNL     1     -10.922  11.946  64.537  1.00  0.00    -0.307 N  
HETATM   12  H   UNL     1     -10.099  11.794  63.955  1.00  0.00     0.000 HD 
BRANCH  11  13
HETATM   13  C   UNL     1     -11.982  12.628  64.019  1.00  0.00    -0.451 C  
HETATM   14  N   UNL     1     -12.939  12.878  64.946  1.00  0.00    -0.726 N  
HETATM   15  O   UNL     1     -12.102  12.978  62.856  1.00  0.00    -0.274 OA 
HETATM   16  H1  UNL     1     -13.733  13.388  64.559  1.00  0.00     0.000 HD 
HETATM   17  H2  UNL     1     -12.873  12.588  65.922  1.00  0.00     0.000 HD 
ENDBRANCH  11  13
ENDBRANCH  10  11
ENDBRANCH   9  10
ENDBRANCH   8   9
ENDBRANCH   2   8
TORSDOF 5
ENDMDL
MODEL      200
REMARK 921   NORMALIZED FREE ENERGY PREDICTED BY IDOCK:   -2.33 KCAL/MOL
REMARK 922        TOTAL FREE ENERGY PREDICTED BY IDOCK:   -3.88 KCAL/MOL
REMARK 923 INTER-LIGAND FREE ENERGY PREDICTED BY IDOCK:   -3.77 KCAL/MOL
REMARK 924 INTRA-LIGAND FREE ENERGY PREDICTED BY IDOCK:   -0.11 KCAL/MOL
REMARK 927      BINDING AFFINITY PREDICTED BY RF-SCORE:    0.00 PKD
ROOT
HETATM    1  N   UNL     1     -11.292   4.684  64.958  1.00  0.00    -1.059 NA 
HETATM    2  CA  UNL     1      -9.896   5.059  65.337  1.00  0.00     0.021 C  
HETATM    3  H1  UNL     1     -11.376   4.466  63.965  1.00  0.00     0.000 HD 
HETATM    4  H2  UNL     1     -11.956   5.407  65.234  1.00  0.00     0.000 HD 
HETATM    5  C   UNL     1      -8.965   3.884  64.981  1.00  0.00    -0.131 C  
HETATM    6  OXT UNL     1      -7.776   3.820  65.249  1.00  0.00    -0.080 OA 
HETATM    7  O   UNL     1      -9.636   2.908  64.313  1.00  0.00    -0.145 OA 
ENDROOT
BRANCH   2   8
HETATM    8  C   UNL     1      -9.770   5.386  66.828  1.00  0.00    -0.170 C  
BRANCH   8   9
HETATM    9  C   UNL     1     -10.946   6.196  67.379  1.00  0.00    -0.409 C  
BRANCH   9  10
HETATM   10  C   UNL     1     -10.954   6.171  68.906  1.00  0.00    -0.356 C  
BRANCH  10  11
HETATM   11  N   UNL     1     -11.140   7.498  69.452  1.00  0.00    -0.443 N  
HETATM   12  H   UNL     1     -10.982   8.307  68.853  1.00  0.00     0.000 HD 
BRANCH  11  13
HETATM   13  C   UNL     1     -11.519   7.695  70.745  1.00  0.00    -0.277 C  
HETATM   14  N   UNL     1     -12.286   8.803  70.897  1.00  0.00    -0.486 N  
HETATM   15  O   UNL     1     -11.212   6.988  71.692  1.00  0.00    -0.236 OA 
HETATM   16  H1  UNL     1     -12.570   8.951  71.865  1.00  0.00     0.000 HD 
HETATM   17  H2  UNL     1     -12.550   9.419  70.128  1.00  0.00     0.000 HD 
ENDBRANCH  11  13
ENDBRANCH  10  11
ENDBRANCH   9  10
ENDBRANCH   8   9
ENDBRANCH   2   8
TORSDOF 5
ENDMDL
MODEL      201
REMARK 921   NORMALIZED FREE ENERGY PREDICTED BY IDOCK:   -2.32 KCAL/MOL
REMARK 922        TOTAL FREE ENERGY PREDICTED BY IDOCK:   -3.88 KCAL/MOL
REMARK 923 INTER-LIGAND FREE ENERGY PREDICTED BY IDOCK:   -3.20 KCAL/MOL
REMARK 924 INTRA-LIGAND FREE ENERGY PREDICTED BY IDOCK:   -0.68 KCAL/MOL
REMARK 927      BINDING AFFINITY PREDICTED BY RF-SCORE:    0.00 PKD
ROOT
HETATM    1  N   UNL     1     -13.291   7.007  72.081  1.00  0.00    -0.540 NA 
HETATM    2  CA  UNL     1     -11.846   7.328  71.883  1.00  0.00    -0.297 C  
HETATM    3  H1  UNL     1     -13.673   7.450  72.917  1.00  0.00     0.000 HD 
HETATM    4  H2  UNL     1     -13.446   5.998  72.095  1.00  0.00     0.000 HD 
HETATM    5  C   UNL     1     -11.700   8.859  71.774  1.00  0.00    -0.362 C  
HETATM    6  OXT UNL     1     -10.667   9.452  71.511  1.00  0.00    -0.346 OA 
HETATM    7  O   UNL     1     -12.882   9.485  72.017  1.00  0.00    -0.381 OA 
ENDROOT
BRANCH   2   8
HETATM    8  C   UNL     1     -11.272   6.663  70.628  1.00  0.00    -0.370 C  
BRANCH   8   9
HETATM    9  C   UNL     1      -9.912   6.000  70.854  1.00  0.00    -0.232 C  
BRANCH   9  10
HETATM   10  C   UNL     1      -9.629   5.835  72.345  1.00  0.00    -0.149 C  
BRANCH  10  11
HETATM   11  N   UNL     1      -8.294   6.280  72.681  1.00  0.00    -0.120 N  
HETATM   12  H   UNL     1      -7.605   5.593  72.985  1.00  0.00     0.000 HD 
BRANCH  11  13
HETATM   13  C   UNL     1      -7.933   7.591  72.602  1.00  0.00    -0.100 C  
HETATM   14  N   UNL     1      -8.456   8.334  73.607  1.00  0.00    -0.238 N  
HETATM   15  O   UNL     1      -7.232   8.084  71.732  1.00  0.00    -0.066 OA 
HETATM   16  H1  UNL     1      -8.186   9.316  73.548  1.00  0.00     0.000 HD 
HETATM   17  H2  UNL     1      -9.054   7.954  74.342  1.00  0.00     0.000 HD 
ENDBRANCH  11  13
ENDBRANCH  10  11
ENDBRANCH   9  10
ENDBRANCH   8   9
ENDBRANCH   2   8
TORSDOF 5
ENDMDL
MODEL      202
REMARK 921   NORMALIZED FREE ENERGY PREDICTED BY IDOCK:   -2.29 KCAL/MOL
REMARK 922        TOTAL FREE ENERGY PREDICTED BY IDOCK:   -3.84 KCAL/MOL
REMARK 923 INTER-LIGAND FREE ENERGY PREDICTED BY IDOCK:   -3.21 KCAL/MOL
REMARK 924 INTRA-LIGAND FREE ENERGY PREDICTED BY IDOCK:   -0.62 KCAL/MOL
REMARK 927      BINDING AFFINITY PREDICTED BY RF-SCORE:    0.00 PKD
ROOT
HETATM    1  N   UNL     1      -7.564   4.745  69.927  1.00  0.00    -0.055 NA 
HETATM    2  CA  UNL     1      -8.704   5.469  70.566  1.00  0.00    -0.135 C  
HETATM    3  H1  UNL     1      -6.663   5.040  70.300  1.00  0.00     0.000 HD 
HETATM    4  H2  UNL     1      -7.592   4.838  68.911  1.00  0.00     0.000 HD 
HETATM    5  C   UNL     1      -8.657   5.205  72.084  1.00  0.00    -0.126 C  
HETATM    6  OXT UNL     1      -9.498   5.567  72.889  1.00  0.00    -0.141 OA 
HETATM    7  O   UNL     1      -7.539   4.512  72.428  1.00  0.00    -0.079 OA 
ENDROOT
BRANCH   2   8
HETATM    8  C   UNL     1     -10.059   5.026  70.005  1.00  0.00    -0.342 C  
BRANCH   8   9
HETATM    9  C   UNL     1     -10.927   6.185  69.513  1.00  0.00    -0.463 C  
BRANCH   9  10
HETATM   10  C   UNL     1     -12.035   6.498  70.515  1.00  0.00    -0.256 C  
BRANCH  10  11
HETATM   11  N   UNL     1     -11.978   7.877  70.950  1.00  0.00    -0.431 N  
HETATM   12  H   UNL     1     -12.578   8.565  70.496  1.00  0.00     0.000 HD 
BRANCH  11  13
HETATM   13  C   UNL     1     -11.145   8.281  71.949  1.00  0.00    -0.292 C  
HETATM   14  N   UNL     1     -11.515   7.797  73.160  1.00  0.00    -0.566 N  
HETATM   15  O   UNL     1     -10.174   9.009  71.814  1.00  0.00    -0.328 OA 
HETATM   16  H1  UNL     1     -10.892   8.100  73.909  1.00  0.00     0.000 HD 
HETATM   17  H2  UNL     1     -12.327   7.197  73.307  1.00  0.00     0.000 HD 
ENDBRANCH  11  13
ENDBRANCH  10  11
ENDBRANCH   9  10
ENDBRANCH   8   9
ENDBRANCH   2   8
TORSDOF 5
ENDMDL
MODEL      203
REMARK 921   NORMALIZED FREE ENERGY PREDICTED BY IDOCK:   -2.27 KCAL/MOL
REMARK 922        TOTAL FREE ENERGY PREDICTED BY IDOCK:   -3.81 KCAL/MOL
REMARK 923 INTER-LIGAND FREE ENERGY PREDICTED BY IDOCK:   -3.18 KCAL/MOL
REMARK 924 INTRA-LIGAND FREE ENERGY PREDICTED BY IDOCK:   -0.63 KCAL/MOL
REMARK 927      BINDING AFFINITY PREDICTED BY RF-SCORE:    0.00 PKD
ROOT
HETATM    1  N   UNL     1      -5.720  16.391  70.189  1.00  0.00    -0.199 NA 
HETATM    2  CA  UNL     1      -6.604  16.688  69.021  1.00  0.00    -0.198 C  
HETATM    3  H1  UNL     1      -5.923  15.482  70.604  1.00  0.00     0.000 HD 
HETATM    4  H2  UNL     1      -5.767  17.134  70.886  1.00  0.00     0.000 HD 
HETATM    5  C   UNL     1      -6.407  15.580  67.969  1.00  0.00    -0.138 C  
HETATM    6  OXT UNL     1      -6.904  15.568  66.855  1.00  0.00    -0.230 OA 
HETATM    7  O   UNL     1      -5.603  14.590  68.441  1.00  0.00    -0.092 OA 
ENDROOT
BRANCH   2   8
HETATM    8  C   UNL     1      -6.298  18.054  68.398  1.00  0.00    -0.196 C  
BRANCH   8   9
HETATM    9  C   UNL     1      -7.511  18.984  68.336  1.00  0.00    -0.334 C  
BRANCH   9  10
HETATM   10  C   UNL     1      -8.797  18.187  68.129  1.00  0.00    -0.280 C  
BRANCH  10  11
HETATM   11  N   UNL     1      -9.142  18.099  66.727  1.00  0.00    -0.275 N  
HETATM   12  H   UNL     1      -8.731  18.764  66.072  1.00  0.00     0.000 HD 
BRANCH  11  13
HETATM   13  C   UNL     1     -10.001  17.152  66.257  1.00  0.00    -0.304 C  
HETATM   14  N   UNL     1     -10.061  16.062  67.060  1.00  0.00    -0.265 N  
HETATM   15  O   UNL     1     -10.652  17.232  65.226  1.00  0.00    -0.667 OA 
HETATM   16  H1  UNL     1     -10.704  15.353  66.708  1.00  0.00     0.000 HD 
HETATM   17  H2  UNL     1      -9.522  15.961  67.920  1.00  0.00     0.000 HD 
ENDBRANCH  11  13
ENDBRANCH  10  11
ENDBRANCH   9  10
ENDBRANCH   8   9
ENDBRANCH   2   8
TORSDOF 5
ENDMDL
MODEL      204
REMARK 921   NORMALIZED FREE ENERGY PREDICTED BY IDOCK:   -2.27 KCAL/MOL
REMARK 922        TOTAL FREE ENERGY PREDICTED BY IDOCK:   -3.81 KCAL/MOL
REMARK 923 INTER-LIGAND FREE ENERGY PREDICTED BY IDOCK:   -3.31 KCAL/MOL
REMARK 924 INTRA-LIGAND FREE ENERGY PREDICTED BY IDOCK:   -0.50 KCAL/MOL
REMARK 927      BINDING AFFINITY PREDICTED BY RF-SCORE:    0.00 PKD
ROOT
HETATM    1  N   UNL     1      -9.545  18.522  68.438  1.00  0.00    -0.337 NA 
HETATM    2  CA  UNL     1     -10.314  17.543  67.613  1.00  0.00    -0.360 C  
HETATM    3  H1  UNL     1     -10.144  19.034  69.086  1.00  0.00     0.000 HD 
HETATM    4  H2  UNL     1      -9.009  19.159  67.850  1.00  0.00     0.000 HD 
HETATM    5  C   UNL     1     -11.019  16.555  68.563  1.00  0.00    -0.350 C  
HETATM    6  OXT UNL     1     -11.650  15.570  68.215  1.00  0.00    -0.357 OA 
HETATM    7  O   UNL     1     -10.857  16.921  69.862  1.00  0.00    -0.254 OA 
ENDROOT
BRANCH   2   8
HETATM    8  C   UNL     1      -9.415  16.774  66.640  1.00  0.00    -0.275 C  
BRANCH   8   9
HETATM    9  C   UNL     1      -8.241  16.067  67.320  1.00  0.00    -0.209 C  
BRANCH   9  10
HETATM   10  C   UNL     1      -8.181  14.597  66.912  1.00  0.00    -0.076 C  
BRANCH  10  11
HETATM   11  N   UNL     1      -9.401  13.903  67.262  1.00  0.00    -0.222 N  
HETATM   12  H   UNL     1     -10.008  14.299  67.979  1.00  0.00     0.000 HD 
BRANCH  11  13
HETATM   13  C   UNL     1      -9.761  12.736  66.660  1.00  0.00    -0.252 C  
HETATM   14  N   UNL     1      -8.762  12.209  65.910  1.00  0.00    -0.391 N  
HETATM   15  O   UNL     1     -10.855  12.199  66.748  1.00  0.00    -0.231 OA 
HETATM   16  H1  UNL     1      -9.032  11.335  65.459  1.00  0.00     0.000 HD 
HETATM   17  H2  UNL     1      -7.843  12.640  65.809  1.00  0.00     0.000 HD 
ENDBRANCH  11  13
ENDBRANCH  10  11
ENDBRANCH   9  10
ENDBRANCH   8   9
ENDBRANCH   2   8
TORSDOF 5
ENDMDL
MODEL      205
REMARK 921   NORMALIZED FREE ENERGY PREDICTED BY IDOCK:   -2.26 KCAL/MOL
REMARK 922        TOTAL FREE ENERGY PREDICTED BY IDOCK:   -3.80 KCAL/MOL
REMARK 923 INTER-LIGAND FREE ENERGY PREDICTED BY IDOCK:   -3.17 KCAL/MOL
REMARK 924 INTRA-LIGAND FREE ENERGY PREDICTED BY IDOCK:   -0.63 KCAL/MOL
REMARK 927      BINDING AFFINITY PREDICTED BY RF-SCORE:    0.00 PKD
ROOT
HETATM    1  N   UNL     1     -11.331  11.099  70.504  1.00  0.00    -0.423 NA 
HETATM    2  CA  UNL     1     -12.078   9.805  70.514  1.00  0.00    -0.168 C  
HETATM    3  H1  UNL     1     -11.918  11.880  70.214  1.00  0.00     0.000 HD 
HETATM    4  H2  UNL     1     -10.490  11.035  69.930  1.00  0.00     0.000 HD 
HETATM    5  C   UNL     1     -13.274   9.943  71.475  1.00  0.00    -0.408 C  
HETATM    6  OXT UNL     1     -14.033   9.041  71.791  1.00  0.00    -0.392 OA 
HETATM    7  O   UNL     1     -13.393  11.217  71.934  1.00  0.00    -0.429 OA 
ENDROOT
BRANCH   2   8
HETATM    8  C   UNL     1     -11.195   8.631  70.950  1.00  0.00    -0.311 C  
BRANCH   8   9
HETATM    9  C   UNL     1      -9.805   9.055  71.426  1.00  0.00    -0.381 C  
BRANCH   9  10
HETATM   10  C   UNL     1      -8.731   8.600  70.440  1.00  0.00    -0.155 C  
BRANCH  10  11
HETATM   11  N   UNL     1      -8.209   9.715  69.679  1.00  0.00    -0.128 N  
HETATM   12  H   UNL     1      -7.453  10.273  70.074  1.00  0.00     0.000 HD 
BRANCH  11  13
HETATM   13  C   UNL     1      -8.699  10.038  68.450  1.00  0.00    -0.117 C  
HETATM   14  N   UNL     1      -8.143   9.299  67.459  1.00  0.00    -0.107 N  
HETATM   15  O   UNL     1      -9.533  10.900  68.222  1.00  0.00    -0.156 OA 
HETATM   16  H1  UNL     1      -8.510   9.541  66.539  1.00  0.00     0.000 HD 
HETATM   17  H2  UNL     1      -7.437   8.579  67.617  1.00  0.00     0.000 HD 
ENDBRANCH  11  13
ENDBRANCH  10  11
ENDBRANCH   9  10
ENDBRANCH   8   9
ENDBRANCH   2   8
TORSDOF 5
ENDMDL
MODEL      206
REMARK 921   NORMALIZED FREE ENERGY PREDICTED BY IDOCK:   -2.26 KCAL/MOL
REMARK 922        TOTAL FREE ENERGY PREDICTED BY IDOCK:   -3.80 KCAL/MOL
REMARK 923 INTER-LIGAND FREE ENERGY PREDICTED BY IDOCK:   -3.50 KCAL/MOL
REMARK 924 INTRA-LIGAND FREE ENERGY PREDICTED BY IDOCK:   -0.29 KCAL/MOL
REMARK 927      BINDING AFFINITY PREDICTED BY RF-SCORE:    0.00 PKD
ROOT
HETATM    1  N   UNL     1      -9.099   7.535  71.766  1.00  0.00    -0.125 NA 
HETATM    2  CA  UNL     1     -10.319   8.308  71.382  1.00  0.00    -0.213 C  
HETATM    3  H1  UNL     1      -8.706   7.853  72.652  1.00  0.00     0.000 HD 
HETATM    4  H2  UNL     1      -8.401   7.555  71.023  1.00  0.00     0.000 HD 
HETATM    5  C   UNL     1     -11.365   8.153  72.503  1.00  0.00    -0.401 C  
HETATM    6  OXT UNL     1     -12.509   8.576  72.464  1.00  0.00    -0.383 OA 
HETATM    7  O   UNL     1     -10.850   7.482  73.567  1.00  0.00    -0.369 OA 
ENDROOT
BRANCH   2   8
HETATM    8  C   UNL     1     -10.910   7.832  70.052  1.00  0.00    -0.243 C  
BRANCH   8   9
HETATM    9  C   UNL     1     -11.312   6.356  70.055  1.00  0.00    -0.496 C  
BRANCH   9  10
HETATM   10  C   UNL     1     -10.393   5.540  69.148  1.00  0.00    -0.248 C  
BRANCH  10  11
HETATM   11  N   UNL     1      -9.831   6.358  68.096  1.00  0.00    -0.125 N  
HETATM   12  H   UNL     1      -9.164   7.090  68.339  1.00  0.00     0.000 HD 
BRANCH  11  13
HETATM   13  C   UNL     1     -10.167   6.177  66.788  1.00  0.00    -0.206 C  
HETATM   14  N   UNL     1      -9.741   7.193  65.998  1.00  0.00    -0.402 N  
HETATM   15  O   UNL     1     -10.794   5.230  66.340  1.00  0.00    -0.292 OA 
HETATM   16  H1  UNL     1      -9.993   7.058  65.019  1.00  0.00     0.000 HD 
HETATM   17  H2  UNL     1      -9.225   8.002  66.344  1.00  0.00     0.000 HD 
ENDBRANCH  11  13
ENDBRANCH  10  11
ENDBRANCH   9  10
ENDBRANCH   8   9
ENDBRANCH   2   8
TORSDOF 5
ENDMDL
MODEL      207
REMARK 921   NORMALIZED FREE ENERGY PREDICTED BY IDOCK:   -2.25 KCAL/MOL
REMARK 922        TOTAL FREE ENERGY PREDICTED BY IDOCK:   -3.78 KCAL/MOL
REMARK 923 INTER-LIGAND FREE ENERGY PREDICTED BY IDOCK:   -3.67 KCAL/MOL
REMARK 924 INTRA-LIGAND FREE ENERGY PREDICTED BY IDOCK:   -0.12 KCAL/MOL
REMARK 927      BINDING AFFINITY PREDICTED BY RF-SCORE:    0.00 PKD
ROOT
HETATM    1  N   UNL     1     -11.468   9.025  71.886  1.00  0.00    -0.367 NA 
HETATM    2  CA  UNL     1     -11.871   7.597  72.061  1.00  0.00    -0.301 C  
HETATM    3  H1  UNL     1     -11.435   9.527  72.773  1.00  0.00     0.000 HD 
HETATM    4  H2  UNL     1     -12.075   9.499  71.216  1.00  0.00     0.000 HD 
HETATM    5  C   UNL     1     -10.857   6.919  73.004  1.00  0.00    -0.296 C  
HETATM    6  OXT UNL     1     -10.835   5.731  73.279  1.00  0.00    -0.252 OA 
HETATM    7  O   UNL     1      -9.976   7.823  73.510  1.00  0.00    -0.317 OA 
ENDROOT
BRANCH   2   8
HETATM    8  C   UNL     1     -11.921   6.843  70.728  1.00  0.00    -0.424 C  
BRANCH   8   9
HETATM    9  C   UNL     1     -10.674   7.040  69.865  1.00  0.00    -0.265 C  
BRANCH   9  10
HETATM   10  C   UNL     1     -10.892   6.485  68.460  1.00  0.00    -0.288 C  
BRANCH  10  11
HETATM   11  N   UNL     1      -9.961   7.063  67.515  1.00  0.00    -0.145 N  
HETATM   12  H   UNL     1      -9.117   6.545  67.271  1.00  0.00     0.000 HD 
BRANCH  11  13
HETATM   13  C   UNL     1     -10.181   8.279  66.942  1.00  0.00    -0.318 C  
HETATM   14  N   UNL     1      -9.537   8.418  65.757  1.00  0.00    -0.451 N  
HETATM   15  O   UNL     1     -10.860   9.176  67.416  1.00  0.00    -0.243 OA 
HETATM   16  H1  UNL     1      -9.701   9.328  65.328  1.00  0.00     0.000 HD 
HETATM   17  H2  UNL     1      -8.954   7.691  65.340  1.00  0.00     0.000 HD 
ENDBRANCH  11  13
ENDBRANCH  10  11
ENDBRANCH   9  10
ENDBRANCH   8   9
ENDBRANCH   2   8
TORSDOF 5
ENDMDL
MODEL      208
REMARK 921   NORMALIZED FREE ENERGY PREDICTED BY IDOCK:   -2.24 KCAL/MOL
REMARK 922        TOTAL FREE ENERGY PREDICTED BY IDOCK:   -3.77 KCAL/MOL
REMARK 923 INTER-LIGAND FREE ENERGY PREDICTED BY IDOCK:   -3.62 KCAL/MOL
REMARK 924 INTRA-LIGAND FREE ENERGY PREDICTED BY IDOCK:   -0.16 KCAL/MOL
REMARK 927      BINDING AFFINITY PREDICTED BY RF-SCORE:    0.00 PKD
ROOT
HETATM    1  N   UNL     1      -8.985   6.308  69.383  1.00  0.00    -0.126 NA 
HETATM    2  CA  UNL     1      -9.082   5.577  70.683  1.00  0.00    -0.145 C  
HETATM    3  H1  UNL     1      -8.408   5.811  68.705  1.00  0.00     0.000 HD 
HETATM    4  H2  UNL     1      -8.653   7.263  69.521  1.00  0.00     0.000 HD 
HETATM    5  C   UNL     1      -9.681   4.183  70.412  1.00  0.00    -0.201 C  
HETATM    6  OXT UNL     1      -9.986   3.368  71.266  1.00  0.00    -0.163 OA 
HETATM    7  O   UNL     1      -9.826   3.960  69.078  1.00  0.00    -0.124 OA 
ENDROOT
BRANCH   2   8
HETATM    8  C   UNL     1      -9.948   6.323  71.702  1.00  0.00    -0.202 C  
BRANCH   8   9
HETATM    9  C   UNL     1     -10.733   7.491  71.101  1.00  0.00    -0.242 C  
BRANCH   9  10
HETATM   10  C   UNL     1     -11.541   8.213  72.176  1.00  0.00    -0.357 C  
BRANCH  10  11
HETATM   11  N   UNL     1     -11.984   9.512  71.719  1.00  0.00    -0.382 N  
HETATM   12  H   UNL     1     -11.419  10.016  71.036  1.00  0.00     0.000 HD 
BRANCH  11  13
HETATM   13  C   UNL     1     -13.135  10.080  72.175  1.00  0.00    -0.386 C  
HETATM   14  N   UNL     1     -13.904   9.207  72.871  1.00  0.00    -0.901 N  
HETATM   15  O   UNL     1     -13.480  11.237  71.987  1.00  0.00    -0.389 OA 
HETATM   16  H1  UNL     1     -14.766   9.632  73.212  1.00  0.00     0.000 HD 
HETATM   17  H2  UNL     1     -13.648   8.233  73.035  1.00  0.00     0.000 HD 
ENDBRANCH  11  13
ENDBRANCH  10  11
ENDBRANCH   9  10
ENDBRANCH   8   9
ENDBRANCH   2   8
TORSDOF 5
ENDMDL
MODEL      209
REMARK 921   NORMALIZED FREE ENERGY PREDICTED BY IDOCK:   -2.23 KCAL/MOL
REMARK 922        TOTAL FREE ENERGY PREDICTED BY IDOCK:   -3.76 KCAL/MOL
REMARK 923 INTER-LIGAND FREE ENERGY PREDICTED BY IDOCK:   -3.71 KCAL/MOL
REMARK 924 INTRA-LIGAND FREE ENERGY PREDICTED BY IDOCK:   -0.06 KCAL/MOL
REMARK 927      BINDING AFFINITY PREDICTED BY RF-SCORE:    0.00 PKD
ROOT
HETATM    1  N   UNL     1      -8.700   5.512  72.892  1.00  0.00    -0.119 NA 
HETATM    2  CA  UNL     1      -8.838   6.994  73.019  1.00  0.00    -0.126 C  
HETATM    3  H1  UNL     1      -7.771   5.237  72.573  1.00  0.00     0.000 HD 
HETATM    4  H2  UNL     1      -9.427   5.125  72.289  1.00  0.00     0.000 HD 
HETATM    5  C   UNL     1      -7.776   7.496  74.016  1.00  0.00    -0.134 C  
HETATM    6  OXT UNL     1      -7.675   8.642  74.423  1.00  0.00    -0.380 OA 
HETATM    7  O   UNL     1      -6.940   6.492  74.393  1.00  0.00    -0.088 OA 
ENDROOT
BRANCH   2   8
HETATM    8  C   UNL     1     -10.233   7.407  73.497  1.00  0.00    -0.400 C  
BRANCH   8   9
HETATM    9  C   UNL     1     -11.292   7.378  72.394  1.00  0.00    -0.341 C  
BRANCH   9  10
HETATM   10  C   UNL     1     -11.002   8.437  71.334  1.00  0.00    -0.253 C  
BRANCH  10  11
HETATM   11  N   UNL     1     -12.224   9.014  70.817  1.00  0.00    -0.483 N  
HETATM   12  H   UNL     1     -12.254   9.322  69.845  1.00  0.00     0.000 HD 
BRANCH  11  13
HETATM   13  C   UNL     1     -13.334   9.158  71.591  1.00  0.00    -0.383 C  
HETATM   14  N   UNL     1     -14.276   8.219  71.326  1.00  0.00    -0.636 N  
HETATM   15  O   UNL     1     -13.509  10.028  72.430  1.00  0.00    -0.364 OA 
HETATM   16  H1  UNL     1     -15.108   8.326  71.906  1.00  0.00     0.000 HD 
HETATM   17  H2  UNL     1     -14.165   7.487  70.624  1.00  0.00     0.000 HD 
ENDBRANCH  11  13
ENDBRANCH  10  11
ENDBRANCH   9  10
ENDBRANCH   8   9
ENDBRANCH   2   8
TORSDOF 5
ENDMDL
MODEL      210
REMARK 921   NORMALIZED FREE ENERGY PREDICTED BY IDOCK:   -2.22 KCAL/MOL
REMARK 922        TOTAL FREE ENERGY PREDICTED BY IDOCK:   -3.75 KCAL/MOL
REMARK 923 INTER-LIGAND FREE ENERGY PREDICTED BY IDOCK:   -3.61 KCAL/MOL
REMARK 924 INTRA-LIGAND FREE ENERGY PREDICTED BY IDOCK:   -0.14 KCAL/MOL
REMARK 927      BINDING AFFINITY PREDICTED BY RF-SCORE:    0.00 PKD
ROOT
HETATM    1  N   UNL     1      -8.875  11.288  68.963  1.00  0.00    -0.377 NA 
HETATM    2  CA  UNL     1      -9.805  12.264  68.320  1.00  0.00    -0.217 C  
HETATM    3  H1  UNL     1      -9.254  10.910  69.832  1.00  0.00     0.000 HD 
HETATM    4  H2  UNL     1      -7.953  11.699  69.111  1.00  0.00     0.000 HD 
HETATM    5  C   UNL     1     -11.140  11.549  68.038  1.00  0.00    -0.254 C  
HETATM    6  OXT UNL     1     -12.083  12.028  67.431  1.00  0.00    -0.566 OA 
HETATM    7  O   UNL     1     -11.147  10.294  68.563  1.00  0.00    -0.248 OA 
ENDROOT
BRANCH   2   8
HETATM    8  C   UNL     1      -9.236  12.831  67.016  1.00  0.00    -0.221 C  
BRANCH   8   9
HETATM    9  C   UNL     1      -8.482  14.149  67.198  1.00  0.00    -0.214 C  
BRANCH   9  10
HETATM   10  C   UNL     1      -9.257  15.309  66.578  1.00  0.00    -0.290 C  
BRANCH  10  11
HETATM   11  N   UNL     1      -9.148  16.506  67.384  1.00  0.00    -0.203 N  
HETATM   12  H   UNL     1      -8.367  16.597  68.033  1.00  0.00     0.000 HD 
BRANCH  11  13
HETATM   13  C   UNL     1     -10.060  17.514  67.299  1.00  0.00    -0.327 C  
HETATM   14  N   UNL     1     -10.255  17.931  66.024  1.00  0.00    -0.334 N  
HETATM   15  O   UNL     1     -10.646  18.024  68.241  1.00  0.00    -0.363 OA 
HETATM   16  H1  UNL     1     -10.938  18.686  65.960  1.00  0.00     0.000 HD 
HETATM   17  H2  UNL     1      -9.773  17.533  65.217  1.00  0.00     0.000 HD 
ENDBRANCH  11  13
ENDBRANCH  10  11
ENDBRANCH   9  10
ENDBRANCH   8   9
ENDBRANCH   2   8
TORSDOF 5
ENDMDL
MODEL      211
REMARK 921   NORMALIZED FREE ENERGY PREDICTED BY IDOCK:   -2.22 KCAL/MOL
REMARK 922        TOTAL FREE ENERGY PREDICTED BY IDOCK:   -3.74 KCAL/MOL
REMARK 923 INTER-LIGAND FREE ENERGY PREDICTED BY IDOCK:   -3.51 KCAL/MOL
REMARK 924 INTRA-LIGAND FREE ENERGY PREDICTED BY IDOCK:   -0.24 KCAL/MOL
REMARK 927      BINDING AFFINITY PREDICTED BY RF-SCORE:    0.00 PKD
ROOT
HETATM    1  N   UNL     1     -11.492  11.512  70.237  1.00  0.00    -0.515 NA 
HETATM    2  CA  UNL     1     -12.173  10.217  70.538  1.00  0.00    -0.264 C  
HETATM    3  H1  UNL     1     -12.158  12.264  70.057  1.00  0.00     0.000 HD 
HETATM    4  H2  UNL     1     -10.832  11.412  69.466  1.00  0.00     0.000 HD 
HETATM    5  C   UNL     1     -13.077  10.418  71.769  1.00  0.00    -0.462 C  
HETATM    6  OXT UNL     1     -13.699   9.536  72.339  1.00  0.00    -0.438 OA 
HETATM    7  O   UNL     1     -13.107  11.723  72.150  1.00  0.00    -0.452 OA 
ENDROOT
BRANCH   2   8
HETATM    8  C   UNL     1     -11.173   9.087  70.808  1.00  0.00    -0.329 C  
BRANCH   8   9
HETATM    9  C   UNL     1      -9.728   9.456  70.471  1.00  0.00    -0.331 C  
BRANCH   9  10
HETATM   10  C   UNL     1      -8.748   8.631  71.303  1.00  0.00    -0.194 C  
BRANCH  10  11
HETATM   11  N   UNL     1      -8.120   7.599  70.508  1.00  0.00    -0.103 N  
HETATM   12  H   UNL     1      -7.175   7.750  70.157  1.00  0.00     0.000 HD 
BRANCH  11  13
HETATM   13  C   UNL     1      -8.757   6.431  70.215  1.00  0.00    -0.143 C  
HETATM   14  N   UNL     1      -8.604   6.068  68.917  1.00  0.00    -0.115 N  
HETATM   15  O   UNL     1      -9.413   5.763  70.999  1.00  0.00    -0.161 OA 
HETATM   16  H1  UNL     1      -9.080   5.194  68.698  1.00  0.00     0.000 HD 
HETATM   17  H2  UNL     1      -8.071   6.611  68.236  1.00  0.00     0.000 HD 
ENDBRANCH  11  13
ENDBRANCH  10  11
ENDBRANCH   9  10
ENDBRANCH   8   9
ENDBRANCH   2   8
TORSDOF 5
ENDMDL
MODEL      212
REMARK 921   NORMALIZED FREE ENERGY PREDICTED BY IDOCK:   -2.21 KCAL/MOL
REMARK 922        TOTAL FREE ENERGY PREDICTED BY IDOCK:   -3.73 KCAL/MOL
REMARK 923 INTER-LIGAND FREE ENERGY PREDICTED BY IDOCK:   -3.45 KCAL/MOL
REMARK 924 INTRA-LIGAND FREE ENERGY PREDICTED BY IDOCK:   -0.28 KCAL/MOL
REMARK 927      BINDING AFFINITY PREDICTED BY RF-SCORE:    0.00 PKD
ROOT
HETATM    1  N   UNL     1      -7.029  15.383  67.673  1.00  0.00    -0.167 NA 
HETATM    2  CA  UNL     1      -8.075  14.317  67.724  1.00  0.00    -0.170 C  
HETATM    3  H1  UNL     1      -6.258  15.196  68.314  1.00  0.00     0.000 HD 
HETATM    4  H2  UNL     1      -7.433  16.304  67.839  1.00  0.00     0.000 HD 
HETATM    5  C   UNL     1      -7.415  12.971  67.367  1.00  0.00    -0.131 C  
HETATM    6  OXT UNL     1      -8.005  11.913  67.220  1.00  0.00    -0.154 OA 
HETATM    7  O   UNL     1      -6.068  13.102  67.240  1.00  0.00    -0.320 OA 
ENDROOT
BRANCH   2   8
HETATM    8  C   UNL     1      -9.233  14.598  66.760  1.00  0.00    -0.285 C  
BRANCH   8   9
HETATM    9  C   UNL     1     -10.393  15.361  67.402  1.00  0.00    -0.262 C  
BRANCH   9  10
HETATM   10  C   UNL     1     -11.709  14.611  67.210  1.00  0.00    -0.385 C  
BRANCH  10  11
HETATM   11  N   UNL     1     -11.909  13.624  68.248  1.00  0.00    -0.357 N  
HETATM   12  H   UNL     1     -12.198  13.933  69.176  1.00  0.00     0.000 HD 
BRANCH  11  13
HETATM   13  C   UNL     1     -11.723  12.295  68.020  1.00  0.00    -0.356 C  
HETATM   14  N   UNL     1     -11.422  11.612  69.152  1.00  0.00    -0.273 N  
HETATM   15  O   UNL     1     -11.794  11.742  66.933  1.00  0.00    -0.591 OA 
HETATM   16  H1  UNL     1     -11.282  10.616  68.982  1.00  0.00     0.000 HD 
HETATM   17  H2  UNL     1     -11.344  12.047  70.072  1.00  0.00     0.000 HD 
ENDBRANCH  11  13
ENDBRANCH  10  11
ENDBRANCH   9  10
ENDBRANCH   8   9
ENDBRANCH   2   8
TORSDOF 5
ENDMDL
MODEL      213
REMARK 921   NORMALIZED FREE ENERGY PREDICTED BY IDOCK:   -2.21 KCAL/MOL
REMARK 922        TOTAL FREE ENERGY PREDICTED BY IDOCK:   -3.73 KCAL/MOL
REMARK 923 INTER-LIGAND FREE ENERGY PREDICTED BY IDOCK:   -3.55 KCAL/MOL
REMARK 924 INTRA-LIGAND FREE ENERGY PREDICTED BY IDOCK:   -0.18 KCAL/MOL
REMARK 927      BINDING AFFINITY PREDICTED BY RF-SCORE:    0.00 PKD
ROOT
HETATM    1  N   UNL     1      -7.004  14.740  68.204  1.00  0.00    -0.112 NA 
HETATM    2  CA  UNL     1      -7.908  13.552  68.258  1.00  0.00    -0.145 C  
HETATM    3  H1  UNL     1      -6.079  14.536  68.581  1.00  0.00     0.000 HD 
HETATM    4  H2  UNL     1      -7.424  15.544  68.670  1.00  0.00     0.000 HD 
HETATM    5  C   UNL     1      -7.258  12.410  67.453  1.00  0.00    -0.148 C  
HETATM    6  OXT UNL     1      -7.776  11.332  67.212  1.00  0.00    -0.123 OA 
HETATM    7  O   UNL     1      -6.008  12.749  67.039  1.00  0.00    -0.307 OA 
ENDROOT
BRANCH   2   8
HETATM    8  C   UNL     1      -9.299  13.857  67.692  1.00  0.00    -0.205 C  
BRANCH   8   9
HETATM    9  C   UNL     1     -10.334  14.204  68.763  1.00  0.00    -0.230 C  
BRANCH   9  10
HETATM   10  C   UNL     1     -11.067  15.496  68.412  1.00  0.00    -0.315 C  
BRANCH  10  11
HETATM   11  N   UNL     1     -12.368  15.552  69.043  1.00  0.00    -0.611 N  
HETATM   12  H   UNL     1     -13.197  15.664  68.460  1.00  0.00     0.000 HD 
BRANCH  11  13
HETATM   13  C   UNL     1     -12.515  15.459  70.394  1.00  0.00    -0.404 C  
HETATM   14  N   UNL     1     -13.522  14.623  70.749  1.00  0.00    -0.531 N  
HETATM   15  O   UNL     1     -11.848  16.055  71.225  1.00  0.00    -0.415 OA 
HETATM   16  H1  UNL     1     -13.633  14.554  71.760  1.00  0.00     0.000 HD 
HETATM   17  H2  UNL     1     -14.104  14.120  70.079  1.00  0.00     0.000 HD 
ENDBRANCH  11  13
ENDBRANCH  10  11
ENDBRANCH   9  10
ENDBRANCH   8   9
ENDBRANCH   2   8
TORSDOF 5
ENDMDL
MODEL      214
REMARK 921   NORMALIZED FREE ENERGY PREDICTED BY IDOCK:   -2.20 KCAL/MOL
REMARK 922        TOTAL FREE ENERGY PREDICTED BY IDOCK:   -3.72 KCAL/MOL
REMARK 923 INTER-LIGAND FREE ENERGY PREDICTED BY IDOCK:   -3.47 KCAL/MOL
REMARK 924 INTRA-LIGAND FREE ENERGY PREDICTED BY IDOCK:   -0.25 KCAL/MOL
REMARK 927      BINDING AFFINITY PREDICTED BY RF-SCORE:    0.00 PKD
ROOT
HETATM    1  N   UNL     1     -12.635   8.278  70.993  1.00  0.00    -0.500 NA 
HETATM    2  CA  UNL     1     -11.563   7.271  70.729  1.00  0.00    -0.302 C  
HETATM    3  H1  UNL     1     -13.208   8.028  71.799  1.00  0.00     0.000 HD 
HETATM    4  H2  UNL     1     -13.209   8.430  70.164  1.00  0.00     0.000 HD 
HETATM    5  C   UNL     1     -10.677   7.165  71.986  1.00  0.00    -0.214 C  
HETATM    6  OXT UNL     1      -9.654   6.507  72.074  1.00  0.00    -0.152 OA 
HETATM    7  O   UNL     1     -11.185   7.901  73.010  1.00  0.00    -0.411 OA 
ENDROOT
BRANCH   2   8
HETATM    8  C   UNL     1     -10.702   7.646  69.519  1.00  0.00    -0.211 C  
BRANCH   8   9
HETATM    9  C   UNL     1     -10.052   9.026  69.635  1.00  0.00    -0.202 C  
BRANCH   9  10
HETATM   10  C   UNL     1      -9.399   9.431  68.316  1.00  0.00    -0.133 C  
BRANCH  10  11
HETATM   11  N   UNL     1     -10.389   9.682  67.292  1.00  0.00    -0.233 N  
HETATM   12  H   UNL     1     -10.718   8.904  66.719  1.00  0.00     0.000 HD 
BRANCH  11  13
HETATM   13  C   UNL     1     -10.896  10.927  67.071  1.00  0.00    -0.266 C  
HETATM   14  N   UNL     1     -10.081  11.689  66.300  1.00  0.00    -0.215 N  
HETATM   15  O   UNL     1     -11.952  11.353  67.512  1.00  0.00    -0.626 OA 
HETATM   16  H1  UNL     1     -10.460  12.621  66.135  1.00  0.00     0.000 HD 
HETATM   17  H2  UNL     1      -9.189  11.365  65.927  1.00  0.00     0.000 HD 
ENDBRANCH  11  13
ENDBRANCH  10  11
ENDBRANCH   9  10
ENDBRANCH   8   9
ENDBRANCH   2   8
TORSDOF 5
ENDMDL
MODEL      215
REMARK 921   NORMALIZED FREE ENERGY PREDICTED BY IDOCK:   -2.18 KCAL/MOL
REMARK 922        TOTAL FREE ENERGY PREDICTED BY IDOCK:   -3.69 KCAL/MOL
REMARK 923 INTER-LIGAND FREE ENERGY PREDICTED BY IDOCK:   -3.44 KCAL/MOL
REMARK 924 INTRA-LIGAND FREE ENERGY PREDICTED BY IDOCK:   -0.25 KCAL/MOL
REMARK 927      BINDING AFFINITY PREDICTED BY RF-SCORE:    0.00 PKD
ROOT
HETATM    1  N   UNL     1     -10.214  14.248  66.368  1.00  0.00    -0.284 NA 
HETATM    2  CA  UNL     1      -9.467  14.451  67.646  1.00  0.00    -0.214 C  
HETATM    3  H1  UNL     1     -10.947  13.545  66.459  1.00  0.00     0.000 HD 
HETATM    4  H2  UNL     1      -9.580  14.024  65.602  1.00  0.00     0.000 HD 
HETATM    5  C   UNL     1     -10.471  14.882  68.732  1.00  0.00    -0.242 C  
HETATM    6  OXT UNL     1     -10.179  15.224  69.867  1.00  0.00    -0.263 OA 
HETATM    7  O   UNL     1     -11.749  14.829  68.271  1.00  0.00    -0.308 OA 
ENDROOT
BRANCH   2   8
HETATM    8  C   UNL     1      -8.366  15.508  67.510  1.00  0.00    -0.190 C  
BRANCH   8   9
HETATM    9  C   UNL     1      -8.330  16.182  66.137  1.00  0.00    -0.222 C  
BRANCH   9  10
HETATM   10  C   UNL     1      -7.986  17.664  66.269  1.00  0.00    -0.257 C  
BRANCH  10  11
HETATM   11  N   UNL     1      -8.669  18.265  67.393  1.00  0.00    -0.254 N  
HETATM   12  H   UNL     1      -8.292  18.130  68.331  1.00  0.00     0.000 HD 
BRANCH  11  13
HETATM   13  C   UNL     1      -9.800  19.007  67.234  1.00  0.00    -0.326 C  
HETATM   14  N   UNL     1     -10.165  19.646  68.373  1.00  0.00    -0.441 N  
HETATM   15  O   UNL     1     -10.450  19.101  66.205  1.00  0.00    -0.441 OA 
HETATM   16  H1  UNL     1     -11.012  20.202  68.255  1.00  0.00     0.000 HD 
HETATM   17  H2  UNL     1      -9.649  19.579  69.251  1.00  0.00     0.000 HD 
ENDBRANCH  11  13
ENDBRANCH  10  11
ENDBRANCH   9  10
ENDBRANCH   8   9
ENDBRANCH   2   8
TORSDOF 5
ENDMDL
MODEL      216
REMARK 921   NORMALIZED FREE ENERGY PREDICTED BY IDOCK:   -2.17 KCAL/MOL
REMARK 922        TOTAL FREE ENERGY PREDICTED BY IDOCK:   -3.68 KCAL/MOL
REMARK 923 INTER-LIGAND FREE ENERGY PREDICTED BY IDOCK:   -3.59 KCAL/MOL
REMARK 924 INTRA-LIGAND FREE ENERGY PREDICTED BY IDOCK:   -0.09 KCAL/MOL
REMARK 927      BINDING AFFINITY PREDICTED BY RF-SCORE:    0.00 PKD
ROOT
HETATM    1  N   UNL     1      -7.276  10.838  65.098  1.00  0.00    -0.356 NA 
HETATM    2  CA  UNL     1      -8.171   9.734  64.638  1.00  0.00    -0.150 C  
HETATM    3  H1  UNL     1      -6.340  10.765  64.701  1.00  0.00     0.000 HD 
HETATM    4  H2  UNL     1      -7.242  10.885  66.117  1.00  0.00     0.000 HD 
HETATM    5  C   UNL     1      -8.253   9.785  63.100  1.00  0.00    -0.153 C  
HETATM    6  OXT UNL     1      -8.976   9.087  62.408  1.00  0.00    -0.216 OA 
HETATM    7  O   UNL     1      -7.401  10.715  62.592  1.00  0.00    -0.131 OA 
ENDROOT
BRANCH   2   8
HETATM    8  C   UNL     1      -9.578   9.843  65.235  1.00  0.00    -0.361 C  
BRANCH   8   9
HETATM    9  C   UNL     1      -9.901  11.231  65.792  1.00  0.00    -0.273 C  
BRANCH   9  10
HETATM   10  C   UNL     1     -10.677  12.059  64.770  1.00  0.00    -0.306 C  
BRANCH  10  11
HETATM   11  N   UNL     1     -11.939  12.515  65.311  1.00  0.00    -0.422 N  
HETATM   12  H   UNL     1     -12.780  12.439  64.739  1.00  0.00     0.000 HD 
BRANCH  11  13
HETATM   13  C   UNL     1     -12.036  13.042  66.562  1.00  0.00    -0.391 C  
HETATM   14  N   UNL     1     -11.921  14.393  66.566  1.00  0.00    -0.406 N  
HETATM   15  O   UNL     1     -12.192  12.405  67.592  1.00  0.00    -0.425 OA 
HETATM   16  H1  UNL     1     -11.993  14.789  67.503  1.00  0.00     0.000 HD 
HETATM   17  H2  UNL     1     -11.778  14.952  65.724  1.00  0.00     0.000 HD 
ENDBRANCH  11  13
ENDBRANCH  10  11
ENDBRANCH   9  10
ENDBRANCH   8   9
ENDBRANCH   2   8
TORSDOF 5
ENDMDL
MODEL      217
REMARK 921   NORMALIZED FREE ENERGY PREDICTED BY IDOCK:   -2.16 KCAL/MOL
REMARK 922        TOTAL FREE ENERGY PREDICTED BY IDOCK:   -3.67 KCAL/MOL
REMARK 923 INTER-LIGAND FREE ENERGY PREDICTED BY IDOCK:   -3.44 KCAL/MOL
REMARK 924 INTRA-LIGAND FREE ENERGY PREDICTED BY IDOCK:   -0.23 KCAL/MOL
REMARK 927      BINDING AFFINITY PREDICTED BY RF-SCORE:    0.00 PKD
ROOT
HETATM    1  N   UNL     1     -13.812   6.810  72.122  1.00  0.00    -0.515 NA 
HETATM    2  CA  UNL     1     -12.442   7.356  71.878  1.00  0.00    -0.302 C  
HETATM    3  H1  UNL     1     -14.172   7.071  73.040  1.00  0.00     0.000 HD 
HETATM    4  H2  UNL     1     -13.834   5.799  71.990  1.00  0.00     0.000 HD 
HETATM    5  C   UNL     1     -12.504   8.891  71.997  1.00  0.00    -0.392 C  
HETATM    6  OXT UNL     1     -11.583   9.655  71.760  1.00  0.00    -0.378 OA 
HETATM    7  O   UNL     1     -13.730   9.304  72.414  1.00  0.00    -0.465 OA 
ENDROOT
BRANCH   2   8
HETATM    8  C   UNL     1     -11.901   6.965  70.500  1.00  0.00    -0.385 C  
BRANCH   8   9
HETATM    9  C   UNL     1     -10.827   5.877  70.549  1.00  0.00    -0.366 C  
BRANCH   9  10
HETATM   10  C   UNL     1     -10.324   5.676  71.977  1.00  0.00    -0.212 C  
BRANCH  10  11
HETATM   11  N   UNL     1      -9.628   4.415  72.117  1.00  0.00    -0.144 N  
HETATM   12  H   UNL     1      -9.780   3.685  71.421  1.00  0.00     0.000 HD 
BRANCH  11  13
HETATM   13  C   UNL     1      -8.777   4.176  73.152  1.00  0.00    -0.095 C  
HETATM   14  N   UNL     1      -8.530   5.287  73.889  1.00  0.00    -0.114 N  
HETATM   15  O   UNL     1      -8.260   3.101  73.414  1.00  0.00    -0.072 OA 
HETATM   16  H1  UNL     1      -7.893   5.108  74.664  1.00  0.00     0.000 HD 
HETATM   17  H2  UNL     1      -8.938   6.201  73.689  1.00  0.00     0.000 HD 
ENDBRANCH  11  13
ENDBRANCH  10  11
ENDBRANCH   9  10
ENDBRANCH   8   9
ENDBRANCH   2   8
TORSDOF 5
ENDMDL
MODEL      218
REMARK 921   NORMALIZED FREE ENERGY PREDICTED BY IDOCK:   -2.16 KCAL/MOL
REMARK 922        TOTAL FREE ENERGY PREDICTED BY IDOCK:   -3.67 KCAL/MOL
REMARK 923 INTER-LIGAND FREE ENERGY PREDICTED BY IDOCK:   -3.80 KCAL/MOL
REMARK 924 INTRA-LIGAND FREE ENERGY PREDICTED BY IDOCK:    0.13 KCAL/MOL
REMARK 927      BINDING AFFINITY PREDICTED BY RF-SCORE:    0.00 PKD
ROOT
HETATM    1  N   UNL     1     -11.289   4.792  65.673  1.00  0.00    -0.884 NA 
HETATM    2  CA  UNL     1     -10.298   5.644  66.397  1.00  0.00    -0.187 C  
HETATM    3  H1  UNL     1     -10.840   4.148  65.022  1.00  0.00     0.000 HD 
HETATM    4  H2  UNL     1     -11.990   5.364  65.201  1.00  0.00     0.000 HD 
HETATM    5  C   UNL     1      -9.332   4.719  67.164  1.00  0.00    -0.135 C  
HETATM    6  OXT UNL     1      -8.464   5.090  67.936  1.00  0.00    -0.104 OA 
HETATM    7  O   UNL     1      -9.562   3.412  66.867  1.00  0.00    -0.182 OA 
ENDROOT
BRANCH   2   8
HETATM    8  C   UNL     1     -10.972   6.612  67.374  1.00  0.00    -0.434 C  
BRANCH   8   9
HETATM    9  C   UNL     1     -11.141   6.041  68.783  1.00  0.00    -0.329 C  
BRANCH   9  10
HETATM   10  C   UNL     1     -11.150   7.158  69.825  1.00  0.00    -0.210 C  
BRANCH  10  11
HETATM   11  N   UNL     1     -10.848   6.649  71.145  1.00  0.00    -0.234 N  
HETATM   12  H   UNL     1     -10.324   5.779  71.233  1.00  0.00     0.000 HD 
BRANCH  11  13
HETATM   13  C   UNL     1     -11.245   7.300  72.273  1.00  0.00    -0.267 C  
HETATM   14  N   UNL     1     -11.213   6.503  73.370  1.00  0.00    -0.462 N  
HETATM   15  O   UNL     1     -11.609   8.464  72.332  1.00  0.00    -0.367 OA 
HETATM   16  H1  UNL     1     -11.510   6.990  74.215  1.00  0.00     0.000 HD 
HETATM   17  H2  UNL     1     -10.925   5.525  73.351  1.00  0.00     0.000 HD 
ENDBRANCH  11  13
ENDBRANCH  10  11
ENDBRANCH   9  10
ENDBRANCH   8   9
ENDBRANCH   2   8
TORSDOF 5
ENDMDL
MODEL      219
REMARK 921   NORMALIZED FREE ENERGY PREDICTED BY IDOCK:   -2.15 KCAL/MOL
REMARK 922        TOTAL FREE ENERGY PREDICTED BY IDOCK:   -3.66 KCAL/MOL
REMARK 923 INTER-LIGAND FREE ENERGY PREDICTED BY IDOCK:   -3.46 KCAL/MOL
REMARK 924 INTRA-LIGAND FREE ENERGY PREDICTED BY IDOCK:   -0.19 KCAL/MOL
REMARK 927      BINDING AFFINITY PREDICTED BY RF-SCORE:    0.00 PKD
ROOT
HETATM    1  N   UNL     1      -8.060   6.327  67.606  1.00  0.00    -0.116 NA 
HETATM    2  CA  UNL     1      -9.037   5.478  68.352  1.00  0.00    -0.111 C  
HETATM    3  H1  UNL     1      -7.101   5.999  67.716  1.00  0.00     0.000 HD 
HETATM    4  H2  UNL     1      -8.147   7.308  67.871  1.00  0.00     0.000 HD 
HETATM    5  C   UNL     1      -8.919   4.032  67.831  1.00  0.00    -0.125 C  
HETATM    6  OXT UNL     1      -9.641   3.104  68.157  1.00  0.00    -0.180 OA 
HETATM    7  O   UNL     1      -7.888   3.907  66.953  1.00  0.00    -0.087 OA 
ENDROOT
BRANCH   2   8
HETATM    8  C   UNL     1     -10.478   5.972  68.186  1.00  0.00    -0.292 C  
BRANCH   8   9
HETATM    9  C   UNL     1     -11.229   6.123  69.509  1.00  0.00    -0.482 C  
BRANCH   9  10
HETATM   10  C   UNL     1     -10.921   7.471  70.158  1.00  0.00    -0.254 C  
BRANCH  10  11
HETATM   11  N   UNL     1     -12.108   8.061  70.737  1.00  0.00    -0.495 N  
HETATM   12  H   UNL     1     -12.843   8.403  70.119  1.00  0.00     0.000 HD 
BRANCH  11  13
HETATM   13  C   UNL     1     -12.271   8.171  72.085  1.00  0.00    -0.350 C  
HETATM   14  N   UNL     1     -13.487   8.667  72.421  1.00  0.00    -0.570 N  
HETATM   15  O   UNL     1     -11.436   7.882  72.928  1.00  0.00    -0.403 OA 
HETATM   16  H1  UNL     1     -13.610   8.750  73.430  1.00  0.00     0.000 HD 
HETATM   17  H2  UNL     1     -14.201   8.928  71.740  1.00  0.00     0.000 HD 
ENDBRANCH  11  13
ENDBRANCH  10  11
ENDBRANCH   9  10
ENDBRANCH   8   9
ENDBRANCH   2   8
TORSDOF 5
ENDMDL
MODEL      220
REMARK 921   NORMALIZED FREE ENERGY PREDICTED BY IDOCK:   -2.15 KCAL/MOL
REMARK 922        TOTAL FREE ENERGY PREDICTED BY IDOCK:   -3.65 KCAL/MOL
REMARK 923 INTER-LIGAND FREE ENERGY PREDICTED BY IDOCK:   -3.29 KCAL/MOL
REMARK 924 INTRA-LIGAND FREE ENERGY PREDICTED BY IDOCK:   -0.36 KCAL/MOL
REMARK 927      BINDING AFFINITY PREDICTED BY RF-SCORE:    0.00 PKD
ROOT
HETATM    1  N   UNL     1      -9.001   7.000  70.030  1.00  0.00    -0.142 NA 
HETATM    2  CA  UNL     1      -8.935   8.300  69.296  1.00  0.00    -0.147 C  
HETATM    3  H1  UNL     1      -8.809   6.205  69.422  1.00  0.00     0.000 HD 
HETATM    4  H2  UNL     1      -9.895   6.892  70.508  1.00  0.00     0.000 HD 
HETATM    5  C   UNL     1      -7.528   8.440  68.683  1.00  0.00    -0.093 C  
HETATM    6  OXT UNL     1      -7.106   9.427  68.102  1.00  0.00    -0.075 OA 
HETATM    7  O   UNL     1      -6.797   7.307  68.862  1.00  0.00    -0.067 OA 
ENDROOT
BRANCH   2   8
HETATM    8  C   UNL     1      -9.223   9.495  70.210  1.00  0.00    -0.303 C  
BRANCH   8   9
HETATM    9  C   UNL     1     -10.554  10.187  69.912  1.00  0.00    -0.331 C  
BRANCH   9  10
HETATM   10  C   UNL     1     -11.627   9.751  70.907  1.00  0.00    -0.361 C  
BRANCH  10  11
HETATM   11  N   UNL     1     -12.011   8.372  70.697  1.00  0.00    -0.484 N  
HETATM   12  H   UNL     1     -11.825   7.938  69.794  1.00  0.00     0.000 HD 
BRANCH  11  13
HETATM   13  C   UNL     1     -12.615   7.638  71.673  1.00  0.00    -0.339 C  
HETATM   14  N   UNL     1     -11.786   7.377  72.713  1.00  0.00    -0.565 N  
HETATM   15  O   UNL     1     -13.765   7.228  71.645  1.00  0.00    -0.380 OA 
HETATM   16  H1  UNL     1     -12.238   6.827  73.444  1.00  0.00     0.000 HD 
HETATM   17  H2  UNL     1     -10.818   7.696  72.760  1.00  0.00     0.000 HD 
ENDBRANCH  11  13
ENDBRANCH  10  11
ENDBRANCH   9  10
ENDBRANCH   8   9
ENDBRANCH   2   8
TORSDOF 5
ENDMDL
MODEL      221
REMARK 921   NORMALIZED FREE ENERGY PREDICTED BY IDOCK:   -2.15 KCAL/MOL
REMARK 922        TOTAL FREE ENERGY PREDICTED BY IDOCK:   -3.65 KCAL/MOL
REMARK 923 INTER-LIGAND FREE ENERGY PREDICTED BY IDOCK:   -3.30 KCAL/MOL
REMARK 924 INTRA-LIGAND FREE ENERGY PREDICTED BY IDOCK:   -0.35 KCAL/MOL
REMARK 927      BINDING AFFINITY PREDICTED BY RF-SCORE:    0.00 PKD
ROOT
HETATM    1  N   UNL     1     -11.779  14.806  66.631  1.00  0.00    -0.329 NA 
HETATM    2  CA  UNL     1     -11.723  13.315  66.572  1.00  0.00    -0.377 C  
HETATM    3  H1  UNL     1     -12.686  15.145  66.952  1.00  0.00     0.000 HD 
HETATM    4  H2  UNL     1     -11.528  15.220  65.733  1.00  0.00     0.000 HD 
HETATM    5  C   UNL     1     -12.016  12.762  67.980  1.00  0.00    -0.264 C  
HETATM    6  OXT UNL     1     -11.952  11.588  68.305  1.00  0.00    -0.544 OA 
HETATM    7  O   UNL     1     -12.368  13.758  68.837  1.00  0.00    -0.291 OA 
ENDROOT
BRANCH   2   8
HETATM    8  C   UNL     1     -10.361  12.806  66.089  1.00  0.00    -0.283 C  
BRANCH   8   9
HETATM    9  C   UNL     1      -9.185  13.663  66.559  1.00  0.00    -0.195 C  
BRANCH   9  10
HETATM   10  C   UNL     1      -8.416  12.964  67.677  1.00  0.00    -0.183 C  
BRANCH  10  11
HETATM   11  N   UNL     1      -8.447  13.735  68.901  1.00  0.00    -0.357 N  
HETATM   12  H   UNL     1      -9.035  13.418  69.672  1.00  0.00     0.000 HD 
BRANCH  11  13
HETATM   13  C   UNL     1      -7.713  14.872  69.052  1.00  0.00    -0.153 C  
HETATM   14  N   UNL     1      -8.482  15.950  69.346  1.00  0.00    -0.242 N  
HETATM   15  O   UNL     1      -6.501  14.957  68.931  1.00  0.00    -0.084 OA 
HETATM   16  H1  UNL     1      -7.933  16.802  69.459  1.00  0.00     0.000 HD 
HETATM   17  H2  UNL     1      -9.497  15.912  69.443  1.00  0.00     0.000 HD 
ENDBRANCH  11  13
ENDBRANCH  10  11
ENDBRANCH   9  10
ENDBRANCH   8   9
ENDBRANCH   2   8
TORSDOF 5
ENDMDL
MODEL      222
REMARK 921   NORMALIZED FREE ENERGY PREDICTED BY IDOCK:   -2.13 KCAL/MOL
REMARK 922        TOTAL FREE ENERGY PREDICTED BY IDOCK:   -3.63 KCAL/MOL
REMARK 923 INTER-LIGAND FREE ENERGY PREDICTED BY IDOCK:   -3.54 KCAL/MOL
REMARK 924 INTRA-LIGAND FREE ENERGY PREDICTED BY IDOCK:   -0.09 KCAL/MOL
REMARK 927      BINDING AFFINITY PREDICTED BY RF-SCORE:    0.00 PKD
ROOT
HETATM    1  N   UNL     1      -8.003   9.488  69.705  1.00  0.00    -0.106 NA 
HETATM    2  CA  UNL     1      -9.329  10.175  69.679  1.00  0.00    -0.190 C  
HETATM    3  H1  UNL     1      -7.636   9.396  70.652  1.00  0.00     0.000 HD 
HETATM    4  H2  UNL     1      -7.334   9.957  69.094  1.00  0.00     0.000 HD 
HETATM    5  C   UNL     1     -10.314   9.362  70.542  1.00  0.00    -0.281 C  
HETATM    6  OXT UNL     1     -11.507   9.590  70.656  1.00  0.00    -0.267 OA 
HETATM    7  O   UNL     1      -9.682   8.342  71.181  1.00  0.00    -0.155 OA 
ENDROOT
BRANCH   2   8
HETATM    8  C   UNL     1      -9.881  10.315  68.257  1.00  0.00    -0.161 C  
BRANCH   8   9
HETATM    9  C   UNL     1     -10.454  11.701  67.955  1.00  0.00    -0.217 C  
BRANCH   9  10
HETATM   10  C   UNL     1     -10.301  12.042  66.475  1.00  0.00    -0.210 C  
BRANCH  10  11
HETATM   11  N   UNL     1     -11.588  12.213  65.838  1.00  0.00    -0.384 N  
HETATM   12  H   UNL     1     -12.016  11.417  65.365  1.00  0.00     0.000 HD 
BRANCH  11  13
HETATM   13  C   UNL     1     -12.245  13.406  65.852  1.00  0.00    -0.450 C  
HETATM   14  N   UNL     1     -12.829  13.690  64.662  1.00  0.00    -0.677 N  
HETATM   15  O   UNL     1     -12.311  14.170  66.802  1.00  0.00    -0.438 OA 
HETATM   16  H1  UNL     1     -13.320  14.583  64.672  1.00  0.00     0.000 HD 
HETATM   17  H2  UNL     1     -12.782  13.078  63.847  1.00  0.00     0.000 HD 
ENDBRANCH  11  13
ENDBRANCH  10  11
ENDBRANCH   9  10
ENDBRANCH   8   9
ENDBRANCH   2   8
TORSDOF 5
ENDMDL
MODEL      223
REMARK 921   NORMALIZED FREE ENERGY PREDICTED BY IDOCK:   -2.10 KCAL/MOL
REMARK 922        TOTAL FREE ENERGY PREDICTED BY IDOCK:   -3.60 KCAL/MOL
REMARK 923 INTER-LIGAND FREE ENERGY PREDICTED BY IDOCK:   -3.22 KCAL/MOL
REMARK 924 INTRA-LIGAND FREE ENERGY PREDICTED BY IDOCK:   -0.37 KCAL/MOL
REMARK 927      BINDING AFFINITY PREDICTED BY RF-SCORE:    0.00 PKD
ROOT
HETATM    1  N   UNL     1      -9.135   8.631  72.597  1.00  0.00    -0.350 NA 
HETATM    2  CA  UNL     1     -10.193   7.624  72.284  1.00  0.00    -0.216 C  
HETATM    3  H1  UNL     1      -8.836   9.146  71.769  1.00  0.00     0.000 HD 
HETATM    4  H2  UNL     1      -8.341   8.197  73.068  1.00  0.00     0.000 HD 
HETATM    5  C   UNL     1     -11.397   8.362  71.666  1.00  0.00    -0.286 C  
HETATM    6  OXT UNL     1     -12.469   7.851  71.386  1.00  0.00    -0.313 OA 
HETATM    7  O   UNL     1     -11.116   9.676  71.459  1.00  0.00    -0.370 OA 
ENDROOT
BRANCH   2   8
HETATM    8  C   UNL     1     -10.642   6.851  73.527  1.00  0.00    -0.378 C  
BRANCH   8   9
HETATM    9  C   UNL     1     -10.711   5.337  73.316  1.00  0.00    -0.325 C  
BRANCH   9  10
HETATM   10  C   UNL     1      -9.529   4.851  72.481  1.00  0.00    -0.139 C  
BRANCH  10  11
HETATM   11  N   UNL     1      -9.968   4.026  71.377  1.00  0.00    -0.172 N  
HETATM   12  H   UNL     1     -10.236   3.059  71.557  1.00  0.00     0.000 HD 
BRANCH  11  13
HETATM   13  C   UNL     1     -10.033   4.504  70.104  1.00  0.00    -0.208 C  
HETATM   14  N   UNL     1      -9.272   3.787  69.241  1.00  0.00    -0.145 N  
HETATM   15  O   UNL     1     -10.679   5.475  69.741  1.00  0.00    -0.322 OA 
HETATM   16  H1  UNL     1      -9.320   4.145  68.287  1.00  0.00     0.000 HD 
HETATM   17  H2  UNL     1      -8.713   2.979  69.515  1.00  0.00     0.000 HD 
ENDBRANCH  11  13
ENDBRANCH  10  11
ENDBRANCH   9  10
ENDBRANCH   8   9
ENDBRANCH   2   8
TORSDOF 5
ENDMDL
MODEL      224
REMARK 921   NORMALIZED FREE ENERGY PREDICTED BY IDOCK:   -2.08 KCAL/MOL
REMARK 922        TOTAL FREE ENERGY PREDICTED BY IDOCK:   -3.56 KCAL/MOL
REMARK 923 INTER-LIGAND FREE ENERGY PREDICTED BY IDOCK:   -3.42 KCAL/MOL
REMARK 924 INTRA-LIGAND FREE ENERGY PREDICTED BY IDOCK:   -0.15 KCAL/MOL
REMARK 927      BINDING AFFINITY PREDICTED BY RF-SCORE:    0.00 PKD
ROOT
HETATM    1  N   UNL     1      -7.574  10.742  70.077  1.00  0.00    -0.406 NA 
HETATM    2  CA  UNL     1      -8.563  10.212  69.091  1.00  0.00    -0.165 C  
HETATM    3  H1  UNL     1      -7.564  10.201  70.941  1.00  0.00     0.000 HD 
HETATM    4  H2  UNL     1      -7.735  11.732  70.264  1.00  0.00     0.000 HD 
HETATM    5  C   UNL     1      -8.202   8.746  68.782  1.00  0.00    -0.116 C  
HETATM    6  OXT UNL     1      -8.746   8.046  67.944  1.00  0.00    -0.128 OA 
HETATM    7  O   UNL     1      -7.187   8.311  69.577  1.00  0.00    -0.059 OA 
ENDROOT
BRANCH   2   8
HETATM    8  C   UNL     1      -8.578  11.025  67.792  1.00  0.00    -0.130 C  
BRANCH   8   9
HETATM    9  C   UNL     1      -9.971  11.171  67.178  1.00  0.00    -0.215 C  
BRANCH   9  10
HETATM   10  C   UNL     1      -9.979  12.254  66.101  1.00  0.00    -0.243 C  
BRANCH  10  11
HETATM   11  N   UNL     1     -11.021  12.019  65.125  1.00  0.00    -0.302 N  
HETATM   12  H   UNL     1     -10.930  11.231  64.484  1.00  0.00     0.000 HD 
BRANCH  11  13
HETATM   13  C   UNL     1     -12.119  12.820  65.039  1.00  0.00    -0.441 C  
HETATM   14  N   UNL     1     -11.927  14.027  65.626  1.00  0.00    -0.378 N  
HETATM   15  O   UNL     1     -13.180  12.518  64.515  1.00  0.00    -0.832 OA 
HETATM   16  H1  UNL     1     -12.749  14.627  65.562  1.00  0.00     0.000 HD 
HETATM   17  H2  UNL     1     -11.057  14.304  66.081  1.00  0.00     0.000 HD 
ENDBRANCH  11  13
ENDBRANCH  10  11
ENDBRANCH   9  10
ENDBRANCH   8   9
ENDBRANCH   2   8
TORSDOF 5
ENDMDL
MODEL      225
REMARK 921   NORMALIZED FREE ENERGY PREDICTED BY IDOCK:   -2.08 KCAL/MOL
REMARK 922        TOTAL FREE ENERGY PREDICTED BY IDOCK:   -3.56 KCAL/MOL
REMARK 923 INTER-LIGAND FREE ENERGY PREDICTED BY IDOCK:   -3.18 KCAL/MOL
REMARK 924 INTRA-LIGAND FREE ENERGY PREDICTED BY IDOCK:   -0.38 KCAL/MOL
REMARK 927      BINDING AFFINITY PREDICTED BY RF-SCORE:    0.00 PKD
ROOT
HETATM    1  N   UNL     1      -9.836  12.565  65.033  1.00  0.00    -0.461 NA 
HETATM    2  CA  UNL     1     -10.007  12.117  66.448  1.00  0.00    -0.225 C  
HETATM    3  H1  UNL     1     -10.637  12.318  64.452  1.00  0.00     0.000 HD 
HETATM    4  H2  UNL     1      -8.967  12.208  64.636  1.00  0.00     0.000 HD 
HETATM    5  C   UNL     1     -11.283  12.771  67.014  1.00  0.00    -0.292 C  
HETATM    6  OXT UNL     1     -11.662  12.695  68.171  1.00  0.00    -0.315 OA 
HETATM    7  O   UNL     1     -11.956  13.452  66.048  1.00  0.00    -0.372 OA 
ENDROOT
BRANCH   2   8
HETATM    8  C   UNL     1      -8.805  12.487  67.322  1.00  0.00    -0.195 C  
BRANCH   8   9
HETATM    9  C   UNL     1      -7.872  11.310  67.612  1.00  0.00    -0.116 C  
BRANCH   9  10
HETATM   10  C   UNL     1      -8.012  10.849  69.060  1.00  0.00    -0.131 C  
BRANCH  10  11
HETATM   11  N   UNL     1      -9.399  10.818  69.472  1.00  0.00    -0.414 N  
HETATM   12  H   UNL     1      -9.953  11.672  69.411  1.00  0.00     0.000 HD 
BRANCH  11  13
HETATM   13  C   UNL     1      -9.985   9.680  69.937  1.00  0.00    -0.241 C  
HETATM   14  N   UNL     1      -9.244   8.574  69.682  1.00  0.00    -0.156 N  
HETATM   15  O   UNL     1     -11.061   9.618  70.510  1.00  0.00    -0.260 OA 
HETATM   16  H1  UNL     1      -9.682   7.722  70.030  1.00  0.00     0.000 HD 
HETATM   17  H2  UNL     1      -8.347   8.592  69.196  1.00  0.00     0.000 HD 
ENDBRANCH  11  13
ENDBRANCH  10  11
ENDBRANCH   9  10
ENDBRANCH   8   9
ENDBRANCH   2   8
TORSDOF 5
ENDMDL
MODEL      226
REMARK 921   NORMALIZED FREE ENERGY PREDICTED BY IDOCK:   -2.05 KCAL/MOL
REMARK 922        TOTAL FREE ENERGY PREDICTED BY IDOCK:   -3.52 KCAL/MOL
REMARK 923 INTER-LIGAND FREE ENERGY PREDICTED BY IDOCK:   -3.26 KCAL/MOL
REMARK 924 INTRA-LIGAND FREE ENERGY PREDICTED BY IDOCK:   -0.26 KCAL/MOL
REMARK 927      BINDING AFFINITY PREDICTED BY RF-SCORE:    0.00 PKD
ROOT
HETATM    1  N   UNL     1      -8.546  11.233  69.128  1.00  0.00    -0.379 NA 
HETATM    2  CA  UNL     1      -9.690  10.875  68.236  1.00  0.00    -0.165 C  
HETATM    3  H1  UNL     1      -7.690  10.742  68.872  1.00  0.00     0.000 HD 
HETATM    4  H2  UNL     1      -8.781  11.078  70.109  1.00  0.00     0.000 HD 
HETATM    5  C   UNL     1      -9.303  11.226  66.786  1.00  0.00    -0.177 C  
HETATM    6  OXT UNL     1     -10.044  11.153  65.821  1.00  0.00    -0.230 OA 
HETATM    7  O   UNL     1      -8.007  11.630  66.707  1.00  0.00    -0.161 OA 
ENDROOT
BRANCH   2   8
HETATM    8  C   UNL     1     -10.977  11.612  68.621  1.00  0.00    -0.266 C  
BRANCH   8   9
HETATM    9  C   UNL     1     -10.819  13.133  68.673  1.00  0.00    -0.287 C  
BRANCH   9  10
HETATM   10  C   UNL     1     -11.892  13.819  67.831  1.00  0.00    -0.378 C  
BRANCH  10  11
HETATM   11  N   UNL     1     -11.321  14.834  66.973  1.00  0.00    -0.347 N  
HETATM   12  H   UNL     1     -11.470  14.773  65.966  1.00  0.00     0.000 HD 
BRANCH  11  13
HETATM   13  C   UNL     1     -10.589  15.868  67.473  1.00  0.00    -0.315 C  
HETATM   14  N   UNL     1     -11.253  16.556  68.434  1.00  0.00    -0.337 N  
HETATM   15  O   UNL     1      -9.465  16.183  67.113  1.00  0.00    -0.219 OA 
HETATM   16  H1  UNL     1     -10.705  17.331  68.808  1.00  0.00     0.000 HD 
HETATM   17  H2  UNL     1     -12.196  16.325  68.748  1.00  0.00     0.000 HD 
ENDBRANCH  11  13
ENDBRANCH  10  11
ENDBRANCH   9  10
ENDBRANCH   8   9
ENDBRANCH   2   8
TORSDOF 5
ENDMDL
MODEL      227
REMARK 921   NORMALIZED FREE ENERGY PREDICTED BY IDOCK:   -2.03 KCAL/MOL
REMARK 922        TOTAL FREE ENERGY PREDICTED BY IDOCK:   -3.50 KCAL/MOL
REMARK 923 INTER-LIGAND FREE ENERGY PREDICTED BY IDOCK:   -3.28 KCAL/MOL
REMARK 924 INTRA-LIGAND FREE ENERGY PREDICTED BY IDOCK:   -0.22 KCAL/MOL
REMARK 927      BINDING AFFINITY PREDICTED BY RF-SCORE:    0.00 PKD
ROOT
HETATM    1  N   UNL     1     -10.868  11.810  69.421  1.00  0.00    -0.441 NA 
HETATM    2  CA  UNL     1     -11.657  10.543  69.492  1.00  0.00    -0.260 C  
HETATM    3  H1  UNL     1     -11.467  12.633  69.365  1.00  0.00     0.000 HD 
HETATM    4  H2  UNL     1     -10.200  11.785  68.651  1.00  0.00     0.000 HD 
HETATM    5  C   UNL     1     -12.571  10.608  70.731  1.00  0.00    -0.386 C  
HETATM    6  OXT UNL     1     -13.274   9.698  71.138  1.00  0.00    -0.356 OA 
HETATM    7  O   UNL     1     -12.505  11.829  71.327  1.00  0.00    -0.331 OA 
ENDROOT
BRANCH   2   8
HETATM    8  C   UNL     1     -10.757   9.305  69.577  1.00  0.00    -0.236 C  
BRANCH   8   9
HETATM    9  C   UNL     1      -9.950   9.223  70.874  1.00  0.00    -0.367 C  
BRANCH   9  10
HETATM   10  C   UNL     1      -9.863   7.782  71.369  1.00  0.00    -0.167 C  
BRANCH  10  11
HETATM   11  N   UNL     1      -8.526   7.457  71.814  1.00  0.00    -0.107 N  
HETATM   12  H   UNL     1      -7.847   7.113  71.134  1.00  0.00     0.000 HD 
BRANCH  11  13
HETATM   13  C   UNL     1      -8.147   7.599  73.114  1.00  0.00    -0.123 C  
HETATM   14  N   UNL     1      -8.273   6.448  73.819  1.00  0.00    -0.111 N  
HETATM   15  O   UNL     1      -7.748   8.631  73.630  1.00  0.00    -0.394 OA 
HETATM   16  H1  UNL     1      -7.990   6.553  74.793  1.00  0.00     0.000 HD 
HETATM   17  H2  UNL     1      -8.613   5.573  73.419  1.00  0.00     0.000 HD 
ENDBRANCH  11  13
ENDBRANCH  10  11
ENDBRANCH   9  10
ENDBRANCH   8   9
ENDBRANCH   2   8
TORSDOF 5
ENDMDL
MODEL      228
REMARK 921   NORMALIZED FREE ENERGY PREDICTED BY IDOCK:   -2.02 KCAL/MOL
REMARK 922        TOTAL FREE ENERGY PREDICTED BY IDOCK:   -3.49 KCAL/MOL
REMARK 923 INTER-LIGAND FREE ENERGY PREDICTED BY IDOCK:   -3.35 KCAL/MOL
REMARK 924 INTRA-LIGAND FREE ENERGY PREDICTED BY IDOCK:   -0.14 KCAL/MOL
REMARK 927      BINDING AFFINITY PREDICTED BY RF-SCORE:    0.00 PKD
ROOT
HETATM    1  N   UNL     1      -8.674  11.165  63.195  1.00  0.00    -0.438 NA 
HETATM    2  CA  UNL     1      -9.045  10.829  64.603  1.00  0.00    -0.201 C  
HETATM    3  H1  UNL     1      -7.727  10.866  62.965  1.00  0.00     0.000 HD 
HETATM    4  H2  UNL     1      -8.804  12.159  63.007  1.00  0.00     0.000 HD 
HETATM    5  C   UNL     1      -8.921   9.304  64.787  1.00  0.00    -0.168 C  
HETATM    6  OXT UNL     1      -9.243   8.686  65.788  1.00  0.00    -0.212 OA 
HETATM    7  O   UNL     1      -8.392   8.716  63.681  1.00  0.00    -0.168 OA 
ENDROOT
BRANCH   2   8
HETATM    8  C   UNL     1     -10.468  11.278  64.950  1.00  0.00    -0.375 C  
BRANCH   8   9
HETATM    9  C   UNL     1     -10.691  12.783  64.789  1.00  0.00    -0.340 C  
BRANCH   9  10
HETATM   10  C   UNL     1     -10.076  13.552  65.956  1.00  0.00    -0.310 C  
BRANCH  10  11
HETATM   11  N   UNL     1     -10.612  14.892  66.046  1.00  0.00    -0.302 N  
HETATM   12  H   UNL     1     -11.610  15.037  65.896  1.00  0.00     0.000 HD 
BRANCH  11  13
HETATM   13  C   UNL     1      -9.821  15.965  66.325  1.00  0.00    -0.302 C  
HETATM   14  N   UNL     1     -10.352  17.130  65.879  1.00  0.00    -0.332 N  
HETATM   15  O   UNL     1      -8.743  15.924  66.896  1.00  0.00    -0.202 OA 
HETATM   16  H1  UNL     1      -9.760  17.934  66.087  1.00  0.00     0.000 HD 
HETATM   17  H2  UNL     1     -11.245  17.195  65.388  1.00  0.00     0.000 HD 
ENDBRANCH  11  13
ENDBRANCH  10  11
ENDBRANCH   9  10
ENDBRANCH   8   9
ENDBRANCH   2   8
TORSDOF 5
ENDMDL
MODEL      229
REMARK 921   NORMALIZED FREE ENERGY PREDICTED BY IDOCK:   -2.01 KCAL/MOL
REMARK 922        TOTAL FREE ENERGY PREDICTED BY IDOCK:   -3.48 KCAL/MOL
REMARK 923 INTER-LIGAND FREE ENERGY PREDICTED BY IDOCK:   -3.32 KCAL/MOL
REMARK 924 INTRA-LIGAND FREE ENERGY PREDICTED BY IDOCK:   -0.15 KCAL/MOL
REMARK 927      BINDING AFFINITY PREDICTED BY RF-SCORE:    0.00 PKD
ROOT
HETATM    1  N   UNL     1     -11.476   4.113  64.746  1.00  0.00    -0.911 NA 
HETATM    2  CA  UNL     1     -10.123   4.513  65.237  1.00  0.00    -0.159 C  
HETATM    3  H1  UNL     1     -11.464   3.838  63.764  1.00  0.00     0.000 HD 
HETATM    4  H2  UNL     1     -12.162   4.849  64.915  1.00  0.00     0.000 HD 
HETATM    5  C   UNL     1      -9.164   3.322  65.042  1.00  0.00    -0.148 C  
HETATM    6  OXT UNL     1      -8.008   3.276  65.426  1.00  0.00    -0.085 OA 
HETATM    7  O   UNL     1      -9.770   2.307  64.368  1.00  0.00    -0.136 OA 
ENDROOT
BRANCH   2   8
HETATM    8  C   UNL     1     -10.141   4.925  66.713  1.00  0.00    -0.269 C  
BRANCH   8   9
HETATM    9  C   UNL     1     -10.778   6.294  66.958  1.00  0.00    -0.435 C  
BRANCH   9  10
HETATM   10  C   UNL     1      -9.751   7.410  66.782  1.00  0.00    -0.207 C  
BRANCH  10  11
HETATM   11  N   UNL     1     -10.363   8.613  66.263  1.00  0.00    -0.348 N  
HETATM   12  H   UNL     1     -11.316   8.844  66.542  1.00  0.00     0.000 HD 
BRANCH  11  13
HETATM   13  C   UNL     1      -9.703   9.446  65.411  1.00  0.00    -0.178 C  
HETATM   14  N   UNL     1      -8.356   9.304  65.488  1.00  0.00    -0.127 N  
HETATM   15  O   UNL     1     -10.225  10.253  64.658  1.00  0.00    -0.322 OA 
HETATM   16  H1  UNL     1      -7.861   9.927  64.850  1.00  0.00     0.000 HD 
HETATM   17  H2  UNL     1      -7.890   8.647  66.114  1.00  0.00     0.000 HD 
ENDBRANCH  11  13
ENDBRANCH  10  11
ENDBRANCH   9  10
ENDBRANCH   8   9
ENDBRANCH   2   8
TORSDOF 5
ENDMDL
MODEL      230
REMARK 921   NORMALIZED FREE ENERGY PREDICTED BY IDOCK:   -2.01 KCAL/MOL
REMARK 922        TOTAL FREE ENERGY PREDICTED BY IDOCK:   -3.47 KCAL/MOL
REMARK 923 INTER-LIGAND FREE ENERGY PREDICTED BY IDOCK:   -3.26 KCAL/MOL
REMARK 924 INTRA-LIGAND FREE ENERGY PREDICTED BY IDOCK:   -0.21 KCAL/MOL
REMARK 927      BINDING AFFINITY PREDICTED BY RF-SCORE:    0.00 PKD
ROOT
HETATM    1  N   UNL     1      -9.436   9.905  70.303  1.00  0.00    -0.380 NA 
HETATM    2  CA  UNL     1     -10.285   8.930  71.053  1.00  0.00    -0.254 C  
HETATM    3  H1  UNL     1      -9.870  10.200  69.429  1.00  0.00     0.000 HD 
HETATM    4  H2  UNL     1      -8.500   9.532  70.143  1.00  0.00     0.000 HD 
HETATM    5  C   UNL     1     -11.644   9.595  71.345  1.00  0.00    -0.400 C  
HETATM    6  OXT UNL     1     -12.534   9.112  72.025  1.00  0.00    -0.353 OA 
HETATM    7  O   UNL     1     -11.741  10.807  70.736  1.00  0.00    -0.328 OA 
ENDROOT
BRANCH   2   8
HETATM    8  C   UNL     1      -9.633   8.486  72.366  1.00  0.00    -0.356 C  
BRANCH   8   9
HETATM    9  C   UNL     1      -9.103   7.052  72.332  1.00  0.00    -0.147 C  
BRANCH   9  10
HETATM   10  C   UNL     1     -10.068   6.100  73.035  1.00  0.00    -0.183 C  
BRANCH  10  11
HETATM   11  N   UNL     1     -10.847   5.340  72.081  1.00  0.00    -0.214 N  
HETATM   12  H   UNL     1     -11.794   5.057  72.329  1.00  0.00     0.000 HD 
BRANCH  11  13
HETATM   13  C   UNL     1     -10.349   4.993  70.862  1.00  0.00    -0.190 C  
HETATM   14  N   UNL     1      -9.574   3.882  70.915  1.00  0.00    -0.177 N  
HETATM   15  O   UNL     1     -10.543   5.595  69.817  1.00  0.00    -0.280 OA 
HETATM   16  H1  UNL     1      -9.201   3.622  70.002  1.00  0.00     0.000 HD 
HETATM   17  H2  UNL     1      -9.384   3.364  71.774  1.00  0.00     0.000 HD 
ENDBRANCH  11  13
ENDBRANCH  10  11
ENDBRANCH   9  10
ENDBRANCH   8   9
ENDBRANCH   2   8
TORSDOF 5
ENDMDL
MODEL      231
REMARK 921   NORMALIZED FREE ENERGY PREDICTED BY IDOCK:   -2.00 KCAL/MOL
REMARK 922        TOTAL FREE ENERGY PREDICTED BY IDOCK:   -3.46 KCAL/MOL
REMARK 923 INTER-LIGAND FREE ENERGY PREDICTED BY IDOCK:   -3.26 KCAL/MOL
REMARK 924 INTRA-LIGAND FREE ENERGY PREDICTED BY IDOCK:   -0.20 KCAL/MOL
REMARK 927      BINDING AFFINITY PREDICTED BY RF-SCORE:    0.00 PKD
ROOT
HETATM    1  N   UNL     1     -11.230   5.142  65.808  1.00  0.00    -0.809 NA 
HETATM    2  CA  UNL     1     -10.170   5.858  66.580  1.00  0.00    -0.162 C  
HETATM    3  H1  UNL     1     -10.838   4.469  65.149  1.00  0.00     0.000 HD 
HETATM    4  H2  UNL     1     -11.851   5.800  65.337  1.00  0.00     0.000 HD 
HETATM    5  C   UNL     1      -9.333   4.811  67.341  1.00  0.00    -0.137 C  
HETATM    6  OXT UNL     1      -8.449   5.062  68.143  1.00  0.00    -0.099 OA 
HETATM    7  O   UNL     1      -9.698   3.546  67.000  1.00  0.00    -0.176 OA 
ENDROOT
BRANCH   2   8
HETATM    8  C   UNL     1     -10.758   6.869  67.569  1.00  0.00    -0.368 C  
BRANCH   8   9
HETATM    9  C   UNL     1     -10.029   8.214  67.576  1.00  0.00    -0.251 C  
BRANCH   9  10
HETATM   10  C   UNL     1     -10.587   9.140  66.497  1.00  0.00    -0.026 C  
BRANCH  10  11
HETATM   11  N   UNL     1      -9.660   9.285  65.396  1.00  0.00    -0.439 N  
HETATM   12  H   UNL     1      -9.222   8.452  65.004  1.00  0.00     0.000 HD 
BRANCH  11  13
HETATM   13  C   UNL     1      -9.356  10.504  64.869  1.00  0.00    -0.232 C  
HETATM   14  N   UNL     1      -8.183  10.497  64.190  1.00  0.00    -0.311 N  
HETATM   15  O   UNL     1     -10.029  11.516  64.985  1.00  0.00    -0.244 OA 
HETATM   16  H1  UNL     1      -7.955  11.409  63.796  1.00  0.00     0.000 HD 
HETATM   17  H2  UNL     1      -7.594   9.670  64.085  1.00  0.00     0.000 HD 
ENDBRANCH  11  13
ENDBRANCH  10  11
ENDBRANCH   9  10
ENDBRANCH   8   9
ENDBRANCH   2   8
TORSDOF 5
ENDMDL
MODEL      232
REMARK 921   NORMALIZED FREE ENERGY PREDICTED BY IDOCK:   -1.99 KCAL/MOL
REMARK 922        TOTAL FREE ENERGY PREDICTED BY IDOCK:   -3.45 KCAL/MOL
REMARK 923 INTER-LIGAND FREE ENERGY PREDICTED BY IDOCK:   -3.31 KCAL/MOL
REMARK 924 INTRA-LIGAND FREE ENERGY PREDICTED BY IDOCK:   -0.14 KCAL/MOL
REMARK 927      BINDING AFFINITY PREDICTED BY RF-SCORE:    0.00 PKD
ROOT
HETATM    1  N   UNL     1     -11.859   8.464  70.244  1.00  0.00    -0.461 NA 
HETATM    2  CA  UNL     1     -10.773   9.053  69.405  1.00  0.00    -0.191 C  
HETATM    3  H1  UNL     1     -11.872   7.445  70.198  1.00  0.00     0.000 HD 
HETATM    4  H2  UNL     1     -12.768   8.856  69.999  1.00  0.00     0.000 HD 
HETATM    5  C   UNL     1      -9.423   8.492  69.895  1.00  0.00    -0.163 C  
HETATM    6  OXT UNL     1      -8.326   8.841  69.491  1.00  0.00    -0.114 OA 
HETATM    7  O   UNL     1      -9.603   7.536  70.845  1.00  0.00    -0.165 OA 
ENDROOT
BRANCH   2   8
HETATM    8  C   UNL     1     -10.753  10.583  69.474  1.00  0.00    -0.291 C  
BRANCH   8   9
HETATM    9  C   UNL     1     -11.880  11.246  68.680  1.00  0.00    -0.369 C  
BRANCH   9  10
HETATM   10  C   UNL     1     -11.326  11.978  67.459  1.00  0.00    -0.319 C  
BRANCH  10  11
HETATM   11  N   UNL     1     -10.316  12.942  67.837  1.00  0.00    -0.225 N  
HETATM   12  H   UNL     1      -9.716  12.744  68.637  1.00  0.00     0.000 HD 
BRANCH  11  13
HETATM   13  C   UNL     1     -10.143  14.107  67.152  1.00  0.00    -0.258 C  
HETATM   14  N   UNL     1      -9.588  13.913  65.931  1.00  0.00    -0.499 N  
HETATM   15  O   UNL     1     -10.429  15.221  67.562  1.00  0.00    -0.256 OA 
HETATM   16  H1  UNL     1      -9.458  14.785  65.418  1.00  0.00     0.000 HD 
HETATM   17  H2  UNL     1      -9.328  12.997  65.565  1.00  0.00     0.000 HD 
ENDBRANCH  11  13
ENDBRANCH  10  11
ENDBRANCH   9  10
ENDBRANCH   8   9
ENDBRANCH   2   8
TORSDOF 5
ENDMDL
MODEL      233
REMARK 921   NORMALIZED FREE ENERGY PREDICTED BY IDOCK:   -1.99 KCAL/MOL
REMARK 922        TOTAL FREE ENERGY PREDICTED BY IDOCK:   -3.44 KCAL/MOL
REMARK 923 INTER-LIGAND FREE ENERGY PREDICTED BY IDOCK:   -3.29 KCAL/MOL
REMARK 924 INTRA-LIGAND FREE ENERGY PREDICTED BY IDOCK:   -0.16 KCAL/MOL
REMARK 927      BINDING AFFINITY PREDICTED BY RF-SCORE:    0.00 PKD
ROOT
HETATM    1  N   UNL     1      -9.490   6.705  71.882  1.00  0.00    -0.151 NA 
HETATM    2  CA  UNL     1      -8.771   7.617  70.943  1.00  0.00    -0.138 C  
HETATM    3  H1  UNL     1      -9.458   7.040  72.844  1.00  0.00     0.000 HD 
HETATM    4  H2  UNL     1      -9.138   5.750  71.811  1.00  0.00     0.000 HD 
HETATM    5  C   UNL     1      -9.419   9.013  71.030  1.00  0.00    -0.274 C  
HETATM    6  OXT UNL     1      -9.138   9.967  70.324  1.00  0.00    -0.208 OA 
HETATM    7  O   UNL     1     -10.356   9.059  72.014  1.00  0.00    -0.339 OA 
ENDROOT
BRANCH   2   8
HETATM    8  C   UNL     1      -8.820   7.114  69.496  1.00  0.00    -0.137 C  
BRANCH   8   9
HETATM    9  C   UNL     1     -10.196   7.258  68.844  1.00  0.00    -0.196 C  
BRANCH   9  10
HETATM   10  C   UNL     1     -10.175   8.339  67.765  1.00  0.00    -0.223 C  
BRANCH  10  11
HETATM   11  N   UNL     1     -11.158   9.366  68.029  1.00  0.00    -0.513 N  
HETATM   12  H   UNL     1     -11.949   9.151  68.636  1.00  0.00     0.000 HD 
BRANCH  11  13
HETATM   13  C   UNL     1     -11.057  10.612  67.489  1.00  0.00    -0.300 C  
HETATM   14  N   UNL     1      -9.841  10.841  66.937  1.00  0.00    -0.182 N  
HETATM   15  O   UNL     1     -11.934  11.462  67.495  1.00  0.00    -0.626 OA 
HETATM   16  H1  UNL     1      -9.765  11.775  66.533  1.00  0.00     0.000 HD 
HETATM   17  H2  UNL     1      -9.085  10.156  66.927  1.00  0.00     0.000 HD 
ENDBRANCH  11  13
ENDBRANCH  10  11
ENDBRANCH   9  10
ENDBRANCH   8   9
ENDBRANCH   2   8
TORSDOF 5
ENDMDL
MODEL      234
REMARK 921   NORMALIZED FREE ENERGY PREDICTED BY IDOCK:   -1.98 KCAL/MOL
REMARK 922        TOTAL FREE ENERGY PREDICTED BY IDOCK:   -3.44 KCAL/MOL
REMARK 923 INTER-LIGAND FREE ENERGY PREDICTED BY IDOCK:   -3.32 KCAL/MOL
REMARK 924 INTRA-LIGAND FREE ENERGY PREDICTED BY IDOCK:   -0.12 KCAL/MOL
REMARK 927      BINDING AFFINITY PREDICTED BY RF-SCORE:    0.00 PKD
ROOT
HETATM    1  N   UNL     1      -9.940  10.517  62.413  1.00  0.00    -0.757 NA 
HETATM    2  CA  UNL     1      -9.460  10.882  63.780  1.00  0.00    -0.275 C  
HETATM    3  H1  UNL     1      -9.297  10.825  61.684  1.00  0.00     0.000 HD 
HETATM    4  H2  UNL     1     -10.882  10.871  62.247  1.00  0.00     0.000 HD 
HETATM    5  C   UNL     1      -8.079  10.233  63.997  1.00  0.00    -0.137 C  
HETATM    6  OXT UNL     1      -7.449  10.249  65.042  1.00  0.00    -0.140 OA 
HETATM    7  O   UNL     1      -7.631   9.635  62.861  1.00  0.00    -0.111 OA 
ENDROOT
BRANCH   2   8
HETATM    8  C   UNL     1     -10.426  10.420  64.875  1.00  0.00    -0.116 C  
BRANCH   8   9
HETATM    9  C   UNL     1     -10.297  11.209  66.179  1.00  0.00    -0.302 C  
BRANCH   9  10
HETATM   10  C   UNL     1     -10.110  10.269  67.367  1.00  0.00    -0.202 C  
BRANCH  10  11
HETATM   11  N   UNL     1     -10.956   9.101  67.253  1.00  0.00    -0.358 N  
HETATM   12  H   UNL     1     -11.851   9.183  66.770  1.00  0.00     0.000 HD 
BRANCH  11  13
HETATM   13  C   UNL     1     -10.591   7.896  67.772  1.00  0.00    -0.175 C  
HETATM   14  N   UNL     1     -11.145   6.855  67.103  1.00  0.00    -0.584 N  
HETATM   15  O   UNL     1      -9.862   7.729  68.737  1.00  0.00    -0.161 OA 
HETATM   16  H1  UNL     1     -10.872   5.952  67.492  1.00  0.00     0.000 HD 
HETATM   17  H2  UNL     1     -11.766   6.962  66.301  1.00  0.00     0.000 HD 
ENDBRANCH  11  13
ENDBRANCH  10  11
ENDBRANCH   9  10
ENDBRANCH   8   9
ENDBRANCH   2   8
TORSDOF 5
ENDMDL
MODEL      235
REMARK 921   NORMALIZED FREE ENERGY PREDICTED BY IDOCK:   -1.95 KCAL/MOL
REMARK 922        TOTAL FREE ENERGY PREDICTED BY IDOCK:   -3.39 KCAL/MOL
REMARK 923 INTER-LIGAND FREE ENERGY PREDICTED BY IDOCK:   -3.19 KCAL/MOL
REMARK 924 INTRA-LIGAND FREE ENERGY PREDICTED BY IDOCK:   -0.20 KCAL/MOL
REMARK 927      BINDING AFFINITY PREDICTED BY RF-SCORE:    0.00 PKD
ROOT
HETATM    1  N   UNL     1      -8.820   4.340  68.095  1.00  0.00    -0.102 NA 
HETATM    2  CA  UNL     1      -9.850   5.390  68.358  1.00  0.00    -0.147 C  
HETATM    3  H1  UNL     1      -9.227   3.492  67.701  1.00  0.00     0.000 HD 
HETATM    4  H2  UNL     1      -8.282   4.134  68.937  1.00  0.00     0.000 HD 
HETATM    5  C   UNL     1     -10.555   5.721  67.028  1.00  0.00    -0.300 C  
HETATM    6  OXT UNL     1     -11.380   6.605  66.867  1.00  0.00    -0.333 OA 
HETATM    7  O   UNL     1     -10.146   4.889  66.033  1.00  0.00    -0.203 OA 
ENDROOT
BRANCH   2   8
HETATM    8  C   UNL     1      -9.240   6.664  68.951  1.00  0.00    -0.130 C  
BRANCH   8   9
HETATM    9  C   UNL     1      -9.497   6.825  70.450  1.00  0.00    -0.168 C  
BRANCH   9  10
HETATM   10  C   UNL     1     -10.183   8.157  70.744  1.00  0.00    -0.194 C  
BRANCH  10  11
HETATM   11  N   UNL     1     -10.167   8.457  72.159  1.00  0.00    -0.291 N  
HETATM   12  H   UNL     1      -9.638   9.265  72.488  1.00  0.00     0.000 HD 
BRANCH  11  13
HETATM   13  C   UNL     1     -10.838   7.691  73.063  1.00  0.00    -0.400 C  
HETATM   14  N   UNL     1     -12.168   7.635  72.810  1.00  0.00    -0.573 N  
HETATM   15  O   UNL     1     -10.338   7.115  74.017  1.00  0.00    -0.349 OA 
HETATM   16  H1  UNL     1     -12.671   7.062  73.487  1.00  0.00     0.000 HD 
HETATM   17  H2  UNL     1     -12.617   8.114  72.028  1.00  0.00     0.000 HD 
ENDBRANCH  11  13
ENDBRANCH  10  11
ENDBRANCH   9  10
ENDBRANCH   8   9
ENDBRANCH   2   8
TORSDOF 5
ENDMDL
MODEL      236
REMARK 921   NORMALIZED FREE ENERGY PREDICTED BY IDOCK:   -1.93 KCAL/MOL
REMARK 922        TOTAL FREE ENERGY PREDICTED BY IDOCK:   -3.38 KCAL/MOL
REMARK 923 INTER-LIGAND FREE ENERGY PREDICTED BY IDOCK:   -3.20 KCAL/MOL
REMARK 924 INTRA-LIGAND FREE ENERGY PREDICTED BY IDOCK:   -0.17 KCAL/MOL
REMARK 927      BINDING AFFINITY PREDICTED BY RF-SCORE:    0.00 PKD
ROOT
HETATM    1  N   UNL     1      -8.284  10.581  64.538  1.00  0.00    -0.302 NA 
HETATM    2  CA  UNL     1      -9.709  10.868  64.880  1.00  0.00    -0.266 C  
HETATM    3  H1  UNL     1      -8.198   9.891  63.793  1.00  0.00     0.000 HD 
HETATM    4  H2  UNL     1      -7.756  10.299  65.365  1.00  0.00     0.000 HD 
HETATM    5  C   UNL     1     -10.418  11.382  63.612  1.00  0.00    -0.414 C  
HETATM    6  OXT UNL     1     -11.563  11.801  63.564  1.00  0.00    -0.434 OA 
HETATM    7  O   UNL     1      -9.603  11.305  62.527  1.00  0.00    -0.263 OA 
ENDROOT
BRANCH   2   8
HETATM    8  C   UNL     1      -9.838  11.905  66.001  1.00  0.00    -0.258 C  
BRANCH   8   9
HETATM    9  C   UNL     1     -10.953  11.592  67.000  1.00  0.00    -0.338 C  
BRANCH   9  10
HETATM   10  C   UNL     1     -10.379  11.329  68.390  1.00  0.00    -0.192 C  
BRANCH  10  11
HETATM   11  N   UNL     1     -10.086   9.926  68.582  1.00  0.00    -0.168 N  
HETATM   12  H   UNL     1     -10.516   9.240  67.962  1.00  0.00     0.000 HD 
BRANCH  11  13
HETATM   13  C   UNL     1      -9.251   9.495  69.568  1.00  0.00    -0.189 C  
HETATM   14  N   UNL     1      -9.865   9.424  70.774  1.00  0.00    -0.281 N  
HETATM   15  O   UNL     1      -8.072   9.209  69.426  1.00  0.00    -0.095 OA 
HETATM   16  H1  UNL     1      -9.240   9.101  71.512  1.00  0.00     0.000 HD 
HETATM   17  H2  UNL     1     -10.845   9.666  70.926  1.00  0.00     0.000 HD 
ENDBRANCH  11  13
ENDBRANCH  10  11
ENDBRANCH   9  10
ENDBRANCH   8   9
ENDBRANCH   2   8
TORSDOF 5
ENDMDL
MODEL      237
REMARK 921   NORMALIZED FREE ENERGY PREDICTED BY IDOCK:   -1.93 KCAL/MOL
REMARK 922        TOTAL FREE ENERGY PREDICTED BY IDOCK:   -3.37 KCAL/MOL
REMARK 923 INTER-LIGAND FREE ENERGY PREDICTED BY IDOCK:   -2.61 KCAL/MOL
REMARK 924 INTRA-LIGAND FREE ENERGY PREDICTED BY IDOCK:   -0.76 KCAL/MOL
REMARK 927      BINDING AFFINITY PREDICTED BY RF-SCORE:    0.00 PKD
ROOT
HETATM    1  N   UNL     1      -6.834  12.335  67.902  1.00  0.00    -0.083 NA 
HETATM    2  CA  UNL     1      -7.961  11.792  67.085  1.00  0.00    -0.166 C  
HETATM    3  H1  UNL     1      -6.437  13.181  67.495  1.00  0.00     0.000 HD 
HETATM    4  H2  UNL     1      -6.116  11.627  68.055  1.00  0.00     0.000 HD 
HETATM    5  C   UNL     1      -9.049  12.878  66.977  1.00  0.00    -0.228 C  
HETATM    6  OXT UNL     1     -10.145  12.731  66.462  1.00  0.00    -0.247 OA 
HETATM    7  O   UNL     1      -8.633  14.049  67.530  1.00  0.00    -0.169 OA 
ENDROOT
BRANCH   2   8
HETATM    8  C   UNL     1      -8.558  10.520  67.695  1.00  0.00    -0.118 C  
BRANCH   8   9
HETATM    9  C   UNL     1      -8.701  10.580  69.217  1.00  0.00    -0.135 C  
BRANCH   9  10
HETATM   10  C   UNL     1     -10.102  10.154  69.648  1.00  0.00    -0.234 C  
BRANCH  10  11
HETATM   11  N   UNL     1     -11.119  10.938  68.981  1.00  0.00    -0.225 N  
HETATM   12  H   UNL     1     -11.269  10.807  67.981  1.00  0.00     0.000 HD 
BRANCH  11  13
HETATM   13  C   UNL     1     -11.883  11.844  69.652  1.00  0.00    -0.337 C  
HETATM   14  N   UNL     1     -12.010  13.014  68.978  1.00  0.00    -0.295 N  
HETATM   15  O   UNL     1     -12.399  11.669  70.745  1.00  0.00    -0.376 OA 
HETATM   16  H1  UNL     1     -12.582  13.693  69.480  1.00  0.00     0.000 HD 
HETATM   17  H2  UNL     1     -11.582  13.194  68.070  1.00  0.00     0.000 HD 
ENDBRANCH  11  13
ENDBRANCH  10  11
ENDBRANCH   9  10
ENDBRANCH   8   9
ENDBRANCH   2   8
TORSDOF 5
ENDMDL
MODEL      238
REMARK 921   NORMALIZED FREE ENERGY PREDICTED BY IDOCK:   -1.92 KCAL/MOL
REMARK 922        TOTAL FREE ENERGY PREDICTED BY IDOCK:   -3.36 KCAL/MOL
REMARK 923 INTER-LIGAND FREE ENERGY PREDICTED BY IDOCK:   -3.14 KCAL/MOL
REMARK 924 INTRA-LIGAND FREE ENERGY PREDICTED BY IDOCK:   -0.22 KCAL/MOL
REMARK 927      BINDING AFFINITY PREDICTED BY RF-SCORE:    0.00 PKD
ROOT
HETATM    1  N   UNL     1      -8.394   8.273  66.717  1.00  0.00    -0.106 NA 
HETATM    2  CA  UNL     1      -9.780   8.780  66.484  1.00  0.00    -0.259 C  
HETATM    3  H1  UNL     1      -7.789   8.419  65.909  1.00  0.00     0.000 HD 
HETATM    4  H2  UNL     1      -8.402   7.293  66.999  1.00  0.00     0.000 HD 
HETATM    5  C   UNL     1      -9.698  10.285  66.161  1.00  0.00    -0.211 C  
HETATM    6  OXT UNL     1     -10.654  11.028  66.014  1.00  0.00    -0.252 OA 
HETATM    7  O   UNL     1      -8.406  10.694  66.047  1.00  0.00    -0.150 OA 
ENDROOT
BRANCH   2   8
HETATM    8  C   UNL     1     -10.688   8.561  67.698  1.00  0.00    -0.189 C  
BRANCH   8   9
HETATM    9  C   UNL     1      -9.933   8.134  68.958  1.00  0.00    -0.191 C  
BRANCH   9  10
HETATM   10  C   UNL     1     -10.434   6.782  69.460  1.00  0.00    -0.220 C  
BRANCH  10  11
HETATM   11  N   UNL     1     -11.774   6.882  69.994  1.00  0.00    -0.597 N  
HETATM   12  H   UNL     1     -12.566   6.877  69.351  1.00  0.00     0.000 HD 
BRANCH  11  13
HETATM   13  C   UNL     1     -12.009   6.983  71.332  1.00  0.00    -0.340 C  
HETATM   14  N   UNL     1     -13.261   7.426  71.607  1.00  0.00    -0.387 N  
HETATM   15  O   UNL     1     -11.206   6.728  72.216  1.00  0.00    -0.242 OA 
HETATM   16  H1  UNL     1     -13.437   7.502  72.608  1.00  0.00     0.000 HD 
HETATM   17  H2  UNL     1     -13.950   7.658  70.891  1.00  0.00     0.000 HD 
ENDBRANCH  11  13
ENDBRANCH  10  11
ENDBRANCH   9  10
ENDBRANCH   8   9
ENDBRANCH   2   8
TORSDOF 5
ENDMDL
MODEL      239
REMARK 921   NORMALIZED FREE ENERGY PREDICTED BY IDOCK:   -1.92 KCAL/MOL
REMARK 922        TOTAL FREE ENERGY PREDICTED BY IDOCK:   -3.35 KCAL/MOL
REMARK 923 INTER-LIGAND FREE ENERGY PREDICTED BY IDOCK:   -3.24 KCAL/MOL
REMARK 924 INTRA-LIGAND FREE ENERGY PREDICTED BY IDOCK:   -0.11 KCAL/MOL
REMARK 927      BINDING AFFINITY PREDICTED BY RF-SCORE:    0.00 PKD
ROOT
HETATM    1  N   UNL     1     -11.175   4.283  65.269  1.00  0.00    -0.891 NA 
HETATM    2  CA  UNL     1      -9.798   4.663  65.708  1.00  0.00    -0.215 C  
HETATM    3  H1  UNL     1     -11.205   4.012  64.287  1.00  0.00     0.000 HD 
HETATM    4  H2  UNL     1     -11.843   5.028  65.467  1.00  0.00     0.000 HD 
HETATM    5  C   UNL     1      -8.865   3.459  65.471  1.00  0.00    -0.134 C  
HETATM    6  OXT UNL     1      -7.695   3.397  65.810  1.00  0.00    -0.080 OA 
HETATM    7  O   UNL     1      -9.511   2.456  64.819  1.00  0.00    -0.140 OA 
ENDROOT
BRANCH   2   8
HETATM    8  C   UNL     1      -9.753   5.070  67.184  1.00  0.00    -0.180 C  
BRANCH   8   9
HETATM    9  C   UNL     1     -10.810   6.109  67.565  1.00  0.00    -0.422 C  
BRANCH   9  10
HETATM   10  C   UNL     1     -10.185   7.256  68.355  1.00  0.00    -0.180 C  
BRANCH  10  11
HETATM   11  N   UNL     1     -10.413   8.528  67.706  1.00  0.00    -0.337 N  
HETATM   12  H   UNL     1     -10.709   8.541  66.731  1.00  0.00     0.000 HD 
BRANCH  11  13
HETATM   13  C   UNL     1     -10.242   9.710  68.362  1.00  0.00    -0.188 C  
HETATM   14  N   UNL     1     -11.047  10.690  67.882  1.00  0.00    -0.291 N  
HETATM   15  O   UNL     1      -9.455   9.909  69.274  1.00  0.00    -0.184 OA 
HETATM   16  H1  UNL     1     -10.919  11.574  68.373  1.00  0.00     0.000 HD 
HETATM   17  H2  UNL     1     -11.706  10.557  67.115  1.00  0.00     0.000 HD 
ENDBRANCH  11  13
ENDBRANCH  10  11
ENDBRANCH   9  10
ENDBRANCH   8   9
ENDBRANCH   2   8
TORSDOF 5
ENDMDL
MODEL      240
REMARK 921   NORMALIZED FREE ENERGY PREDICTED BY IDOCK:   -1.91 KCAL/MOL
REMARK 922        TOTAL FREE ENERGY PREDICTED BY IDOCK:   -3.35 KCAL/MOL
REMARK 923 INTER-LIGAND FREE ENERGY PREDICTED BY IDOCK:   -3.13 KCAL/MOL
REMARK 924 INTRA-LIGAND FREE ENERGY PREDICTED BY IDOCK:   -0.22 KCAL/MOL
REMARK 927      BINDING AFFINITY PREDICTED BY RF-SCORE:    0.00 PKD
ROOT
HETATM    1  N   UNL     1      -5.386  15.290  67.268  1.00  0.00    -0.295 NA 
HETATM    2  CA  UNL     1      -6.786  15.714  67.571  1.00  0.00    -0.191 C  
HETATM    3  H1  UNL     1      -5.042  14.595  67.930  1.00  0.00     0.000 HD 
HETATM    4  H2  UNL     1      -4.760  16.094  67.217  1.00  0.00     0.000 HD 
HETATM    5  C   UNL     1      -7.689  14.466  67.535  1.00  0.00    -0.192 C  
HETATM    6  OXT UNL     1      -8.905  14.472  67.642  1.00  0.00    -0.173 OA 
HETATM    7  O   UNL     1      -6.957  13.332  67.373  1.00  0.00    -0.160 OA 
ENDROOT
BRANCH   2   8
HETATM    8  C   UNL     1      -7.303  16.757  66.576  1.00  0.00    -0.306 C  
BRANCH   8   9
HETATM    9  C   UNL     1      -6.461  18.034  66.534  1.00  0.00    -0.243 C  
BRANCH   9  10
HETATM   10  C   UNL     1      -7.308  19.255  66.883  1.00  0.00    -0.212 C  
BRANCH  10  11
HETATM   11  N   UNL     1      -8.718  18.989  66.697  1.00  0.00    -0.300 N  
HETATM   12  H   UNL     1      -9.024  18.511  65.850  1.00  0.00     0.000 HD 
BRANCH  11  13
HETATM   13  C   UNL     1      -9.647  19.360  67.621  1.00  0.00    -0.324 C  
HETATM   14  N   UNL     1      -9.913  18.374  68.513  1.00  0.00    -0.372 N  
HETATM   15  O   UNL     1     -10.212  20.441  67.667  1.00  0.00    -0.365 OA 
HETATM   16  H1  UNL     1     -10.609  18.651  69.205  1.00  0.00     0.000 HD 
HETATM   17  H2  UNL     1      -9.467  17.457  68.494  1.00  0.00     0.000 HD 
ENDBRANCH  11  13
ENDBRANCH  10  11
ENDBRANCH   9  10
ENDBRANCH   8   9
ENDBRANCH   2   8
TORSDOF 5
ENDMDL
MODEL      241
REMARK 921   NORMALIZED FREE ENERGY PREDICTED BY IDOCK:   -1.91 KCAL/MOL
REMARK 922        TOTAL FREE ENERGY PREDICTED BY IDOCK:   -3.35 KCAL/MOL
REMARK 923 INTER-LIGAND FREE ENERGY PREDICTED BY IDOCK:   -2.76 KCAL/MOL
REMARK 924 INTRA-LIGAND FREE ENERGY PREDICTED BY IDOCK:   -0.59 KCAL/MOL
REMARK 927      BINDING AFFINITY PREDICTED BY RF-SCORE:    0.00 PKD
ROOT
HETATM    1  N   UNL     1      -9.771   9.302  71.502  1.00  0.00    -0.261 NA 
HETATM    2  CA  UNL     1     -11.096   8.619  71.394  1.00  0.00    -0.274 C  
HETATM    3  H1  UNL     1      -9.527   9.805  70.649  1.00  0.00     0.000 HD 
HETATM    4  H2  UNL     1      -9.038   8.643  71.764  1.00  0.00     0.000 HD 
HETATM    5  C   UNL     1     -12.168   9.685  71.094  1.00  0.00    -0.350 C  
HETATM    6  OXT UNL     1     -13.370   9.481  71.042  1.00  0.00    -0.293 OA 
HETATM    7  O   UNL     1     -11.604  10.904  70.882  1.00  0.00    -0.271 OA 
ENDROOT
BRANCH   2   8
HETATM    8  C   UNL     1     -11.462   7.862  72.675  1.00  0.00    -0.454 C  
BRANCH   8   9
HETATM    9  C   UNL     1     -11.528   6.345  72.492  1.00  0.00    -0.283 C  
BRANCH   9  10
HETATM   10  C   UNL     1     -10.137   5.768  72.238  1.00  0.00    -0.184 C  
BRANCH  10  11
HETATM   11  N   UNL     1      -9.167   6.302  73.168  1.00  0.00    -0.129 N  
HETATM   12  H   UNL     1      -9.486   6.647  74.073  1.00  0.00     0.000 HD 
BRANCH  11  13
HETATM   13  C   UNL     1      -7.840   6.356  72.870  1.00  0.00    -0.103 C  
HETATM   14  N   UNL     1      -7.348   7.619  72.922  1.00  0.00    -0.077 N  
HETATM   15  O   UNL     1      -7.139   5.402  72.569  1.00  0.00    -0.082 OA 
HETATM   16  H1  UNL     1      -6.354   7.660  72.698  1.00  0.00     0.000 HD 
HETATM   17  H2  UNL     1      -7.910   8.437  73.159  1.00  0.00     0.000 HD 
ENDBRANCH  11  13
ENDBRANCH  10  11
ENDBRANCH   9  10
ENDBRANCH   8   9
ENDBRANCH   2   8
TORSDOF 5
ENDMDL
MODEL      242
REMARK 921   NORMALIZED FREE ENERGY PREDICTED BY IDOCK:   -1.90 KCAL/MOL
REMARK 922        TOTAL FREE ENERGY PREDICTED BY IDOCK:   -3.33 KCAL/MOL
REMARK 923 INTER-LIGAND FREE ENERGY PREDICTED BY IDOCK:   -3.08 KCAL/MOL
REMARK 924 INTRA-LIGAND FREE ENERGY PREDICTED BY IDOCK:   -0.25 KCAL/MOL
REMARK 927      BINDING AFFINITY PREDICTED BY RF-SCORE:    0.00 PKD
ROOT
HETATM    1  N   UNL     1     -11.408   6.941  67.860  1.00  0.00    -0.544 NA 
HETATM    2  CA  UNL     1     -10.342   6.139  68.532  1.00  0.00    -0.207 C  
HETATM    3  H1  UNL     1     -11.091   7.342  66.978  1.00  0.00     0.000 HD 
HETATM    4  H2  UNL     1     -11.774   7.662  68.483  1.00  0.00     0.000 HD 
HETATM    5  C   UNL     1      -9.907   5.012  67.575  1.00  0.00    -0.165 C  
HETATM    6  OXT UNL     1      -9.125   4.117  67.848  1.00  0.00    -0.118 OA 
HETATM    7  O   UNL     1     -10.506   5.139  66.361  1.00  0.00    -0.267 OA 
ENDROOT
BRANCH   2   8
HETATM    8  C   UNL     1     -10.819   5.537  69.857  1.00  0.00    -0.298 C  
BRANCH   8   9
HETATM    9  C   UNL     1      -9.889   5.834  71.035  1.00  0.00    -0.227 C  
BRANCH   9  10
HETATM   10  C   UNL     1      -9.557   7.323  71.103  1.00  0.00    -0.160 C  
BRANCH  10  11
HETATM   11  N   UNL     1     -10.239   7.965  72.205  1.00  0.00    -0.221 N  
HETATM   12  H   UNL     1     -10.891   8.724  72.010  1.00  0.00     0.000 HD 
BRANCH  11  13
HETATM   13  C   UNL     1     -10.034   7.584  73.497  1.00  0.00    -0.315 C  
HETATM   14  N   UNL     1      -8.882   8.084  74.008  1.00  0.00    -0.364 N  
HETATM   15  O   UNL     1     -10.771   6.863  74.151  1.00  0.00    -0.198 OA 
HETATM   16  H1  UNL     1      -8.728   7.798  74.975  1.00  0.00     0.000 HD 
HETATM   17  H2  UNL     1      -8.240   8.679  73.483  1.00  0.00     0.000 HD 
ENDBRANCH  11  13
ENDBRANCH  10  11
ENDBRANCH   9  10
ENDBRANCH   8   9
ENDBRANCH   2   8
TORSDOF 5
ENDMDL
MODEL      243
REMARK 921   NORMALIZED FREE ENERGY PREDICTED BY IDOCK:   -1.90 KCAL/MOL
REMARK 922        TOTAL FREE ENERGY PREDICTED BY IDOCK:   -3.33 KCAL/MOL
REMARK 923 INTER-LIGAND FREE ENERGY PREDICTED BY IDOCK:   -3.16 KCAL/MOL
REMARK 924 INTRA-LIGAND FREE ENERGY PREDICTED BY IDOCK:   -0.16 KCAL/MOL
REMARK 927      BINDING AFFINITY PREDICTED BY RF-SCORE:    0.00 PKD
ROOT
HETATM    1  N   UNL     1     -10.121   9.166  71.193  1.00  0.00    -0.294 NA 
HETATM    2  CA  UNL     1     -11.382   8.406  71.447  1.00  0.00    -0.264 C  
HETATM    3  H1  UNL     1     -10.175   9.728  70.344  1.00  0.00     0.000 HD 
HETATM    4  H2  UNL     1      -9.313   8.543  71.173  1.00  0.00     0.000 HD 
HETATM    5  C   UNL     1     -12.541   9.415  71.563  1.00  0.00    -0.362 C  
HETATM    6  OXT UNL     1     -13.690   9.139  71.865  1.00  0.00    -0.396 OA 
HETATM    7  O   UNL     1     -12.126  10.678  71.275  1.00  0.00    -0.345 OA 
ENDROOT
BRANCH   2   8
HETATM    8  C   UNL     1     -11.302   7.561  72.722  1.00  0.00    -0.388 C  
BRANCH   8   9
HETATM    9  C   UNL     1     -11.581   6.075  72.490  1.00  0.00    -0.315 C  
BRANCH   9  10
HETATM   10  C   UNL     1     -10.342   5.236  72.795  1.00  0.00    -0.196 C  
BRANCH  10  11
HETATM   11  N   UNL     1     -10.594   3.828  72.583  1.00  0.00    -0.121 N  
HETATM   12  H   UNL     1     -10.814   3.500  71.643  1.00  0.00     0.000 HD 
BRANCH  11  13
HETATM   13  C   UNL     1     -10.547   2.928  73.604  1.00  0.00    -0.173 C  
HETATM   14  N   UNL     1     -11.538   2.006  73.529  1.00  0.00    -0.215 N  
HETATM   15  O   UNL     1      -9.730   2.925  74.512  1.00  0.00    -0.093 OA 
HETATM   16  H1  UNL     1     -11.503   1.332  74.294  1.00  0.00     0.000 HD 
HETATM   17  H2  UNL     1     -12.241   1.988  72.790  1.00  0.00     0.000 HD 
ENDBRANCH  11  13
ENDBRANCH  10  11
ENDBRANCH   9  10
ENDBRANCH   8   9
ENDBRANCH   2   8
TORSDOF 5
ENDMDL
MODEL      244
REMARK 921   NORMALIZED FREE ENERGY PREDICTED BY IDOCK:   -1.89 KCAL/MOL
REMARK 922        TOTAL FREE ENERGY PREDICTED BY IDOCK:   -3.32 KCAL/MOL
REMARK 923 INTER-LIGAND FREE ENERGY PREDICTED BY IDOCK:   -2.94 KCAL/MOL
REMARK 924 INTRA-LIGAND FREE ENERGY PREDICTED BY IDOCK:   -0.37 KCAL/MOL
REMARK 927      BINDING AFFINITY PREDICTED BY RF-SCORE:    0.00 PKD
ROOT
HETATM    1  N   UNL     1     -11.512  10.272  67.494  1.00  0.00    -0.515 NA 
HETATM    2  CA  UNL     1     -10.893  11.589  67.828  1.00  0.00    -0.221 C  
HETATM    3  H1  UNL     1     -12.530  10.297  67.560  1.00  0.00     0.000 HD 
HETATM    4  H2  UNL     1     -11.124   9.525  68.070  1.00  0.00     0.000 HD 
HETATM    5  C   UNL     1     -11.451  12.648  66.858  1.00  0.00    -0.343 C  
HETATM    6  OXT UNL     1     -11.081  13.809  66.791  1.00  0.00    -0.300 OA 
HETATM    7  O   UNL     1     -12.431  12.128  66.072  1.00  0.00    -0.421 OA 
ENDROOT
BRANCH   2   8
HETATM    8  C   UNL     1      -9.364  11.551  67.730  1.00  0.00    -0.168 C  
BRANCH   8   9
HETATM    9  C   UNL     1      -8.732  10.374  68.474  1.00  0.00    -0.135 C  
BRANCH   9  10
HETATM   10  C   UNL     1      -8.044   9.421  67.499  1.00  0.00    -0.110 C  
BRANCH  10  11
HETATM   11  N   UNL     1      -8.916   8.328  67.128  1.00  0.00    -0.136 N  
HETATM   12  H   UNL     1      -9.865   8.302  67.500  1.00  0.00     0.000 HD 
BRANCH  11  13
HETATM   13  C   UNL     1      -8.504   7.332  66.295  1.00  0.00    -0.134 C  
HETATM   14  N   UNL     1      -9.520   6.515  65.922  1.00  0.00    -0.387 N  
HETATM   15  O   UNL     1      -7.358   7.151  65.915  1.00  0.00    -0.072 OA 
HETATM   16  H1  UNL     1      -9.212   5.769  65.299  1.00  0.00     0.000 HD 
HETATM   17  H2  UNL     1     -10.485   6.633  66.231  1.00  0.00     0.000 HD 
ENDBRANCH  11  13
ENDBRANCH  10  11
ENDBRANCH   9  10
ENDBRANCH   8   9
ENDBRANCH   2   8
TORSDOF 5
ENDMDL
MODEL      245
REMARK 921   NORMALIZED FREE ENERGY PREDICTED BY IDOCK:   -1.89 KCAL/MOL
REMARK 922        TOTAL FREE ENERGY PREDICTED BY IDOCK:   -3.32 KCAL/MOL
REMARK 923 INTER-LIGAND FREE ENERGY PREDICTED BY IDOCK:   -3.12 KCAL/MOL
REMARK 924 INTRA-LIGAND FREE ENERGY PREDICTED BY IDOCK:   -0.19 KCAL/MOL
REMARK 927      BINDING AFFINITY PREDICTED BY RF-SCORE:    0.00 PKD
ROOT
HETATM    1  N   UNL     1     -11.078   7.261  67.546  1.00  0.00    -0.562 NA 
HETATM    2  CA  UNL     1     -10.398   8.231  68.457  1.00  0.00    -0.199 C  
HETATM    3  H1  UNL     1     -10.777   7.367  66.578  1.00  0.00     0.000 HD 
HETATM    4  H2  UNL     1     -12.092   7.329  67.627  1.00  0.00     0.000 HD 
HETATM    5  C   UNL     1      -8.877   8.005  68.357  1.00  0.00    -0.134 C  
HETATM    6  OXT UNL     1      -8.034   8.562  69.042  1.00  0.00    -0.108 OA 
HETATM    7  O   UNL     1      -8.576   7.099  67.390  1.00  0.00    -0.121 OA 
ENDROOT
BRANCH   2   8
HETATM    8  C   UNL     1     -10.850   8.073  69.912  1.00  0.00    -0.217 C  
BRANCH   8   9
HETATM    9  C   UNL     1     -11.696   6.822  70.158  1.00  0.00    -0.370 C  
BRANCH   9  10
HETATM   10  C   UNL     1     -10.981   5.860  71.103  1.00  0.00    -0.260 C  
BRANCH  10  11
HETATM   11  N   UNL     1     -11.592   5.858  72.414  1.00  0.00    -0.329 N  
HETATM   12  H   UNL     1     -12.379   6.480  72.595  1.00  0.00     0.000 HD 
BRANCH  11  13
HETATM   13  C   UNL     1     -11.146   5.048  73.414  1.00  0.00    -0.335 C  
HETATM   14  N   UNL     1     -10.650   5.746  74.465  1.00  0.00    -0.269 N  
HETATM   15  O   UNL     1     -11.159   3.827  73.399  1.00  0.00    -0.217 OA 
HETATM   16  H1  UNL     1     -10.315   5.140  75.213  1.00  0.00     0.000 HD 
HETATM   17  H2  UNL     1     -10.615   6.765  74.502  1.00  0.00     0.000 HD 
ENDBRANCH  11  13
ENDBRANCH  10  11
ENDBRANCH   9  10
ENDBRANCH   8   9
ENDBRANCH   2   8
TORSDOF 5
ENDMDL
MODEL      246
REMARK 921   NORMALIZED FREE ENERGY PREDICTED BY IDOCK:   -1.89 KCAL/MOL
REMARK 922        TOTAL FREE ENERGY PREDICTED BY IDOCK:   -3.31 KCAL/MOL
REMARK 923 INTER-LIGAND FREE ENERGY PREDICTED BY IDOCK:   -3.15 KCAL/MOL
REMARK 924 INTRA-LIGAND FREE ENERGY PREDICTED BY IDOCK:   -0.17 KCAL/MOL
REMARK 927      BINDING AFFINITY PREDICTED BY RF-SCORE:    0.00 PKD
ROOT
HETATM    1  N   UNL     1      -8.698   8.681  63.709  1.00  0.00    -0.423 NA 
HETATM    2  CA  UNL     1      -8.863   9.847  64.628  1.00  0.00    -0.204 C  
HETATM    3  H1  UNL     1      -8.011   8.862  62.977  1.00  0.00     0.000 HD 
HETATM    4  H2  UNL     1      -9.593   8.395  63.312  1.00  0.00     0.000 HD 
HETATM    5  C   UNL     1      -7.495  10.162  65.264  1.00  0.00    -0.145 C  
HETATM    6  OXT UNL     1      -7.295  10.992  66.135  1.00  0.00    -0.129 OA 
HETATM    7  O   UNL     1      -6.512   9.393  64.722  1.00  0.00    -0.074 OA 
ENDROOT
BRANCH   2   8
HETATM    8  C   UNL     1      -9.894   9.576  65.727  1.00  0.00    -0.363 C  
BRANCH   8   9
HETATM    9  C   UNL     1      -9.461   8.495  66.720  1.00  0.00    -0.253 C  
BRANCH   9  10
HETATM   10  C   UNL     1     -10.624   7.563  67.050  1.00  0.00    -0.339 C  
BRANCH  10  11
HETATM   11  N   UNL     1     -10.253   6.595  68.059  1.00  0.00    -0.154 N  
HETATM   12  H   UNL     1      -9.509   5.928  67.856  1.00  0.00     0.000 HD 
BRANCH  11  13
HETATM   13  C   UNL     1     -10.870   6.551  69.273  1.00  0.00    -0.307 C  
HETATM   14  N   UNL     1     -11.287   7.772  69.687  1.00  0.00    -0.446 N  
HETATM   15  O   UNL     1     -11.035   5.548  69.950  1.00  0.00    -0.309 OA 
HETATM   16  H1  UNL     1     -11.749   7.739  70.596  1.00  0.00     0.000 HD 
HETATM   17  H2  UNL     1     -11.154   8.629  69.150  1.00  0.00     0.000 HD 
ENDBRANCH  11  13
ENDBRANCH  10  11
ENDBRANCH   9  10
ENDBRANCH   8   9
ENDBRANCH   2   8
TORSDOF 5
ENDMDL
MODEL      247
REMARK 921   NORMALIZED FREE ENERGY PREDICTED BY IDOCK:   -1.88 KCAL/MOL
REMARK 922        TOTAL FREE ENERGY PREDICTED BY IDOCK:   -3.31 KCAL/MOL
REMARK 923 INTER-LIGAND FREE ENERGY PREDICTED BY IDOCK:   -3.17 KCAL/MOL
REMARK 924 INTRA-LIGAND FREE ENERGY PREDICTED BY IDOCK:   -0.14 KCAL/MOL
REMARK 927      BINDING AFFINITY PREDICTED BY RF-SCORE:    0.00 PKD
ROOT
HETATM    1  N   UNL     1      -9.239   8.691  71.399  1.00  0.00    -0.212 NA 
HETATM    2  CA  UNL     1     -10.618   9.243  71.566  1.00  0.00    -0.335 C  
HETATM    3  H1  UNL     1      -8.952   8.126  72.197  1.00  0.00     0.000 HD 
HETATM    4  H2  UNL     1      -8.566   9.434  71.211  1.00  0.00     0.000 HD 
HETATM    5  C   UNL     1     -11.593   8.064  71.748  1.00  0.00    -0.285 C  
HETATM    6  OXT UNL     1     -12.808   8.157  71.811  1.00  0.00    -0.317 OA 
HETATM    7  O   UNL     1     -10.926   6.882  71.838  1.00  0.00    -0.227 OA 
ENDROOT
BRANCH   2   8
HETATM    8  C   UNL     1     -11.050  10.093  70.367  1.00  0.00    -0.393 C  
BRANCH   8   9
HETATM    9  C   UNL     1      -9.971  10.227  69.291  1.00  0.00    -0.244 C  
BRANCH   9  10
HETATM   10  C   UNL     1     -10.477  11.059  68.115  1.00  0.00    -0.189 C  
BRANCH  10  11
HETATM   11  N   UNL     1     -10.111  12.451  68.259  1.00  0.00    -0.223 N  
HETATM   12  H   UNL     1      -9.702  12.768  69.137  1.00  0.00     0.000 HD 
BRANCH  11  13
HETATM   13  C   UNL     1     -10.298  13.350  67.253  1.00  0.00    -0.244 C  
HETATM   14  N   UNL     1     -10.639  12.757  66.083  1.00  0.00    -0.263 N  
HETATM   15  O   UNL     1     -10.168  14.561  67.349  1.00  0.00    -0.239 OA 
HETATM   16  H1  UNL     1     -10.779  13.430  65.330  1.00  0.00     0.000 HD 
HETATM   17  H2  UNL     1     -10.745  11.748  65.969  1.00  0.00     0.000 HD 
ENDBRANCH  11  13
ENDBRANCH  10  11
ENDBRANCH   9  10
ENDBRANCH   8   9
ENDBRANCH   2   8
TORSDOF 5
ENDMDL
MODEL      248
REMARK 921   NORMALIZED FREE ENERGY PREDICTED BY IDOCK:   -1.87 KCAL/MOL
REMARK 922        TOTAL FREE ENERGY PREDICTED BY IDOCK:   -3.29 KCAL/MOL
REMARK 923 INTER-LIGAND FREE ENERGY PREDICTED BY IDOCK:   -2.54 KCAL/MOL
REMARK 924 INTRA-LIGAND FREE ENERGY PREDICTED BY IDOCK:   -0.75 KCAL/MOL
REMARK 927      BINDING AFFINITY PREDICTED BY RF-SCORE:    0.00 PKD
ROOT
HETATM    1  N   UNL     1      -9.879   9.482  70.356  1.00  0.00    -0.257 NA 
HETATM    2  CA  UNL     1      -9.244   8.559  71.344  1.00  0.00    -0.210 C  
HETATM    3  H1  UNL     1      -9.207   9.844  69.680  1.00  0.00     0.000 HD 
HETATM    4  H2  UNL     1     -10.376  10.239  70.825  1.00  0.00     0.000 HD 
HETATM    5  C   UNL     1      -8.599   7.391  70.572  1.00  0.00    -0.139 C  
HETATM    6  OXT UNL     1      -8.082   6.410  71.080  1.00  0.00    -0.117 OA 
HETATM    7  O   UNL     1      -8.671   7.590  69.229  1.00  0.00    -0.136 OA 
ENDROOT
BRANCH   2   8
HETATM    8  C   UNL     1     -10.253   8.014  72.359  1.00  0.00    -0.347 C  
BRANCH   8   9
HETATM    9  C   UNL     1      -9.643   7.716  73.730  1.00  0.00    -0.275 C  
BRANCH   9  10
HETATM   10  C   UNL     1     -10.120   6.363  74.254  1.00  0.00    -0.347 C  
BRANCH  10  11
HETATM   11  N   UNL     1      -9.507   5.272  73.529  1.00  0.00    -0.133 N  
HETATM   12  H   UNL     1      -8.495   5.266  73.404  1.00  0.00     0.000 HD 
BRANCH  11  13
HETATM   13  C   UNL     1     -10.244   4.251  73.010  1.00  0.00    -0.166 C  
HETATM   14  N   UNL     1      -9.944   4.004  71.711  1.00  0.00    -0.183 N  
HETATM   15  O   UNL     1     -11.099   3.615  73.607  1.00  0.00    -0.231 OA 
HETATM   16  H1  UNL     1     -10.495   3.240  71.321  1.00  0.00     0.000 HD 
HETATM   17  H2  UNL     1      -9.243   4.524  71.182  1.00  0.00     0.000 HD 
ENDBRANCH  11  13
ENDBRANCH  10  11
ENDBRANCH   9  10
ENDBRANCH   8   9
ENDBRANCH   2   8
TORSDOF 5
ENDMDL
MODEL      249
REMARK 921   NORMALIZED FREE ENERGY PREDICTED BY IDOCK:   -1.87 KCAL/MOL
REMARK 922        TOTAL FREE ENERGY PREDICTED BY IDOCK:   -3.29 KCAL/MOL
REMARK 923 INTER-LIGAND FREE ENERGY PREDICTED BY IDOCK:   -2.88 KCAL/MOL
REMARK 924 INTRA-LIGAND FREE ENERGY PREDICTED BY IDOCK:   -0.41 KCAL/MOL
REMARK 927      BINDING AFFINITY PREDICTED BY RF-SCORE:    0.00 PKD
ROOT
HETATM    1  N   UNL     1      -8.955   6.865  69.664  1.00  0.00    -0.144 NA 
HETATM    2  CA  UNL     1     -10.414   7.130  69.485  1.00  0.00    -0.225 C  
HETATM    3  H1  UNL     1      -8.589   7.286  70.517  1.00  0.00     0.000 HD 
HETATM    4  H2  UNL     1      -8.423   7.164  68.846  1.00  0.00     0.000 HD 
HETATM    5  C   UNL     1     -11.163   6.565  70.707  1.00  0.00    -0.321 C  
HETATM    6  OXT UNL     1     -12.376   6.526  70.836  1.00  0.00    -0.290 OA 
HETATM    7  O   UNL     1     -10.295   6.112  71.651  1.00  0.00    -0.207 OA 
ENDROOT
BRANCH   2   8
HETATM    8  C   UNL     1     -10.964   6.497  68.203  1.00  0.00    -0.365 C  
BRANCH   8   9
HETATM    9  C   UNL     1     -10.172   6.869  66.948  1.00  0.00    -0.310 C  
BRANCH   9  10
HETATM   10  C   UNL     1      -9.609   5.621  66.272  1.00  0.00    -0.147 C  
BRANCH  10  11
HETATM   11  N   UNL     1      -9.081   4.688  67.243  1.00  0.00    -0.118 N  
HETATM   12  H   UNL     1      -8.472   5.036  67.984  1.00  0.00     0.000 HD 
BRANCH  11  13
HETATM   13  C   UNL     1      -9.375   3.360  67.197  1.00  0.00    -0.193 C  
HETATM   14  N   UNL     1      -9.453   2.890  65.927  1.00  0.00    -0.364 N  
HETATM   15  O   UNL     1      -9.569   2.640  68.164  1.00  0.00    -0.199 OA 
HETATM   16  H1  UNL     1      -9.673   1.895  65.892  1.00  0.00     0.000 HD 
HETATM   17  H2  UNL     1      -9.307   3.468  65.099  1.00  0.00     0.000 HD 
ENDBRANCH  11  13
ENDBRANCH  10  11
ENDBRANCH   9  10
ENDBRANCH   8   9
ENDBRANCH   2   8
TORSDOF 5
ENDMDL
MODEL      250
REMARK 921   NORMALIZED FREE ENERGY PREDICTED BY IDOCK:   -1.86 KCAL/MOL
REMARK 922        TOTAL FREE ENERGY PREDICTED BY IDOCK:   -3.27 KCAL/MOL
REMARK 923 INTER-LIGAND FREE ENERGY PREDICTED BY IDOCK:   -3.00 KCAL/MOL
REMARK 924 INTRA-LIGAND FREE ENERGY PREDICTED BY IDOCK:   -0.27 KCAL/MOL
REMARK 927      BINDING AFFINITY PREDICTED BY RF-SCORE:    0.00 PKD
ROOT
HETATM    1  N   UNL     1      -9.713   7.974  68.374  1.00  0.00    -0.154 NA 
HETATM    2  CA  UNL     1     -10.503   9.072  67.740  1.00  0.00    -0.245 C  
HETATM    3  H1  UNL     1      -9.792   7.097  67.860  1.00  0.00     0.000 HD 
HETATM    4  H2  UNL     1      -9.972   7.852  69.354  1.00  0.00     0.000 HD 
HETATM    5  C   UNL     1      -9.994   9.266  66.299  1.00  0.00    -0.286 C  
HETATM    6  OXT UNL     1     -10.355  10.146  65.535  1.00  0.00    -0.248 OA 
HETATM    7  O   UNL     1      -9.079   8.316  65.967  1.00  0.00    -0.179 OA 
ENDROOT
BRANCH   2   8
HETATM    8  C   UNL     1     -10.385  10.390  68.513  1.00  0.00    -0.197 C  
BRANCH   8   9
HETATM    9  C   UNL     1     -11.661  11.233  68.483  1.00  0.00    -0.378 C  
BRANCH   9  10
HETATM   10  C   UNL     1     -11.357  12.665  68.049  1.00  0.00    -0.290 C  
BRANCH  10  11
HETATM   11  N   UNL     1      -9.948  12.966  68.179  1.00  0.00    -0.229 N  
HETATM   12  H   UNL     1      -9.269  12.211  68.090  1.00  0.00     0.000 HD 
BRANCH  11  13
HETATM   13  C   UNL     1      -9.503  14.231  68.418  1.00  0.00    -0.213 C  
HETATM   14  N   UNL     1      -9.746  14.635  69.689  1.00  0.00    -0.412 N  
HETATM   15  O   UNL     1      -8.957  14.958  67.603  1.00  0.00    -0.172 OA 
HETATM   16  H1  UNL     1      -9.413  15.582  69.868  1.00  0.00     0.000 HD 
HETATM   17  H2  UNL     1     -10.210  14.056  70.389  1.00  0.00     0.000 HD 
ENDBRANCH  11  13
ENDBRANCH  10  11
ENDBRANCH   9  10
ENDBRANCH   8   9
ENDBRANCH   2   8
TORSDOF 5
ENDMDL
MODEL      251
REMARK 921   NORMALIZED FREE ENERGY PREDICTED BY IDOCK:   -1.84 KCAL/MOL
REMARK 922        TOTAL FREE ENERGY PREDICTED BY IDOCK:   -3.26 KCAL/MOL
REMARK 923 INTER-LIGAND FREE ENERGY PREDICTED BY IDOCK:   -3.10 KCAL/MOL
REMARK 924 INTRA-LIGAND FREE ENERGY PREDICTED BY IDOCK:   -0.16 KCAL/MOL
REMARK 927      BINDING AFFINITY PREDICTED BY RF-SCORE:    0.00 PKD
ROOT
HETATM    1  N   UNL     1      -9.921   6.295  71.931  1.00  0.00    -0.173 NA 
HETATM    2  CA  UNL     1     -10.518   7.195  70.899  1.00  0.00    -0.210 C  
HETATM    3  H1  UNL     1      -9.365   6.808  72.614  1.00  0.00     0.000 HD 
HETATM    4  H2  UNL     1      -9.378   5.548  71.498  1.00  0.00     0.000 HD 
HETATM    5  C   UNL     1     -11.402   8.235  71.614  1.00  0.00    -0.272 C  
HETATM    6  OXT UNL     1     -12.112   9.058  71.060  1.00  0.00    -0.293 OA 
HETATM    7  O   UNL     1     -11.290   8.130  72.965  1.00  0.00    -0.336 OA 
ENDROOT
BRANCH   2   8
HETATM    8  C   UNL     1     -11.353   6.424  69.872  1.00  0.00    -0.500 C  
BRANCH   8   9
HETATM    9  C   UNL     1     -10.664   6.269  68.515  1.00  0.00    -0.354 C  
BRANCH   9  10
HETATM   10  C   UNL     1      -9.356   5.494  68.655  1.00  0.00    -0.125 C  
BRANCH  10  11
HETATM   11  N   UNL     1      -8.764   5.221  67.364  1.00  0.00    -0.108 N  
HETATM   12  H   UNL     1      -7.858   5.629  67.137  1.00  0.00     0.000 HD 
BRANCH  11  13
HETATM   13  C   UNL     1      -9.385   4.434  66.442  1.00  0.00    -0.157 C  
HETATM   14  N   UNL     1      -9.541   3.157  66.871  1.00  0.00    -0.408 N  
HETATM   15  O   UNL     1      -9.759   4.793  65.336  1.00  0.00    -0.165 OA 
HETATM   16  H1  UNL     1     -10.005   2.567  66.181  1.00  0.00     0.000 HD 
HETATM   17  H2  UNL     1      -9.229   2.824  67.784  1.00  0.00     0.000 HD 
ENDBRANCH  11  13
ENDBRANCH  10  11
ENDBRANCH   9  10
ENDBRANCH   8   9
ENDBRANCH   2   8
TORSDOF 5
ENDMDL
MODEL      252
REMARK 921   NORMALIZED FREE ENERGY PREDICTED BY IDOCK:   -1.82 KCAL/MOL
REMARK 922        TOTAL FREE ENERGY PREDICTED BY IDOCK:   -3.23 KCAL/MOL
REMARK 923 INTER-LIGAND FREE ENERGY PREDICTED BY IDOCK:   -2.73 KCAL/MOL
REMARK 924 INTRA-LIGAND FREE ENERGY PREDICTED BY IDOCK:   -0.51 KCAL/MOL
REMARK 927      BINDING AFFINITY PREDICTED BY RF-SCORE:    0.00 PKD
ROOT
HETATM    1  N   UNL     1     -10.544   6.876  66.620  1.00  0.00    -0.517 NA 
HETATM    2  CA  UNL     1     -10.238   7.752  67.791  1.00  0.00    -0.212 C  
HETATM    3  H1  UNL     1      -9.913   7.045  65.837  1.00  0.00     0.000 HD 
HETATM    4  H2  UNL     1     -11.519   6.970  66.335  1.00  0.00     0.000 HD 
HETATM    5  C   UNL     1      -8.784   7.487  68.228  1.00  0.00    -0.123 C  
HETATM    6  OXT UNL     1      -8.246   7.963  69.214  1.00  0.00    -0.124 OA 
HETATM    7  O   UNL     1      -8.155   6.647  67.363  1.00  0.00    -0.118 OA 
ENDROOT
BRANCH   2   8
HETATM    8  C   UNL     1     -11.187   7.498  68.967  1.00  0.00     0.230 C  
BRANCH   8   9
HETATM    9  C   UNL     1     -11.079   6.086  69.546  1.00  0.00    -0.468 C  
BRANCH   9  10
HETATM   10  C   UNL     1     -10.792   6.133  71.044  1.00  0.00    -0.279 C  
BRANCH  10  11
HETATM   11  N   UNL     1     -10.439   7.470  71.471  1.00  0.00    -0.204 N  
HETATM   12  H   UNL     1      -9.783   8.012  70.909  1.00  0.00     0.000 HD 
BRANCH  11  13
HETATM   13  C   UNL     1     -10.958   8.024  72.602  1.00  0.00    -0.382 C  
HETATM   14  N   UNL     1     -10.745   7.257  73.699  1.00  0.00    -0.482 N  
HETATM   15  O   UNL     1     -11.566   9.081  72.661  1.00  0.00    -0.049 OA 
HETATM   16  H1  UNL     1     -11.134   7.671  74.546  1.00  0.00     0.000 HD 
HETATM   17  H2  UNL     1     -10.251   6.364  73.680  1.00  0.00     0.000 HD 
ENDBRANCH  11  13
ENDBRANCH  10  11
ENDBRANCH   9  10
ENDBRANCH   8   9
ENDBRANCH   2   8
TORSDOF 5
ENDMDL
MODEL      253
REMARK 921   NORMALIZED FREE ENERGY PREDICTED BY IDOCK:   -1.78 KCAL/MOL
REMARK 922        TOTAL FREE ENERGY PREDICTED BY IDOCK:   -3.18 KCAL/MOL
REMARK 923 INTER-LIGAND FREE ENERGY PREDICTED BY IDOCK:   -2.88 KCAL/MOL
REMARK 924 INTRA-LIGAND FREE ENERGY PREDICTED BY IDOCK:   -0.31 KCAL/MOL
REMARK 927      BINDING AFFINITY PREDICTED BY RF-SCORE:    0.00 PKD
ROOT
HETATM    1  N   UNL     1      -7.872  10.727  69.935  1.00  0.00    -0.342 NA 
HETATM    2  CA  UNL     1      -8.622  10.552  68.654  1.00  0.00    -0.139 C  
HETATM    3  H1  UNL     1      -7.067  10.105  69.998  1.00  0.00     0.000 HD 
HETATM    4  H2  UNL     1      -8.488  10.617  70.740  1.00  0.00     0.000 HD 
HETATM    5  C   UNL     1      -7.657  10.828  67.485  1.00  0.00    -0.094 C  
HETATM    6  OXT UNL     1      -7.969  10.868  66.306  1.00  0.00    -0.155 OA 
HETATM    7  O   UNL     1      -6.386  11.019  67.930  1.00  0.00    -0.056 OA 
ENDROOT
BRANCH   2   8
HETATM    8  C   UNL     1      -9.831  11.487  68.559  1.00  0.00    -0.198 C  
BRANCH   8   9
HETATM    9  C   UNL     1     -11.175  10.756  68.597  1.00  0.00    -0.333 C  
BRANCH   9  10
HETATM   10  C   UNL     1     -11.564  10.410  70.032  1.00  0.00    -0.301 C  
BRANCH  10  11
HETATM   11  N   UNL     1     -11.544   8.981  70.254  1.00  0.00    -0.455 N  
HETATM   12  H   UNL     1     -11.919   8.363  69.534  1.00  0.00     0.000 HD 
BRANCH  11  13
HETATM   13  C   UNL     1     -11.037   8.437  71.395  1.00  0.00    -0.255 C  
HETATM   14  N   UNL     1      -9.911   7.717  71.171  1.00  0.00    -0.177 N  
HETATM   15  O   UNL     1     -11.520   8.550  72.511  1.00  0.00    -0.371 OA 
HETATM   16  H1  UNL     1      -9.532   7.309  72.026  1.00  0.00     0.000 HD 
HETATM   17  H2  UNL     1      -9.490   7.595  70.250  1.00  0.00     0.000 HD 
ENDBRANCH  11  13
ENDBRANCH  10  11
ENDBRANCH   9  10
ENDBRANCH   8   9
ENDBRANCH   2   8
TORSDOF 5
ENDMDL
MODEL      254
REMARK 921   NORMALIZED FREE ENERGY PREDICTED BY IDOCK:   -1.77 KCAL/MOL
REMARK 922        TOTAL FREE ENERGY PREDICTED BY IDOCK:   -3.17 KCAL/MOL
REMARK 923 INTER-LIGAND FREE ENERGY PREDICTED BY IDOCK:   -2.58 KCAL/MOL
REMARK 924 INTRA-LIGAND FREE ENERGY PREDICTED BY IDOCK:   -0.59 KCAL/MOL
REMARK 927      BINDING AFFINITY PREDICTED BY RF-SCORE:    0.00 PKD
ROOT
HETATM    1  N   UNL     1      -9.723   3.335  67.555  1.00  0.00    -0.294 NA 
HETATM    2  CA  UNL     1      -8.628   4.004  66.789  1.00  0.00    -0.106 C  
HETATM    3  H1  UNL     1      -9.366   2.631  68.201  1.00  0.00     0.000 HD 
HETATM    4  H2  UNL     1     -10.423   2.938  66.928  1.00  0.00     0.000 HD 
HETATM    5  C   UNL     1      -7.664   4.662  67.795  1.00  0.00    -0.082 C  
HETATM    6  OXT UNL     1      -6.717   5.374  67.503  1.00  0.00    -0.052 OA 
HETATM    7  O   UNL     1      -7.996   4.345  69.075  1.00  0.00    -0.069 OA 
ENDROOT
BRANCH   2   8
HETATM    8  C   UNL     1      -9.165   5.061  65.818  1.00  0.00    -0.159 C  
BRANCH   8   9
HETATM    9  C   UNL     1      -9.523   6.386  66.493  1.00  0.00    -0.189 C  
BRANCH   9  10
HETATM   10  C   UNL     1     -10.977   6.381  66.962  1.00  0.00    -0.389 C  
BRANCH  10  11
HETATM   11  N   UNL     1     -11.150   7.191  68.148  1.00  0.00    -0.492 N  
HETATM   12  H   UNL     1     -11.692   8.053  68.084  1.00  0.00     0.000 HD 
BRANCH  11  13
HETATM   13  C   UNL     1     -10.611   6.834  69.346  1.00  0.00    -0.233 C  
HETATM   14  N   UNL     1     -10.776   5.516  69.617  1.00  0.00    -0.321 N  
HETATM   15  O   UNL     1     -10.049   7.588  70.125  1.00  0.00    -0.192 OA 
HETATM   16  H1  UNL     1     -10.373   5.249  70.515  1.00  0.00     0.000 HD 
HETATM   17  H2  UNL     1     -11.251   4.864  68.992  1.00  0.00     0.000 HD 
ENDBRANCH  11  13
ENDBRANCH  10  11
ENDBRANCH   9  10
ENDBRANCH   8   9
ENDBRANCH   2   8
TORSDOF 5
ENDMDL
MODEL      255
REMARK 921   NORMALIZED FREE ENERGY PREDICTED BY IDOCK:   -1.77 KCAL/MOL
REMARK 922        TOTAL FREE ENERGY PREDICTED BY IDOCK:   -3.16 KCAL/MOL
REMARK 923 INTER-LIGAND FREE ENERGY PREDICTED BY IDOCK:   -2.90 KCAL/MOL
REMARK 924 INTRA-LIGAND FREE ENERGY PREDICTED BY IDOCK:   -0.26 KCAL/MOL
REMARK 927      BINDING AFFINITY PREDICTED BY RF-SCORE:    0.00 PKD
ROOT
HETATM    1  N   UNL     1      -5.482  15.523  67.420  1.00  0.00    -0.341 NA 
HETATM    2  CA  UNL     1      -6.900  15.755  67.830  1.00  0.00    -0.145 C  
HETATM    3  H1  UNL     1      -5.060  14.741  67.920  1.00  0.00     0.000 HD 
HETATM    4  H2  UNL     1      -4.925  16.371  67.523  1.00  0.00     0.000 HD 
HETATM    5  C   UNL     1      -7.701  14.467  67.556  1.00  0.00    -0.188 C  
HETATM    6  OXT UNL     1      -8.908  14.346  67.686  1.00  0.00    -0.176 OA 
HETATM    7  O   UNL     1      -6.886  13.457  67.152  1.00  0.00    -0.129 OA 
ENDROOT
BRANCH   2   8
HETATM    8  C   UNL     1      -7.535  16.929  67.079  1.00  0.00    -0.231 C  
BRANCH   8   9
HETATM    9  C   UNL     1      -6.702  17.421  65.894  1.00  0.00    -0.102 C  
BRANCH   9  10
HETATM   10  C   UNL     1      -6.453  18.924  65.991  1.00  0.00    -0.219 C  
BRANCH  10  11
HETATM   11  N   UNL     1      -6.006  19.300  67.314  1.00  0.00    -0.179 N  
HETATM   12  H   UNL     1      -5.396  18.667  67.830  1.00  0.00     0.000 HD 
BRANCH  11  13
HETATM   13  C   UNL     1      -6.378  20.477  67.890  1.00  0.00    -0.288 C  
HETATM   14  N   UNL     1      -5.947  20.586  69.171  1.00  0.00    -0.346 N  
HETATM   15  O   UNL     1      -7.038  21.354  67.355  1.00  0.00    -0.556 OA 
HETATM   16  H1  UNL     1      -6.225  21.467  69.603  1.00  0.00     0.000 HD 
HETATM   17  H2  UNL     1      -5.404  19.866  69.650  1.00  0.00     0.000 HD 
ENDBRANCH  11  13
ENDBRANCH  10  11
ENDBRANCH   9  10
ENDBRANCH   8   9
ENDBRANCH   2   8
TORSDOF 5
ENDMDL
MODEL      256
REMARK 921   NORMALIZED FREE ENERGY PREDICTED BY IDOCK:   -1.76 KCAL/MOL
REMARK 922        TOTAL FREE ENERGY PREDICTED BY IDOCK:   -3.15 KCAL/MOL
REMARK 923 INTER-LIGAND FREE ENERGY PREDICTED BY IDOCK:   -2.98 KCAL/MOL
REMARK 924 INTRA-LIGAND FREE ENERGY PREDICTED BY IDOCK:   -0.17 KCAL/MOL
REMARK 927      BINDING AFFINITY PREDICTED BY RF-SCORE:    0.00 PKD
ROOT
HETATM    1  N   UNL     1      -7.643  11.851  67.628  1.00  0.00    -0.126 NA 
HETATM    2  CA  UNL     1      -8.358  11.291  66.442  1.00  0.00    -0.159 C  
HETATM    3  H1  UNL     1      -7.372  12.825  67.490  1.00  0.00     0.000 HD 
HETATM    4  H2  UNL     1      -6.839  11.276  67.880  1.00  0.00     0.000 HD 
HETATM    5  C   UNL     1      -9.611  12.149  66.181  1.00  0.00    -0.240 C  
HETATM    6  OXT UNL     1     -10.469  11.910  65.347  1.00  0.00    -0.250 OA 
HETATM    7  O   UNL     1      -9.646  13.233  67.001  1.00  0.00    -0.227 OA 
ENDROOT
BRANCH   2   8
HETATM    8  C   UNL     1      -8.765   9.829  66.649  1.00  0.00    -0.142 C  
BRANCH   8   9
HETATM    9  C   UNL     1      -9.889   9.646  67.671  1.00  0.00    -0.202 C  
BRANCH   9  10
HETATM   10  C   UNL     1      -9.636   8.416  68.540  1.00  0.00    -0.149 C  
BRANCH  10  11
HETATM   11  N   UNL     1      -9.685   7.200  67.759  1.00  0.00    -0.135 N  
HETATM   12  H   UNL     1      -8.892   6.961  67.164  1.00  0.00     0.000 HD 
BRANCH  11  13
HETATM   13  C   UNL     1     -10.759   6.364  67.797  1.00  0.00    -0.303 C  
HETATM   14  N   UNL     1     -11.125   5.933  66.564  1.00  0.00    -0.760 N  
HETATM   15  O   UNL     1     -11.363   6.027  68.803  1.00  0.00    -0.284 OA 
HETATM   16  H1  UNL     1     -11.929   5.307  66.592  1.00  0.00     0.000 HD 
HETATM   17  H2  UNL     1     -10.647   6.205  65.704  1.00  0.00     0.000 HD 
ENDBRANCH  11  13
ENDBRANCH  10  11
ENDBRANCH   9  10
ENDBRANCH   8   9
ENDBRANCH   2   8
TORSDOF 5
ENDMDL
MODEL      257
REMARK 921   NORMALIZED FREE ENERGY PREDICTED BY IDOCK:   -1.75 KCAL/MOL
REMARK 922        TOTAL FREE ENERGY PREDICTED BY IDOCK:   -3.14 KCAL/MOL
REMARK 923 INTER-LIGAND FREE ENERGY PREDICTED BY IDOCK:   -2.61 KCAL/MOL
REMARK 924 INTRA-LIGAND FREE ENERGY PREDICTED BY IDOCK:   -0.53 KCAL/MOL
REMARK 927      BINDING AFFINITY PREDICTED BY RF-SCORE:    0.00 PKD
ROOT
HETATM    1  N   UNL     1      -9.170   6.971  69.989  1.00  0.00    -0.148 NA 
HETATM    2  CA  UNL     1      -9.399   8.242  69.238  1.00  0.00    -0.155 C  
HETATM    3  H1  UNL     1      -9.051   6.172  69.366  1.00  0.00     0.000 HD 
HETATM    4  H2  UNL     1      -9.915   6.803  70.666  1.00  0.00     0.000 HD 
HETATM    5  C   UNL     1      -8.192   8.481  68.310  1.00  0.00    -0.123 C  
HETATM    6  OXT UNL     1      -8.011   9.478  67.630  1.00  0.00    -0.105 OA 
HETATM    7  O   UNL     1      -7.337   7.424  68.332  1.00  0.00    -0.097 OA 
ENDROOT
BRANCH   2   8
HETATM    8  C   UNL     1      -9.577   9.442  70.174  1.00  0.00    -0.275 C  
BRANCH   8   9
HETATM    9  C   UNL     1     -10.977  10.057  70.120  1.00  0.00    -0.368 C  
BRANCH   9  10
HETATM   10  C   UNL     1     -11.133  10.944  68.886  1.00  0.00    -0.252 C  
BRANCH  10  11
HETATM   11  N   UNL     1     -10.319  12.135  68.988  1.00  0.00    -0.421 N  
HETATM   12  H   UNL     1      -9.951  12.408  69.899  1.00  0.00     0.000 HD 
BRANCH  11  13
HETATM   13  C   UNL     1     -10.032  12.903  67.900  1.00  0.00    -0.233 C  
HETATM   14  N   UNL     1      -9.276  12.246  66.987  1.00  0.00    -0.198 N  
HETATM   15  O   UNL     1     -10.382  14.061  67.735  1.00  0.00    -0.232 OA 
HETATM   16  H1  UNL     1      -9.060  12.821  66.172  1.00  0.00     0.000 HD 
HETATM   17  H2  UNL     1      -8.958  11.283  67.101  1.00  0.00     0.000 HD 
ENDBRANCH  11  13
ENDBRANCH  10  11
ENDBRANCH   9  10
ENDBRANCH   8   9
ENDBRANCH   2   8
TORSDOF 5
ENDMDL
MODEL      258
REMARK 921   NORMALIZED FREE ENERGY PREDICTED BY IDOCK:   -1.70 KCAL/MOL
REMARK 922        TOTAL FREE ENERGY PREDICTED BY IDOCK:   -3.08 KCAL/MOL
REMARK 923 INTER-LIGAND FREE ENERGY PREDICTED BY IDOCK:   -2.46 KCAL/MOL
REMARK 924 INTRA-LIGAND FREE ENERGY PREDICTED BY IDOCK:   -0.61 KCAL/MOL
REMARK 927      BINDING AFFINITY PREDICTED BY RF-SCORE:    0.00 PKD
ROOT
HETATM    1  N   UNL     1     -11.639  10.281  67.794  1.00  0.00    -0.620 NA 
HETATM    2  CA  UNL     1     -11.314  11.242  68.892  1.00  0.00    -0.275 C  
HETATM    3  H1  UNL     1     -12.557  10.457  67.388  1.00  0.00     0.000 HD 
HETATM    4  H2  UNL     1     -11.554   9.316  68.113  1.00  0.00     0.000 HD 
HETATM    5  C   UNL     1     -11.365  12.671  68.317  1.00  0.00    -0.295 C  
HETATM    6  OXT UNL     1     -11.055  13.685  68.920  1.00  0.00    -0.242 OA 
HETATM    7  O   UNL     1     -11.812  12.669  67.033  1.00  0.00    -0.376 OA 
ENDROOT
BRANCH   2   8
HETATM    8  C   UNL     1      -9.934  10.978  69.502  1.00  0.00     0.074 C  
BRANCH   8   9
HETATM    9  C   UNL     1      -8.812  10.898  68.466  1.00  0.00    -0.153 C  
BRANCH   9  10
HETATM   10  C   UNL     1      -7.682  11.865  68.813  1.00  0.00    -0.074 C  
BRANCH  10  11
HETATM   11  N   UNL     1      -8.156  13.231  68.866  1.00  0.00    -0.344 N  
HETATM   12  H   UNL     1      -8.998  13.484  68.349  1.00  0.00     0.000 HD 
BRANCH  11  13
HETATM   13  C   UNL     1      -7.510  14.189  69.586  1.00  0.00     0.250 C  
HETATM   14  N   UNL     1      -8.340  15.179  69.996  1.00  0.00    -0.275 N  
HETATM   15  O   UNL     1      -6.316  14.200  69.844  1.00  0.00    -0.134 OA 
HETATM   16  H1  UNL     1      -7.856  15.896  70.535  1.00  0.00     0.000 HD 
HETATM   17  H2  UNL     1      -9.339  15.204  69.787  1.00  0.00     0.000 HD 
ENDBRANCH  11  13
ENDBRANCH  10  11
ENDBRANCH   9  10
ENDBRANCH   8   9
ENDBRANCH   2   8
TORSDOF 5
ENDMDL
MODEL      259
REMARK 921   NORMALIZED FREE ENERGY PREDICTED BY IDOCK:   -1.69 KCAL/MOL
REMARK 922        TOTAL FREE ENERGY PREDICTED BY IDOCK:   -3.06 KCAL/MOL
REMARK 923 INTER-LIGAND FREE ENERGY PREDICTED BY IDOCK:   -2.48 KCAL/MOL
REMARK 924 INTRA-LIGAND FREE ENERGY PREDICTED BY IDOCK:   -0.58 KCAL/MOL
REMARK 927      BINDING AFFINITY PREDICTED BY RF-SCORE:    0.00 PKD
ROOT
HETATM    1  N   UNL     1     -10.953  11.518  67.470  1.00  0.00    -0.239 NA 
HETATM    2  CA  UNL     1     -11.017  12.801  68.234  1.00  0.00    -0.252 C  
HETATM    3  H1  UNL     1     -11.835  11.302  67.007  1.00  0.00     0.000 HD 
HETATM    4  H2  UNL     1     -10.650  10.749  68.067  1.00  0.00     0.000 HD 
HETATM    5  C   UNL     1     -11.382  13.932  67.253  1.00  0.00    -0.323 C  
HETATM    6  OXT UNL     1     -11.421  15.120  67.529  1.00  0.00    -0.337 OA 
HETATM    7  O   UNL     1     -11.670  13.440  66.019  1.00  0.00    -0.333 OA 
ENDROOT
BRANCH   2   8
HETATM    8  C   UNL     1      -9.692  13.127  68.930  1.00  0.00     0.165 C  
BRANCH   8   9
HETATM    9  C   UNL     1      -8.468  12.945  68.031  1.00  0.00    -0.178 C  
BRANCH   9  10
HETATM   10  C   UNL     1      -7.697  14.256  67.890  1.00  0.00    -0.152 C  
BRANCH  10  11
HETATM   11  N   UNL     1      -8.407  15.196  67.051  1.00  0.00    -0.218 N  
HETATM   12  H   UNL     1      -8.893  14.852  66.223  1.00  0.00     0.000 HD 
BRANCH  11  13
HETATM   13  C   UNL     1      -8.444  16.528  67.335  1.00  0.00    -0.177 C  
HETATM   14  N   UNL     1      -9.512  17.147  66.776  1.00  0.00    -0.257 N  
HETATM   15  O   UNL     1      -7.620  17.136  68.001  1.00  0.00    -0.181 OA 
HETATM   16  H1  UNL     1      -9.540  18.144  66.989  1.00  0.00     0.000 HD 
HETATM   17  H2  UNL     1     -10.211  16.669  66.206  1.00  0.00     0.000 HD 
ENDBRANCH  11  13
ENDBRANCH  10  11
ENDBRANCH   9  10
ENDBRANCH   8   9
ENDBRANCH   2   8
TORSDOF 5
ENDMDL
MODEL      260
REMARK 921   NORMALIZED FREE ENERGY PREDICTED BY IDOCK:   -1.67 KCAL/MOL
REMARK 922        TOTAL FREE ENERGY PREDICTED BY IDOCK:   -3.04 KCAL/MOL
REMARK 923 INTER-LIGAND FREE ENERGY PREDICTED BY IDOCK:   -2.96 KCAL/MOL
REMARK 924 INTRA-LIGAND FREE ENERGY PREDICTED BY IDOCK:   -0.08 KCAL/MOL
REMARK 927      BINDING AFFINITY PREDICTED BY RF-SCORE:    0.00 PKD
ROOT
HETATM    1  N   UNL     1     -11.403   4.110  64.907  1.00  0.00    -0.967 NA 
HETATM    2  CA  UNL     1      -9.986   4.416  65.268  1.00  0.00    -0.200 C  
HETATM    3  H1  UNL     1     -11.692   4.582  64.050  1.00  0.00     0.000 HD 
HETATM    4  H2  UNL     1     -12.035   4.325  65.678  1.00  0.00     0.000 HD 
HETATM    5  C   UNL     1      -9.081   3.976  64.101  1.00  0.00    -0.142 C  
HETATM    6  OXT UNL     1      -7.861   3.993  64.109  1.00  0.00    -0.082 OA 
HETATM    7  O   UNL     1      -9.818   3.565  63.035  1.00  0.00    -0.114 OA 
ENDROOT
BRANCH   2   8
HETATM    8  C   UNL     1      -9.552   3.707  66.555  1.00  0.00    -0.159 C  
BRANCH   8   9
HETATM    9  C   UNL     1      -9.978   4.437  67.830  1.00  0.00    -0.087 C  
BRANCH   9  10
HETATM   10  C   UNL     1      -8.821   5.250  68.404  1.00  0.00    -0.101 C  
BRANCH  10  11
HETATM   11  N   UNL     1      -9.276   6.522  68.923  1.00  0.00    -0.130 N  
HETATM   12  H   UNL     1      -8.749   6.968  69.673  1.00  0.00     0.000 HD 
BRANCH  11  13
HETATM   13  C   UNL     1     -10.388   7.139  68.437  1.00  0.00    -0.194 C  
HETATM   14  N   UNL     1     -11.432   7.082  69.301  1.00  0.00    -0.532 N  
HETATM   15  O   UNL     1     -10.482   7.681  67.347  1.00  0.00    -0.250 OA 
HETATM   16  H1  UNL     1     -12.265   7.544  68.937  1.00  0.00     0.000 HD 
HETATM   17  H2  UNL     1     -11.388   6.627  70.213  1.00  0.00     0.000 HD 
ENDBRANCH  11  13
ENDBRANCH  10  11
ENDBRANCH   9  10
ENDBRANCH   8   9
ENDBRANCH   2   8
TORSDOF 5
ENDMDL
MODEL      261
REMARK 921   NORMALIZED FREE ENERGY PREDICTED BY IDOCK:   -1.67 KCAL/MOL
REMARK 922        TOTAL FREE ENERGY PREDICTED BY IDOCK:   -3.03 KCAL/MOL
REMARK 923 INTER-LIGAND FREE ENERGY PREDICTED BY IDOCK:   -2.72 KCAL/MOL
REMARK 924 INTRA-LIGAND FREE ENERGY PREDICTED BY IDOCK:   -0.31 KCAL/MOL
REMARK 927      BINDING AFFINITY PREDICTED BY RF-SCORE:    0.00 PKD
ROOT
HETATM    1  N   UNL     1     -10.898   7.884  70.004  1.00  0.00    -0.250 NA 
HETATM    2  CA  UNL     1      -9.410   7.955  69.891  1.00  0.00    -0.156 C  
HETATM    3  H1  UNL     1     -11.198   7.300  70.784  1.00  0.00     0.000 HD 
HETATM    4  H2  UNL     1     -11.320   7.575  69.128  1.00  0.00     0.000 HD 
HETATM    5  C   UNL     1      -8.850   8.521  71.210  1.00  0.00    -0.190 C  
HETATM    6  OXT UNL     1      -7.681   8.800  71.418  1.00  0.00    -0.118 OA 
HETATM    7  O   UNL     1      -9.832   8.670  72.139  1.00  0.00    -0.297 OA 
ENDROOT
BRANCH   2   8
HETATM    8  C   UNL     1      -8.960   8.832  68.719  1.00  0.00    -0.138 C  
BRANCH   8   9
HETATM    9  C   UNL     1     -10.056   9.076  67.680  1.00  0.00    -0.271 C  
BRANCH   9  10
HETATM   10  C   UNL     1      -9.963   8.059  66.544  1.00  0.00    -0.213 C  
BRANCH  10  11
HETATM   11  N   UNL     1     -10.460   6.764  66.954  1.00  0.00    -0.355 N  
HETATM   12  H   UNL     1     -11.234   6.717  67.616  1.00  0.00     0.000 HD 
BRANCH  11  13
HETATM   13  C   UNL     1      -9.922   5.606  66.481  1.00  0.00    -0.176 C  
HETATM   14  N   UNL     1      -9.298   5.773  65.290  1.00  0.00    -0.356 N  
HETATM   15  O   UNL     1      -9.987   4.516  67.029  1.00  0.00    -0.204 OA 
HETATM   16  H1  UNL     1      -8.895   4.906  64.935  1.00  0.00     0.000 HD 
HETATM   17  H2  UNL     1      -9.237   6.667  64.802  1.00  0.00     0.000 HD 
ENDBRANCH  11  13
ENDBRANCH  10  11
ENDBRANCH   9  10
ENDBRANCH   8   9
ENDBRANCH   2   8
TORSDOF 5
ENDMDL
MODEL      262
REMARK 921   NORMALIZED FREE ENERGY PREDICTED BY IDOCK:   -1.66 KCAL/MOL
REMARK 922        TOTAL FREE ENERGY PREDICTED BY IDOCK:   -3.03 KCAL/MOL
REMARK 923 INTER-LIGAND FREE ENERGY PREDICTED BY IDOCK:   -2.76 KCAL/MOL
REMARK 924 INTRA-LIGAND FREE ENERGY PREDICTED BY IDOCK:   -0.27 KCAL/MOL
REMARK 927      BINDING AFFINITY PREDICTED BY RF-SCORE:    0.00 PKD
ROOT
HETATM    1  N   UNL     1      -9.628   7.264  69.085  1.00  0.00    -0.155 NA 
HETATM    2  CA  UNL     1      -9.035   8.529  69.616  1.00  0.00    -0.145 C  
HETATM    3  H1  UNL     1      -8.996   6.471  69.187  1.00  0.00     0.000 HD 
HETATM    4  H2  UNL     1      -9.927   7.376  68.116  1.00  0.00     0.000 HD 
HETATM    5  C   UNL     1      -8.699   8.320  71.105  1.00  0.00    -0.147 C  
HETATM    6  OXT UNL     1      -8.293   9.183  71.865  1.00  0.00    -0.333 OA 
HETATM    7  O   UNL     1      -8.905   7.029  71.480  1.00  0.00    -0.128 OA 
ENDROOT
BRANCH   2   8
HETATM    8  C   UNL     1      -9.985   9.721  69.463  1.00  0.00    -0.230 C  
BRANCH   8   9
HETATM    9  C   UNL     1      -9.330  10.948  68.825  1.00  0.00    -0.190 C  
BRANCH   9  10
HETATM   10  C   UNL     1     -10.356  11.771  68.051  1.00  0.00    -0.198 C  
BRANCH  10  11
HETATM   11  N   UNL     1     -10.864  11.042  66.910  1.00  0.00    -0.276 N  
HETATM   12  H   UNL     1     -11.827  10.706  66.925  1.00  0.00     0.000 HD 
BRANCH  11  13
HETATM   13  C   UNL     1     -10.093  10.790  65.816  1.00  0.00    -0.261 C  
HETATM   14  N   UNL     1      -9.586  11.922  65.268  1.00  0.00    -0.381 N  
HETATM   15  O   UNL     1      -9.869   9.687  65.342  1.00  0.00    -0.315 OA 
HETATM   16  H1  UNL     1      -9.008  11.734  64.449  1.00  0.00     0.000 HD 
HETATM   17  H2  UNL     1      -9.763  12.857  65.634  1.00  0.00     0.000 HD 
ENDBRANCH  11  13
ENDBRANCH  10  11
ENDBRANCH   9  10
ENDBRANCH   8   9
ENDBRANCH   2   8
TORSDOF 5
ENDMDL
MODEL      263
REMARK 921   NORMALIZED FREE ENERGY PREDICTED BY IDOCK:   -1.66 KCAL/MOL
REMARK 922        TOTAL FREE ENERGY PREDICTED BY IDOCK:   -3.02 KCAL/MOL
REMARK 923 INTER-LIGAND FREE ENERGY PREDICTED BY IDOCK:   -2.52 KCAL/MOL
REMARK 924 INTRA-LIGAND FREE ENERGY PREDICTED BY IDOCK:   -0.50 KCAL/MOL
REMARK 927      BINDING AFFINITY PREDICTED BY RF-SCORE:    0.00 PKD
ROOT
HETATM    1  N   UNL     1      -7.685   6.805  70.525  1.00  0.00    -0.102 NA 
HETATM    2  CA  UNL     1      -8.031   5.352  70.480  1.00  0.00    -0.101 C  
HETATM    3  H1  UNL     1      -6.757   6.992  70.147  1.00  0.00     0.000 HD 
HETATM    4  H2  UNL     1      -7.781   7.177  71.470  1.00  0.00     0.000 HD 
HETATM    5  C   UNL     1      -7.961   4.883  69.014  1.00  0.00    -0.076 C  
HETATM    6  OXT UNL     1      -8.281   3.776  68.612  1.00  0.00    -0.073 OA 
HETATM    7  O   UNL     1      -7.485   5.865  68.204  1.00  0.00    -0.079 OA 
ENDROOT
BRANCH   2   8
HETATM    8  C   UNL     1      -9.426   5.072  71.048  1.00  0.00    -0.220 C  
BRANCH   8   9
HETATM    9  C   UNL     1     -10.460   6.139  70.686  1.00  0.00    -0.292 C  
BRANCH   9  10
HETATM   10  C   UNL     1     -11.400   6.405  71.859  1.00  0.00    -0.293 C  
BRANCH  10  11
HETATM   11  N   UNL     1     -10.958   7.539  72.641  1.00  0.00    -0.306 N  
HETATM   12  H   UNL     1     -11.471   8.418  72.573  1.00  0.00     0.000 HD 
BRANCH  11  13
HETATM   13  C   UNL     1      -9.878   7.465  73.467  1.00  0.00    -0.312 C  
HETATM   14  N   UNL     1     -10.111   6.695  74.558  1.00  0.00    -0.449 N  
HETATM   15  O   UNL     1      -8.807   8.025  73.288  1.00  0.00    -0.216 OA 
HETATM   16  H1  UNL     1      -9.302   6.640  75.177  1.00  0.00     0.000 HD 
HETATM   17  H2  UNL     1     -10.997   6.224  74.741  1.00  0.00     0.000 HD 
ENDBRANCH  11  13
ENDBRANCH  10  11
ENDBRANCH   9  10
ENDBRANCH   8   9
ENDBRANCH   2   8
TORSDOF 5
ENDMDL
MODEL      264
REMARK 921   NORMALIZED FREE ENERGY PREDICTED BY IDOCK:   -1.65 KCAL/MOL
REMARK 922        TOTAL FREE ENERGY PREDICTED BY IDOCK:   -3.01 KCAL/MOL
REMARK 923 INTER-LIGAND FREE ENERGY PREDICTED BY IDOCK:   -2.85 KCAL/MOL
REMARK 924 INTRA-LIGAND FREE ENERGY PREDICTED BY IDOCK:   -0.16 KCAL/MOL
REMARK 927      BINDING AFFINITY PREDICTED BY RF-SCORE:    0.00 PKD
ROOT
HETATM    1  N   UNL     1      -8.138   6.279  65.908  1.00  0.00    -0.116 NA 
HETATM    2  CA  UNL     1      -9.049   7.114  66.747  1.00  0.00    -0.147 C  
HETATM    3  H1  UNL     1      -7.855   5.422  66.382  1.00  0.00     0.000 HD 
HETATM    4  H2  UNL     1      -7.327   6.815  65.599  1.00  0.00     0.000 HD 
HETATM    5  C   UNL     1     -10.295   6.274  67.093  1.00  0.00    -0.229 C  
HETATM    6  OXT UNL     1     -11.281   6.685  67.683  1.00  0.00    -0.296 OA 
HETATM    7  O   UNL     1     -10.160   4.992  66.661  1.00  0.00    -0.192 OA 
ENDROOT
BRANCH   2   8
HETATM    8  C   UNL     1      -9.475   8.401  66.035  1.00  0.00    -0.224 C  
BRANCH   8   9
HETATM    9  C   UNL     1      -8.645   9.624  66.432  1.00  0.00    -0.136 C  
BRANCH   9  10
HETATM   10  C   UNL     1      -8.604  10.645  65.297  1.00  0.00    -0.169 C  
BRANCH  10  11
HETATM   11  N   UNL     1      -9.902  11.245  65.082  1.00  0.00    -0.240 N  
HETATM   12  H   UNL     1     -10.726  10.645  65.044  1.00  0.00     0.000 HD 
BRANCH  11  13
HETATM   13  C   UNL     1     -10.056  12.590  64.930  1.00  0.00    -0.226 C  
HETATM   14  N   UNL     1      -9.535  13.292  65.966  1.00  0.00    -0.470 N  
HETATM   15  O   UNL     1     -10.607  13.140  63.989  1.00  0.00    -0.402 OA 
HETATM   16  H1  UNL     1      -9.649  14.299  65.852  1.00  0.00     0.000 HD 
HETATM   17  H2  UNL     1      -9.078  12.860  66.770  1.00  0.00     0.000 HD 
ENDBRANCH  11  13
ENDBRANCH  10  11
ENDBRANCH   9  10
ENDBRANCH   8   9
ENDBRANCH   2   8
TORSDOF 5
ENDMDL
MODEL      265
REMARK 921   NORMALIZED FREE ENERGY PREDICTED BY IDOCK:   -1.65 KCAL/MOL
REMARK 922        TOTAL FREE ENERGY PREDICTED BY IDOCK:   -3.01 KCAL/MOL
REMARK 923 INTER-LIGAND FREE ENERGY PREDICTED BY IDOCK:   -2.68 KCAL/MOL
REMARK 924 INTRA-LIGAND FREE ENERGY PREDICTED BY IDOCK:   -0.33 KCAL/MOL
REMARK 927      BINDING AFFINITY PREDICTED BY RF-SCORE:    0.00 PKD
ROOT
HETATM    1  N   UNL     1      -8.842   7.993  73.607  1.00  0.00    -0.268 NA 
HETATM    2  CA  UNL     1      -7.865   8.052  72.478  1.00  0.00    -0.123 C  
HETATM    3  H1  UNL     1      -9.151   8.921  73.897  1.00  0.00     0.000 HD 
HETATM    4  H2  UNL     1      -8.463   7.468  74.395  1.00  0.00     0.000 HD 
HETATM    5  C   UNL     1      -8.537   8.771  71.292  1.00  0.00    -0.203 C  
HETATM    6  OXT UNL     1      -8.053   8.901  70.180  1.00  0.00    -0.101 OA 
HETATM    7  O   UNL     1      -9.757   9.260  71.640  1.00  0.00    -0.257 OA 
ENDROOT
BRANCH   2   8
HETATM    8  C   UNL     1      -7.401   6.658  72.042  1.00  0.00    -0.090 C  
BRANCH   8   9
HETATM    9  C   UNL     1      -8.241   6.058  70.914  1.00  0.00    -0.125 C  
BRANCH   9  10
HETATM   10  C   UNL     1      -9.523   5.436  71.464  1.00  0.00    -0.149 C  
BRANCH  10  11
HETATM   11  N   UNL     1     -10.675   6.261  71.173  1.00  0.00    -0.238 N  
HETATM   12  H   UNL     1     -10.700   6.787  70.300  1.00  0.00     0.000 HD 
BRANCH  11  13
HETATM   13  C   UNL     1     -11.727   6.355  72.033  1.00  0.00    -0.329 C  
HETATM   14  N   UNL     1     -11.368   6.118  73.319  1.00  0.00    -0.459 N  
HETATM   15  O   UNL     1     -12.880   6.607  71.720  1.00  0.00    -0.335 OA 
HETATM   16  H1  UNL     1     -12.156   6.188  73.963  1.00  0.00     0.000 HD 
HETATM   17  H2  UNL     1     -10.416   5.895  73.609  1.00  0.00     0.000 HD 
ENDBRANCH  11  13
ENDBRANCH  10  11
ENDBRANCH   9  10
ENDBRANCH   8   9
ENDBRANCH   2   8
TORSDOF 5
ENDMDL
MODEL      266
REMARK 921   NORMALIZED FREE ENERGY PREDICTED BY IDOCK:   -1.62 KCAL/MOL
REMARK 922        TOTAL FREE ENERGY PREDICTED BY IDOCK:   -2.97 KCAL/MOL
REMARK 923 INTER-LIGAND FREE ENERGY PREDICTED BY IDOCK:   -2.25 KCAL/MOL
REMARK 924 INTRA-LIGAND FREE ENERGY PREDICTED BY IDOCK:   -0.72 KCAL/MOL
REMARK 927      BINDING AFFINITY PREDICTED BY RF-SCORE:    0.00 PKD
ROOT
HETATM    1  N   UNL     1      -8.072   8.694  67.846  1.00  0.00    -0.107 NA 
HETATM    2  CA  UNL     1      -9.439   8.952  68.392  1.00  0.00    -0.140 C  
HETATM    3  H1  UNL     1      -7.520   9.548  67.773  1.00  0.00     0.000 HD 
HETATM    4  H2  UNL     1      -8.119   8.207  66.950  1.00  0.00     0.000 HD 
HETATM    5  C   UNL     1      -9.292   9.597  69.784  1.00  0.00    -0.218 C  
HETATM    6  OXT UNL     1     -10.210   9.845  70.547  1.00  0.00    -0.278 OA 
HETATM    7  O   UNL     1      -7.989   9.869  70.065  1.00  0.00    -0.167 OA 
ENDROOT
BRANCH   2   8
HETATM    8  C   UNL     1     -10.269   7.669  68.501  1.00  0.00    -0.220 C  
BRANCH   8   9
HETATM    9  C   UNL     1     -10.888   7.226  67.174  1.00  0.00    -0.378 C  
BRANCH   9  10
HETATM   10  C   UNL     1     -10.421   5.821  66.799  1.00  0.00    -0.287 C  
BRANCH  10  11
HETATM   11  N   UNL     1      -8.977   5.736  66.772  1.00  0.00    -0.116 N  
HETATM   12  H   UNL     1      -8.472   5.612  67.649  1.00  0.00     0.000 HD 
BRANCH  11  13
HETATM   13  C   UNL     1      -8.274   5.817  65.609  1.00  0.00    -0.128 C  
HETATM   14  N   UNL     1      -7.279   6.736  65.667  1.00  0.00    -0.071 N  
HETATM   15  O   UNL     1      -8.492   5.165  64.600  1.00  0.00    -0.139 OA 
HETATM   16  H1  UNL     1      -6.753   6.797  64.796  1.00  0.00     0.000 HD 
HETATM   17  H2  UNL     1      -7.080   7.304  66.491  1.00  0.00     0.000 HD 
ENDBRANCH  11  13
ENDBRANCH  10  11
ENDBRANCH   9  10
ENDBRANCH   8   9
ENDBRANCH   2   8
TORSDOF 5
ENDMDL
MODEL      267
REMARK 921   NORMALIZED FREE ENERGY PREDICTED BY IDOCK:   -1.61 KCAL/MOL
REMARK 922        TOTAL FREE ENERGY PREDICTED BY IDOCK:   -2.95 KCAL/MOL
REMARK 923 INTER-LIGAND FREE ENERGY PREDICTED BY IDOCK:   -2.44 KCAL/MOL
REMARK 924 INTRA-LIGAND FREE ENERGY PREDICTED BY IDOCK:   -0.52 KCAL/MOL
REMARK 927      BINDING AFFINITY PREDICTED BY RF-SCORE:    0.00 PKD
ROOT
HETATM    1  N   UNL     1      -9.898   8.535  69.816  1.00  0.00    -0.183 NA 
HETATM    2  CA  UNL     1     -10.671   7.998  70.976  1.00  0.00    -0.220 C  
HETATM    3  H1  UNL     1      -9.749   9.542  69.885  1.00  0.00     0.000 HD 
HETATM    4  H2  UNL     1     -10.342   8.288  68.931  1.00  0.00     0.000 HD 
HETATM    5  C   UNL     1      -9.896   8.322  72.268  1.00  0.00    -0.294 C  
HETATM    6  OXT UNL     1     -10.198   7.941  73.387  1.00  0.00    -0.321 OA 
HETATM    7  O   UNL     1      -8.815   9.106  72.010  1.00  0.00    -0.331 OA 
ENDROOT
BRANCH   2   8
HETATM    8  C   UNL     1     -10.895   6.486  70.872  1.00  0.00    -0.302 C  
BRANCH   8   9
HETATM    9  C   UNL     1      -9.598   5.678  70.816  1.00  0.00    -0.213 C  
BRANCH   9  10
HETATM   10  C   UNL     1      -9.524   4.858  69.530  1.00  0.00    -0.148 C  
BRANCH  10  11
HETATM   11  N   UNL     1      -8.285   5.098  68.823  1.00  0.00    -0.085 N  
HETATM   12  H   UNL     1      -7.513   4.442  68.939  1.00  0.00     0.000 HD 
BRANCH  11  13
HETATM   13  C   UNL     1      -8.121   6.175  68.006  1.00  0.00    -0.114 C  
HETATM   14  N   UNL     1      -8.555   5.939  66.743  1.00  0.00    -0.112 N  
HETATM   15  O   UNL     1      -7.630   7.245  68.330  1.00  0.00    -0.112 OA 
HETATM   16  H1  UNL     1      -8.432   6.745  66.131  1.00  0.00     0.000 HD 
HETATM   17  H2  UNL     1      -8.959   5.053  66.439  1.00  0.00     0.000 HD 
ENDBRANCH  11  13
ENDBRANCH  10  11
ENDBRANCH   9  10
ENDBRANCH   8   9
ENDBRANCH   2   8
TORSDOF 5
ENDMDL
MODEL      268
REMARK 921   NORMALIZED FREE ENERGY PREDICTED BY IDOCK:   -1.56 KCAL/MOL
REMARK 922        TOTAL FREE ENERGY PREDICTED BY IDOCK:   -2.89 KCAL/MOL
REMARK 923 INTER-LIGAND FREE ENERGY PREDICTED BY IDOCK:   -2.48 KCAL/MOL
REMARK 924 INTRA-LIGAND FREE ENERGY PREDICTED BY IDOCK:   -0.41 KCAL/MOL
REMARK 927      BINDING AFFINITY PREDICTED BY RF-SCORE:    0.00 PKD
ROOT
HETATM    1  N   UNL     1     -11.321   6.620  72.510  1.00  0.00    -0.312 NA 
HETATM    2  CA  UNL     1     -10.572   6.879  71.243  1.00  0.00    -0.220 C  
HETATM    3  H1  UNL     1     -10.825   6.972  73.328  1.00  0.00     0.000 HD 
HETATM    4  H2  UNL     1     -11.542   5.629  72.611  1.00  0.00     0.000 HD 
HETATM    5  C   UNL     1     -10.359   8.399  71.108  1.00  0.00    -0.212 C  
HETATM    6  OXT UNL     1      -9.869   8.960  70.141  1.00  0.00    -0.167 OA 
HETATM    7  O   UNL     1     -10.783   9.057  72.220  1.00  0.00    -0.270 OA 
ENDROOT
BRANCH   2   8
HETATM    8  C   UNL     1     -11.317   6.349  70.013  1.00  0.00    -0.496 C  
BRANCH   8   9
HETATM    9  C   UNL     1     -10.508   5.342  69.194  1.00  0.00    -0.277 C  
BRANCH   9  10
HETATM   10  C   UNL     1      -9.157   5.068  69.851  1.00  0.00    -0.119 C  
BRANCH  10  11
HETATM   11  N   UNL     1      -8.064   5.498  69.006  1.00  0.00    -0.095 N  
HETATM   12  H   UNL     1      -7.279   4.865  68.852  1.00  0.00     0.000 HD 
BRANCH  11  13
HETATM   13  C   UNL     1      -8.054   6.723  68.413  1.00  0.00    -0.119 C  
HETATM   14  N   UNL     1      -7.237   7.600  69.047  1.00  0.00    -0.078 N  
HETATM   15  O   UNL     1      -8.703   7.042  67.429  1.00  0.00    -0.120 OA 
HETATM   16  H1  UNL     1      -7.229   8.518  68.602  1.00  0.00     0.000 HD 
HETATM   17  H2  UNL     1      -6.690   7.367  69.876  1.00  0.00     0.000 HD 
ENDBRANCH  11  13
ENDBRANCH  10  11
ENDBRANCH   9  10
ENDBRANCH   8   9
ENDBRANCH   2   8
TORSDOF 5
ENDMDL
MODEL      269
REMARK 921   NORMALIZED FREE ENERGY PREDICTED BY IDOCK:   -1.56 KCAL/MOL
REMARK 922        TOTAL FREE ENERGY PREDICTED BY IDOCK:   -2.89 KCAL/MOL
REMARK 923 INTER-LIGAND FREE ENERGY PREDICTED BY IDOCK:   -2.93 KCAL/MOL
REMARK 924 INTRA-LIGAND FREE ENERGY PREDICTED BY IDOCK:    0.04 KCAL/MOL
REMARK 927      BINDING AFFINITY PREDICTED BY RF-SCORE:    0.00 PKD
ROOT
HETATM    1  N   UNL     1      -8.959   7.160  71.183  1.00  0.00    -0.144 NA 
HETATM    2  CA  UNL     1      -9.821   8.276  71.678  1.00  0.00    -0.199 C  
HETATM    3  H1  UNL     1      -9.017   6.335  71.779  1.00  0.00     0.000 HD 
HETATM    4  H2  UNL     1      -7.992   7.465  71.067  1.00  0.00     0.000 HD 
HETATM    5  C   UNL     1     -11.277   7.776  71.734  1.00  0.00    -0.256 C  
HETATM    6  OXT UNL     1     -12.250   8.463  72.001  1.00  0.00    -0.319 OA 
HETATM    7  O   UNL     1     -11.353   6.448  71.452  1.00  0.00    -0.277 OA 
ENDROOT
BRANCH   2   8
HETATM    8  C   UNL     1      -9.733   9.516  70.782  1.00  0.00    -0.289 C  
BRANCH   8   9
HETATM    9  C   UNL     1     -10.285   9.293  69.373  1.00  0.00    -0.214 C  
BRANCH   9  10
HETATM   10  C   UNL     1      -9.211   8.713  68.455  1.00  0.00    -0.138 C  
BRANCH  10  11
HETATM   11  N   UNL     1      -8.985   9.563  67.306  1.00  0.00    -0.130 N  
HETATM   12  H   UNL     1      -8.398  10.391  67.410  1.00  0.00     0.000 HD 
BRANCH  11  13
HETATM   13  C   UNL     1      -9.535   9.290  66.091  1.00  0.00    -0.236 C  
HETATM   14  N   UNL     1      -9.302   8.015  65.692  1.00  0.00    -0.413 N  
HETATM   15  O   UNL     1     -10.160  10.078  65.399  1.00  0.00    -0.310 OA 
HETATM   16  H1  UNL     1      -9.713   7.810  64.781  1.00  0.00     0.000 HD 
HETATM   17  H2  UNL     1      -8.774   7.337  66.241  1.00  0.00     0.000 HD 
ENDBRANCH  11  13
ENDBRANCH  10  11
ENDBRANCH   9  10
ENDBRANCH   8   9
ENDBRANCH   2   8
TORSDOF 5
ENDMDL
MODEL      270
REMARK 921   NORMALIZED FREE ENERGY PREDICTED BY IDOCK:   -1.56 KCAL/MOL
REMARK 922        TOTAL FREE ENERGY PREDICTED BY IDOCK:   -2.89 KCAL/MOL
REMARK 923 INTER-LIGAND FREE ENERGY PREDICTED BY IDOCK:   -2.24 KCAL/MOL
REMARK 924 INTRA-LIGAND FREE ENERGY PREDICTED BY IDOCK:   -0.64 KCAL/MOL
REMARK 927      BINDING AFFINITY PREDICTED BY RF-SCORE:    0.00 PKD
ROOT
HETATM    1  N   UNL     1      -8.039   6.523  66.369  1.00  0.00    -0.109 NA 
HETATM    2  CA  UNL     1      -9.332   5.881  66.753  1.00  0.00    -0.136 C  
HETATM    3  H1  UNL     1      -7.307   5.837  66.186  1.00  0.00     0.000 HD 
HETATM    4  H2  UNL     1      -7.742   7.202  67.071  1.00  0.00     0.000 HD 
HETATM    5  C   UNL     1      -9.768   4.947  65.607  1.00  0.00    -0.145 C  
HETATM    6  OXT UNL     1     -10.827   4.344  65.553  1.00  0.00    -0.239 OA 
HETATM    7  O   UNL     1      -8.810   4.867  64.645  1.00  0.00    -0.152 OA 
ENDROOT
BRANCH   2   8
HETATM    8  C   UNL     1     -10.431   6.911  67.028  1.00  0.00    -0.374 C  
BRANCH   8   9
HETATM    9  C   UNL     1      -9.906   8.229  67.600  1.00  0.00    -0.218 C  
BRANCH   9  10
HETATM   10  C   UNL     1     -10.304   9.405  66.711  1.00  0.00    -0.233 C  
BRANCH  10  11
HETATM   11  N   UNL     1      -9.426   9.522  65.568  1.00  0.00    -0.255 N  
HETATM   12  H   UNL     1      -9.773   9.256  64.647  1.00  0.00     0.000 HD 
BRANCH  11  13
HETATM   13  C   UNL     1      -8.148   9.978  65.688  1.00  0.00    -0.138 C  
HETATM   14  N   UNL     1      -7.279   9.300  64.898  1.00  0.00    -0.100 N  
HETATM   15  O   UNL     1      -7.782  10.883  66.422  1.00  0.00    -0.145 OA 
HETATM   16  H1  UNL     1      -6.322   9.641  64.988  1.00  0.00     0.000 HD 
HETATM   17  H2  UNL     1      -7.553   8.533  64.283  1.00  0.00     0.000 HD 
ENDBRANCH  11  13
ENDBRANCH  10  11
ENDBRANCH   9  10
ENDBRANCH   8   9
ENDBRANCH   2   8
TORSDOF 5
ENDMDL
MODEL      271
REMARK 921   NORMALIZED FREE ENERGY PREDICTED BY IDOCK:   -1.54 KCAL/MOL
REMARK 922        TOTAL FREE ENERGY PREDICTED BY IDOCK:   -2.87 KCAL/MOL
REMARK 923 INTER-LIGAND FREE ENERGY PREDICTED BY IDOCK:   -2.66 KCAL/MOL
REMARK 924 INTRA-LIGAND FREE ENERGY PREDICTED BY IDOCK:   -0.21 KCAL/MOL
REMARK 927      BINDING AFFINITY PREDICTED BY RF-SCORE:    0.00 PKD
ROOT
HETATM    1  N   UNL     1      -7.717   6.436  70.026  1.00  0.00    -0.099 NA 
HETATM    2  CA  UNL     1      -8.745   7.149  69.210  1.00  0.00    -0.136 C  
HETATM    3  H1  UNL     1      -8.120   5.676  70.574  1.00  0.00     0.000 HD 
HETATM    4  H2  UNL     1      -7.201   7.086  70.620  1.00  0.00     0.000 HD 
HETATM    5  C   UNL     1      -9.412   6.127  68.269  1.00  0.00    -0.117 C  
HETATM    6  OXT UNL     1     -10.226   6.394  67.400  1.00  0.00    -0.140 OA 
HETATM    7  O   UNL     1      -8.985   4.863  68.532  1.00  0.00    -0.104 OA 
ENDROOT
BRANCH   2   8
HETATM    8  C   UNL     1      -8.139   8.291  68.387  1.00  0.00    -0.127 C  
BRANCH   8   9
HETATM    9  C   UNL     1      -8.312   9.668  69.030  1.00  0.00    -0.122 C  
BRANCH   9  10
HETATM   10  C   UNL     1      -9.787  10.054  69.101  1.00  0.00    -0.205 C  
BRANCH  10  11
HETATM   11  N   UNL     1     -10.239  10.163  70.471  1.00  0.00    -0.391 N  
HETATM   12  H   UNL     1      -9.549  10.300  71.210  1.00  0.00     0.000 HD 
BRANCH  11  13
HETATM   13  C   UNL     1     -11.558  10.088  70.801  1.00  0.00    -0.360 C  
HETATM   14  N   UNL     1     -12.370  10.242  69.727  1.00  0.00    -0.531 N  
HETATM   15  O   UNL     1     -12.000   9.917  71.926  1.00  0.00    -0.331 OA 
HETATM   16  H1  UNL     1     -13.358  10.186  69.974  1.00  0.00     0.000 HD 
HETATM   17  H2  UNL     1     -12.031  10.397  68.777  1.00  0.00     0.000 HD 
ENDBRANCH  11  13
ENDBRANCH  10  11
ENDBRANCH   9  10
ENDBRANCH   8   9
ENDBRANCH   2   8
TORSDOF 5
ENDMDL
MODEL      272
REMARK 921   NORMALIZED FREE ENERGY PREDICTED BY IDOCK:   -1.53 KCAL/MOL
REMARK 922        TOTAL FREE ENERGY PREDICTED BY IDOCK:   -2.85 KCAL/MOL
REMARK 923 INTER-LIGAND FREE ENERGY PREDICTED BY IDOCK:   -2.62 KCAL/MOL
REMARK 924 INTRA-LIGAND FREE ENERGY PREDICTED BY IDOCK:   -0.23 KCAL/MOL
REMARK 927      BINDING AFFINITY PREDICTED BY RF-SCORE:    0.00 PKD
ROOT
HETATM    1  N   UNL     1     -11.786   8.590  70.101  1.00  0.00    -0.406 NA 
HETATM    2  CA  UNL     1     -11.790   9.884  69.354  1.00  0.00     0.236 C  
HETATM    3  H1  UNL     1     -11.925   7.790  69.485  1.00  0.00     0.000 HD 
HETATM    4  H2  UNL     1     -12.472   8.599  70.856  1.00  0.00     0.000 HD 
HETATM    5  C   UNL     1     -10.668   9.838  68.299  1.00  0.00    -0.233 C  
HETATM    6  OXT UNL     1     -10.333  10.769  67.584  1.00  0.00    -0.184 OA 
HETATM    7  O   UNL     1     -10.087   8.610  68.251  1.00  0.00    -0.178 OA 
ENDROOT
BRANCH   2   8
HETATM    8  C   UNL     1     -11.581  11.087  70.280  1.00  0.00    -0.414 C  
BRANCH   8   9
HETATM    9  C   UNL     1     -12.726  12.101  70.234  1.00  0.00     0.098 C  
BRANCH   9  10
HETATM   10  C   UNL     1     -12.190  13.516  70.031  1.00  0.00    -0.312 C  
BRANCH  10  11
HETATM   11  N   UNL     1     -12.402  13.971  68.675  1.00  0.00    -0.503 N  
HETATM   12  H   UNL     1     -13.242  13.673  68.178  1.00  0.00     0.000 HD 
BRANCH  11  13
HETATM   13  C   UNL     1     -11.513  14.786  68.043  1.00  0.00    -0.331 C  
HETATM   14  N   UNL     1     -11.910  16.083  68.040  1.00  0.00    -0.146 N  
HETATM   15  O   UNL     1     -10.473  14.428  67.513  1.00  0.00    -0.250 OA 
HETATM   16  H1  UNL     1     -11.244  16.693  67.566  1.00  0.00     0.000 HD 
HETATM   17  H2  UNL     1     -12.778  16.411  68.464  1.00  0.00     0.000 HD 
ENDBRANCH  11  13
ENDBRANCH  10  11
ENDBRANCH   9  10
ENDBRANCH   8   9
ENDBRANCH   2   8
TORSDOF 5
ENDMDL
MODEL      273
REMARK 921   NORMALIZED FREE ENERGY PREDICTED BY IDOCK:   -1.47 KCAL/MOL
REMARK 922        TOTAL FREE ENERGY PREDICTED BY IDOCK:   -2.77 KCAL/MOL
REMARK 923 INTER-LIGAND FREE ENERGY PREDICTED BY IDOCK:   -2.66 KCAL/MOL
REMARK 924 INTRA-LIGAND FREE ENERGY PREDICTED BY IDOCK:   -0.11 KCAL/MOL
REMARK 927      BINDING AFFINITY PREDICTED BY RF-SCORE:    0.00 PKD
ROOT
HETATM    1  N   UNL     1      -8.804  11.242  64.889  1.00  0.00    -0.388 NA 
HETATM    2  CA  UNL     1      -7.793  10.244  65.350  1.00  0.00    -0.149 C  
HETATM    3  H1  UNL     1      -8.398  11.945  64.272  1.00  0.00     0.000 HD 
HETATM    4  H2  UNL     1      -9.281  11.676  65.680  1.00  0.00     0.000 HD 
HETATM    5  C   UNL     1      -7.185   9.560  64.110  1.00  0.00    -0.115 C  
HETATM    6  OXT UNL     1      -6.400   8.626  64.132  1.00  0.00    -0.071 OA 
HETATM    7  O   UNL     1      -7.631  10.136  62.962  1.00  0.00    -0.138 OA 
ENDROOT
BRANCH   2   8
HETATM    8  C   UNL     1      -8.403   9.187  66.277  1.00  0.00    -0.121 C  
BRANCH   8   9
HETATM    9  C   UNL     1      -9.912   9.344  66.473  1.00  0.00    -0.339 C  
BRANCH   9  10
HETATM   10  C   UNL     1     -10.484   8.161  67.250  1.00  0.00    -0.309 C  
BRANCH  10  11
HETATM   11  N   UNL     1     -11.141   8.595  68.464  1.00  0.00    -0.382 N  
HETATM   12  H   UNL     1     -11.951   8.076  68.802  1.00  0.00     0.000 HD 
BRANCH  11  13
HETATM   13  C   UNL     1     -10.708   9.678  69.167  1.00  0.00    -0.217 C  
HETATM   14  N   UNL     1      -9.695   9.374  70.015  1.00  0.00    -0.208 N  
HETATM   15  O   UNL     1     -11.163  10.808  69.084  1.00  0.00    -0.223 OA 
HETATM   16  H1  UNL     1      -9.371  10.185  70.542  1.00  0.00     0.000 HD 
HETATM   17  H2  UNL     1      -9.301   8.438  70.115  1.00  0.00     0.000 HD 
ENDBRANCH  11  13
ENDBRANCH  10  11
ENDBRANCH   9  10
ENDBRANCH   8   9
ENDBRANCH   2   8
TORSDOF 5
ENDMDL
MODEL      274
REMARK 921   NORMALIZED FREE ENERGY PREDICTED BY IDOCK:   -1.46 KCAL/MOL
REMARK 922        TOTAL FREE ENERGY PREDICTED BY IDOCK:   -2.76 KCAL/MOL
REMARK 923 INTER-LIGAND FREE ENERGY PREDICTED BY IDOCK:   -2.23 KCAL/MOL
REMARK 924 INTRA-LIGAND FREE ENERGY PREDICTED BY IDOCK:   -0.53 KCAL/MOL
REMARK 927      BINDING AFFINITY PREDICTED BY RF-SCORE:    0.00 PKD
ROOT
HETATM    1  N   UNL     1      -6.358  12.495  68.128  1.00  0.00    -0.068 NA 
HETATM    2  CA  UNL     1      -7.248  11.591  67.339  1.00  0.00    -0.119 C  
HETATM    3  H1  UNL     1      -6.242  13.405  67.683  1.00  0.00     0.000 HD 
HETATM    4  H2  UNL     1      -5.456  12.055  68.310  1.00  0.00     0.000 HD 
HETATM    5  C   UNL     1      -8.621  12.275  67.186  1.00  0.00    -0.187 C  
HETATM    6  OXT UNL     1      -9.609  11.768  66.681  1.00  0.00    -0.196 OA 
HETATM    7  O   UNL     1      -8.600  13.539  67.685  1.00  0.00    -0.161 OA 
ENDROOT
BRANCH   2   8
HETATM    8  C   UNL     1      -7.423  10.223  68.007  1.00  0.00    -0.087 C  
BRANCH   8   9
HETATM    9  C   UNL     1      -7.869  10.308  69.467  1.00  0.00    -0.172 C  
BRANCH   9  10
HETATM   10  C   UNL     1      -9.067   9.395  69.723  1.00  0.00    -0.193 C  
BRANCH  10  11
HETATM   11  N   UNL     1      -9.954   9.358  68.581  1.00  0.00    -0.167 N  
HETATM   12  H   UNL     1     -10.236  10.236  68.144  1.00  0.00     0.000 HD 
BRANCH  11  13
HETATM   13  C   UNL     1     -10.425   8.185  68.074  1.00  0.00    -0.183 C  
HETATM   14  N   UNL     1     -11.113   7.463  68.992  1.00  0.00    -0.436 N  
HETATM   15  O   UNL     1     -10.254   7.785  66.933  1.00  0.00    -0.260 OA 
HETATM   16  H1  UNL     1     -11.465   6.584  68.612  1.00  0.00     0.000 HD 
HETATM   17  H2  UNL     1     -11.263   7.765  69.955  1.00  0.00     0.000 HD 
ENDBRANCH  11  13
ENDBRANCH  10  11
ENDBRANCH   9  10
ENDBRANCH   8   9
ENDBRANCH   2   8
TORSDOF 5
ENDMDL
MODEL      275
REMARK 921   NORMALIZED FREE ENERGY PREDICTED BY IDOCK:   -1.44 KCAL/MOL
REMARK 922        TOTAL FREE ENERGY PREDICTED BY IDOCK:   -2.74 KCAL/MOL
REMARK 923 INTER-LIGAND FREE ENERGY PREDICTED BY IDOCK:   -2.57 KCAL/MOL
REMARK 924 INTRA-LIGAND FREE ENERGY PREDICTED BY IDOCK:   -0.17 KCAL/MOL
REMARK 927      BINDING AFFINITY PREDICTED BY RF-SCORE:    0.00 PKD
ROOT
HETATM    1  N   UNL     1     -11.714   7.011  69.585  1.00  0.00    -0.576 NA 
HETATM    2  CA  UNL     1     -10.385   6.332  69.526  1.00  0.00    -0.212 C  
HETATM    3  H1  UNL     1     -11.784   7.780  68.919  1.00  0.00     0.000 HD 
HETATM    4  H2  UNL     1     -11.927   7.323  70.533  1.00  0.00     0.000 HD 
HETATM    5  C   UNL     1     -10.174   5.801  68.094  1.00  0.00    -0.190 C  
HETATM    6  OXT UNL     1      -9.237   5.112  67.727  1.00  0.00    -0.110 OA 
HETATM    7  O   UNL     1     -11.175   6.206  67.267  1.00  0.00    -0.288 OA 
ENDROOT
BRANCH   2   8
HETATM    8  C   UNL     1     -10.280   5.176  70.526  1.00  0.00    -0.330 C  
BRANCH   8   9
HETATM    9  C   UNL     1     -10.622   5.577  71.962  1.00  0.00    -0.284 C  
BRANCH   9  10
HETATM   10  C   UNL     1      -9.478   5.229  72.911  1.00  0.00    -0.144 C  
BRANCH  10  11
HETATM   11  N   UNL     1      -9.005   6.399  73.618  1.00  0.00    -0.124 N  
HETATM   12  H   UNL     1      -9.616   6.847  74.300  1.00  0.00     0.000 HD 
BRANCH  11  13
HETATM   13  C   UNL     1      -7.765   6.918  73.398  1.00  0.00    -0.090 C  
HETATM   14  N   UNL     1      -7.807   8.224  73.036  1.00  0.00    -0.151 N  
HETATM   15  O   UNL     1      -6.712   6.308  73.490  1.00  0.00    -0.073 OA 
HETATM   16  H1  UNL     1      -6.879   8.614  72.871  1.00  0.00     0.000 HD 
HETATM   17  H2  UNL     1      -8.671   8.758  72.939  1.00  0.00     0.000 HD 
ENDBRANCH  11  13
ENDBRANCH  10  11
ENDBRANCH   9  10
ENDBRANCH   8   9
ENDBRANCH   2   8
TORSDOF 5
ENDMDL
MODEL      276
REMARK 921   NORMALIZED FREE ENERGY PREDICTED BY IDOCK:   -1.40 KCAL/MOL
REMARK 922        TOTAL FREE ENERGY PREDICTED BY IDOCK:   -2.68 KCAL/MOL
REMARK 923 INTER-LIGAND FREE ENERGY PREDICTED BY IDOCK:   -2.29 KCAL/MOL
REMARK 924 INTRA-LIGAND FREE ENERGY PREDICTED BY IDOCK:   -0.40 KCAL/MOL
REMARK 927      BINDING AFFINITY PREDICTED BY RF-SCORE:    0.00 PKD
ROOT
HETATM    1  N   UNL     1     -11.686   7.158  69.591  1.00  0.00    -0.516 NA 
HETATM    2  CA  UNL     1     -10.451   6.333  69.432  1.00  0.00    -0.243 C  
HETATM    3  H1  UNL     1     -11.635   8.032  69.069  1.00  0.00     0.000 HD 
HETATM    4  H2  UNL     1     -11.892   7.327  70.576  1.00  0.00     0.000 HD 
HETATM    5  C   UNL     1     -10.257   6.034  67.932  1.00  0.00    -0.178 C  
HETATM    6  OXT UNL     1      -9.400   5.303  67.464  1.00  0.00    -0.113 OA 
HETATM    7  O   UNL     1     -11.169   6.701  67.175  1.00  0.00    -0.392 OA 
ENDROOT
BRANCH   2   8
HETATM    8  C   UNL     1     -10.527   5.019  70.216  1.00  0.00    -0.243 C  
BRANCH   8   9
HETATM    9  C   UNL     1      -9.963   5.119  71.634  1.00  0.00    -0.243 C  
BRANCH   9  10
HETATM   10  C   UNL     1      -8.585   4.466  71.718  1.00  0.00    -0.114 C  
BRANCH  10  11
HETATM   11  N   UNL     1      -7.537   5.402  71.378  1.00  0.00    -0.099 N  
HETATM   12  H   UNL     1      -7.226   6.075  72.078  1.00  0.00     0.000 HD 
BRANCH  11  13
HETATM   13  C   UNL     1      -6.952   5.409  70.148  1.00  0.00    -0.057 C  
HETATM   14  N   UNL     1      -6.655   6.662  69.723  1.00  0.00    -0.047 N  
HETATM   15  O   UNL     1      -6.718   4.424  69.466  1.00  0.00    -0.042 OA 
HETATM   16  H1  UNL     1      -6.217   6.668  68.802  1.00  0.00     0.000 HD 
HETATM   17  H2  UNL     1      -6.848   7.505  70.264  1.00  0.00     0.000 HD 
ENDBRANCH  11  13
ENDBRANCH  10  11
ENDBRANCH   9  10
ENDBRANCH   8   9
ENDBRANCH   2   8
TORSDOF 5
ENDMDL
MODEL      277
REMARK 921   NORMALIZED FREE ENERGY PREDICTED BY IDOCK:   -1.37 KCAL/MOL
REMARK 922        TOTAL FREE ENERGY PREDICTED BY IDOCK:   -2.65 KCAL/MOL
REMARK 923 INTER-LIGAND FREE ENERGY PREDICTED BY IDOCK:   -2.01 KCAL/MOL
REMARK 924 INTRA-LIGAND FREE ENERGY PREDICTED BY IDOCK:   -0.64 KCAL/MOL
REMARK 927      BINDING AFFINITY PREDICTED BY RF-SCORE:    0.00 PKD
ROOT
HETATM    1  N   UNL     1      -9.579   8.465  69.860  1.00  0.00    -0.170 NA 
HETATM    2  CA  UNL     1     -10.817   7.628  69.857  1.00  0.00    -0.235 C  
HETATM    3  H1  UNL     1      -9.556   9.115  70.645  1.00  0.00     0.000 HD 
HETATM    4  H2  UNL     1      -9.462   8.953  68.972  1.00  0.00     0.000 HD 
HETATM    5  C   UNL     1     -10.877   6.846  71.184  1.00  0.00    -0.240 C  
HETATM    6  OXT UNL     1     -11.706   5.997  71.466  1.00  0.00    -0.250 OA 
HETATM    7  O   UNL     1      -9.880   7.228  72.026  1.00  0.00    -0.162 OA 
ENDROOT
BRANCH   2   8
HETATM    8  C   UNL     1     -10.851   6.650  68.679  1.00  0.00    -0.319 C  
BRANCH   8   9
HETATM    9  C   UNL     1      -9.929   5.443  68.858  1.00  0.00    -0.247 C  
BRANCH   9  10
HETATM   10  C   UNL     1      -8.695   5.565  67.966  1.00  0.00    -0.106 C  
BRANCH  10  11
HETATM   11  N   UNL     1      -7.478   5.362  68.721  1.00  0.00    -0.074 N  
HETATM   12  H   UNL     1      -6.630   5.083  68.229  1.00  0.00     0.000 HD 
BRANCH  11  13
HETATM   13  C   UNL     1      -7.433   5.534  70.072  1.00  0.00    -0.070 C  
HETATM   14  N   UNL     1      -7.190   6.820  70.423  1.00  0.00    -0.074 N  
HETATM   15  O   UNL     1      -7.574   4.653  70.905  1.00  0.00    -0.064 OA 
HETATM   16  H1  UNL     1      -7.156   6.949  71.434  1.00  0.00     0.000 HD 
HETATM   17  H2  UNL     1      -7.056   7.576  69.750  1.00  0.00     0.000 HD 
ENDBRANCH  11  13
ENDBRANCH  10  11
ENDBRANCH   9  10
ENDBRANCH   8   9
ENDBRANCH   2   8
TORSDOF 5
ENDMDL
MODEL      278
REMARK 921   NORMALIZED FREE ENERGY PREDICTED BY IDOCK:   -1.37 KCAL/MOL
REMARK 922        TOTAL FREE ENERGY PREDICTED BY IDOCK:   -2.64 KCAL/MOL
REMARK 923 INTER-LIGAND FREE ENERGY PREDICTED BY IDOCK:   -2.48 KCAL/MOL
REMARK 924 INTRA-LIGAND FREE ENERGY PREDICTED BY IDOCK:   -0.16 KCAL/MOL
REMARK 927      BINDING AFFINITY PREDICTED BY RF-SCORE:    0.00 PKD
ROOT
HETATM    1  N   UNL     1      -6.262  11.101  67.642  1.00  0.00    -0.051 NA 
HETATM    2  CA  UNL     1      -7.353  10.126  67.945  1.00  0.00    -0.087 C  
HETATM    3  H1  UNL     1      -5.420  10.918  68.187  1.00  0.00     0.000 HD 
HETATM    4  H2  UNL     1      -6.582  12.062  67.767  1.00  0.00     0.000 HD 
HETATM    5  C   UNL     1      -6.834   8.707  67.641  1.00  0.00    -0.071 C  
HETATM    6  OXT UNL     1      -7.501   7.687  67.685  1.00  0.00    -0.099 OA 
HETATM    7  O   UNL     1      -5.513   8.725  67.316  1.00  0.00    -0.037 OA 
ENDROOT
BRANCH   2   8
HETATM    8  C   UNL     1      -8.618  10.401  67.126  1.00  0.00    -0.130 C  
BRANCH   8   9
HETATM    9  C   UNL     1      -8.723  11.842  66.626  1.00  0.00    -0.185 C  
BRANCH   9  10
HETATM   10  C   UNL     1      -9.973  12.031  65.769  1.00  0.00    -0.241 C  
BRANCH  10  11
HETATM   11  N   UNL     1      -9.909  13.259  65.008  1.00  0.00    -0.559 N  
HETATM   12  H   UNL     1      -9.654  13.218  64.021  1.00  0.00     0.000 HD 
BRANCH  11  13
HETATM   13  C   UNL     1     -10.179  14.469  65.571  1.00  0.00    -0.370 C  
HETATM   14  N   UNL     1     -11.508  14.728  65.630  1.00  0.00    -0.346 N  
HETATM   15  O   UNL     1      -9.347  15.266  65.977  1.00  0.00    -0.307 OA 
HETATM   16  H1  UNL     1     -11.711  15.635  66.052  1.00  0.00     0.000 HD 
HETATM   17  H2  UNL     1     -12.226  14.088  65.290  1.00  0.00     0.000 HD 
ENDBRANCH  11  13
ENDBRANCH  10  11
ENDBRANCH   9  10
ENDBRANCH   8   9
ENDBRANCH   2   8
TORSDOF 5
ENDMDL
MODEL      279
REMARK 921   NORMALIZED FREE ENERGY PREDICTED BY IDOCK:   -1.36 KCAL/MOL
REMARK 922        TOTAL FREE ENERGY PREDICTED BY IDOCK:   -2.63 KCAL/MOL
REMARK 923 INTER-LIGAND FREE ENERGY PREDICTED BY IDOCK:   -2.32 KCAL/MOL
REMARK 924 INTRA-LIGAND FREE ENERGY PREDICTED BY IDOCK:   -0.31 KCAL/MOL
REMARK 927      BINDING AFFINITY PREDICTED BY RF-SCORE:    0.00 PKD
ROOT
HETATM    1  N   UNL     1     -12.009  14.768  66.497  1.00  0.00    -0.253 NA 
HETATM    2  CA  UNL     1     -12.548  13.386  66.324  1.00  0.00    -0.168 C  
HETATM    3  H1  UNL     1     -12.417  15.243  67.302  1.00  0.00     0.000 HD 
HETATM    4  H2  UNL     1     -12.127  15.319  65.646  1.00  0.00     0.000 HD 
HETATM    5  C   UNL     1     -12.249  12.585  67.606  1.00  0.00     0.184 C  
HETATM    6  OXT UNL     1     -12.466  11.394  67.762  1.00  0.00     0.025 OA 
HETATM    7  O   UNL     1     -11.709  13.380  68.569  1.00  0.00    -0.313 OA 
ENDROOT
BRANCH   2   8
HETATM    8  C   UNL     1     -11.936  12.673  65.114  1.00  0.00    -0.474 C  
BRANCH   8   9
HETATM    9  C   UNL     1     -10.516  13.137  64.784  1.00  0.00    -0.390 C  
BRANCH   9  10
HETATM   10  C   UNL     1      -9.499  12.044  65.107  1.00  0.00     0.010 C  
BRANCH  10  11
HETATM   11  N   UNL     1      -8.629  12.439  66.193  1.00  0.00    -0.386 N  
HETATM   12  H   UNL     1      -7.852  13.071  66.000  1.00  0.00     0.000 HD 
BRANCH  11  13
HETATM   13  C   UNL     1      -8.819  11.991  67.465  1.00  0.00    -0.172 C  
HETATM   14  N   UNL     1      -8.266  12.812  68.391  1.00  0.00    -0.232 N  
HETATM   15  O   UNL     1      -9.402  10.964  67.777  1.00  0.00    -0.153 OA 
HETATM   16  H1  UNL     1      -8.408  12.476  69.344  1.00  0.00     0.000 HD 
HETATM   17  H2  UNL     1      -7.764  13.670  68.161  1.00  0.00     0.000 HD 
ENDBRANCH  11  13
ENDBRANCH  10  11
ENDBRANCH   9  10
ENDBRANCH   8   9
ENDBRANCH   2   8
TORSDOF 5
ENDMDL
MODEL      280
REMARK 921   NORMALIZED FREE ENERGY PREDICTED BY IDOCK:   -1.29 KCAL/MOL
REMARK 922        TOTAL FREE ENERGY PREDICTED BY IDOCK:   -2.54 KCAL/MOL
REMARK 923 INTER-LIGAND FREE ENERGY PREDICTED BY IDOCK:   -2.48 KCAL/MOL
REMARK 924 INTRA-LIGAND FREE ENERGY PREDICTED BY IDOCK:   -0.06 KCAL/MOL
REMARK 927      BINDING AFFINITY PREDICTED BY RF-SCORE:    0.00 PKD
ROOT
HETATM    1  N   UNL     1      -9.490   6.705  71.882  1.00  0.00    -0.151 NA 
HETATM    2  CA  UNL     1      -8.771   7.617  70.943  1.00  0.00    -0.138 C  
HETATM    3  H1  UNL     1      -9.458   7.040  72.844  1.00  0.00     0.000 HD 
HETATM    4  H2  UNL     1      -9.138   5.750  71.811  1.00  0.00     0.000 HD 
HETATM    5  C   UNL     1      -9.419   9.013  71.030  1.00  0.00    -0.274 C  
HETATM    6  OXT UNL     1      -9.138   9.967  70.324  1.00  0.00    -0.208 OA 
HETATM    7  O   UNL     1     -10.356   9.059  72.014  1.00  0.00    -0.339 OA 
ENDROOT
BRANCH   2   8
HETATM    8  C   UNL     1      -8.820   7.114  69.496  1.00  0.00    -0.137 C  
BRANCH   8   9
HETATM    9  C   UNL     1     -10.196   7.258  68.844  1.00  0.00    -0.196 C  
BRANCH   9  10
HETATM   10  C   UNL     1     -10.175   8.339  67.765  1.00  0.00    -0.223 C  
BRANCH  10  11
HETATM   11  N   UNL     1      -8.840   8.538  67.245  1.00  0.00    -0.129 N  
HETATM   12  H   UNL     1      -8.040   8.248  67.808  1.00  0.00     0.000 HD 
BRANCH  11  13
HETATM   13  C   UNL     1      -8.621   9.102  66.025  1.00  0.00    -0.146 C  
HETATM   14  N   UNL     1      -9.752   9.187  65.283  1.00  0.00    -0.443 N  
HETATM   15  O   UNL     1      -7.541   9.488  65.604  1.00  0.00    -0.097 OA 
HETATM   16  H1  UNL     1      -9.588   9.609  64.369  1.00  0.00     0.000 HD 
HETATM   17  H2  UNL     1     -10.665   8.864  65.602  1.00  0.00     0.000 HD 
ENDBRANCH  11  13
ENDBRANCH  10  11
ENDBRANCH   9  10
ENDBRANCH   8   9
ENDBRANCH   2   8
TORSDOF 5
ENDMDL
MODEL      281
REMARK 921   NORMALIZED FREE ENERGY PREDICTED BY IDOCK:   -1.27 KCAL/MOL
REMARK 922        TOTAL FREE ENERGY PREDICTED BY IDOCK:   -2.52 KCAL/MOL
REMARK 923 INTER-LIGAND FREE ENERGY PREDICTED BY IDOCK:   -2.32 KCAL/MOL
REMARK 924 INTRA-LIGAND FREE ENERGY PREDICTED BY IDOCK:   -0.19 KCAL/MOL
REMARK 927      BINDING AFFINITY PREDICTED BY RF-SCORE:    0.00 PKD
ROOT
HETATM    1  N   UNL     1     -10.013   8.811  66.523  1.00  0.00    -0.275 NA 
HETATM    2  CA  UNL     1     -10.719   9.021  67.822  1.00  0.00    -0.151 C  
HETATM    3  H1  UNL     1     -10.413   9.373  65.772  1.00  0.00     0.000 HD 
HETATM    4  H2  UNL     1      -9.988   7.823  66.272  1.00  0.00     0.000 HD 
HETATM    5  C   UNL     1     -10.632  10.516  68.187  1.00  0.00    -0.204 C  
HETATM    6  OXT UNL     1     -11.019  11.011  69.232  1.00  0.00    -0.223 OA 
HETATM    7  O   UNL     1     -10.065  11.235  67.181  1.00  0.00    -0.186 OA 
ENDROOT
BRANCH   2   8
HETATM    8  C   UNL     1     -10.117   8.177  68.951  1.00  0.00    -0.211 C  
BRANCH   8   9
HETATM    9  C   UNL     1      -9.199   7.059  68.456  1.00  0.00    -0.137 C  
BRANCH   9  10
HETATM   10  C   UNL     1      -8.611   6.279  69.630  1.00  0.00    -0.133 C  
BRANCH  10  11
HETATM   11  N   UNL     1      -9.529   6.236  70.746  1.00  0.00    -0.171 N  
HETATM   12  H   UNL     1      -9.790   7.108  71.207  1.00  0.00     0.000 HD 
BRANCH  11  13
HETATM   13  C   UNL     1     -10.056   5.065  71.199  1.00  0.00    -0.223 C  
HETATM   14  N   UNL     1     -10.737   5.218  72.361  1.00  0.00    -0.224 N  
HETATM   15  O   UNL     1      -9.938   3.976  70.658  1.00  0.00    -0.187 OA 
HETATM   16  H1  UNL     1     -11.131   4.340  72.701  1.00  0.00     0.000 HD 
HETATM   17  H2  UNL     1     -10.844   6.111  72.843  1.00  0.00     0.000 HD 
ENDBRANCH  11  13
ENDBRANCH  10  11
ENDBRANCH   9  10
ENDBRANCH   8   9
ENDBRANCH   2   8
TORSDOF 5
ENDMDL
MODEL      282
REMARK 921   NORMALIZED FREE ENERGY PREDICTED BY IDOCK:   -1.25 KCAL/MOL
REMARK 922        TOTAL FREE ENERGY PREDICTED BY IDOCK:   -2.49 KCAL/MOL
REMARK 923 INTER-LIGAND FREE ENERGY PREDICTED BY IDOCK:   -2.23 KCAL/MOL
REMARK 924 INTRA-LIGAND FREE ENERGY PREDICTED BY IDOCK:   -0.26 KCAL/MOL
REMARK 927      BINDING AFFINITY PREDICTED BY RF-SCORE:    0.00 PKD
ROOT
HETATM    1  N   UNL     1      -7.932   6.970  68.269  1.00  0.00    -0.121 NA 
HETATM    2  CA  UNL     1      -9.243   6.253  68.294  1.00  0.00    -0.111 C  
HETATM    3  H1  UNL     1      -7.404   6.776  67.418  1.00  0.00     0.000 HD 
HETATM    4  H2  UNL     1      -7.381   6.761  69.101  1.00  0.00     0.000 HD 
HETATM    5  C   UNL     1     -10.060   6.691  67.063  1.00  0.00    -0.187 C  
HETATM    6  OXT UNL     1     -11.214   6.371  66.832  1.00  0.00    -0.368 OA 
HETATM    7  O   UNL     1      -9.324   7.488  66.242  1.00  0.00    -0.172 OA 
ENDROOT
BRANCH   2   8
HETATM    8  C   UNL     1     -10.037   6.545  69.572  1.00  0.00    -0.203 C  
BRANCH   8   9
HETATM    9  C   UNL     1     -10.445   5.286  70.339  1.00  0.00    -0.322 C  
BRANCH   9  10
HETATM   10  C   UNL     1     -10.089   5.412  71.818  1.00  0.00    -0.196 C  
BRANCH  10  11
HETATM   11  N   UNL     1      -9.682   6.760  72.150  1.00  0.00    -0.150 N  
HETATM   12  H   UNL     1     -10.180   7.545  71.730  1.00  0.00     0.000 HD 
BRANCH  11  13
HETATM   13  C   UNL     1      -8.654   7.010  73.007  1.00  0.00    -0.118 C  
HETATM   14  N   UNL     1      -7.446   6.717  72.466  1.00  0.00    -0.091 N  
HETATM   15  O   UNL     1      -8.765   7.436  74.146  1.00  0.00    -0.191 OA 
HETATM   16  H1  UNL     1      -6.675   6.904  73.107  1.00  0.00     0.000 HD 
HETATM   17  H2  UNL     1      -7.321   6.350  71.522  1.00  0.00     0.000 HD 
ENDBRANCH  11  13
ENDBRANCH  10  11
ENDBRANCH   9  10
ENDBRANCH   8   9
ENDBRANCH   2   8
TORSDOF 5
ENDMDL
MODEL      283
REMARK 921   NORMALIZED FREE ENERGY PREDICTED BY IDOCK:   -1.20 KCAL/MOL
REMARK 922        TOTAL FREE ENERGY PREDICTED BY IDOCK:   -2.43 KCAL/MOL
REMARK 923 INTER-LIGAND FREE ENERGY PREDICTED BY IDOCK:   -2.18 KCAL/MOL
REMARK 924 INTRA-LIGAND FREE ENERGY PREDICTED BY IDOCK:   -0.25 KCAL/MOL
REMARK 927      BINDING AFFINITY PREDICTED BY RF-SCORE:    0.00 PKD
ROOT
HETATM    1  N   UNL     1      -7.049   6.786  66.988  1.00  0.00    -0.070 NA 
HETATM    2  CA  UNL     1      -7.871   5.746  67.678  1.00  0.00    -0.098 C  
HETATM    3  H1  UNL     1      -6.418   6.381  66.296  1.00  0.00     0.000 HD 
HETATM    4  H2  UNL     1      -6.539   7.359  67.660  1.00  0.00     0.000 HD 
HETATM    5  C   UNL     1      -8.685   4.986  66.613  1.00  0.00    -0.108 C  
HETATM    6  OXT UNL     1      -9.532   4.139  66.844  1.00  0.00    -0.164 OA 
HETATM    7  O   UNL     1      -8.336   5.373  65.357  1.00  0.00    -0.126 OA 
ENDROOT
BRANCH   2   8
HETATM    8  C   UNL     1      -8.818   6.354  68.717  1.00  0.00    -0.124 C  
BRANCH   8   9
HETATM    9  C   UNL     1      -9.280   7.770  68.370  1.00  0.00    -0.137 C  
BRANCH   9  10
HETATM   10  C   UNL     1     -10.440   8.199  69.266  1.00  0.00    -0.214 C  
BRANCH  10  11
HETATM   11  N   UNL     1     -10.960   7.082  70.024  1.00  0.00    -0.260 N  
HETATM   12  H   UNL     1     -10.894   6.143  69.632  1.00  0.00     0.000 HD 
BRANCH  11  13
HETATM   13  C   UNL     1     -11.534   7.250  71.247  1.00  0.00    -0.276 C  
HETATM   14  N   UNL     1     -10.678   7.783  72.154  1.00  0.00    -0.232 N  
HETATM   15  O   UNL     1     -12.682   6.953  71.541  1.00  0.00    -0.370 OA 
HETATM   16  H1  UNL     1     -11.108   7.908  73.070  1.00  0.00     0.000 HD 
HETATM   17  H2  UNL     1      -9.711   8.031  71.942  1.00  0.00     0.000 HD 
ENDBRANCH  11  13
ENDBRANCH  10  11
ENDBRANCH   9  10
ENDBRANCH   8   9
ENDBRANCH   2   8
TORSDOF 5
ENDMDL
MODEL      284
REMARK 921   NORMALIZED FREE ENERGY PREDICTED BY IDOCK:   -1.18 KCAL/MOL
REMARK 922        TOTAL FREE ENERGY PREDICTED BY IDOCK:   -2.40 KCAL/MOL
REMARK 923 INTER-LIGAND FREE ENERGY PREDICTED BY IDOCK:   -2.19 KCAL/MOL
REMARK 924 INTRA-LIGAND FREE ENERGY PREDICTED BY IDOCK:   -0.21 KCAL/MOL
REMARK 927      BINDING AFFINITY PREDICTED BY RF-SCORE:    0.00 PKD
ROOT
HETATM    1  N   UNL     1      -9.264   7.849  73.503  1.00  0.00    -0.280 NA 
HETATM    2  CA  UNL     1      -8.799   8.624  72.314  1.00  0.00    -0.148 C  
HETATM    3  H1  UNL     1      -9.823   8.417  74.139  1.00  0.00     0.000 HD 
HETATM    4  H2  UNL     1      -8.480   7.414  73.990  1.00  0.00     0.000 HD 
HETATM    5  C   UNL     1     -10.037   9.168  71.575  1.00  0.00    -0.311 C  
HETATM    6  OXT UNL     1     -10.018   9.761  70.509  1.00  0.00    -0.265 OA 
HETATM    7  O   UNL     1     -11.178   8.910  72.268  1.00  0.00    -0.340 OA 
ENDROOT
BRANCH   2   8
HETATM    8  C   UNL     1      -7.959   7.770  71.359  1.00  0.00    -0.097 C  
BRANCH   8   9
HETATM    9  C   UNL     1      -8.745   6.635  70.701  1.00  0.00    -0.143 C  
BRANCH   9  10
HETATM   10  C   UNL     1      -8.099   6.221  69.381  1.00  0.00    -0.113 C  
BRANCH  10  11
HETATM   11  N   UNL     1      -8.861   6.699  68.248  1.00  0.00    -0.124 N  
HETATM   12  H   UNL     1      -9.410   7.553  68.345  1.00  0.00     0.000 HD 
BRANCH  11  13
HETATM   13  C   UNL     1      -8.867   6.041  67.056  1.00  0.00    -0.113 C  
HETATM   14  N   UNL     1      -8.554   4.728  67.188  1.00  0.00    -0.105 N  
HETATM   15  O   UNL     1      -9.105   6.541  65.968  1.00  0.00    -0.151 OA 
HETATM   16  H1  UNL     1      -8.557   4.235  66.295  1.00  0.00     0.000 HD 
HETATM   17  H2  UNL     1      -8.339   4.283  68.080  1.00  0.00     0.000 HD 
ENDBRANCH  11  13
ENDBRANCH  10  11
ENDBRANCH   9  10
ENDBRANCH   8   9
ENDBRANCH   2   8
TORSDOF 5
ENDMDL
MODEL      285
REMARK 921   NORMALIZED FREE ENERGY PREDICTED BY IDOCK:   -1.17 KCAL/MOL
REMARK 922        TOTAL FREE ENERGY PREDICTED BY IDOCK:   -2.39 KCAL/MOL
REMARK 923 INTER-LIGAND FREE ENERGY PREDICTED BY IDOCK:   -2.15 KCAL/MOL
REMARK 924 INTRA-LIGAND FREE ENERGY PREDICTED BY IDOCK:   -0.25 KCAL/MOL
REMARK 927      BINDING AFFINITY PREDICTED BY RF-SCORE:    0.00 PKD
ROOT
HETATM    1  N   UNL     1      -6.319   5.777  68.366  1.00  0.00    -0.039 NA 
HETATM    2  CA  UNL     1      -7.045   5.011  67.309  1.00  0.00    -0.066 C  
HETATM    3  H1  UNL     1      -6.703   5.609  69.296  1.00  0.00     0.000 HD 
HETATM    4  H2  UNL     1      -6.298   6.774  68.150  1.00  0.00     0.000 HD 
HETATM    5  C   UNL     1      -6.951   3.510  67.648  1.00  0.00    -0.051 C  
HETATM    6  OXT UNL     1      -7.352   2.601  66.940  1.00  0.00    -0.063 OA 
HETATM    7  O   UNL     1      -6.363   3.314  68.858  1.00  0.00    -0.028 OA 
ENDROOT
BRANCH   2   8
HETATM    8  C   UNL     1      -6.468   5.263  65.913  1.00  0.00    -0.040 C  
BRANCH   8   9
HETATM    9  C   UNL     1      -7.460   5.917  64.950  1.00  0.00    -0.077 C  
BRANCH   9  10
HETATM   10  C   UNL     1      -8.875   5.395  65.189  1.00  0.00    -0.108 C  
BRANCH  10  11
HETATM   11  N   UNL     1      -9.317   4.555  64.098  1.00  0.00    -0.285 N  
HETATM   12  H   UNL     1      -8.700   4.415  63.298  1.00  0.00     0.000 HD 
BRANCH  11  13
HETATM   13  C   UNL     1     -10.536   3.946  64.108  1.00  0.00    -0.233 C  
HETATM   14  N   UNL     1     -11.383   4.498  65.012  1.00  0.00    -0.920 N  
HETATM   15  O   UNL     1     -10.863   2.999  63.410  1.00  0.00    -0.237 OA 
HETATM   16  H1  UNL     1     -12.295   4.042  65.020  1.00  0.00     0.000 HD 
HETATM   17  H2  UNL     1     -11.135   5.281  65.616  1.00  0.00     0.000 HD 
ENDBRANCH  11  13
ENDBRANCH  10  11
ENDBRANCH   9  10
ENDBRANCH   8   9
ENDBRANCH   2   8
TORSDOF 5
ENDMDL
MODEL      286
REMARK 921   NORMALIZED FREE ENERGY PREDICTED BY IDOCK:   -1.17 KCAL/MOL
REMARK 922        TOTAL FREE ENERGY PREDICTED BY IDOCK:   -2.39 KCAL/MOL
REMARK 923 INTER-LIGAND FREE ENERGY PREDICTED BY IDOCK:   -2.24 KCAL/MOL
REMARK 924 INTRA-LIGAND FREE ENERGY PREDICTED BY IDOCK:   -0.14 KCAL/MOL
REMARK 927      BINDING AFFINITY PREDICTED BY RF-SCORE:    0.00 PKD
ROOT
HETATM    1  N   UNL     1      -8.044   9.405  67.452  1.00  0.00    -0.109 NA 
HETATM    2  CA  UNL     1      -9.399   9.692  66.893  1.00  0.00    -0.146 C  
HETATM    3  H1  UNL     1      -7.554  10.256  67.729  1.00  0.00     0.000 HD 
HETATM    4  H2  UNL     1      -7.486   8.853  66.801  1.00  0.00     0.000 HD 
HETATM    5  C   UNL     1     -10.218  10.440  67.964  1.00  0.00    -0.169 C  
HETATM    6  OXT UNL     1     -11.397  10.737  67.870  1.00  0.00    -0.323 OA 
HETATM    7  O   UNL     1      -9.452  10.743  69.046  1.00  0.00    -0.191 OA 
ENDROOT
BRANCH   2   8
HETATM    8  C   UNL     1     -10.136   8.414  66.478  1.00  0.00    -0.317 C  
BRANCH   8   9
HETATM    9  C   UNL     1      -9.213   7.333  65.911  1.00  0.00    -0.004 C  
BRANCH   9  10
HETATM   10  C   UNL     1      -9.421   6.007  66.639  1.00  0.00    -0.149 C  
BRANCH  10  11
HETATM   11  N   UNL     1      -9.664   4.927  65.707  1.00  0.00    -0.184 N  
HETATM   12  H   UNL     1      -9.910   5.151  64.743  1.00  0.00     0.000 HD 
BRANCH  11  13
HETATM   13  C   UNL     1      -9.572   3.621  66.080  1.00  0.00    -0.129 C  
HETATM   14  N   UNL     1      -9.611   2.775  65.022  1.00  0.00    -0.323 N  
HETATM   15  O   UNL     1      -9.479   3.215  67.228  1.00  0.00    -0.198 OA 
HETATM   16  H1  UNL     1      -9.542   1.797  65.301  1.00  0.00     0.000 HD 
HETATM   17  H2  UNL     1      -9.699   3.083  64.053  1.00  0.00     0.000 HD 
ENDBRANCH  11  13
ENDBRANCH  10  11
ENDBRANCH   9  10
ENDBRANCH   8   9
ENDBRANCH   2   8
TORSDOF 5
ENDMDL
MODEL      287
REMARK 921   NORMALIZED FREE ENERGY PREDICTED BY IDOCK:   -1.14 KCAL/MOL
REMARK 922        TOTAL FREE ENERGY PREDICTED BY IDOCK:   -2.35 KCAL/MOL
REMARK 923 INTER-LIGAND FREE ENERGY PREDICTED BY IDOCK:   -2.00 KCAL/MOL
REMARK 924 INTRA-LIGAND FREE ENERGY PREDICTED BY IDOCK:   -0.35 KCAL/MOL
REMARK 927      BINDING AFFINITY PREDICTED BY RF-SCORE:    0.00 PKD
ROOT
HETATM    1  N   UNL     1     -11.380   6.510  69.235  1.00  0.00    -0.571 NA 
HETATM    2  CA  UNL     1     -10.495   7.641  68.823  1.00  0.00    -0.189 C  
HETATM    3  H1  UNL     1     -11.776   6.019  68.434  1.00  0.00     0.000 HD 
HETATM    4  H2  UNL     1     -12.111   6.827  69.872  1.00  0.00     0.000 HD 
HETATM    5  C   UNL     1      -9.361   7.075  67.947  1.00  0.00    -0.123 C  
HETATM    6  OXT UNL     1      -8.410   7.712  67.525  1.00  0.00    -0.119 OA 
HETATM    7  O   UNL     1      -9.551   5.754  67.687  1.00  0.00    -0.111 OA 
ENDROOT
BRANCH   2   8
HETATM    8  C   UNL     1      -9.901   8.379  70.027  1.00  0.00    -0.182 C  
BRANCH   8   9
HETATM    9  C   UNL     1      -8.888   7.547  70.816  1.00  0.00    -0.148 C  
BRANCH   9  10
HETATM   10  C   UNL     1      -9.555   6.865  72.008  1.00  0.00    -0.142 C  
BRANCH  10  11
HETATM   11  N   UNL     1      -9.542   5.426  71.867  1.00  0.00    -0.152 N  
HETATM   12  H   UNL     1     -10.428   4.927  71.794  1.00  0.00     0.000 HD 
BRANCH  11  13
HETATM   13  C   UNL     1      -8.379   4.718  71.830  1.00  0.00    -0.114 C  
HETATM   14  N   UNL     1      -8.300   3.907  70.747  1.00  0.00    -0.069 N  
HETATM   15  O   UNL     1      -7.489   4.768  72.666  1.00  0.00    -0.082 OA 
HETATM   16  H1  UNL     1      -7.429   3.377  70.718  1.00  0.00     0.000 HD 
HETATM   17  H2  UNL     1      -9.030   3.835  70.038  1.00  0.00     0.000 HD 
ENDBRANCH  11  13
ENDBRANCH  10  11
ENDBRANCH   9  10
ENDBRANCH   8   9
ENDBRANCH   2   8
TORSDOF 5
ENDMDL
MODEL      288
REMARK 921   NORMALIZED FREE ENERGY PREDICTED BY IDOCK:   -1.11 KCAL/MOL
REMARK 922        TOTAL FREE ENERGY PREDICTED BY IDOCK:   -2.31 KCAL/MOL
REMARK 923 INTER-LIGAND FREE ENERGY PREDICTED BY IDOCK:   -2.19 KCAL/MOL
REMARK 924 INTRA-LIGAND FREE ENERGY PREDICTED BY IDOCK:   -0.12 KCAL/MOL
REMARK 927      BINDING AFFINITY PREDICTED BY RF-SCORE:    0.00 PKD
ROOT
HETATM    1  N   UNL     1      -7.762  19.969  70.664  1.00  0.00     0.924 NA 
HETATM    2  CA  UNL     1      -7.509  19.587  69.241  1.00  0.00    -0.241 C  
HETATM    3  H1  UNL     1      -7.016  19.656  71.284  1.00  0.00     0.000 HD 
HETATM    4  H2  UNL     1      -8.671  19.630  70.980  1.00  0.00     0.000 HD 
HETATM    5  C   UNL     1      -6.171  20.212  68.802  1.00  0.00    -0.306 C  
HETATM    6  OXT UNL     1      -5.714  20.179  67.672  1.00  0.00    -0.183 OA 
HETATM    7  O   UNL     1      -5.541  20.811  69.848  1.00  0.00    -0.350 OA 
ENDROOT
BRANCH   2   8
HETATM    8  C   UNL     1      -8.630  20.056  68.309  1.00  0.00    -0.173 C  
BRANCH   8   9
HETATM    9  C   UNL     1      -8.859  19.131  67.112  1.00  0.00    -0.314 C  
BRANCH   9  10
HETATM   10  C   UNL     1      -9.944  18.102  67.421  1.00  0.00    -0.323 C  
BRANCH  10  11
HETATM   11  N   UNL     1      -9.692  16.850  66.741  1.00  0.00    -0.255 N  
HETATM   12  H   UNL     1      -8.821  16.353  66.926  1.00  0.00     0.000 HD 
BRANCH  11  13
HETATM   13  C   UNL     1     -10.585  16.318  65.862  1.00  0.00    -0.297 C  
HETATM   14  N   UNL     1     -11.473  15.488  66.464  1.00  0.00    -0.025 N  
HETATM   15  O   UNL     1     -10.609  16.526  64.659  1.00  0.00    -0.647 OA 
HETATM   16  H1  UNL     1     -12.142  15.088  65.806  1.00  0.00     0.000 HD 
HETATM   17  H2  UNL     1     -11.472  15.285  67.464  1.00  0.00     0.000 HD 
ENDBRANCH  11  13
ENDBRANCH  10  11
ENDBRANCH   9  10
ENDBRANCH   8   9
ENDBRANCH   2   8
TORSDOF 5
ENDMDL
MODEL      289
REMARK 921   NORMALIZED FREE ENERGY PREDICTED BY IDOCK:   -1.11 KCAL/MOL
REMARK 922        TOTAL FREE ENERGY PREDICTED BY IDOCK:   -2.31 KCAL/MOL
REMARK 923 INTER-LIGAND FREE ENERGY PREDICTED BY IDOCK:   -1.73 KCAL/MOL
REMARK 924 INTRA-LIGAND FREE ENERGY PREDICTED BY IDOCK:   -0.58 KCAL/MOL
REMARK 927      BINDING AFFINITY PREDICTED BY RF-SCORE:    0.00 PKD
ROOT
HETATM    1  N   UNL     1      -8.436   8.098  68.366  1.00  0.00    -0.126 NA 
HETATM    2  CA  UNL     1      -9.397   6.964  68.520  1.00  0.00    -0.134 C  
HETATM    3  H1  UNL     1      -8.862   8.903  67.908  1.00  0.00     0.000 HD 
HETATM    4  H2  UNL     1      -7.590   7.800  67.881  1.00  0.00     0.000 HD 
HETATM    5  C   UNL     1     -10.602   7.457  69.345  1.00  0.00    -0.226 C  
HETATM    6  OXT UNL     1     -11.522   6.758  69.737  1.00  0.00    -0.304 OA 
HETATM    7  O   UNL     1     -10.521   8.793  69.584  1.00  0.00    -0.213 OA 
ENDROOT
BRANCH   2   8
HETATM    8  C   UNL     1      -8.758   5.754  69.209  1.00  0.00    -0.113 C  
BRANCH   8   9
HETATM    9  C   UNL     1      -7.290   5.967  69.582  1.00  0.00    -0.075 C  
BRANCH   9  10
HETATM   10  C   UNL     1      -7.126   6.094  71.095  1.00  0.00    -0.074 C  
BRANCH  10  11
HETATM   11  N   UNL     1      -7.781   7.281  71.598  1.00  0.00    -0.086 N  
HETATM   12  H   UNL     1      -7.614   8.173  71.134  1.00  0.00     0.000 HD 
BRANCH  11  13
HETATM   13  C   UNL     1      -8.616   7.240  72.674  1.00  0.00    -0.111 C  
HETATM   14  N   UNL     1      -8.070   6.585  73.728  1.00  0.00    -0.103 N  
HETATM   15  O   UNL     1      -9.740   7.714  72.720  1.00  0.00    -0.168 OA 
HETATM   16  H1  UNL     1      -8.695   6.554  74.534  1.00  0.00     0.000 HD 
HETATM   17  H2  UNL     1      -7.139   6.169  73.717  1.00  0.00     0.000 HD 
ENDBRANCH  11  13
ENDBRANCH  10  11
ENDBRANCH   9  10
ENDBRANCH   8   9
ENDBRANCH   2   8
TORSDOF 5
ENDMDL
MODEL      290
REMARK 921   NORMALIZED FREE ENERGY PREDICTED BY IDOCK:   -1.10 KCAL/MOL
REMARK 922        TOTAL FREE ENERGY PREDICTED BY IDOCK:   -2.30 KCAL/MOL
REMARK 923 INTER-LIGAND FREE ENERGY PREDICTED BY IDOCK:   -2.06 KCAL/MOL
REMARK 924 INTRA-LIGAND FREE ENERGY PREDICTED BY IDOCK:   -0.24 KCAL/MOL
REMARK 927      BINDING AFFINITY PREDICTED BY RF-SCORE:    0.00 PKD
ROOT
HETATM    1  N   UNL     1      -5.716   7.717  68.438  1.00  0.00    -0.027 NA 
HETATM    2  CA  UNL     1      -7.121   7.568  67.954  1.00  0.00    -0.085 C  
HETATM    3  H1  UNL     1      -5.271   6.815  68.611  1.00  0.00     0.000 HD 
HETATM    4  H2  UNL     1      -5.672   8.314  69.264  1.00  0.00     0.000 HD 
HETATM    5  C   UNL     1      -7.101   6.739  66.655  1.00  0.00    -0.072 C  
HETATM    6  OXT UNL     1      -8.068   6.515  65.945  1.00  0.00    -0.112 OA 
HETATM    7  O   UNL     1      -5.853   6.270  66.389  1.00  0.00    -0.019 OA 
ENDROOT
BRANCH   2   8
HETATM    8  C   UNL     1      -7.790   8.922  67.694  1.00  0.00    -0.101 C  
BRANCH   8   9
HETATM    9  C   UNL     1      -9.081   9.129  68.486  1.00  0.00    -0.132 C  
BRANCH   9  10
HETATM   10  C   UNL     1      -8.882   8.762  69.955  1.00  0.00    -0.146 C  
BRANCH  10  11
HETATM   11  N   UNL     1      -9.597   9.669  70.826  1.00  0.00    -0.316 N  
HETATM   12  H   UNL     1      -9.067  10.311  71.416  1.00  0.00     0.000 HD 
BRANCH  11  13
HETATM   13  C   UNL     1     -10.958   9.690  70.881  1.00  0.00    -0.342 C  
HETATM   14  N   UNL     1     -11.475  10.878  70.483  1.00  0.00    -0.433 N  
HETATM   15  O   UNL     1     -11.668   8.769  71.255  1.00  0.00    -0.275 OA 
HETATM   16  H1  UNL     1     -12.494  10.894  70.525  1.00  0.00     0.000 HD 
HETATM   17  H2  UNL     1     -10.907  11.669  70.176  1.00  0.00     0.000 HD 
ENDBRANCH  11  13
ENDBRANCH  10  11
ENDBRANCH   9  10
ENDBRANCH   8   9
ENDBRANCH   2   8
TORSDOF 5
ENDMDL
MODEL      291
REMARK 921   NORMALIZED FREE ENERGY PREDICTED BY IDOCK:   -1.08 KCAL/MOL
REMARK 922        TOTAL FREE ENERGY PREDICTED BY IDOCK:   -2.27 KCAL/MOL
REMARK 923 INTER-LIGAND FREE ENERGY PREDICTED BY IDOCK:   -2.10 KCAL/MOL
REMARK 924 INTRA-LIGAND FREE ENERGY PREDICTED BY IDOCK:   -0.16 KCAL/MOL
REMARK 927      BINDING AFFINITY PREDICTED BY RF-SCORE:    0.00 PKD
ROOT
HETATM    1  N   UNL     1      -7.700   9.069  63.028  1.00  0.00    -0.106 NA 
HETATM    2  CA  UNL     1      -7.724   9.179  64.518  1.00  0.00    -0.114 C  
HETATM    3  H1  UNL     1      -6.762   9.190  62.648  1.00  0.00     0.000 HD 
HETATM    4  H2  UNL     1      -8.359   9.720  62.600  1.00  0.00     0.000 HD 
HETATM    5  C   UNL     1      -6.784   8.104  65.098  1.00  0.00    -0.052 C  
HETATM    6  OXT UNL     1      -6.645   7.854  66.284  1.00  0.00    -0.049 OA 
HETATM    7  O   UNL     1      -6.107   7.458  64.112  1.00  0.00    -0.043 OA 
ENDROOT
BRANCH   2   8
HETATM    8  C   UNL     1      -9.133   8.997  65.089  1.00  0.00    -0.203 C  
BRANCH   8   9
HETATM    9  C   UNL     1      -9.560  10.119  66.037  1.00  0.00    -0.265 C  
BRANCH   9  10
HETATM   10  C   UNL     1      -9.945   9.559  67.404  1.00  0.00    -0.189 C  
BRANCH  10  11
HETATM   11  N   UNL     1      -9.891  10.581  68.426  1.00  0.00    -0.156 N  
HETATM   12  H   UNL     1      -9.446  10.367  69.318  1.00  0.00     0.000 HD 
BRANCH  11  13
HETATM   13  C   UNL     1     -10.418  11.821  68.230  1.00  0.00    -0.206 C  
HETATM   14  N   UNL     1      -9.561  12.811  68.583  1.00  0.00    -0.412 N  
HETATM   15  O   UNL     1     -11.537  12.059  67.802  1.00  0.00    -0.310 OA 
HETATM   16  H1  UNL     1      -9.955  13.740  68.437  1.00  0.00     0.000 HD 
HETATM   17  H2  UNL     1      -8.624  12.644  68.953  1.00  0.00     0.000 HD 
ENDBRANCH  11  13
ENDBRANCH  10  11
ENDBRANCH   9  10
ENDBRANCH   8   9
ENDBRANCH   2   8
TORSDOF 5
ENDMDL
MODEL      292
REMARK 921   NORMALIZED FREE ENERGY PREDICTED BY IDOCK:   -1.07 KCAL/MOL
REMARK 922        TOTAL FREE ENERGY PREDICTED BY IDOCK:   -2.25 KCAL/MOL
REMARK 923 INTER-LIGAND FREE ENERGY PREDICTED BY IDOCK:   -1.99 KCAL/MOL
REMARK 924 INTRA-LIGAND FREE ENERGY PREDICTED BY IDOCK:   -0.26 KCAL/MOL
REMARK 927      BINDING AFFINITY PREDICTED BY RF-SCORE:    0.00 PKD
ROOT
HETATM    1  N   UNL     1      -6.276   8.730  65.446  1.00  0.00    -0.058 NA 
HETATM    2  CA  UNL     1      -7.231   8.806  64.301  1.00  0.00    -0.091 C  
HETATM    3  H1  UNL     1      -5.869   9.638  65.669  1.00  0.00     0.000 HD 
HETATM    4  H2  UNL     1      -5.551   8.033  65.276  1.00  0.00     0.000 HD 
HETATM    5  C   UNL     1      -8.349   9.801  64.666  1.00  0.00    -0.162 C  
HETATM    6  OXT UNL     1      -9.343  10.025  63.995  1.00  0.00    -0.263 OA 
HETATM    7  O   UNL     1      -8.089  10.421  65.848  1.00  0.00    -0.137 OA 
ENDROOT
BRANCH   2   8
HETATM    8  C   UNL     1      -7.842   7.442  63.966  1.00  0.00    -0.120 C  
BRANCH   8   9
HETATM    9  C   UNL     1      -7.685   6.409  65.084  1.00  0.00    -0.100 C  
BRANCH   9  10
HETATM   10  C   UNL     1      -8.938   6.357  65.955  1.00  0.00    -0.130 C  
BRANCH  10  11
HETATM   11  N   UNL     1      -9.186   5.018  66.442  1.00  0.00    -0.133 N  
HETATM   12  H   UNL     1      -8.753   4.721  67.316  1.00  0.00     0.000 HD 
BRANCH  11  13
HETATM   13  C   UNL     1      -9.981   4.144  65.766  1.00  0.00    -0.190 C  
HETATM   14  N   UNL     1      -9.482   2.883  65.766  1.00  0.00    -0.356 N  
HETATM   15  O   UNL     1     -11.025   4.425  65.198  1.00  0.00    -0.251 OA 
HETATM   16  H1  UNL     1     -10.077   2.228  65.259  1.00  0.00     0.000 HD 
HETATM   17  H2  UNL     1      -8.608   2.619  66.222  1.00  0.00     0.000 HD 
ENDBRANCH  11  13
ENDBRANCH  10  11
ENDBRANCH   9  10
ENDBRANCH   8   9
ENDBRANCH   2   8
TORSDOF 5
ENDMDL
MODEL      293
REMARK 921   NORMALIZED FREE ENERGY PREDICTED BY IDOCK:    1.38 KCAL/MOL
REMARK 922        TOTAL FREE ENERGY PREDICTED BY IDOCK:    0.91 KCAL/MOL
REMARK 923 INTER-LIGAND FREE ENERGY PREDICTED BY IDOCK:    0.66 KCAL/MOL
REMARK 924 INTRA-LIGAND FREE ENERGY PREDICTED BY IDOCK:    0.25 KCAL/MOL
REMARK 927      BINDING AFFINITY PREDICTED BY RF-SCORE:    0.00 PKD
ROOT
HETATM    1  N   UNL     1      -7.620  19.919  71.949  1.00  0.00     1.455 NA 
HETATM    2  CA  UNL     1      -7.265  19.439  70.580  1.00  0.00     0.874 C  
HETATM    3  H1  UNL     1      -7.093  19.435  72.676  1.00  0.00     0.000 HD 
HETATM    4  H2  UNL     1      -8.625  19.851  72.115  1.00  0.00     0.000 HD 
HETATM    5  C   UNL     1      -5.756  19.662  70.364  1.00  0.00    -0.259 C  
HETATM    6  OXT UNL     1      -5.157  19.471  69.318  1.00  0.00    -0.179 OA 
HETATM    7  O   UNL     1      -5.155  20.100  71.502  1.00  0.00    -0.278 OA 
ENDROOT
BRANCH   2   8
HETATM    8  C   UNL     1      -8.058  20.166  69.489  1.00  0.00     0.571 C  
BRANCH   8   9
HETATM    9  C   UNL     1      -7.924  19.526  68.106  1.00  0.00    -0.353 C  
BRANCH   9  10
HETATM   10  C   UNL     1      -9.280  19.045  67.596  1.00  0.00    -0.294 C  
BRANCH  10  11
HETATM   11  N   UNL     1      -9.413  17.610  67.726  1.00  0.00    -0.257 N  
HETATM   12  H   UNL     1     -10.326  17.181  67.575  1.00  0.00     0.000 HD 
BRANCH  11  13
HETATM   13  C   UNL     1      -8.354  16.816  68.045  1.00  0.00    -0.200 C  
HETATM   14  N   UNL     1      -7.613  16.479  66.961  1.00  0.00    -0.182 N  
HETATM   15  O   UNL     1      -8.075  16.419  69.166  1.00  0.00    -0.242 OA 
HETATM   16  H1  UNL     1      -6.820  15.884  67.199  1.00  0.00     0.000 HD 
HETATM   17  H2  UNL     1      -7.827  16.786  66.011  1.00  0.00     0.000 HD 
ENDBRANCH  11  13
ENDBRANCH  10  11
ENDBRANCH   9  10
ENDBRANCH   8   9
ENDBRANCH   2   8
TORSDOF 5
ENDMDL
