MODEL        1
REMARK 921   NORMALIZED FREE ENERGY PREDICTED BY IDOCK:   -7.32 KCAL/MOL
REMARK 922        TOTAL FREE ENERGY PREDICTED BY IDOCK:   -8.52 KCAL/MOL
REMARK 923 INTER-LIGAND FREE ENERGY PREDICTED BY IDOCK:   -8.17 KCAL/MOL
REMARK 924 INTRA-LIGAND FREE ENERGY PREDICTED BY IDOCK:   -0.34 KCAL/MOL
REMARK 927      BINDING AFFINITY PREDICTED BY RF-SCORE:    0.00 PKD
ROOT
HETATM    1  N   UNL     1     -13.662  14.064  72.763  1.00  0.00    -0.691 NA 
HETATM    2  C   UNL     1     -13.058  13.472  71.664  1.00  0.00    -0.374 A  
HETATM    3  H1  UNL     1     -14.022  13.531  73.554  1.00  0.00     0.000 HD 
HETATM    4  H2  UNL     1     -14.424  14.646  72.415  1.00  0.00     0.000 HD 
HETATM    5  C   UNL     1     -12.561  14.208  70.572  1.00  0.00    -0.342 A  
HETATM    6  N   UNL     1     -12.550  15.556  70.290  1.00  0.00    -0.381 NA 
HETATM    7  C   UNL     1     -11.924  15.651  69.135  1.00  0.00    -0.310 A  
HETATM    8  N   UNL     1     -11.564  14.426  68.640  1.00  0.00    -0.296 NA 
HETATM    9  C   UNL     1     -11.962  13.486  69.552  1.00  0.00    -0.334 A  
HETATM   10  N   UNL     1     -12.949  12.126  71.640  1.00  0.00    -0.378 NA 
HETATM   11  N   UNL     1     -11.810  12.154  69.485  1.00  0.00    -0.322 NA 
HETATM   12 CL   UNL     1     -12.228   9.858  70.610  1.00  0.00    -0.341 Cl 
HETATM   13  C   UNL     1     -12.338  11.565  70.579  1.00  0.00    -0.342 A  
ENDROOT
BRANCH   8  14
HETATM   14  C1* UNL     1     -10.843  14.151  67.412  1.00  0.00    -0.287 C  
HETATM   15  C2* UNL     1     -11.721  13.656  66.272  1.00  0.00    -0.396 C  
HETATM   16  C4* UNL     1     -10.209  15.334  65.493  1.00  0.00    -0.388 C  
HETATM   17  C3* UNL     1     -10.898  14.036  65.067  1.00  0.00    -0.392 C  
HETATM   18  O3* UNL     1      -9.909  13.022  64.858  1.00  0.00    -0.522 OA 
HETATM   19  O4* UNL     1     -10.215  15.362  66.941  1.00  0.00    -0.263 OA 
HETATM   20  H3* UNL     1      -9.391  13.262  64.098  1.00  0.00     0.000 HD 
BRANCH  16  21
HETATM   21  C5* UNL     1     -10.924  16.591  64.993  1.00  0.00    -0.210 C  
HETATM   22  O5* UNL     1     -11.567  16.357  63.743  1.00  0.00    -1.605 OA 
HETATM   23  H5* UNL     1     -12.011  17.137  63.433  1.00  0.00     0.000 HD 
ENDBRANCH  16  21
ENDBRANCH   8  14
TORSDOF 2
ENDMDL
MODEL        2
REMARK 921   NORMALIZED FREE ENERGY PREDICTED BY IDOCK:   -6.94 KCAL/MOL
REMARK 922        TOTAL FREE ENERGY PREDICTED BY IDOCK:   -8.09 KCAL/MOL
REMARK 923 INTER-LIGAND FREE ENERGY PREDICTED BY IDOCK:   -7.76 KCAL/MOL
REMARK 924 INTRA-LIGAND FREE ENERGY PREDICTED BY IDOCK:   -0.33 KCAL/MOL
REMARK 927      BINDING AFFINITY PREDICTED BY RF-SCORE:    0.00 PKD
ROOT
HETATM    1  N   UNL     1     -11.192   9.765  71.292  1.00  0.00    -0.370 NA 
HETATM    2  C   UNL     1     -11.026   9.785  69.914  1.00  0.00    -0.264 A  
HETATM    3  H1  UNL     1     -10.985   8.946  71.864  1.00  0.00     0.000 HD 
HETATM    4  H2  UNL     1     -12.155  10.039  71.488  1.00  0.00     0.000 HD 
HETATM    5  C   UNL     1     -11.312  10.914  69.125  1.00  0.00    -0.283 A  
HETATM    6  N   UNL     1     -11.801  12.164  69.434  1.00  0.00    -0.313 NA 
HETATM    7  C   UNL     1     -11.832  12.806  68.284  1.00  0.00    -0.312 A  
HETATM    8  N   UNL     1     -11.420  12.018  67.242  1.00  0.00    -0.383 NA 
HETATM    9  C   UNL     1     -11.078  10.800  67.764  1.00  0.00    -0.318 A  
HETATM   10  N   UNL     1     -10.578   8.666  69.306  1.00  0.00    -0.218 NA 
HETATM   11  N   UNL     1     -10.617   9.722  67.109  1.00  0.00    -0.248 NA 
HETATM   12 CL   UNL     1      -9.823   7.260  67.261  1.00  0.00    -0.203 Cl 
HETATM   13  C   UNL     1     -10.397   8.708  67.972  1.00  0.00    -0.223 A  
ENDROOT
BRANCH   8  14
HETATM   14  C1* UNL     1     -11.302  12.397  65.847  1.00  0.00    -0.356 C  
HETATM   15  C2* UNL     1     -12.576  12.976  65.249  1.00  0.00    -0.516 C  
HETATM   16  C4* UNL     1     -10.687  14.303  64.632  1.00  0.00    -0.365 C  
HETATM   17  C3* UNL     1     -12.032  13.795  64.106  1.00  0.00    -0.432 C  
HETATM   18  O3* UNL     1     -11.805  12.923  62.994  1.00  0.00    -0.827 OA 
HETATM   19  O4* UNL     1     -10.292  13.417  65.709  1.00  0.00    -0.282 OA 
HETATM   20  H3* UNL     1     -11.462  13.440  62.274  1.00  0.00     0.000 HD 
BRANCH  16  21
HETATM   21  C5* UNL     1     -10.754  15.726  65.190  1.00  0.00    -0.435 C  
HETATM   22  O5* UNL     1     -11.191  16.650  64.198  1.00  0.00    -1.410 OA 
HETATM   23  H5* UNL     1     -11.233  17.533  64.544  1.00  0.00     0.000 HD 
ENDBRANCH  16  21
ENDBRANCH   8  14
TORSDOF 2
ENDMDL
MODEL        3
REMARK 921   NORMALIZED FREE ENERGY PREDICTED BY IDOCK:   -6.93 KCAL/MOL
REMARK 922        TOTAL FREE ENERGY PREDICTED BY IDOCK:   -8.08 KCAL/MOL
REMARK 923 INTER-LIGAND FREE ENERGY PREDICTED BY IDOCK:   -7.76 KCAL/MOL
REMARK 924 INTRA-LIGAND FREE ENERGY PREDICTED BY IDOCK:   -0.32 KCAL/MOL
REMARK 927      BINDING AFFINITY PREDICTED BY RF-SCORE:    0.00 PKD
ROOT
HETATM    1  N   UNL     1     -13.253  10.582  72.211  1.00  0.00    -0.577 NA 
HETATM    2  C   UNL     1     -13.028  11.801  71.587  1.00  0.00    -0.362 A  
HETATM    3  H1  UNL     1     -13.714  10.500  73.117  1.00  0.00     0.000 HD 
HETATM    4  H2  UNL     1     -12.355  10.105  72.281  1.00  0.00     0.000 HD 
HETATM    5  C   UNL     1     -12.392  11.915  70.337  1.00  0.00    -0.251 A  
HETATM    6  N   UNL     1     -11.849  10.981  69.482  1.00  0.00    -0.307 NA 
HETATM    7  C   UNL     1     -11.419  11.680  68.451  1.00  0.00    -0.297 A  
HETATM    8  N   UNL     1     -11.626  13.024  68.616  1.00  0.00    -0.296 NA 
HETATM    9  C   UNL     1     -12.253  13.194  69.821  1.00  0.00    -0.202 A  
HETATM   10  N   UNL     1     -13.433  12.927  72.213  1.00  0.00    -0.576 NA 
HETATM   11  N   UNL     1     -12.652  14.343  70.388  1.00  0.00    -0.348 NA 
HETATM   12 CL   UNL     1     -13.769  15.489  72.426  1.00  0.00    -0.610 Cl 
HETATM   13  C   UNL     1     -13.231  14.100  71.583  1.00  0.00    -0.353 A  
ENDROOT
BRANCH   8  14
HETATM   14  C1* UNL     1     -11.304  14.084  67.680  1.00  0.00    -0.312 C  
HETATM   15  C2* UNL     1     -10.013  13.861  66.906  1.00  0.00    -0.264 C  
HETATM   16  C4* UNL     1     -11.752  14.588  65.438  1.00  0.00    -0.354 C  
HETATM   17  C3* UNL     1     -10.245  14.704  65.677  1.00  0.00    -0.359 C  
HETATM   18  O3* UNL     1      -9.920  16.062  65.994  1.00  0.00    -0.294 OA 
HETATM   19  O4* UNL     1     -12.352  14.191  66.695  1.00  0.00    -0.455 OA 
HETATM   20  H3* UNL     1     -10.066  16.593  65.220  1.00  0.00     0.000 HD 
BRANCH  16  21
HETATM   21  C5* UNL     1     -12.119  13.538  64.386  1.00  0.00    -0.420 C  
HETATM   22  O5* UNL     1     -12.486  14.149  63.153  1.00  0.00    -1.126 OA 
HETATM   23  H5* UNL     1     -12.714  13.498  62.500  1.00  0.00     0.000 HD 
ENDBRANCH  16  21
ENDBRANCH   8  14
TORSDOF 2
ENDMDL
MODEL        4
REMARK 921   NORMALIZED FREE ENERGY PREDICTED BY IDOCK:   -6.91 KCAL/MOL
REMARK 922        TOTAL FREE ENERGY PREDICTED BY IDOCK:   -8.06 KCAL/MOL
REMARK 923 INTER-LIGAND FREE ENERGY PREDICTED BY IDOCK:   -7.74 KCAL/MOL
REMARK 924 INTRA-LIGAND FREE ENERGY PREDICTED BY IDOCK:   -0.33 KCAL/MOL
REMARK 927      BINDING AFFINITY PREDICTED BY RF-SCORE:    0.00 PKD
ROOT
HETATM    1  N   UNL     1     -11.399  15.713  68.399  1.00  0.00    -0.349 NA 
HETATM    2  C   UNL     1     -11.916  15.004  69.475  1.00  0.00    -0.313 A  
HETATM    3  H1  UNL     1     -11.430  16.730  68.338  1.00  0.00     0.000 HD 
HETATM    4  H2  UNL     1     -11.835  15.343  67.554  1.00  0.00     0.000 HD 
HETATM    5  C   UNL     1     -11.874  13.601  69.559  1.00  0.00    -0.337 A  
HETATM    6  N   UNL     1     -11.397  12.633  68.702  1.00  0.00    -0.268 NA 
HETATM    7  C   UNL     1     -11.608  11.495  69.331  1.00  0.00    -0.321 A  
HETATM    8  N   UNL     1     -12.232  11.679  70.537  1.00  0.00    -0.369 NA 
HETATM    9  C   UNL     1     -12.407  13.027  70.702  1.00  0.00    -0.310 A  
HETATM   10  N   UNL     1     -12.490  15.697  70.482  1.00  0.00    -0.419 NA 
HETATM   11  N   UNL     1     -12.971  13.665  71.740  1.00  0.00    -0.354 NA 
HETATM   12 CL   UNL     1     -13.674  15.933  72.777  1.00  0.00    -0.632 Cl 
HETATM   13  C   UNL     1     -12.963  14.998  71.532  1.00  0.00    -0.358 A  
ENDROOT
BRANCH   8  14
HETATM   14  C1* UNL     1     -12.596  10.661  71.504  1.00  0.00    -0.412 C  
HETATM   15  C2* UNL     1     -13.773   9.794  71.082  1.00  0.00    -0.144 C  
HETATM   16  C4* UNL     1     -12.011   8.439  71.957  1.00  0.00    -0.357 C  
HETATM   17  C3* UNL     1     -13.537   8.544  71.890  1.00  0.00    -0.396 C  
HETATM   18  O3* UNL     1     -14.054   8.754  73.209  1.00  0.00    -1.180 OA 
HETATM   19  O4* UNL     1     -11.483   9.763  71.699  1.00  0.00    -0.364 OA 
HETATM   20  H3* UNL     1     -13.905   7.966  73.718  1.00  0.00     0.000 HD 
BRANCH  16  21
HETATM   21  C5* UNL     1     -11.424   7.484  70.916  1.00  0.00    -0.281 C  
HETATM   22  O5* UNL     1     -12.452   6.807  70.199  1.00  0.00    -0.572 OA 
HETATM   23  H5* UNL     1     -12.088   6.214  69.553  1.00  0.00     0.000 HD 
ENDBRANCH  16  21
ENDBRANCH   8  14
TORSDOF 2
ENDMDL
MODEL        5
REMARK 921   NORMALIZED FREE ENERGY PREDICTED BY IDOCK:   -6.70 KCAL/MOL
REMARK 922        TOTAL FREE ENERGY PREDICTED BY IDOCK:   -7.83 KCAL/MOL
REMARK 923 INTER-LIGAND FREE ENERGY PREDICTED BY IDOCK:   -7.36 KCAL/MOL
REMARK 924 INTRA-LIGAND FREE ENERGY PREDICTED BY IDOCK:   -0.47 KCAL/MOL
REMARK 927      BINDING AFFINITY PREDICTED BY RF-SCORE:    0.00 PKD
ROOT
HETATM    1  N   UNL     1     -11.780  16.539  63.890  1.00  0.00    -1.484 NA 
HETATM    2  C   UNL     1     -11.741  15.293  64.498  1.00  0.00    -0.305 A  
HETATM    3  H1  UNL     1     -12.177  16.692  62.963  1.00  0.00     0.000 HD 
HETATM    4  H2  UNL     1     -10.827  16.903  63.878  1.00  0.00     0.000 HD 
HETATM    5  C   UNL     1     -11.193  15.082  65.777  1.00  0.00    -0.318 A  
HETATM    6  N   UNL     1     -10.588  15.928  66.680  1.00  0.00    -0.316 NA 
HETATM    7  C   UNL     1     -10.304  15.167  67.716  1.00  0.00    -0.243 A  
HETATM    8  N   UNL     1     -10.665  13.861  67.511  1.00  0.00    -0.265 NA 
HETATM    9  C   UNL     1     -11.241  13.788  66.272  1.00  0.00    -0.306 A  
HETATM   10  N   UNL     1     -12.246  14.236  63.827  1.00  0.00    -0.651 NA 
HETATM   11  N   UNL     1     -11.746  12.706  65.659  1.00  0.00    -0.390 NA 
HETATM   12 CL   UNL     1     -12.882  11.738  63.541  1.00  0.00    -0.531 Cl 
HETATM   13  C   UNL     1     -12.224  13.037  64.440  1.00  0.00    -0.406 A  
ENDROOT
BRANCH   8  14
HETATM   14  C1* UNL     1     -10.527  12.755  68.439  1.00  0.00    -0.243 C  
HETATM   15  C2* UNL     1     -11.834  12.044  68.759  1.00  0.00    -0.358 C  
HETATM   16  C4* UNL     1     -10.106  10.454  68.316  1.00  0.00    -0.153 C  
HETATM   17  C3* UNL     1     -11.344  10.683  69.186  1.00  0.00    -0.273 C  
HETATM   18  O3* UNL     1     -10.950  10.756  70.560  1.00  0.00    -0.443 OA 
HETATM   19  O4* UNL     1      -9.653  11.757  67.872  1.00  0.00    -0.175 OA 
HETATM   20  H3* UNL     1     -10.641   9.899  70.829  1.00  0.00     0.000 HD 
BRANCH  16  21
HETATM   21  C5* UNL     1     -10.386   9.603  67.076  1.00  0.00    -0.248 C  
HETATM   22  O5* UNL     1     -10.133  10.334  65.879  1.00  0.00    -0.246 OA 
HETATM   23  H5* UNL     1     -10.308   9.806  65.110  1.00  0.00     0.000 HD 
ENDBRANCH  16  21
ENDBRANCH   8  14
TORSDOF 2
ENDMDL
MODEL        6
REMARK 921   NORMALIZED FREE ENERGY PREDICTED BY IDOCK:   -6.65 KCAL/MOL
REMARK 922        TOTAL FREE ENERGY PREDICTED BY IDOCK:   -7.77 KCAL/MOL
REMARK 923 INTER-LIGAND FREE ENERGY PREDICTED BY IDOCK:   -7.41 KCAL/MOL
REMARK 924 INTRA-LIGAND FREE ENERGY PREDICTED BY IDOCK:   -0.36 KCAL/MOL
REMARK 927      BINDING AFFINITY PREDICTED BY RF-SCORE:    0.00 PKD
ROOT
HETATM    1  N   UNL     1      -9.487  16.695  65.673  1.00  0.00    -0.497 NA 
HETATM    2  C   UNL     1     -10.430  15.874  66.273  1.00  0.00    -0.318 A  
HETATM    3  H1  UNL     1      -9.254  16.641  64.681  1.00  0.00     0.000 HD 
HETATM    4  H2  UNL     1      -8.617  16.595  66.196  1.00  0.00     0.000 HD 
HETATM    5  C   UNL     1     -10.751  15.948  67.641  1.00  0.00    -0.312 A  
HETATM    6  N   UNL     1     -10.272  16.734  68.667  1.00  0.00    -0.278 NA 
HETATM    7  C   UNL     1     -10.972  16.371  69.722  1.00  0.00    -0.341 A  
HETATM    8  N   UNL     1     -11.854  15.364  69.435  1.00  0.00    -0.341 NA 
HETATM    9  C   UNL     1     -11.729  15.081  68.101  1.00  0.00    -0.312 A  
HETATM   10  N   UNL     1     -11.062  14.958  65.508  1.00  0.00    -0.340 NA 
HETATM   11  N   UNL     1     -12.402  14.166  67.385  1.00  0.00    -0.227 NA 
HETATM   12 CL   UNL     1     -12.761  13.047  65.076  1.00  0.00    -0.523 Cl 
HETATM   13  C   UNL     1     -11.993  14.184  66.099  1.00  0.00    -0.422 A  
ENDROOT
BRANCH   8  14
HETATM   14  C1* UNL     1     -12.797  14.736  70.341  1.00  0.00    -0.274 C  
HETATM   15  C2* UNL     1     -12.164  13.761  71.322  1.00  0.00    -0.314 C  
HETATM   16  C4* UNL     1     -13.712  15.190  72.449  1.00  0.00    -0.496 C  
HETATM   17  C3* UNL     1     -13.172  13.758  72.443  1.00  0.00    -0.481 C  
HETATM   18  O3* UNL     1     -14.229  12.856  72.097  1.00  0.00    -0.167 OA 
HETATM   19  O4* UNL     1     -13.444  15.750  71.140  1.00  0.00    -0.575 OA 
HETATM   20  H3* UNL     1     -14.864  12.854  72.803  1.00  0.00     0.000 HD 
BRANCH  16  21
HETATM   21  C5* UNL     1     -13.042  16.085  73.493  1.00  0.00    -0.559 C  
HETATM   22  O5* UNL     1     -12.296  15.315  74.431  1.00  0.00    -0.633 OA 
HETATM   23  H5* UNL     1     -11.880  15.870  75.079  1.00  0.00     0.000 HD 
ENDBRANCH  16  21
ENDBRANCH   8  14
TORSDOF 2
ENDMDL
MODEL        7
REMARK 921   NORMALIZED FREE ENERGY PREDICTED BY IDOCK:   -6.62 KCAL/MOL
REMARK 922        TOTAL FREE ENERGY PREDICTED BY IDOCK:   -7.74 KCAL/MOL
REMARK 923 INTER-LIGAND FREE ENERGY PREDICTED BY IDOCK:   -7.38 KCAL/MOL
REMARK 924 INTRA-LIGAND FREE ENERGY PREDICTED BY IDOCK:   -0.36 KCAL/MOL
REMARK 927      BINDING AFFINITY PREDICTED BY RF-SCORE:    0.00 PKD
ROOT
HETATM    1  N   UNL     1     -11.754  16.399  63.746  1.00  0.00    -1.498 NA 
HETATM    2  C   UNL     1     -11.069  15.823  64.807  1.00  0.00    -0.400 A  
HETATM    3  H1  UNL     1     -11.531  17.323  63.377  1.00  0.00     0.000 HD 
HETATM    4  H2  UNL     1     -12.745  16.397  63.986  1.00  0.00     0.000 HD 
HETATM    5  C   UNL     1     -11.376  14.548  65.316  1.00  0.00    -0.353 A  
HETATM    6  N   UNL     1     -12.338  13.620  64.979  1.00  0.00    -0.446 NA 
HETATM    7  C   UNL     1     -12.120  12.604  65.788  1.00  0.00    -0.423 A  
HETATM    8  N   UNL     1     -11.087  12.845  66.655  1.00  0.00    -0.276 NA 
HETATM    9  C   UNL     1     -10.595  14.089  66.364  1.00  0.00    -0.280 A  
HETATM   10  N   UNL     1     -10.067  16.525  65.379  1.00  0.00    -0.585 NA 
HETATM   11  N   UNL     1      -9.578  14.733  66.958  1.00  0.00    -0.233 NA 
HETATM   12 CL   UNL     1      -8.134  16.882  67.071  1.00  0.00    -0.211 Cl 
HETATM   13  C   UNL     1      -9.394  15.944  66.391  1.00  0.00    -0.297 A  
ENDROOT
BRANCH   8  14
HETATM   14  C1* UNL     1     -10.557  11.946  67.662  1.00  0.00    -0.211 C  
HETATM   15  C2* UNL     1     -11.621  11.210  68.462  1.00  0.00    -0.385 C  
HETATM   16  C4* UNL     1      -9.895   9.703  67.783  1.00  0.00    -0.159 C  
HETATM   17  C3* UNL     1     -10.862   9.995  68.933  1.00  0.00    -0.220 C  
HETATM   18  O3* UNL     1     -10.113  10.355  70.099  1.00  0.00    -0.425 OA 
HETATM   19  O4* UNL     1      -9.755  10.930  67.026  1.00  0.00    -0.172 OA 
HETATM   20  H3* UNL     1      -9.635   9.589  70.396  1.00  0.00     0.000 HD 
BRANCH  16  21
HETATM   21  C5* UNL     1     -10.398   8.615  66.832  1.00  0.00    -0.285 C  
HETATM   22  O5* UNL     1     -11.144   7.622  67.530  1.00  0.00    -0.527 OA 
HETATM   23  H5* UNL     1     -11.456   6.947  66.940  1.00  0.00     0.000 HD 
ENDBRANCH  16  21
ENDBRANCH   8  14
TORSDOF 2
ENDMDL
MODEL        8
REMARK 921   NORMALIZED FREE ENERGY PREDICTED BY IDOCK:   -6.59 KCAL/MOL
REMARK 922        TOTAL FREE ENERGY PREDICTED BY IDOCK:   -7.70 KCAL/MOL
REMARK 923 INTER-LIGAND FREE ENERGY PREDICTED BY IDOCK:   -7.28 KCAL/MOL
REMARK 924 INTRA-LIGAND FREE ENERGY PREDICTED BY IDOCK:   -0.42 KCAL/MOL
REMARK 927      BINDING AFFINITY PREDICTED BY RF-SCORE:    0.00 PKD
ROOT
HETATM    1  N   UNL     1      -9.713  20.097  66.156  1.00  0.00    -0.595 NA 
HETATM    2  C   UNL     1      -9.492  18.784  66.548  1.00  0.00    -0.338 A  
HETATM    3  H1  UNL     1      -9.262  20.894  66.606  1.00  0.00     0.000 HD 
HETATM    4  H2  UNL     1     -10.720  20.259  66.187  1.00  0.00     0.000 HD 
HETATM    5  C   UNL     1     -10.114  17.685  65.928  1.00  0.00    -0.181 A  
HETATM    6  N   UNL     1     -11.028  17.592  64.902  1.00  0.00    -0.827 NA 
HETATM    7  C   UNL     1     -11.222  16.299  64.741  1.00  0.00    -0.259 A  
HETATM    8  N   UNL     1     -10.503  15.554  65.638  1.00  0.00    -0.347 NA 
HETATM    9  C   UNL     1      -9.782  16.427  66.407  1.00  0.00    -0.287 A  
HETATM   10  N   UNL     1      -8.645  18.555  67.574  1.00  0.00    -0.260 NA 
HETATM   11  N   UNL     1      -8.936  16.140  67.409  1.00  0.00    -0.189 NA 
HETATM   12 CL   UNL     1      -7.334  17.050  69.231  1.00  0.00    -0.181 Cl 
HETATM   13  C   UNL     1      -8.420  17.275  67.926  1.00  0.00    -0.218 A  
ENDROOT
BRANCH   8  14
HETATM   14  C1* UNL     1     -10.452  14.108  65.738  1.00  0.00    -0.311 C  
HETATM   15  C2* UNL     1     -11.622  13.494  66.492  1.00  0.00    -0.391 C  
HETATM   16  C4* UNL     1     -11.191  12.274  64.484  1.00  0.00    -0.326 C  
HETATM   17  C3* UNL     1     -11.643  12.093  65.935  1.00  0.00    -0.364 C  
HETATM   18  O3* UNL     1     -10.670  11.313  66.638  1.00  0.00    -0.252 OA 
HETATM   19  O4* UNL     1     -10.478  13.533  64.415  1.00  0.00    -0.430 OA 
HETATM   20  H3* UNL     1     -10.683  10.430  66.287  1.00  0.00     0.000 HD 
BRANCH  16  21
HETATM   21  C5* UNL     1     -12.355  12.335  63.492  1.00  0.00    -0.565 C  
HETATM   22  O5* UNL     1     -12.487  13.638  62.930  1.00  0.00    -0.960 OA 
HETATM   23  H5* UNL     1     -13.209  13.676  62.315  1.00  0.00     0.000 HD 
ENDBRANCH  16  21
ENDBRANCH   8  14
TORSDOF 2
ENDMDL
MODEL        9
REMARK 921   NORMALIZED FREE ENERGY PREDICTED BY IDOCK:   -6.56 KCAL/MOL
REMARK 922        TOTAL FREE ENERGY PREDICTED BY IDOCK:   -7.67 KCAL/MOL
REMARK 923 INTER-LIGAND FREE ENERGY PREDICTED BY IDOCK:   -7.33 KCAL/MOL
REMARK 924 INTRA-LIGAND FREE ENERGY PREDICTED BY IDOCK:   -0.33 KCAL/MOL
REMARK 927      BINDING AFFINITY PREDICTED BY RF-SCORE:    0.00 PKD
ROOT
HETATM    1  N   UNL     1     -13.045  12.373  64.337  1.00  0.00    -0.811 NA 
HETATM    2  C   UNL     1     -12.334  12.877  65.417  1.00  0.00    -0.485 A  
HETATM    3  H1  UNL     1     -13.479  11.450  64.340  1.00  0.00     0.000 HD 
HETATM    4  H2  UNL     1     -12.435  12.421  63.521  1.00  0.00     0.000 HD 
HETATM    5  C   UNL     1     -11.735  14.150  65.413  1.00  0.00    -0.347 A  
HETATM    6  N   UNL     1     -11.660  15.139  64.456  1.00  0.00    -0.374 NA 
HETATM    7  C   UNL     1     -10.994  16.116  65.035  1.00  0.00    -0.344 A  
HETATM    8  N   UNL     1     -10.604  15.793  66.308  1.00  0.00    -0.311 NA 
HETATM    9  C   UNL     1     -11.075  14.534  66.569  1.00  0.00    -0.332 A  
HETATM   10  N   UNL     1     -12.207  12.105  66.518  1.00  0.00    -0.469 NA 
HETATM   11  N   UNL     1     -10.934  13.818  67.696  1.00  0.00    -0.260 NA 
HETATM   12 CL   UNL     1     -11.414  11.592  68.933  1.00  0.00    -0.313 Cl 
HETATM   13  C   UNL     1     -11.537  12.617  67.567  1.00  0.00    -0.359 A  
ENDROOT
BRANCH   8  14
HETATM   14  C1* UNL     1      -9.880  16.630  67.245  1.00  0.00    -0.255 C  
HETATM   15  C2* UNL     1      -8.590  17.215  66.690  1.00  0.00    -0.284 C  
HETATM   16  C4* UNL     1      -9.837  18.893  67.847  1.00  0.00    -0.345 C  
HETATM   17  C3* UNL     1      -8.406  18.430  67.562  1.00  0.00    -0.252 C  
HETATM   18  O3* UNL     1      -7.790  18.018  68.787  1.00  0.00    -0.301 OA 
HETATM   19  O4* UNL     1     -10.703  17.753  67.623  1.00  0.00    -0.386 OA 
HETATM   20  H3* UNL     1      -7.674  18.783  69.337  1.00  0.00     0.000 HD 
BRANCH  16  21
HETATM   21  C5* UNL     1     -10.300  20.026  66.929  1.00  0.00    -0.436 C  
HETATM   22  O5* UNL     1      -9.421  21.145  67.006  1.00  0.00    -0.668 OA 
HETATM   23  H5* UNL     1      -9.709  21.848  66.437  1.00  0.00     0.000 HD 
ENDBRANCH  16  21
ENDBRANCH   8  14
TORSDOF 2
ENDMDL
MODEL       10
REMARK 921   NORMALIZED FREE ENERGY PREDICTED BY IDOCK:   -6.55 KCAL/MOL
REMARK 922        TOTAL FREE ENERGY PREDICTED BY IDOCK:   -7.65 KCAL/MOL
REMARK 923 INTER-LIGAND FREE ENERGY PREDICTED BY IDOCK:   -7.62 KCAL/MOL
REMARK 924 INTRA-LIGAND FREE ENERGY PREDICTED BY IDOCK:   -0.03 KCAL/MOL
REMARK 927      BINDING AFFINITY PREDICTED BY RF-SCORE:    0.00 PKD
ROOT
HETATM    1  N   UNL     1     -12.020  10.714  71.365  1.00  0.00    -0.248 NA 
HETATM    2  C   UNL     1     -12.038  11.693  70.382  1.00  0.00    -0.373 A  
HETATM    3  H1  UNL     1     -12.194  10.913  72.350  1.00  0.00     0.000 HD 
HETATM    4  H2  UNL     1     -11.120  10.238  71.305  1.00  0.00     0.000 HD 
HETATM    5  C   UNL     1     -11.797  11.418  69.023  1.00  0.00    -0.348 A  
HETATM    6  N   UNL     1     -11.485  10.257  68.351  1.00  0.00    -0.210 NA 
HETATM    7  C   UNL     1     -11.403  10.613  67.086  1.00  0.00     0.036 A  
HETATM    8  N   UNL     1     -11.612  11.956  66.912  1.00  0.00    -0.534 NA 
HETATM    9  C   UNL     1     -11.870  12.489  68.146  1.00  0.00    -0.317 A  
HETATM   10  N   UNL     1     -12.293  12.967  70.750  1.00  0.00    -0.360 NA 
HETATM   11  N   UNL     1     -12.137  13.769  68.452  1.00  0.00    -0.353 NA 
HETATM   12 CL   UNL     1     -12.664  15.496  70.311  1.00  0.00    -0.382 Cl 
HETATM   13  C   UNL     1     -12.333  13.902  69.781  1.00  0.00    -0.275 A  
ENDROOT
BRANCH   8  14
HETATM   14  C1* UNL     1     -11.621  12.690  65.662  1.00  0.00    -0.377 C  
HETATM   15  C2* UNL     1     -12.772  13.676  65.527  1.00  0.00    -0.514 C  
HETATM   16  C4* UNL     1     -10.720  14.689  64.839  1.00  0.00    -0.427 C  
HETATM   17  C3* UNL     1     -12.218  14.657  64.525  1.00  0.00    -0.456 C  
HETATM   18  O3* UNL     1     -12.413  14.119  63.212  1.00  0.00    -1.146 OA 
HETATM   19  O4* UNL     1     -10.410  13.466  65.550  1.00  0.00    -0.283 OA 
HETATM   20  H3* UNL     1     -12.064  14.737  62.581  1.00  0.00     0.000 HD 
BRANCH  16  21
HETATM   21  C5* UNL     1     -10.314  15.868  65.726  1.00  0.00    -0.376 C  
HETATM   22  O5* UNL     1     -10.747  17.106  65.170  1.00  0.00    -0.680 OA 
HETATM   23  H5* UNL     1     -10.494  17.838  65.720  1.00  0.00     0.000 HD 
ENDBRANCH  16  21
ENDBRANCH   8  14
TORSDOF 2
ENDMDL
MODEL       11
REMARK 921   NORMALIZED FREE ENERGY PREDICTED BY IDOCK:   -6.49 KCAL/MOL
REMARK 922        TOTAL FREE ENERGY PREDICTED BY IDOCK:   -7.60 KCAL/MOL
REMARK 923 INTER-LIGAND FREE ENERGY PREDICTED BY IDOCK:   -7.15 KCAL/MOL
REMARK 924 INTRA-LIGAND FREE ENERGY PREDICTED BY IDOCK:   -0.45 KCAL/MOL
REMARK 927      BINDING AFFINITY PREDICTED BY RF-SCORE:    0.00 PKD
ROOT
HETATM    1  N   UNL     1     -11.420  16.746  63.974  1.00  0.00    -1.396 NA 
HETATM    2  C   UNL     1     -10.933  15.682  64.720  1.00  0.00    -0.400 A  
HETATM    3  H1  UNL     1     -11.003  17.676  63.995  1.00  0.00     0.000 HD 
HETATM    4  H2  UNL     1     -12.409  16.851  64.202  1.00  0.00     0.000 HD 
HETATM    5  C   UNL     1     -11.510  14.399  64.692  1.00  0.00    -0.387 A  
HETATM    6  N   UNL     1     -12.602  13.886  64.026  1.00  0.00    -0.685 NA 
HETATM    7  C   UNL     1     -12.637  12.615  64.370  1.00  0.00    -0.387 A  
HETATM    8  N   UNL     1     -11.642  12.291  65.254  1.00  0.00    -0.354 NA 
HETATM    9  C   UNL     1     -10.905  13.425  65.470  1.00  0.00    -0.289 A  
HETATM   10  N   UNL     1      -9.861  15.893  65.513  1.00  0.00    -0.417 NA 
HETATM   11  N   UNL     1      -9.830  13.572  66.261  1.00  0.00    -0.295 NA 
HETATM   12 CL   UNL     1      -8.021  15.175  67.194  1.00  0.00    -0.237 Cl 
HETATM   13  C   UNL     1      -9.383  14.845  66.212  1.00  0.00    -0.296 A  
ENDROOT
BRANCH   8  14
HETATM   14  C1* UNL     1     -11.363  10.987  65.825  1.00  0.00     0.303 C  
HETATM   15  C2* UNL     1      -9.932  10.511  65.620  1.00  0.00    -0.332 C  
HETATM   16  C4* UNL     1     -10.621  10.136  67.877  1.00  0.00    -0.249 C  
HETATM   17  C3* UNL     1      -9.770   9.533  66.756  1.00  0.00    -0.197 C  
HETATM   18  O3* UNL     1     -10.335   8.280  66.357  1.00  0.00    -0.440 OA 
HETATM   19  O4* UNL     1     -11.573  11.032  67.252  1.00  0.00    -0.496 OA 
HETATM   20  H3* UNL     1     -10.233   7.664  67.073  1.00  0.00     0.000 HD 
BRANCH  16  21
HETATM   21  C5* UNL     1      -9.804  10.944  68.888  1.00  0.00    -0.192 C  
HETATM   22  O5* UNL     1     -10.299  12.275  69.006  1.00  0.00    -0.405 OA 
HETATM   23  H5* UNL     1      -9.792  12.776  69.633  1.00  0.00     0.000 HD 
ENDBRANCH  16  21
ENDBRANCH   8  14
TORSDOF 2
ENDMDL
MODEL       12
REMARK 921   NORMALIZED FREE ENERGY PREDICTED BY IDOCK:   -6.48 KCAL/MOL
REMARK 922        TOTAL FREE ENERGY PREDICTED BY IDOCK:   -7.58 KCAL/MOL
REMARK 923 INTER-LIGAND FREE ENERGY PREDICTED BY IDOCK:   -7.21 KCAL/MOL
REMARK 924 INTRA-LIGAND FREE ENERGY PREDICTED BY IDOCK:   -0.38 KCAL/MOL
REMARK 927      BINDING AFFINITY PREDICTED BY RF-SCORE:    0.00 PKD
ROOT
HETATM    1  N   UNL     1     -10.192  19.686  68.807  1.00  0.00    -0.559 NA 
HETATM    2  C   UNL     1      -9.603  18.772  67.945  1.00  0.00    -0.308 A  
HETATM    3  H1  UNL     1      -9.849  20.640  68.924  1.00  0.00     0.000 HD 
HETATM    4  H2  UNL     1     -10.222  19.258  69.732  1.00  0.00     0.000 HD 
HETATM    5  C   UNL     1     -10.075  17.457  67.785  1.00  0.00    -0.323 A  
HETATM    6  N   UNL     1     -11.109  16.762  68.374  1.00  0.00    -0.330 NA 
HETATM    7  C   UNL     1     -11.084  15.575  67.803  1.00  0.00    -0.315 A  
HETATM    8  N   UNL     1     -10.060  15.458  66.900  1.00  0.00    -0.253 NA 
HETATM    9  C   UNL     1      -9.403  16.658  66.872  1.00  0.00    -0.231 A  
HETATM   10  N   UNL     1      -8.523  19.164  67.235  1.00  0.00    -0.275 NA 
HETATM   11  N   UNL     1      -8.340  16.999  66.128  1.00  0.00    -0.466 NA 
HETATM   12 CL   UNL     1      -6.614  18.832  65.511  1.00  0.00    -0.311 Cl 
HETATM   13  C   UNL     1      -7.977  18.274  66.384  1.00  0.00    -0.261 A  
ENDROOT
BRANCH   8  14
HETATM   14  C1* UNL     1      -9.745  14.309  66.073  1.00  0.00    -0.287 C  
HETATM   15  C2* UNL     1     -10.345  13.001  66.569  1.00  0.00    -0.278 C  
HETATM   16  C4* UNL     1     -10.671  13.229  64.213  1.00  0.00    -0.387 C  
HETATM   17  C3* UNL     1     -10.394  12.188  65.300  1.00  0.00    -0.277 C  
HETATM   18  O3* UNL     1      -9.101  11.612  65.084  1.00  0.00    -0.407 OA 
HETATM   19  O4* UNL     1     -10.269  14.515  64.745  1.00  0.00    -0.390 OA 
HETATM   20  H3* UNL     1      -9.132  11.099  64.284  1.00  0.00     0.000 HD 
BRANCH  16  21
HETATM   21  C5* UNL     1     -12.148  13.319  63.825  1.00  0.00    -0.482 C  
HETATM   22  O5* UNL     1     -12.525  14.661  63.531  1.00  0.00    -1.069 OA 
HETATM   23  H5* UNL     1     -13.441  14.717  63.290  1.00  0.00     0.000 HD 
ENDBRANCH  16  21
ENDBRANCH   8  14
TORSDOF 2
ENDMDL
MODEL       13
REMARK 921   NORMALIZED FREE ENERGY PREDICTED BY IDOCK:   -6.46 KCAL/MOL
REMARK 922        TOTAL FREE ENERGY PREDICTED BY IDOCK:   -7.56 KCAL/MOL
REMARK 923 INTER-LIGAND FREE ENERGY PREDICTED BY IDOCK:   -7.23 KCAL/MOL
REMARK 924 INTRA-LIGAND FREE ENERGY PREDICTED BY IDOCK:   -0.33 KCAL/MOL
REMARK 927      BINDING AFFINITY PREDICTED BY RF-SCORE:    0.00 PKD
ROOT
HETATM    1  N   UNL     1      -7.653  19.489  69.074  1.00  0.00    -0.359 NA 
HETATM    2  C   UNL     1      -8.475  18.794  68.199  1.00  0.00    -0.306 A  
HETATM    3  H1  UNL     1      -7.570  20.506  69.068  1.00  0.00     0.000 HD 
HETATM    4  H2  UNL     1      -6.713  19.105  68.980  1.00  0.00     0.000 HD 
HETATM    5  C   UNL     1      -8.590  17.392  68.206  1.00  0.00    -0.260 A  
HETATM    6  N   UNL     1      -7.984  16.414  68.964  1.00  0.00    -0.233 NA 
HETATM    7  C   UNL     1      -8.509  15.284  68.537  1.00  0.00    -0.162 A  
HETATM    8  N   UNL     1      -9.399  15.482  67.514  1.00  0.00    -0.205 NA 
HETATM    9  C   UNL     1      -9.466  16.831  67.290  1.00  0.00    -0.230 A  
HETATM   10  N   UNL     1      -9.191  19.498  67.295  1.00  0.00    -0.305 NA 
HETATM   11  N   UNL     1     -10.215  17.481  66.385  1.00  0.00    -0.348 NA 
HETATM   12 CL   UNL     1     -10.886  19.760  65.351  1.00  0.00    -0.360 Cl 
HETATM   13  C   UNL     1     -10.004  18.812  66.469  1.00  0.00    -0.380 A  
ENDROOT
BRANCH   8  14
HETATM   14  C1* UNL     1     -10.180  14.476  66.820  1.00  0.00    -0.266 C  
HETATM   15  C2* UNL     1     -11.613  14.352  67.313  1.00  0.00    -0.401 C  
HETATM   16  C4* UNL     1     -11.552  14.375  64.925  1.00  0.00    -0.395 C  
HETATM   17  C3* UNL     1     -12.300  13.758  66.109  1.00  0.00    -0.452 C  
HETATM   18  O3* UNL     1     -12.083  12.343  66.119  1.00  0.00    -0.611 OA 
HETATM   19  O4* UNL     1     -10.262  14.813  65.420  1.00  0.00    -0.341 OA 
HETATM   20  H3* UNL     1     -12.516  11.969  65.360  1.00  0.00     0.000 HD 
BRANCH  16  21
HETATM   21  C5* UNL     1     -12.265  15.589  64.325  1.00  0.00    -0.066 C  
HETATM   22  O5* UNL     1     -11.334  16.512  63.768  1.00  0.00    -1.553 OA 
HETATM   23  H5* UNL     1     -11.777  17.265  63.396  1.00  0.00     0.000 HD 
ENDBRANCH  16  21
ENDBRANCH   8  14
TORSDOF 2
ENDMDL
MODEL       14
REMARK 921   NORMALIZED FREE ENERGY PREDICTED BY IDOCK:   -6.46 KCAL/MOL
REMARK 922        TOTAL FREE ENERGY PREDICTED BY IDOCK:   -7.56 KCAL/MOL
REMARK 923 INTER-LIGAND FREE ENERGY PREDICTED BY IDOCK:   -7.51 KCAL/MOL
REMARK 924 INTRA-LIGAND FREE ENERGY PREDICTED BY IDOCK:   -0.05 KCAL/MOL
REMARK 927      BINDING AFFINITY PREDICTED BY RF-SCORE:    0.00 PKD
ROOT
HETATM    1  N   UNL     1     -10.861  10.356  70.704  1.00  0.00    -0.406 NA 
HETATM    2  C   UNL     1     -10.973  10.740  69.375  1.00  0.00    -0.254 A  
HETATM    3  H1  UNL     1     -10.489   9.450  70.990  1.00  0.00     0.000 HD 
HETATM    4  H2  UNL     1     -11.782  10.456  71.129  1.00  0.00     0.000 HD 
HETATM    5  C   UNL     1     -11.487  11.989  68.980  1.00  0.00    -0.300 A  
HETATM    6  N   UNL     1     -11.990  13.055  69.693  1.00  0.00    -0.318 NA 
HETATM    7  C   UNL     1     -12.292  13.956  68.782  1.00  0.00    -0.021 A  
HETATM    8  N   UNL     1     -12.041  13.510  67.511  1.00  0.00    -0.338 NA 
HETATM    9  C   UNL     1     -11.520  12.249  67.619  1.00  0.00    -0.336 A  
HETATM   10  N   UNL     1     -10.578   9.871  68.420  1.00  0.00    -0.211 NA 
HETATM   11  N   UNL     1     -11.124  11.433  66.629  1.00  0.00    -0.293 NA 
HETATM   12 CL   UNL     1     -10.148   9.123  65.975  1.00  0.00    -0.307 Cl 
HETATM   13  C   UNL     1     -10.669  10.267  67.136  1.00  0.00    -0.241 A  
ENDROOT
BRANCH   8  14
HETATM   14  C1* UNL     1     -12.229  14.238  66.271  1.00  0.00    -0.410 C  
HETATM   15  C2* UNL     1     -10.943  14.787  65.671  1.00  0.00    -0.345 C  
HETATM   16  C4* UNL     1     -12.273  13.744  63.982  1.00  0.00    -0.380 C  
HETATM   17  C3* UNL     1     -11.316  14.916  64.216  1.00  0.00    -0.072 C  
HETATM   18  O3* UNL     1     -12.025  16.147  64.038  1.00  0.00    -1.196 OA 
HETATM   19  O4* UNL     1     -12.794  13.357  65.277  1.00  0.00    -0.648 OA 
HETATM   20  H3* UNL     1     -12.260  16.228  63.122  1.00  0.00     0.000 HD 
BRANCH  16  21
HETATM   21  C5* UNL     1     -11.592  12.522  63.362  1.00  0.00    -0.473 C  
HETATM   22  O5* UNL     1     -12.549  11.545  62.963  1.00  0.00    -0.958 OA 
HETATM   23  H5* UNL     1     -12.127  10.786  62.578  1.00  0.00     0.000 HD 
ENDBRANCH  16  21
ENDBRANCH   8  14
TORSDOF 2
ENDMDL
MODEL       15
REMARK 921   NORMALIZED FREE ENERGY PREDICTED BY IDOCK:   -6.45 KCAL/MOL
REMARK 922        TOTAL FREE ENERGY PREDICTED BY IDOCK:   -7.55 KCAL/MOL
REMARK 923 INTER-LIGAND FREE ENERGY PREDICTED BY IDOCK:   -7.62 KCAL/MOL
REMARK 924 INTRA-LIGAND FREE ENERGY PREDICTED BY IDOCK:    0.08 KCAL/MOL
REMARK 927      BINDING AFFINITY PREDICTED BY RF-SCORE:    0.00 PKD
ROOT
HETATM    1  N   UNL     1     -12.041  14.964  72.329  1.00  0.00    -0.342 NA 
HETATM    2  C   UNL     1     -11.690  15.134  70.998  1.00  0.00    -0.340 A  
HETATM    3  H1  UNL     1     -11.965  15.708  73.023  1.00  0.00     0.000 HD 
HETATM    4  H2  UNL     1     -11.518  14.163  72.683  1.00  0.00     0.000 HD 
HETATM    5  C   UNL     1     -11.795  14.108  70.041  1.00  0.00    -0.323 A  
HETATM    6  N   UNL     1     -12.198  12.793  70.129  1.00  0.00    -0.289 NA 
HETATM    7  C   UNL     1     -12.110  12.332  68.898  1.00  0.00    -0.126 A  
HETATM    8  N   UNL     1     -11.636  13.276  68.026  1.00  0.00    -0.314 NA 
HETATM    9  C   UNL     1     -11.431  14.425  68.742  1.00  0.00    -0.289 A  
HETATM   10  N   UNL     1     -11.221  16.338  70.607  1.00  0.00    -0.353 NA 
HETATM   11  N   UNL     1     -10.977  15.606  68.294  1.00  0.00    -0.300 NA 
HETATM   12 CL   UNL     1     -10.324  18.046  68.873  1.00  0.00    -0.325 Cl 
HETATM   13  C   UNL     1     -10.909  16.496  69.306  1.00  0.00    -0.326 A  
ENDROOT
BRANCH   8  14
HETATM   14  C1* UNL     1     -11.434  13.130  66.597  1.00  0.00    -0.348 C  
HETATM   15  C2* UNL     1     -12.656  13.470  65.758  1.00  0.00    -0.490 C  
HETATM   16  C4* UNL     1     -10.699  14.470  64.823  1.00  0.00    -0.393 C  
HETATM   17  C3* UNL     1     -12.029  13.821  64.433  1.00  0.00    -0.445 C  
HETATM   18  O3* UNL     1     -11.771  12.607  63.719  1.00  0.00    -0.409 OA 
HETATM   19  O4* UNL     1     -10.387  14.024  66.166  1.00  0.00    -0.283 OA 
HETATM   20  H3* UNL     1     -11.376  12.829  62.884  1.00  0.00     0.000 HD 
BRANCH  16  21
HETATM   21  C5* UNL     1     -10.751  15.999  64.833  1.00  0.00    -0.316 C  
HETATM   22  O5* UNL     1     -11.487  16.498  63.719  1.00  0.00    -1.615 OA 
HETATM   23  H5* UNL     1     -11.519  17.447  63.724  1.00  0.00     0.000 HD 
ENDBRANCH  16  21
ENDBRANCH   8  14
TORSDOF 2
ENDMDL
MODEL       16
REMARK 921   NORMALIZED FREE ENERGY PREDICTED BY IDOCK:   -6.32 KCAL/MOL
REMARK 922        TOTAL FREE ENERGY PREDICTED BY IDOCK:   -7.40 KCAL/MOL
REMARK 923 INTER-LIGAND FREE ENERGY PREDICTED BY IDOCK:   -7.44 KCAL/MOL
REMARK 924 INTRA-LIGAND FREE ENERGY PREDICTED BY IDOCK:    0.04 KCAL/MOL
REMARK 927      BINDING AFFINITY PREDICTED BY RF-SCORE:    0.00 PKD
ROOT
HETATM    1  N   UNL     1     -10.822  15.118  71.524  1.00  0.00    -0.479 NA 
HETATM    2  C   UNL     1     -10.997  15.336  70.165  1.00  0.00    -0.291 A  
HETATM    3  H1  UNL     1     -10.559  15.857  72.176  1.00  0.00     0.000 HD 
HETATM    4  H2  UNL     1     -10.142  14.364  71.627  1.00  0.00     0.000 HD 
HETATM    5  C   UNL     1     -11.359  14.317  69.266  1.00  0.00    -0.283 A  
HETATM    6  N   UNL     1     -11.592  12.969  69.434  1.00  0.00    -0.296 NA 
HETATM    7  C   UNL     1     -11.922  12.534  68.235  1.00  0.00    -0.221 A  
HETATM    8  N   UNL     1     -11.879  13.529  67.294  1.00  0.00    -0.376 NA 
HETATM    9  C   UNL     1     -11.523  14.683  67.939  1.00  0.00    -0.329 A  
HETATM   10  N   UNL     1     -10.804  16.584  69.686  1.00  0.00    -0.339 NA 
HETATM   11  N   UNL     1     -11.363  15.907  67.412  1.00  0.00    -0.132 NA 
HETATM   12 CL   UNL     1     -10.747  18.390  67.826  1.00  0.00    -0.419 Cl 
HETATM   13  C   UNL     1     -11.003  16.787  68.370  1.00  0.00    -0.325 A  
ENDROOT
BRANCH   8  14
HETATM   14  C1* UNL     1     -12.202  13.421  65.884  1.00  0.00    -0.450 C  
HETATM   15  C2* UNL     1     -11.190  14.082  64.961  1.00  0.00    -0.352 C  
HETATM   16  C4* UNL     1     -11.780  11.918  64.138  1.00  0.00    -0.340 C  
HETATM   17  C3* UNL     1     -11.414  13.330  63.674  1.00  0.00    -0.238 C  
HETATM   18  O3* UNL     1     -12.536  13.911  63.001  1.00  0.00    -1.099 OA 
HETATM   19  O4* UNL     1     -12.244  12.029  65.506  1.00  0.00    -0.483 OA 
HETATM   20  H3* UNL     1     -12.677  13.437  62.189  1.00  0.00     0.000 HD 
BRANCH  16  21
HETATM   21  C5* UNL     1     -10.596  10.949  64.117  1.00  0.00    -0.257 C  
HETATM   22  O5* UNL     1     -10.240  10.598  62.783  1.00  0.00    -0.730 OA 
HETATM   23  H5* UNL     1      -9.505   9.996  62.770  1.00  0.00     0.000 HD 
ENDBRANCH  16  21
ENDBRANCH   8  14
TORSDOF 2
ENDMDL
MODEL       17
REMARK 921   NORMALIZED FREE ENERGY PREDICTED BY IDOCK:   -6.30 KCAL/MOL
REMARK 922        TOTAL FREE ENERGY PREDICTED BY IDOCK:   -7.38 KCAL/MOL
REMARK 923 INTER-LIGAND FREE ENERGY PREDICTED BY IDOCK:   -7.04 KCAL/MOL
REMARK 924 INTRA-LIGAND FREE ENERGY PREDICTED BY IDOCK:   -0.33 KCAL/MOL
REMARK 927      BINDING AFFINITY PREDICTED BY RF-SCORE:    0.00 PKD
ROOT
HETATM    1  N   UNL     1     -11.639  12.849  70.268  1.00  0.00    -0.532 NA 
HETATM    2  C   UNL     1     -11.596  13.571  69.084  1.00  0.00    -0.310 A  
HETATM    3  H1  UNL     1     -11.939  11.875  70.314  1.00  0.00     0.000 HD 
HETATM    4  H2  UNL     1     -12.214  13.377  70.926  1.00  0.00     0.000 HD 
HETATM    5  C   UNL     1     -11.183  14.914  69.020  1.00  0.00    -0.264 A  
HETATM    6  N   UNL     1     -10.777  15.808  69.986  1.00  0.00    -0.317 NA 
HETATM    7  C   UNL     1     -10.489  16.910  69.324  1.00  0.00    -0.319 A  
HETATM    8  N   UNL     1     -10.724  16.782  67.980  1.00  0.00    -0.352 NA 
HETATM    9  C   UNL     1     -11.167  15.504  67.766  1.00  0.00    -0.302 A  
HETATM   10  N   UNL     1     -11.975  12.955  67.943  1.00  0.00    -0.332 NA 
HETATM   11  N   UNL     1     -11.514  14.936  66.600  1.00  0.00    -0.332 NA 
HETATM   12 CL   UNL     1     -12.392  12.822  65.387  1.00  0.00    -0.534 Cl 
HETATM   13  C   UNL     1     -11.903  13.659  66.797  1.00  0.00    -0.413 A  
ENDROOT
BRANCH   8  14
HETATM   14  C1* UNL     1     -10.499  17.776  66.949  1.00  0.00    -0.307 C  
HETATM   15  C2* UNL     1     -11.017  19.163  67.298  1.00  0.00    -0.417 C  
HETATM   16  C4* UNL     1      -8.817  19.303  66.376  1.00  0.00    -0.348 C  
HETATM   17  C3* UNL     1     -10.158  20.040  66.422  1.00  0.00    -0.487 C  
HETATM   18  O3* UNL     1     -10.729  20.063  65.109  1.00  0.00    -0.204 OA 
HETATM   19  O4* UNL     1      -9.081  17.921  66.722  1.00  0.00    -0.253 OA 
HETATM   20  H3* UNL     1     -10.188  20.616  64.557  1.00  0.00     0.000 HD 
BRANCH  16  21
HETATM   21  C5* UNL     1      -7.791  19.851  67.369  1.00  0.00    -0.285 C  
HETATM   22  O5* UNL     1      -7.569  21.244  67.167  1.00  0.00    -0.734 OA 
HETATM   23  H5* UNL     1      -6.932  21.585  67.783  1.00  0.00     0.000 HD 
ENDBRANCH  16  21
ENDBRANCH   8  14
TORSDOF 2
ENDMDL
MODEL       18
REMARK 921   NORMALIZED FREE ENERGY PREDICTED BY IDOCK:   -6.29 KCAL/MOL
REMARK 922        TOTAL FREE ENERGY PREDICTED BY IDOCK:   -7.37 KCAL/MOL
REMARK 923 INTER-LIGAND FREE ENERGY PREDICTED BY IDOCK:   -7.03 KCAL/MOL
REMARK 924 INTRA-LIGAND FREE ENERGY PREDICTED BY IDOCK:   -0.34 KCAL/MOL
REMARK 927      BINDING AFFINITY PREDICTED BY RF-SCORE:    0.00 PKD
ROOT
HETATM    1  N   UNL     1     -11.893  15.850  64.054  1.00  0.00    -1.155 NA 
HETATM    2  C   UNL     1     -10.921  15.753  65.040  1.00  0.00    -0.417 A  
HETATM    3  H1  UNL     1     -12.307  15.035  63.601  1.00  0.00     0.000 HD 
HETATM    4  H2  UNL     1     -11.522  16.452  63.319  1.00  0.00     0.000 HD 
HETATM    5  C   UNL     1     -10.349  16.876  65.665  1.00  0.00    -0.237 A  
HETATM    6  N   UNL     1     -10.535  18.230  65.492  1.00  0.00    -0.580 NA 
HETATM    7  C   UNL     1      -9.742  18.794  66.380  1.00  0.00    -0.353 A  
HETATM    8  N   UNL     1      -9.026  17.869  67.093  1.00  0.00    -0.246 NA 
HETATM    9  C   UNL     1      -9.405  16.631  66.649  1.00  0.00    -0.250 A  
HETATM   10  N   UNL     1     -10.503  14.523  65.409  1.00  0.00    -0.353 NA 
HETATM   11  N   UNL     1      -8.967  15.433  67.070  1.00  0.00    -0.215 NA 
HETATM   12 CL   UNL     1      -9.093  12.858  66.811  1.00  0.00    -0.227 Cl 
HETATM   13  C   UNL     1      -9.578  14.443  66.385  1.00  0.00    -0.299 A  
ENDROOT
BRANCH   8  14
HETATM   14  C1* UNL     1      -8.080  18.123  68.163  1.00  0.00    -0.281 C  
HETATM   15  C2* UNL     1      -6.639  17.783  67.814  1.00  0.00    -0.193 C  
HETATM   16  C4* UNL     1      -6.755  19.912  68.892  1.00  0.00    -0.322 C  
HETATM   17  C3* UNL     1      -5.877  18.664  68.771  1.00  0.00    -0.210 C  
HETATM   18  O3* UNL     1      -5.815  18.005  70.040  1.00  0.00    -0.243 OA 
HETATM   19  O4* UNL     1      -8.094  19.528  68.493  1.00  0.00    -0.337 OA 
HETATM   20  H3* UNL     1      -5.335  18.561  70.643  1.00  0.00     0.000 HD 
BRANCH  16  21
HETATM   21  C5* UNL     1      -6.303  21.060  67.987  1.00  0.00    -0.311 C  
HETATM   22  O5* UNL     1      -7.280  21.349  66.992  1.00  0.00    -0.801 OA 
HETATM   23  H5* UNL     1      -7.000  22.061  66.430  1.00  0.00     0.000 HD 
ENDBRANCH  16  21
ENDBRANCH   8  14
TORSDOF 2
ENDMDL
MODEL       19
REMARK 921   NORMALIZED FREE ENERGY PREDICTED BY IDOCK:   -6.27 KCAL/MOL
REMARK 922        TOTAL FREE ENERGY PREDICTED BY IDOCK:   -7.35 KCAL/MOL
REMARK 923 INTER-LIGAND FREE ENERGY PREDICTED BY IDOCK:   -6.98 KCAL/MOL
REMARK 924 INTRA-LIGAND FREE ENERGY PREDICTED BY IDOCK:   -0.37 KCAL/MOL
REMARK 927      BINDING AFFINITY PREDICTED BY RF-SCORE:    0.00 PKD
ROOT
HETATM    1  N   UNL     1     -11.940  11.383  67.913  1.00  0.00    -0.644 NA 
HETATM    2  C   UNL     1     -11.779  12.452  67.043  1.00  0.00    -0.353 A  
HETATM    3  H1  UNL     1     -12.256  10.462  67.610  1.00  0.00     0.000 HD 
HETATM    4  H2  UNL     1     -12.565  11.689  68.660  1.00  0.00     0.000 HD 
HETATM    5  C   UNL     1     -11.345  13.722  67.462  1.00  0.00    -0.309 A  
HETATM    6  N   UNL     1     -11.016  14.230  68.700  1.00  0.00    -0.243 NA 
HETATM    7  C   UNL     1     -10.654  15.475  68.466  1.00  0.00    -0.246 A  
HETATM    8  N   UNL     1     -10.768  15.806  67.142  1.00  0.00    -0.318 NA 
HETATM    9  C   UNL     1     -11.207  14.691  66.480  1.00  0.00    -0.346 A  
HETATM   10  N   UNL     1     -12.061  12.262  65.736  1.00  0.00    -0.603 NA 
HETATM   11  N   UNL     1     -11.453  14.554  65.168  1.00  0.00    -0.354 NA 
HETATM   12 CL   UNL     1     -12.246  12.995  63.255  1.00  0.00    -0.589 Cl 
HETATM   13  C   UNL     1     -11.876  13.300  64.898  1.00  0.00    -0.362 A  
ENDROOT
BRANCH   8  14
HETATM   14  C1* UNL     1     -10.437  17.074  66.521  1.00  0.00    -0.250 C  
HETATM   15  C2* UNL     1     -10.562  18.274  67.448  1.00  0.00    -0.425 C  
HETATM   16  C4* UNL     1      -8.520  18.385  66.212  1.00  0.00    -0.196 C  
HETATM   17  C3* UNL     1      -9.630  19.263  66.796  1.00  0.00    -0.334 C  
HETATM   18  O3* UNL     1     -10.332  19.908  65.728  1.00  0.00    -0.489 OA 
HETATM   19  O4* UNL     1      -9.064  17.049  66.077  1.00  0.00    -0.464 OA 
HETATM   20  H3* UNL     1      -9.745  20.531  65.317  1.00  0.00     0.000 HD 
BRANCH  16  21
HETATM   21  C5* UNL     1      -7.281  18.303  67.106  1.00  0.00    -0.200 C  
HETATM   22  O5* UNL     1      -7.188  19.436  67.965  1.00  0.00    -0.257 OA 
HETATM   23  H5* UNL     1      -6.418  19.386  68.519  1.00  0.00     0.000 HD 
ENDBRANCH  16  21
ENDBRANCH   8  14
TORSDOF 2
ENDMDL
MODEL       20
REMARK 921   NORMALIZED FREE ENERGY PREDICTED BY IDOCK:   -6.25 KCAL/MOL
REMARK 922        TOTAL FREE ENERGY PREDICTED BY IDOCK:   -7.33 KCAL/MOL
REMARK 923 INTER-LIGAND FREE ENERGY PREDICTED BY IDOCK:   -6.87 KCAL/MOL
REMARK 924 INTRA-LIGAND FREE ENERGY PREDICTED BY IDOCK:   -0.45 KCAL/MOL
REMARK 927      BINDING AFFINITY PREDICTED BY RF-SCORE:    0.00 PKD
ROOT
HETATM    1  N   UNL     1      -9.777   7.788  66.192  1.00  0.00    -0.449 NA 
HETATM    2  C   UNL     1     -10.150   9.113  66.366  1.00  0.00    -0.274 A  
HETATM    3  H1  UNL     1      -9.889   7.080  66.918  1.00  0.00     0.000 HD 
HETATM    4  H2  UNL     1      -8.797   7.782  65.909  1.00  0.00     0.000 HD 
HETATM    5  C   UNL     1      -9.995  10.090  65.365  1.00  0.00    -0.294 A  
HETATM    6  N   UNL     1      -9.472  10.041  64.091  1.00  0.00    -0.282 NA 
HETATM    7  C   UNL     1      -9.621  11.261  63.620  1.00  0.00    -0.274 A  
HETATM    8  N   UNL     1     -10.182  12.106  64.541  1.00  0.00    -0.289 NA 
HETATM    9  C   UNL     1     -10.433  11.370  65.668  1.00  0.00    -0.262 A  
HETATM   10  N   UNL     1     -10.680   9.480  67.552  1.00  0.00    -0.281 NA 
HETATM   11  N   UNL     1     -10.983  11.786  66.820  1.00  0.00    -0.274 NA 
HETATM   12 CL   UNL     1     -11.730  11.164  69.222  1.00  0.00    -0.366 Cl 
HETATM   13  C   UNL     1     -11.062  10.763  67.698  1.00  0.00    -0.319 A  
ENDROOT
BRANCH   8  14
HETATM   14  C1* UNL     1     -10.513  13.507  64.363  1.00  0.00    -0.346 C  
HETATM   15  C2* UNL     1     -12.005  13.803  64.397  1.00  0.00    -0.480 C  
HETATM   16  C4* UNL     1     -10.809  15.387  65.727  1.00  0.00    -0.343 C  
HETATM   17  C3* UNL     1     -12.019  15.256  64.798  1.00  0.00    -0.184 C  
HETATM   18  O3* UNL     1     -11.801  16.050  63.626  1.00  0.00    -1.280 OA 
HETATM   19  O4* UNL     1      -9.924  14.280  65.428  1.00  0.00    -0.343 OA 
HETATM   20  H3* UNL     1     -11.810  16.966  63.879  1.00  0.00     0.000 HD 
BRANCH  16  21
HETATM   21  C5* UNL     1     -11.176  15.312  67.211  1.00  0.00    -0.306 C  
HETATM   22  O5* UNL     1     -10.244  14.512  67.934  1.00  0.00    -0.227 OA 
HETATM   23  H5* UNL     1     -10.472  14.466  68.854  1.00  0.00     0.000 HD 
ENDBRANCH  16  21
ENDBRANCH   8  14
TORSDOF 2
ENDMDL
MODEL       21
REMARK 921   NORMALIZED FREE ENERGY PREDICTED BY IDOCK:   -6.24 KCAL/MOL
REMARK 922        TOTAL FREE ENERGY PREDICTED BY IDOCK:   -7.31 KCAL/MOL
REMARK 923 INTER-LIGAND FREE ENERGY PREDICTED BY IDOCK:   -7.00 KCAL/MOL
REMARK 924 INTRA-LIGAND FREE ENERGY PREDICTED BY IDOCK:   -0.31 KCAL/MOL
REMARK 927      BINDING AFFINITY PREDICTED BY RF-SCORE:    0.00 PKD
ROOT
HETATM    1  N   UNL     1     -11.596  16.242  64.190  1.00  0.00    -1.351 NA 
HETATM    2  C   UNL     1     -11.784  14.925  64.587  1.00  0.00    -0.404 A  
HETATM    3  H1  UNL     1     -11.830  16.579  63.256  1.00  0.00     0.000 HD 
HETATM    4  H2  UNL     1     -10.619  16.476  64.363  1.00  0.00     0.000 HD 
HETATM    5  C   UNL     1     -11.462  14.460  65.874  1.00  0.00    -0.341 A  
HETATM    6  N   UNL     1     -10.911  15.079  66.975  1.00  0.00    -0.306 NA 
HETATM    7  C   UNL     1     -10.871  14.143  67.901  1.00  0.00    -0.245 A  
HETATM    8  N   UNL     1     -11.336  12.940  67.440  1.00  0.00    -0.291 NA 
HETATM    9  C   UNL     1     -11.724  13.125  66.140  1.00  0.00    -0.381 A  
HETATM   10  N   UNL     1     -12.294  14.052  63.691  1.00  0.00    -0.760 NA 
HETATM   11  N   UNL     1     -12.245  12.219  65.298  1.00  0.00    -0.532 NA 
HETATM   12 CL   UNL     1     -13.147  11.728  62.919  1.00  0.00     0.187 Cl 
HETATM   13  C   UNL     1     -12.496  12.784  64.097  1.00  0.00    -0.369 A  
ENDROOT
BRANCH   8  14
HETATM   14  C1* UNL     1     -11.461  11.701  68.185  1.00  0.00    -0.313 C  
HETATM   15  C2* UNL     1     -10.292  11.414  69.115  1.00  0.00    -0.122 C  
HETATM   16  C4* UNL     1     -12.366  11.015  70.233  1.00  0.00    -0.328 C  
HETATM   17  C3* UNL     1     -10.928  10.499  70.131  1.00  0.00    -0.270 C  
HETATM   18  O3* UNL     1     -10.940   9.171  69.596  1.00  0.00    -0.307 OA 
HETATM   19  O4* UNL     1     -12.637  11.758  69.019  1.00  0.00    -0.042 OA 
HETATM   20  H3* UNL     1     -11.341   8.594  70.236  1.00  0.00     0.000 HD 
BRANCH  16  21
HETATM   21  C5* UNL     1     -12.589  11.952  71.422  1.00  0.00    -0.240 C  
HETATM   22  O5* UNL     1     -13.533  11.407  72.339  1.00  0.00    -0.585 OA 
HETATM   23  H5* UNL     1     -13.672  11.988  73.076  1.00  0.00     0.000 HD 
ENDBRANCH  16  21
ENDBRANCH   8  14
TORSDOF 2
ENDMDL
MODEL       22
REMARK 921   NORMALIZED FREE ENERGY PREDICTED BY IDOCK:   -6.23 KCAL/MOL
REMARK 922        TOTAL FREE ENERGY PREDICTED BY IDOCK:   -7.31 KCAL/MOL
REMARK 923 INTER-LIGAND FREE ENERGY PREDICTED BY IDOCK:   -7.03 KCAL/MOL
REMARK 924 INTRA-LIGAND FREE ENERGY PREDICTED BY IDOCK:   -0.27 KCAL/MOL
REMARK 927      BINDING AFFINITY PREDICTED BY RF-SCORE:    0.00 PKD
ROOT
HETATM    1  N   UNL     1     -13.748  14.884  73.293  1.00  0.00    -0.519 NA 
HETATM    2  C   UNL     1     -13.238  14.073  72.290  1.00  0.00    -0.464 A  
HETATM    3  H1  UNL     1     -14.191  14.515  74.134  1.00  0.00     0.000 HD 
HETATM    4  H2  UNL     1     -14.410  15.527  72.858  1.00  0.00     0.000 HD 
HETATM    5  C   UNL     1     -12.628  14.582  71.129  1.00  0.00    -0.335 A  
HETATM    6  N   UNL     1     -12.407  15.866  70.682  1.00  0.00    -0.354 NA 
HETATM    7  C   UNL     1     -11.768  15.719  69.540  1.00  0.00    -0.360 A  
HETATM    8  N   UNL     1     -11.598  14.401  69.209  1.00  0.00    -0.284 NA 
HETATM    9  C   UNL     1     -12.141  13.655  70.220  1.00  0.00    -0.357 A  
HETATM   10  N   UNL     1     -13.338  12.734  72.435  1.00  0.00    -0.475 NA 
HETATM   11  N   UNL     1     -12.196  12.317  70.321  1.00  0.00    -0.301 NA 
HETATM   12 CL   UNL     1     -12.970  10.271  71.710  1.00  0.00    -0.548 Cl 
HETATM   13  C   UNL     1     -12.815  11.958  71.466  1.00  0.00    -0.316 A  
ENDROOT
BRANCH   8  14
HETATM   14  C1* UNL     1     -10.922  13.867  68.042  1.00  0.00    -0.251 C  
HETATM   15  C2* UNL     1      -9.505  13.384  68.310  1.00  0.00    -0.209 C  
HETATM   16  C4* UNL     1     -10.695  11.785  66.994  1.00  0.00    -0.246 C  
HETATM   17  C3* UNL     1      -9.304  12.391  67.194  1.00  0.00    -0.199 C  
HETATM   18  O3* UNL     1      -8.928  13.109  66.014  1.00  0.00    -0.436 OA 
HETATM   19  O4* UNL     1     -11.650  12.725  67.545  1.00  0.00    -0.314 OA 
HETATM   20  H3* UNL     1      -8.801  12.483  65.310  1.00  0.00     0.000 HD 
BRANCH  16  21
HETATM   21  C5* UNL     1     -10.881  10.446  67.711  1.00  0.00    -0.297 C  
HETATM   22  O5* UNL     1     -12.143  10.383  68.368  1.00  0.00    -0.769 OA 
HETATM   23  H5* UNL     1     -12.258   9.552  68.814  1.00  0.00     0.000 HD 
ENDBRANCH  16  21
ENDBRANCH   8  14
TORSDOF 2
ENDMDL
MODEL       23
REMARK 921   NORMALIZED FREE ENERGY PREDICTED BY IDOCK:   -6.21 KCAL/MOL
REMARK 922        TOTAL FREE ENERGY PREDICTED BY IDOCK:   -7.28 KCAL/MOL
REMARK 923 INTER-LIGAND FREE ENERGY PREDICTED BY IDOCK:   -6.84 KCAL/MOL
REMARK 924 INTRA-LIGAND FREE ENERGY PREDICTED BY IDOCK:   -0.43 KCAL/MOL
REMARK 927      BINDING AFFINITY PREDICTED BY RF-SCORE:    0.00 PKD
ROOT
HETATM    1  N   UNL     1     -12.887  11.775  62.963  1.00  0.00    -0.884 NA 
HETATM    2  C   UNL     1     -11.868  11.889  63.897  1.00  0.00    -0.411 A  
HETATM    3  H1  UNL     1     -12.841  11.143  62.164  1.00  0.00     0.000 HD 
HETATM    4  H2  UNL     1     -13.074  12.711  62.601  1.00  0.00     0.000 HD 
HETATM    5  C   UNL     1     -11.931  12.762  64.998  1.00  0.00    -0.412 A  
HETATM    6  N   UNL     1     -12.884  13.667  65.413  1.00  0.00    -0.683 NA 
HETATM    7  C   UNL     1     -12.402  14.174  66.529  1.00  0.00    -0.372 A  
HETATM    8  N   UNL     1     -11.167  13.667  66.835  1.00  0.00    -0.304 NA 
HETATM    9  C   UNL     1     -10.850  12.755  65.865  1.00  0.00    -0.269 A  
HETATM   10  N   UNL     1     -10.763  11.130  63.735  1.00  0.00    -0.373 NA 
HETATM   11  N   UNL     1      -9.737  12.011  65.764  1.00  0.00    -0.242 NA 
HETATM   12 CL   UNL     1      -8.420  10.241  64.405  1.00  0.00    -0.174 Cl 
HETATM   13  C   UNL     1      -9.792  11.231  64.664  1.00  0.00    -0.268 A  
ENDROOT
BRANCH   8  14
HETATM   14  C1* UNL     1     -10.352  13.977  67.994  1.00  0.00    -0.240 C  
HETATM   15  C2* UNL     1      -9.762  15.379  67.984  1.00  0.00    -0.207 C  
HETATM   16  C4* UNL     1     -10.681  14.877  70.132  1.00  0.00    -0.086 C  
HETATM   17  C3* UNL     1      -9.529  15.623  69.454  1.00  0.00    -0.279 C  
HETATM   18  O3* UNL     1      -8.288  15.012  69.822  1.00  0.00    -0.428 OA 
HETATM   19  O4* UNL     1     -11.159  13.887  69.187  1.00  0.00    -0.248 OA 
HETATM   20  H3* UNL     1      -8.142  15.166  70.748  1.00  0.00     0.000 HD 
BRANCH  16  21
HETATM   21  C5* UNL     1     -11.856  15.784  70.501  1.00  0.00    -0.375 C  
HETATM   22  O5* UNL     1     -13.062  15.347  69.880  1.00  0.00    -0.591 OA 
HETATM   23  H5* UNL     1     -13.791  15.910  70.110  1.00  0.00     0.000 HD 
ENDBRANCH  16  21
ENDBRANCH   8  14
TORSDOF 2
ENDMDL
MODEL       24
REMARK 921   NORMALIZED FREE ENERGY PREDICTED BY IDOCK:   -6.21 KCAL/MOL
REMARK 922        TOTAL FREE ENERGY PREDICTED BY IDOCK:   -7.28 KCAL/MOL
REMARK 923 INTER-LIGAND FREE ENERGY PREDICTED BY IDOCK:   -6.96 KCAL/MOL
REMARK 924 INTRA-LIGAND FREE ENERGY PREDICTED BY IDOCK:   -0.32 KCAL/MOL
REMARK 927      BINDING AFFINITY PREDICTED BY RF-SCORE:    0.00 PKD
ROOT
HETATM    1  N   UNL     1     -14.035   8.849  73.282  1.00  0.00    -1.217 NA 
HETATM    2  C   UNL     1     -13.157   8.856  72.207  1.00  0.00    -0.436 A  
HETATM    3  H1  UNL     1     -14.303   7.997  73.775  1.00  0.00     0.000 HD 
HETATM    4  H2  UNL     1     -14.894   9.308  72.977  1.00  0.00     0.000 HD 
HETATM    5  C   UNL     1     -12.789  10.030  71.526  1.00  0.00    -0.432 A  
HETATM    6  N   UNL     1     -13.158  11.349  71.682  1.00  0.00    -0.450 NA 
HETATM    7  C   UNL     1     -12.464  12.001  70.772  1.00  0.00    -0.279 A  
HETATM    8  N   UNL     1     -11.692  11.162  70.012  1.00  0.00    -0.327 NA 
HETATM    9  C   UNL     1     -11.885   9.892  70.485  1.00  0.00    -0.270 A  
HETATM   10  N   UNL     1     -12.641   7.678  71.794  1.00  0.00    -0.324 NA 
HETATM   11  N   UNL     1     -11.326   8.754  70.044  1.00  0.00    -0.110 NA 
HETATM   12 CL   UNL     1     -11.148   6.181  70.293  1.00  0.00    -0.413 Cl 
HETATM   13  C   UNL     1     -11.770   7.703  70.766  1.00  0.00    -0.239 A  
ENDROOT
BRANCH   8  14
HETATM   14  C1* UNL     1     -10.786  11.530  68.941  1.00  0.00    -0.218 C  
HETATM   15  C2* UNL     1     -11.201  11.016  67.570  1.00  0.00    -0.372 C  
HETATM   16  C4* UNL     1     -10.541  13.308  67.436  1.00  0.00    -0.246 C  
HETATM   17  C3* UNL     1     -10.507  11.992  66.655  1.00  0.00    -0.215 C  
HETATM   18  O3* UNL     1      -9.148  11.573  66.494  1.00  0.00    -0.183 OA 
HETATM   19  O4* UNL     1     -10.729  12.967  68.832  1.00  0.00    -0.232 OA 
HETATM   20  H3* UNL     1      -8.711  12.188  65.918  1.00  0.00     0.000 HD 
BRANCH  16  21
HETATM   21  C5* UNL     1     -11.686  14.232  67.016  1.00  0.00    -0.403 C  
HETATM   22  O5* UNL     1     -12.533  14.540  68.120  1.00  0.00    -0.589 OA 
HETATM   23  H5* UNL     1     -13.244  15.112  67.860  1.00  0.00     0.000 HD 
ENDBRANCH  16  21
ENDBRANCH   8  14
TORSDOF 2
ENDMDL
MODEL       25
REMARK 921   NORMALIZED FREE ENERGY PREDICTED BY IDOCK:   -6.17 KCAL/MOL
REMARK 922        TOTAL FREE ENERGY PREDICTED BY IDOCK:   -7.24 KCAL/MOL
REMARK 923 INTER-LIGAND FREE ENERGY PREDICTED BY IDOCK:   -6.82 KCAL/MOL
REMARK 924 INTRA-LIGAND FREE ENERGY PREDICTED BY IDOCK:   -0.41 KCAL/MOL
REMARK 927      BINDING AFFINITY PREDICTED BY RF-SCORE:    0.00 PKD
ROOT
HETATM    1  N   UNL     1     -12.012  16.098  70.711  1.00  0.00    -0.513 NA 
HETATM    2  C   UNL     1     -11.289  15.900  69.544  1.00  0.00    -0.335 A  
HETATM    3  H1  UNL     1     -11.979  16.968  71.244  1.00  0.00     0.000 HD 
HETATM    4  H2  UNL     1     -11.774  15.340  71.350  1.00  0.00     0.000 HD 
HETATM    5  C   UNL     1     -11.334  14.700  68.810  1.00  0.00    -0.281 A  
HETATM    6  N   UNL     1     -11.999  13.511  69.013  1.00  0.00    -0.341 NA 
HETATM    7  C   UNL     1     -11.677  12.765  67.976  1.00  0.00    -0.356 A  
HETATM    8  N   UNL     1     -10.807  13.402  67.132  1.00  0.00    -0.274 NA 
HETATM    9  C   UNL     1     -10.578  14.649  67.650  1.00  0.00    -0.256 A  
HETATM   10  N   UNL     1     -10.501  16.902  69.099  1.00  0.00    -0.328 NA 
HETATM   11  N   UNL     1      -9.794  15.618  67.151  1.00  0.00    -0.227 NA 
HETATM   12 CL   UNL     1      -8.848  18.013  67.438  1.00  0.00    -0.244 Cl 
HETATM   13  C   UNL     1      -9.825  16.705  67.951  1.00  0.00    -0.248 A  
ENDROOT
BRANCH   8  14
HETATM   14  C1* UNL     1     -10.261  12.897  65.887  1.00  0.00    -0.290 C  
HETATM   15  C2* UNL     1     -10.251  11.380  65.781  1.00  0.00    -0.295 C  
HETATM   16  C4* UNL     1     -11.066  12.351  63.757  1.00  0.00    -0.445 C  
HETATM   17  C3* UNL     1     -10.239  11.177  64.287  1.00  0.00    -0.340 C  
HETATM   18  O3* UNL     1      -8.890  11.303  63.825  1.00  0.00    -0.389 OA 
HETATM   19  O4* UNL     1     -11.059  13.373  64.783  1.00  0.00    -0.320 OA 
HETATM   20  H3* UNL     1      -8.883  11.176  62.884  1.00  0.00     0.000 HD 
BRANCH  16  21
HETATM   21  C5* UNL     1     -12.522  11.982  63.466  1.00  0.00    -0.540 C  
HETATM   22  O5* UNL     1     -13.380  12.392  64.528  1.00  0.00    -0.800 OA 
HETATM   23  H5* UNL     1     -14.284  12.163  64.348  1.00  0.00     0.000 HD 
ENDBRANCH  16  21
ENDBRANCH   8  14
TORSDOF 2
ENDMDL
MODEL       26
REMARK 921   NORMALIZED FREE ENERGY PREDICTED BY IDOCK:   -6.16 KCAL/MOL
REMARK 922        TOTAL FREE ENERGY PREDICTED BY IDOCK:   -7.23 KCAL/MOL
REMARK 923 INTER-LIGAND FREE ENERGY PREDICTED BY IDOCK:   -7.56 KCAL/MOL
REMARK 924 INTRA-LIGAND FREE ENERGY PREDICTED BY IDOCK:    0.33 KCAL/MOL
REMARK 927      BINDING AFFINITY PREDICTED BY RF-SCORE:    0.00 PKD
ROOT
HETATM    1  N   UNL     1     -13.640  15.110  73.221  1.00  0.00    -0.607 NA 
HETATM    2  C   UNL     1     -13.225  14.171  72.287  1.00  0.00    -0.447 A  
HETATM    3  H1  UNL     1     -14.101  14.858  74.095  1.00  0.00     0.000 HD 
HETATM    4  H2  UNL     1     -14.245  15.774  72.738  1.00  0.00     0.000 HD 
HETATM    5  C   UNL     1     -12.590  14.519  71.081  1.00  0.00    -0.335 A  
HETATM    6  N   UNL     1     -12.256  15.734  70.524  1.00  0.00    -0.389 NA 
HETATM    7  C   UNL     1     -11.654  15.430  69.393  1.00  0.00    -0.340 A  
HETATM    8  N   UNL     1     -11.615  14.078  69.175  1.00  0.00    -0.290 NA 
HETATM    9  C   UNL     1     -12.208  13.476  70.252  1.00  0.00    -0.347 A  
HETATM   10  N   UNL     1     -13.449  12.865  72.548  1.00  0.00    -0.483 NA 
HETATM   11  N   UNL     1     -12.388  12.164  70.468  1.00  0.00    -0.312 NA 
HETATM   12 CL   UNL     1     -13.327  10.326  72.035  1.00  0.00    -0.525 Cl 
HETATM   13  C   UNL     1     -13.018  11.964  71.645  1.00  0.00    -0.342 A  
ENDROOT
BRANCH   8  14
HETATM   14  C1* UNL     1     -11.012  13.385  68.053  1.00  0.00    -0.244 C  
HETATM   15  C2* UNL     1     -11.634  12.030  67.751  1.00  0.00    -0.400 C  
HETATM   16  C4* UNL     1     -11.328  13.274  65.735  1.00  0.00    -0.307 C  
HETATM   17  C3* UNL     1     -11.284  11.851  66.296  1.00  0.00    -0.337 C  
HETATM   18  O3* UNL     1      -9.945  11.351  66.211  1.00  0.00    -0.211 OA 
HETATM   19  O4* UNL     1     -11.170  14.177  66.857  1.00  0.00    -0.300 OA 
HETATM   20  H3* UNL     1      -9.725  11.238  65.294  1.00  0.00     0.000 HD 
BRANCH  16  21
HETATM   21  C5* UNL     1     -12.648  13.610  65.039  1.00  0.00    -0.390 C  
HETATM   22  O5* UNL     1     -12.436  13.983  63.680  1.00  0.00    -0.952 OA 
HETATM   23  H5* UNL     1     -13.255  14.191  63.248  1.00  0.00     0.000 HD 
ENDBRANCH  16  21
ENDBRANCH   8  14
TORSDOF 2
ENDMDL
MODEL       27
REMARK 921   NORMALIZED FREE ENERGY PREDICTED BY IDOCK:   -6.13 KCAL/MOL
REMARK 922        TOTAL FREE ENERGY PREDICTED BY IDOCK:   -7.20 KCAL/MOL
REMARK 923 INTER-LIGAND FREE ENERGY PREDICTED BY IDOCK:   -6.88 KCAL/MOL
REMARK 924 INTRA-LIGAND FREE ENERGY PREDICTED BY IDOCK:   -0.31 KCAL/MOL
REMARK 927      BINDING AFFINITY PREDICTED BY RF-SCORE:    0.00 PKD
ROOT
HETATM    1  N   UNL     1     -10.800   8.110  71.118  1.00  0.00    -0.228 NA 
HETATM    2  C   UNL     1     -11.244   9.346  70.671  1.00  0.00    -0.284 A  
HETATM    3  H1  UNL     1     -11.029   7.738  72.040  1.00  0.00     0.000 HD 
HETATM    4  H2  UNL     1      -9.784   8.101  71.030  1.00  0.00     0.000 HD 
HETATM    5  C   UNL     1     -10.927   9.860  69.400  1.00  0.00    -0.230 A  
HETATM    6  N   UNL     1     -10.162   9.371  68.365  1.00  0.00    -0.190 NA 
HETATM    7  C   UNL     1     -10.255  10.282  67.419  1.00  0.00    -0.218 A  
HETATM    8  N   UNL     1     -11.015  11.354  67.807  1.00  0.00    -0.229 NA 
HETATM    9  C   UNL     1     -11.459  11.098  69.076  1.00  0.00    -0.296 A  
HETATM   10  N   UNL     1     -12.010  10.090  71.498  1.00  0.00    -0.378 NA 
HETATM   11  N   UNL     1     -12.239  11.871  69.849  1.00  0.00    -0.238 NA 
HETATM   12 CL   UNL     1     -13.424  12.169  72.134  1.00  0.00    -0.531 Cl 
HETATM   13  C   UNL     1     -12.456  11.276  71.041  1.00  0.00    -0.400 A  
ENDROOT
BRANCH   8  14
HETATM   14  C1* UNL     1     -11.351  12.525  67.020  1.00  0.00    -0.328 C  
HETATM   15  C2* UNL     1     -10.163  13.169  66.322  1.00  0.00    -0.294 C  
HETATM   16  C4* UNL     1     -12.010  12.981  64.819  1.00  0.00    -0.395 C  
HETATM   17  C3* UNL     1     -10.832  13.890  65.180  1.00  0.00    -0.358 C  
HETATM   18  O3* UNL     1     -11.333  15.140  65.667  1.00  0.00    -0.332 OA 
HETATM   19  O4* UNL     1     -12.278  12.154  65.978  1.00  0.00    -0.609 OA 
HETATM   20  H3* UNL     1     -11.754  15.594  64.948  1.00  0.00     0.000 HD 
BRANCH  16  21
HETATM   21  C5* UNL     1     -11.720  12.057  63.635  1.00  0.00    -0.493 C  
HETATM   22  O5* UNL     1     -12.924  11.641  62.997  1.00  0.00    -0.854 OA 
HETATM   23  H5* UNL     1     -12.744  11.067  62.262  1.00  0.00     0.000 HD 
ENDBRANCH  16  21
ENDBRANCH   8  14
TORSDOF 2
ENDMDL
MODEL       28
REMARK 921   NORMALIZED FREE ENERGY PREDICTED BY IDOCK:   -6.07 KCAL/MOL
REMARK 922        TOTAL FREE ENERGY PREDICTED BY IDOCK:   -7.13 KCAL/MOL
REMARK 923 INTER-LIGAND FREE ENERGY PREDICTED BY IDOCK:   -6.68 KCAL/MOL
REMARK 924 INTRA-LIGAND FREE ENERGY PREDICTED BY IDOCK:   -0.44 KCAL/MOL
REMARK 927      BINDING AFFINITY PREDICTED BY RF-SCORE:    0.00 PKD
ROOT
HETATM    1  N   UNL     1     -10.868  13.640  66.560  1.00  0.00    -0.282 NA 
HETATM    2  C   UNL     1     -11.041  12.507  67.343  1.00  0.00    -0.272 A  
HETATM    3  H1  UNL     1     -10.503  13.607  65.608  1.00  0.00     0.000 HD 
HETATM    4  H2  UNL     1     -10.283  14.289  67.088  1.00  0.00     0.000 HD 
HETATM    5  C   UNL     1     -11.543  12.553  68.656  1.00  0.00    -0.314 A  
HETATM    6  N   UNL     1     -11.937  13.596  69.465  1.00  0.00    -0.330 NA 
HETATM    7  C   UNL     1     -12.341  13.023  70.579  1.00  0.00    -0.287 A  
HETATM    8  N   UNL     1     -12.194  11.662  70.543  1.00  0.00    -0.369 NA 
HETATM    9  C   UNL     1     -11.686  11.341  69.313  1.00  0.00    -0.334 A  
HETATM   10  N   UNL     1     -10.706  11.309  66.818  1.00  0.00    -0.264 NA 
HETATM   11  N   UNL     1     -11.387  10.122  68.836  1.00  0.00    -0.169 NA 
HETATM   12 CL   UNL     1     -10.463   8.727  66.858  1.00  0.00    -0.348 Cl 
HETATM   13  C   UNL     1     -10.904  10.215  67.579  1.00  0.00    -0.290 A  
ENDROOT
BRANCH   8  14
HETATM   14  C1* UNL     1     -12.555  10.710  71.576  1.00  0.00    -0.412 C  
HETATM   15  C2* UNL     1     -13.743   9.828  71.222  1.00  0.00    -0.201 C  
HETATM   16  C4* UNL     1     -11.982   8.517  72.165  1.00  0.00    -0.383 C  
HETATM   17  C3* UNL     1     -13.507   8.629  72.107  1.00  0.00    -0.398 C  
HETATM   18  O3* UNL     1     -14.009   8.927  73.414  1.00  0.00    -1.236 OA 
HETATM   19  O4* UNL     1     -11.447   9.818  71.817  1.00  0.00    -0.322 OA 
HETATM   20  H3* UNL     1     -13.861   8.172  73.971  1.00  0.00     0.000 HD 
BRANCH  16  21
HETATM   21  C5* UNL     1     -11.413   7.493  71.181  1.00  0.00    -0.273 C  
HETATM   22  O5* UNL     1     -10.295   8.022  70.473  1.00  0.00    -0.198 OA 
HETATM   23  H5* UNL     1      -9.942   7.387  69.862  1.00  0.00     0.000 HD 
ENDBRANCH  16  21
ENDBRANCH   8  14
TORSDOF 2
ENDMDL
MODEL       29
REMARK 921   NORMALIZED FREE ENERGY PREDICTED BY IDOCK:   -5.97 KCAL/MOL
REMARK 922        TOTAL FREE ENERGY PREDICTED BY IDOCK:   -7.01 KCAL/MOL
REMARK 923 INTER-LIGAND FREE ENERGY PREDICTED BY IDOCK:   -6.89 KCAL/MOL
REMARK 924 INTRA-LIGAND FREE ENERGY PREDICTED BY IDOCK:   -0.13 KCAL/MOL
REMARK 927      BINDING AFFINITY PREDICTED BY RF-SCORE:    0.00 PKD
ROOT
HETATM    1  N   UNL     1      -9.474   9.453  65.224  1.00  0.00    -0.396 NA 
HETATM    2  C   UNL     1     -10.283  10.558  65.448  1.00  0.00    -0.270 A  
HETATM    3  H1  UNL     1      -9.280   9.087  64.292  1.00  0.00     0.000 HD 
HETATM    4  H2  UNL     1      -9.847   8.684  65.782  1.00  0.00     0.000 HD 
HETATM    5  C   UNL     1     -10.552  11.062  66.734  1.00  0.00    -0.266 A  
HETATM    6  N   UNL     1     -10.168  10.652  67.992  1.00  0.00    -0.169 NA 
HETATM    7  C   UNL     1     -10.706  11.533  68.811  1.00  0.00    -0.211 A  
HETATM    8  N   UNL     1     -11.449  12.471  68.144  1.00  0.00    -0.295 NA 
HETATM    9  C   UNL     1     -11.359  12.187  66.808  1.00  0.00    -0.342 A  
HETATM   10  N   UNL     1     -10.841  11.171  64.382  1.00  0.00    -0.320 NA 
HETATM   11  N   UNL     1     -11.924  12.846  65.784  1.00  0.00    -0.421 NA 
HETATM   12 CL   UNL     1     -12.278  12.991  63.222  1.00  0.00    -0.589 Cl 
HETATM   13  C   UNL     1     -11.603  12.257  64.613  1.00  0.00    -0.344 A  
ENDROOT
BRANCH   8  14
HETATM   14  C1* UNL     1     -12.160  13.598  68.716  1.00  0.00    -0.297 C  
HETATM   15  C2* UNL     1     -11.929  13.788  70.208  1.00  0.00    -0.397 C  
HETATM   16  C4* UNL     1     -11.761  15.880  69.065  1.00  0.00    -0.370 C  
HETATM   17  C3* UNL     1     -12.234  15.255  70.380  1.00  0.00    -0.363 C  
HETATM   18  O3* UNL     1     -13.653  15.410  70.493  1.00  0.00    -0.760 OA 
HETATM   19  O4* UNL     1     -11.720  14.817  68.081  1.00  0.00    -0.324 OA 
HETATM   20  H3* UNL     1     -13.845  16.334  70.602  1.00  0.00     0.000 HD 
BRANCH  16  21
HETATM   21  C5* UNL     1     -10.364  16.495  69.156  1.00  0.00    -0.316 C  
HETATM   22  O5* UNL     1     -10.423  17.919  69.128  1.00  0.00    -0.437 OA 
HETATM   23  H5* UNL     1      -9.556  18.301  69.184  1.00  0.00     0.000 HD 
ENDBRANCH  16  21
ENDBRANCH   8  14
TORSDOF 2
ENDMDL
MODEL       30
REMARK 921   NORMALIZED FREE ENERGY PREDICTED BY IDOCK:   -5.91 KCAL/MOL
REMARK 922        TOTAL FREE ENERGY PREDICTED BY IDOCK:   -6.94 KCAL/MOL
REMARK 923 INTER-LIGAND FREE ENERGY PREDICTED BY IDOCK:   -6.57 KCAL/MOL
REMARK 924 INTRA-LIGAND FREE ENERGY PREDICTED BY IDOCK:   -0.38 KCAL/MOL
REMARK 927      BINDING AFFINITY PREDICTED BY RF-SCORE:    0.00 PKD
ROOT
HETATM    1  N   UNL     1     -13.540   9.888  72.531  1.00  0.00    -0.632 NA 
HETATM    2  C   UNL     1     -13.048  10.775  71.585  1.00  0.00    -0.446 A  
HETATM    3  H1  UNL     1     -13.526   8.876  72.404  1.00  0.00     0.000 HD 
HETATM    4  H2  UNL     1     -14.503  10.157  72.731  1.00  0.00     0.000 HD 
HETATM    5  C   UNL     1     -13.067  12.171  71.760  1.00  0.00    -0.352 A  
HETATM    6  N   UNL     1     -13.539  12.973  72.776  1.00  0.00    -0.523 NA 
HETATM    7  C   UNL     1     -13.255  14.201  72.393  1.00  0.00    -0.472 A  
HETATM    8  N   UNL     1     -12.653  14.232  71.163  1.00  0.00    -0.339 NA 
HETATM    9  C   UNL     1     -12.521  12.936  70.742  1.00  0.00    -0.286 A  
HETATM   10  N   UNL     1     -12.535  10.273  70.441  1.00  0.00    -0.254 NA 
HETATM   11  N   UNL     1     -11.982  12.492  69.595  1.00  0.00    -0.296 NA 
HETATM   12 CL   UNL     1     -11.399  10.447  68.116  1.00  0.00    -0.333 Cl 
HETATM   13  C   UNL     1     -12.038  11.145  69.542  1.00  0.00    -0.326 A  
ENDROOT
BRANCH   8  14
HETATM   14  C1* UNL     1     -12.182  15.401  70.444  1.00  0.00    -0.391 C  
HETATM   15  C2* UNL     1     -10.673  15.589  70.484  1.00  0.00    -0.309 C  
HETATM   16  C4* UNL     1     -11.496  15.912  68.264  1.00  0.00    -0.320 C  
HETATM   17  C3* UNL     1     -10.436  16.418  69.246  1.00  0.00    -0.303 C  
HETATM   18  O3* UNL     1     -10.702  17.788  69.563  1.00  0.00    -0.309 OA 
HETATM   19  O4* UNL     1     -12.538  15.284  69.051  1.00  0.00     0.043 OA 
HETATM   20  H3* UNL     1     -10.552  18.310  68.784  1.00  0.00     0.000 HD 
BRANCH  16  21
HETATM   21  C5* UNL     1     -10.959  14.876  67.275  1.00  0.00    -0.323 C  
HETATM   22  O5* UNL     1     -11.957  13.914  66.943  1.00  0.00    -0.396 OA 
HETATM   23  H5* UNL     1     -11.624  13.270  66.329  1.00  0.00     0.000 HD 
ENDBRANCH  16  21
ENDBRANCH   8  14
TORSDOF 2
ENDMDL
MODEL       31
REMARK 921   NORMALIZED FREE ENERGY PREDICTED BY IDOCK:   -5.90 KCAL/MOL
REMARK 922        TOTAL FREE ENERGY PREDICTED BY IDOCK:   -6.93 KCAL/MOL
REMARK 923 INTER-LIGAND FREE ENERGY PREDICTED BY IDOCK:   -6.61 KCAL/MOL
REMARK 924 INTRA-LIGAND FREE ENERGY PREDICTED BY IDOCK:   -0.32 KCAL/MOL
REMARK 927      BINDING AFFINITY PREDICTED BY RF-SCORE:    0.00 PKD
ROOT
HETATM    1  N   UNL     1     -11.104   8.703  69.869  1.00  0.00    -0.410 NA 
HETATM    2  C   UNL     1     -11.337  10.069  69.927  1.00  0.00    -0.250 A  
HETATM    3  H1  UNL     1     -11.545   8.037  70.504  1.00  0.00     0.000 HD 
HETATM    4  H2  UNL     1     -10.095   8.562  69.933  1.00  0.00     0.000 HD 
HETATM    5  C   UNL     1     -10.728  10.988  69.052  1.00  0.00    -0.219 A  
HETATM    6  N   UNL     1      -9.818  10.833  68.029  1.00  0.00    -0.162 NA 
HETATM    7  C   UNL     1      -9.638  12.048  67.553  1.00  0.00    -0.177 A  
HETATM    8  N   UNL     1     -10.361  12.985  68.243  1.00  0.00    -0.246 NA 
HETATM    9  C   UNL     1     -11.070  12.321  69.208  1.00  0.00    -0.158 A  
HETATM   10  N   UNL     1     -12.182  10.537  70.870  1.00  0.00    -0.353 NA 
HETATM   11  N   UNL     1     -11.916  12.839  70.113  1.00  0.00    -0.337 NA 
HETATM   12 CL   UNL     1     -13.501  12.391  72.113  1.00  0.00    -0.591 Cl 
HETATM   13  C   UNL     1     -12.419  11.862  70.898  1.00  0.00    -0.300 A  
ENDROOT
BRANCH   8  14
HETATM   14  C1* UNL     1     -10.427  14.411  67.985  1.00  0.00    -0.237 C  
HETATM   15  C2* UNL     1      -9.129  15.009  67.463  1.00  0.00    -0.189 C  
HETATM   16  C4* UNL     1     -10.987  15.804  66.188  1.00  0.00    -0.169 C  
HETATM   17  C3* UNL     1      -9.627  16.237  66.742  1.00  0.00    -0.239 C  
HETATM   18  O3* UNL     1      -9.820  17.278  67.705  1.00  0.00    -0.266 OA 
HETATM   19  O4* UNL     1     -11.426  14.671  66.977  1.00  0.00    -0.348 OA 
HETATM   20  H3* UNL     1     -10.133  18.051  67.252  1.00  0.00     0.000 HD 
BRANCH  16  21
HETATM   21  C5* UNL     1     -10.932  15.367  64.723  1.00  0.00    -0.393 C  
HETATM   22  O5* UNL     1     -11.495  16.358  63.867  1.00  0.00    -1.569 OA 
HETATM   23  H5* UNL     1     -11.461  16.087  62.957  1.00  0.00     0.000 HD 
ENDBRANCH  16  21
ENDBRANCH   8  14
TORSDOF 2
ENDMDL
MODEL       32
REMARK 921   NORMALIZED FREE ENERGY PREDICTED BY IDOCK:   -5.89 KCAL/MOL
REMARK 922        TOTAL FREE ENERGY PREDICTED BY IDOCK:   -6.92 KCAL/MOL
REMARK 923 INTER-LIGAND FREE ENERGY PREDICTED BY IDOCK:   -6.45 KCAL/MOL
REMARK 924 INTRA-LIGAND FREE ENERGY PREDICTED BY IDOCK:   -0.47 KCAL/MOL
REMARK 927      BINDING AFFINITY PREDICTED BY RF-SCORE:    0.00 PKD
ROOT
HETATM    1  N   UNL     1     -12.517  14.475  63.593  1.00  0.00    -1.078 NA 
HETATM    2  C   UNL     1     -12.046  13.730  64.664  1.00  0.00    -0.421 A  
HETATM    3  H1  UNL     1     -13.040  15.344  63.707  1.00  0.00     0.000 HD 
HETATM    4  H2  UNL     1     -13.083  13.853  63.014  1.00  0.00     0.000 HD 
HETATM    5  C   UNL     1     -11.326  12.532  64.507  1.00  0.00    -0.330 A  
HETATM    6  N   UNL     1     -10.945  11.817  63.392  1.00  0.00    -0.395 NA 
HETATM    7  C   UNL     1     -10.268  10.792  63.867  1.00  0.00    -0.309 A  
HETATM    8  N   UNL     1     -10.224  10.791  65.236  1.00  0.00    -0.284 NA 
HETATM    9  C   UNL     1     -10.896  11.904  65.665  1.00  0.00    -0.286 A  
HETATM   10  N   UNL     1     -12.297  14.175  65.914  1.00  0.00    -0.465 NA 
HETATM   11  N   UNL     1     -11.099  12.309  66.929  1.00  0.00    -0.273 NA 
HETATM   12 CL   UNL     1     -12.160  14.074  68.502  1.00  0.00    -0.377 Cl 
HETATM   13  C   UNL     1     -11.811  13.456  66.944  1.00  0.00    -0.403 A  
ENDROOT
BRANCH   8  14
HETATM   14  C1* UNL     1      -9.550   9.835  66.094  1.00  0.00    -0.227 C  
HETATM   15  C2* UNL     1      -8.551  10.459  67.058  1.00  0.00    -0.130 C  
HETATM   16  C4* UNL     1      -9.914   8.856  68.190  1.00  0.00    -0.176 C  
HETATM   17  C3* UNL     1      -8.492   9.421  68.150  1.00  0.00    -0.120 C  
HETATM   18  O3* UNL     1      -7.586   8.390  67.744  1.00  0.00    -0.099 OA 
HETATM   19  O4* UNL     1     -10.524   9.150  66.909  1.00  0.00    -0.253 OA 
HETATM   20  H3* UNL     1      -7.548   7.737  68.432  1.00  0.00     0.000 HD 
BRANCH  16  21
HETATM   21  C5* UNL     1     -10.783   9.483  69.283  1.00  0.00    -0.222 C  
HETATM   22  O5* UNL     1     -11.920  10.137  68.726  1.00  0.00    -0.603 OA 
HETATM   23  H5* UNL     1     -12.459  10.527  69.404  1.00  0.00     0.000 HD 
ENDBRANCH  16  21
ENDBRANCH   8  14
TORSDOF 2
ENDMDL
MODEL       33
REMARK 921   NORMALIZED FREE ENERGY PREDICTED BY IDOCK:   -5.88 KCAL/MOL
REMARK 922        TOTAL FREE ENERGY PREDICTED BY IDOCK:   -6.91 KCAL/MOL
REMARK 923 INTER-LIGAND FREE ENERGY PREDICTED BY IDOCK:   -6.46 KCAL/MOL
REMARK 924 INTRA-LIGAND FREE ENERGY PREDICTED BY IDOCK:   -0.45 KCAL/MOL
REMARK 927      BINDING AFFINITY PREDICTED BY RF-SCORE:    0.00 PKD
ROOT
HETATM    1  N   UNL     1     -13.946   8.965  73.218  1.00  0.00    -1.217 NA 
HETATM    2  C   UNL     1     -13.039   8.861  72.173  1.00  0.00    -0.421 A  
HETATM    3  H1  UNL     1     -14.256   8.163  73.767  1.00  0.00     0.000 HD 
HETATM    4  H2  UNL     1     -14.781   9.425  72.852  1.00  0.00     0.000 HD 
HETATM    5  C   UNL     1     -12.613   9.967  71.415  1.00  0.00    -0.415 A  
HETATM    6  N   UNL     1     -12.942  11.304  71.457  1.00  0.00    -0.445 NA 
HETATM    7  C   UNL     1     -12.202  11.862  70.521  1.00  0.00    -0.336 A  
HETATM    8  N   UNL     1     -11.437  10.943  69.852  1.00  0.00    -0.296 NA 
HETATM    9  C   UNL     1     -11.685   9.720  70.416  1.00  0.00    -0.231 A  
HETATM   10  N   UNL     1     -12.550   7.640  71.868  1.00  0.00    -0.314 NA 
HETATM   11  N   UNL     1     -11.152   8.534  70.081  1.00  0.00    -0.227 NA 
HETATM   12 CL   UNL     1     -11.067   5.984  70.533  1.00  0.00    -0.389 Cl 
HETATM   13  C   UNL     1     -11.651   7.557  70.868  1.00  0.00    -0.286 A  
ENDROOT
BRANCH   8  14
HETATM   14  C1* UNL     1     -10.490  11.198  68.784  1.00  0.00    -0.203 C  
HETATM   15  C2* UNL     1      -9.094  10.652  69.045  1.00  0.00    -0.174 C  
HETATM   16  C4* UNL     1      -9.791  10.130  66.820  1.00  0.00    -0.196 C  
HETATM   17  C3* UNL     1      -8.557  10.505  67.644  1.00  0.00    -0.118 C  
HETATM   18  O3* UNL     1      -8.069  11.780  67.212  1.00  0.00    -0.148 OA 
HETATM   19  O4* UNL     1     -10.951  10.565  67.572  1.00  0.00    -0.284 OA 
HETATM   20  H3* UNL     1      -7.730  11.687  66.329  1.00  0.00     0.000 HD 
BRANCH  16  21
HETATM   21  C5* UNL     1      -9.922   8.625  66.576  1.00  0.00    -0.282 C  
HETATM   22  O5* UNL     1     -11.060   8.091  67.247  1.00  0.00    -0.478 OA 
HETATM   23  H5* UNL     1     -11.141   7.157  67.096  1.00  0.00     0.000 HD 
ENDBRANCH  16  21
ENDBRANCH   8  14
TORSDOF 2
ENDMDL
MODEL       34
REMARK 921   NORMALIZED FREE ENERGY PREDICTED BY IDOCK:   -5.87 KCAL/MOL
REMARK 922        TOTAL FREE ENERGY PREDICTED BY IDOCK:   -6.90 KCAL/MOL
REMARK 923 INTER-LIGAND FREE ENERGY PREDICTED BY IDOCK:   -6.69 KCAL/MOL
REMARK 924 INTRA-LIGAND FREE ENERGY PREDICTED BY IDOCK:   -0.20 KCAL/MOL
REMARK 927      BINDING AFFINITY PREDICTED BY RF-SCORE:    0.00 PKD
ROOT
HETATM    1  N   UNL     1      -9.821   7.444  68.338  1.00  0.00    -0.154 NA 
HETATM    2  C   UNL     1     -10.291   8.733  68.130  1.00  0.00    -0.216 A  
HETATM    3  H1  UNL     1      -9.909   6.959  69.231  1.00  0.00     0.000 HD 
HETATM    4  H2  UNL     1      -8.834   7.435  68.082  1.00  0.00     0.000 HD 
HETATM    5  C   UNL     1     -10.169   9.404  66.899  1.00  0.00    -0.248 A  
HETATM    6  N   UNL     1      -9.600   9.043  65.697  1.00  0.00    -0.223 NA 
HETATM    7  C   UNL     1      -9.816  10.070  64.902  1.00  0.00    -0.281 A  
HETATM    8  N   UNL     1     -10.466  11.092  65.543  1.00  0.00    -0.257 NA 
HETATM    9  C   UNL     1     -10.705  10.680  66.827  1.00  0.00    -0.210 A  
HETATM   10  N   UNL     1     -10.886   9.373  69.160  1.00  0.00    -0.196 NA 
HETATM   11  N   UNL     1     -11.322  11.355  67.809  1.00  0.00    -0.326 NA 
HETATM   12 CL   UNL     1     -12.107  11.369  70.278  1.00  0.00    -0.439 Cl 
HETATM   13  C   UNL     1     -11.360  10.613  68.936  1.00  0.00    -0.274 A  
ENDROOT
BRANCH   8  14
HETATM   14  C1* UNL     1     -10.887  12.359  64.976  1.00  0.00    -0.295 C  
HETATM   15  C2* UNL     1     -12.379  12.630  65.098  1.00  0.00    -0.547 C  
HETATM   16  C4* UNL     1     -11.126  14.571  65.708  1.00  0.00    -0.324 C  
HETATM   17  C3* UNL     1     -12.423  14.135  65.021  1.00  0.00    -0.419 C  
HETATM   18  O3* UNL     1     -12.379  14.519  63.643  1.00  0.00    -1.064 OA 
HETATM   19  O4* UNL     1     -10.223  13.438  65.666  1.00  0.00    -0.285 OA 
HETATM   20  H3* UNL     1     -12.407  15.467  63.595  1.00  0.00     0.000 HD 
BRANCH  16  21
HETATM   21  C5* UNL     1     -11.321  14.966  67.173  1.00  0.00    -0.343 C  
HETATM   22  O5* UNL     1     -12.506  14.387  67.712  1.00  0.00    -0.588 OA 
HETATM   23  H5* UNL     1     -12.627  14.632  68.621  1.00  0.00     0.000 HD 
ENDBRANCH  16  21
ENDBRANCH   8  14
TORSDOF 2
ENDMDL
MODEL       35
REMARK 921   NORMALIZED FREE ENERGY PREDICTED BY IDOCK:   -5.86 KCAL/MOL
REMARK 922        TOTAL FREE ENERGY PREDICTED BY IDOCK:   -6.89 KCAL/MOL
REMARK 923 INTER-LIGAND FREE ENERGY PREDICTED BY IDOCK:   -6.57 KCAL/MOL
REMARK 924 INTRA-LIGAND FREE ENERGY PREDICTED BY IDOCK:   -0.32 KCAL/MOL
REMARK 927      BINDING AFFINITY PREDICTED BY RF-SCORE:    0.00 PKD
ROOT
HETATM    1  N   UNL     1     -13.764  15.048  73.262  1.00  0.00    -0.560 NA 
HETATM    2  C   UNL     1     -13.313  14.154  72.302  1.00  0.00    -0.461 A  
HETATM    3  H1  UNL     1     -14.208  14.753  74.132  1.00  0.00     0.000 HD 
HETATM    4  H2  UNL     1     -14.401  15.697  72.799  1.00  0.00     0.000 HD 
HETATM    5  C   UNL     1     -12.701  14.561  71.103  1.00  0.00    -0.338 A  
HETATM    6  N   UNL     1     -12.425  15.803  70.576  1.00  0.00    -0.393 NA 
HETATM    7  C   UNL     1     -11.816  15.556  69.434  1.00  0.00    -0.374 A  
HETATM    8  N   UNL     1     -11.718  14.213  69.182  1.00  0.00    -0.304 NA 
HETATM    9  C   UNL     1     -12.278  13.558  70.245  1.00  0.00    -0.347 A  
HETATM   10  N   UNL     1     -13.476  12.832  72.530  1.00  0.00    -0.435 NA 
HETATM   11  N   UNL     1     -12.397  12.233  70.428  1.00  0.00    -0.274 NA 
HETATM   12 CL   UNL     1     -13.244  10.315  71.951  1.00  0.00    -0.559 Cl 
HETATM   13  C   UNL     1     -13.011  11.975  71.602  1.00  0.00    -0.334 A  
ENDROOT
BRANCH   8  14
HETATM   14  C1* UNL     1     -11.091  13.577  68.039  1.00  0.00    -0.258 C  
HETATM   15  C2* UNL     1     -11.068  14.436  66.783  1.00  0.00    -0.323 C  
HETATM   16  C4* UNL     1      -8.938  13.413  67.134  1.00  0.00    -0.226 C  
HETATM   17  C3* UNL     1      -9.906  13.842  66.028  1.00  0.00    -0.282 C  
HETATM   18  O3* UNL     1     -10.368  12.681  65.329  1.00  0.00    -0.281 OA 
HETATM   19  O4* UNL     1      -9.714  13.279  68.349  1.00  0.00    -0.224 OA 
HETATM   20  H3* UNL     1      -9.635  12.307  64.854  1.00  0.00     0.000 HD 
BRANCH  16  21
HETATM   21  C5* UNL     1      -7.826  14.432  67.393  1.00  0.00    -0.190 C  
HETATM   22  O5* UNL     1      -6.538  13.847  67.218  1.00  0.00    -0.406 OA 
HETATM   23  H5* UNL     1      -5.848  14.479  67.379  1.00  0.00     0.000 HD 
ENDBRANCH  16  21
ENDBRANCH   8  14
TORSDOF 2
ENDMDL
MODEL       36
REMARK 921   NORMALIZED FREE ENERGY PREDICTED BY IDOCK:   -5.82 KCAL/MOL
REMARK 922        TOTAL FREE ENERGY PREDICTED BY IDOCK:   -6.84 KCAL/MOL
REMARK 923 INTER-LIGAND FREE ENERGY PREDICTED BY IDOCK:   -6.41 KCAL/MOL
REMARK 924 INTRA-LIGAND FREE ENERGY PREDICTED BY IDOCK:   -0.43 KCAL/MOL
REMARK 927      BINDING AFFINITY PREDICTED BY RF-SCORE:    0.00 PKD
ROOT
HETATM    1  N   UNL     1     -13.069  12.308  63.851  1.00  0.00    -0.761 NA 
HETATM    2  C   UNL     1     -12.407  12.872  64.932  1.00  0.00    -0.475 A  
HETATM    3  H1  UNL     1     -13.425  11.352  63.855  1.00  0.00     0.000 HD 
HETATM    4  H2  UNL     1     -12.462  12.405  63.037  1.00  0.00     0.000 HD 
HETATM    5  C   UNL     1     -11.917  14.191  64.927  1.00  0.00    -0.417 A  
HETATM    6  N   UNL     1     -11.920  15.180  63.968  1.00  0.00    -0.441 NA 
HETATM    7  C   UNL     1     -11.341  16.211  64.547  1.00  0.00    -0.267 A  
HETATM    8  N   UNL     1     -10.930  15.924  65.822  1.00  0.00    -0.234 NA 
HETATM    9  C   UNL     1     -11.295  14.631  66.085  1.00  0.00    -0.350 A  
HETATM   10  N   UNL     1     -12.221  12.116  66.036  1.00  0.00    -0.525 NA 
HETATM   11  N   UNL     1     -11.099  13.932  67.214  1.00  0.00    -0.293 NA 
HETATM   12 CL   UNL     1     -11.397  11.677  68.455  1.00  0.00    -0.302 Cl 
HETATM   13  C   UNL     1     -11.599  12.685  67.087  1.00  0.00    -0.368 A  
ENDROOT
BRANCH   8  14
HETATM   14  C1* UNL     1     -10.282  16.821  66.760  1.00  0.00    -0.304 C  
HETATM   15  C2* UNL     1     -10.939  16.870  68.131  1.00  0.00    -0.290 C  
HETATM   16  C4* UNL     1      -8.567  16.692  68.349  1.00  0.00    -0.221 C  
HETATM   17  C3* UNL     1      -9.797  17.329  69.001  1.00  0.00    -0.237 C  
HETATM   18  O3* UNL     1      -9.699  18.754  68.902  1.00  0.00    -0.372 OA 
HETATM   19  O4* UNL     1      -8.923  16.387  66.979  1.00  0.00    -0.199 OA 
HETATM   20  H3* UNL     1      -8.979  19.043  69.451  1.00  0.00     0.000 HD 
BRANCH  16  21
HETATM   21  C5* UNL     1      -8.129  15.392  69.026  1.00  0.00    -0.213 C  
HETATM   22  O5* UNL     1      -8.322  14.272  68.167  1.00  0.00    -0.144 OA 
HETATM   23  H5* UNL     1      -8.051  13.465  68.587  1.00  0.00     0.000 HD 
ENDBRANCH  16  21
ENDBRANCH   8  14
TORSDOF 2
ENDMDL
MODEL       37
REMARK 921   NORMALIZED FREE ENERGY PREDICTED BY IDOCK:   -5.78 KCAL/MOL
REMARK 922        TOTAL FREE ENERGY PREDICTED BY IDOCK:   -6.80 KCAL/MOL
REMARK 923 INTER-LIGAND FREE ENERGY PREDICTED BY IDOCK:   -6.33 KCAL/MOL
REMARK 924 INTRA-LIGAND FREE ENERGY PREDICTED BY IDOCK:   -0.47 KCAL/MOL
REMARK 927      BINDING AFFINITY PREDICTED BY RF-SCORE:    0.00 PKD
ROOT
HETATM    1  N   UNL     1     -12.431  13.848  63.098  1.00  0.00    -1.079 NA 
HETATM    2  C   UNL     1     -11.743  13.008  63.962  1.00  0.00    -0.436 A  
HETATM    3  H1  UNL     1     -12.395  13.751  62.083  1.00  0.00     0.000 HD 
HETATM    4  H2  UNL     1     -12.159  14.806  63.323  1.00  0.00     0.000 HD 
HETATM    5  C   UNL     1     -11.792  13.142  65.362  1.00  0.00    -0.372 A  
HETATM    6  N   UNL     1     -12.429  14.043  66.187  1.00  0.00    -0.466 NA 
HETATM    7  C   UNL     1     -12.128  13.650  67.408  1.00  0.00    -0.337 A  
HETATM    8  N   UNL     1     -11.297  12.561  67.410  1.00  0.00    -0.293 NA 
HETATM    9  C   UNL     1     -11.073  12.218  66.104  1.00  0.00    -0.311 A  
HETATM   10  N   UNL     1     -10.988  12.022  63.432  1.00  0.00    -0.414 NA 
HETATM   11  N   UNL     1     -10.324  11.209  65.632  1.00  0.00    -0.249 NA 
HETATM   12 CL   UNL     1      -9.411   9.967  63.550  1.00  0.00    -0.321 Cl 
HETATM   13  C   UNL     1     -10.347  11.198  64.283  1.00  0.00    -0.351 A  
ENDROOT
BRANCH   8  14
HETATM   14  C1* UNL     1     -10.784  11.849  68.564  1.00  0.00    -0.224 C  
HETATM   15  C2* UNL     1     -11.278  10.415  68.682  1.00  0.00    -0.305 C  
HETATM   16  C4* UNL     1      -8.924  10.520  69.073  1.00  0.00    -0.176 C  
HETATM   17  C3* UNL     1     -10.191   9.785  69.515  1.00  0.00    -0.221 C  
HETATM   18  O3* UNL     1     -10.450  10.077  70.892  1.00  0.00    -0.361 OA 
HETATM   19  O4* UNL     1      -9.345  11.775  68.483  1.00  0.00    -0.198 OA 
HETATM   20  H3* UNL     1      -9.765   9.680  71.417  1.00  0.00     0.000 HD 
BRANCH  16  21
HETATM   21  C5* UNL     1      -8.114   9.753  68.025  1.00  0.00    -0.105 C  
HETATM   22  O5* UNL     1      -7.822  10.573  66.897  1.00  0.00    -0.111 OA 
HETATM   23  H5* UNL     1      -7.320  10.097  66.246  1.00  0.00     0.000 HD 
ENDBRANCH  16  21
ENDBRANCH   8  14
TORSDOF 2
ENDMDL
MODEL       38
REMARK 921   NORMALIZED FREE ENERGY PREDICTED BY IDOCK:   -5.77 KCAL/MOL
REMARK 922        TOTAL FREE ENERGY PREDICTED BY IDOCK:   -6.79 KCAL/MOL
REMARK 923 INTER-LIGAND FREE ENERGY PREDICTED BY IDOCK:   -6.46 KCAL/MOL
REMARK 924 INTRA-LIGAND FREE ENERGY PREDICTED BY IDOCK:   -0.33 KCAL/MOL
REMARK 927      BINDING AFFINITY PREDICTED BY RF-SCORE:    0.00 PKD
ROOT
HETATM    1  N   UNL     1     -12.468  14.535  63.680  1.00  0.00    -1.078 NA 
HETATM    2  C   UNL     1     -11.794  13.408  64.129  1.00  0.00    -0.442 A  
HETATM    3  H1  UNL     1     -12.518  14.795  62.695  1.00  0.00     0.000 HD 
HETATM    4  H2  UNL     1     -12.095  15.337  64.188  1.00  0.00     0.000 HD 
HETATM    5  C   UNL     1     -11.723  13.049  65.488  1.00  0.00    -0.368 A  
HETATM    6  N   UNL     1     -12.213  13.641  66.632  1.00  0.00    -0.410 NA 
HETATM    7  C   UNL     1     -11.856  12.831  67.607  1.00  0.00    -0.339 A  
HETATM    8  N   UNL     1     -11.127  11.764  67.152  1.00  0.00    -0.279 NA 
HETATM    9  C   UNL     1     -11.035  11.885  65.792  1.00  0.00    -0.311 A  
HETATM   10  N   UNL     1     -11.172  12.627  63.220  1.00  0.00    -0.351 NA 
HETATM   11  N   UNL     1     -10.416  11.063  64.930  1.00  0.00    -0.314 NA 
HETATM   12 CL   UNL     1      -9.779  10.573  62.467  1.00  0.00    -0.232 Cl 
HETATM   13  C   UNL     1     -10.543  11.523  63.668  1.00  0.00    -0.429 A  
ENDROOT
BRANCH   8  14
HETATM   14  C1* UNL     1     -10.593  10.666  67.935  1.00  0.00    -0.228 C  
HETATM   15  C2* UNL     1      -9.545  11.083  68.957  1.00  0.00    -0.136 C  
HETATM   16  C4* UNL     1     -11.116   9.575  69.940  1.00  0.00    -0.216 C  
HETATM   17  C3* UNL     1      -9.635   9.961  69.961  1.00  0.00    -0.214 C  
HETATM   18  O3* UNL     1      -8.854   8.862  69.481  1.00  0.00    -0.138 OA 
HETATM   19  O4* UNL     1     -11.659  10.044  68.681  1.00  0.00    -0.053 OA 
HETATM   20  H3* UNL     1      -8.910   8.156  70.113  1.00  0.00     0.000 HD 
BRANCH  16  21
HETATM   21  C5* UNL     1     -11.924  10.214  71.071  1.00  0.00    -0.378 C  
HETATM   22  O5* UNL     1     -13.317   9.955  70.921  1.00  0.00    -0.542 OA 
HETATM   23  H5* UNL     1     -13.819  10.352  71.623  1.00  0.00     0.000 HD 
ENDBRANCH  16  21
ENDBRANCH   8  14
TORSDOF 2
ENDMDL
MODEL       39
REMARK 921   NORMALIZED FREE ENERGY PREDICTED BY IDOCK:   -5.75 KCAL/MOL
REMARK 922        TOTAL FREE ENERGY PREDICTED BY IDOCK:   -6.77 KCAL/MOL
REMARK 923 INTER-LIGAND FREE ENERGY PREDICTED BY IDOCK:   -6.33 KCAL/MOL
REMARK 924 INTRA-LIGAND FREE ENERGY PREDICTED BY IDOCK:   -0.44 KCAL/MOL
REMARK 927      BINDING AFFINITY PREDICTED BY RF-SCORE:    0.00 PKD
ROOT
HETATM    1  N   UNL     1     -12.550  16.307  71.130  1.00  0.00    -0.397 NA 
HETATM    2  C   UNL     1     -12.155  15.133  70.505  1.00  0.00    -0.343 A  
HETATM    3  H1  UNL     1     -12.288  17.232  70.790  1.00  0.00     0.000 HD 
HETATM    4  H2  UNL     1     -12.257  16.246  72.106  1.00  0.00     0.000 HD 
HETATM    5  C   UNL     1     -12.516  13.856  70.974  1.00  0.00    -0.377 A  
HETATM    6  N   UNL     1     -13.249  13.440  72.064  1.00  0.00    -0.425 NA 
HETATM    7  C   UNL     1     -13.274  12.126  71.969  1.00  0.00    -0.391 A  
HETATM    8  N   UNL     1     -12.562  11.673  70.890  1.00  0.00    -0.348 NA 
HETATM    9  C   UNL     1     -12.071  12.771  70.237  1.00  0.00    -0.297 A  
HETATM   10  N   UNL     1     -11.384  15.223  69.400  1.00  0.00    -0.273 NA 
HETATM   11  N   UNL     1     -11.320  12.801  69.124  1.00  0.00    -0.280 NA 
HETATM   12 CL   UNL     1     -10.058  14.257  67.392  1.00  0.00    -0.245 Cl 
HETATM   13  C   UNL     1     -11.031  14.076  68.788  1.00  0.00    -0.262 A  
ENDROOT
BRANCH   8  14
HETATM   14  C1* UNL     1     -12.393  10.297  70.464  1.00  0.00    -0.284 C  
HETATM   15  C2* UNL     1     -11.145   9.623  71.014  1.00  0.00    -0.438 C  
HETATM   16  C4* UNL     1     -13.034   8.175  71.221  1.00  0.00    -0.162 C  
HETATM   17  C3* UNL     1     -11.528   8.167  70.945  1.00  0.00    -0.271 C  
HETATM   18  O3* UNL     1     -11.295   7.701  69.612  1.00  0.00    -0.453 OA 
HETATM   19  O4* UNL     1     -13.512   9.510  70.923  1.00  0.00    -0.233 OA 
HETATM   20  H3* UNL     1     -11.536   6.783  69.568  1.00  0.00     0.000 HD 
BRANCH  16  21
HETATM   21  C5* UNL     1     -13.385   7.861  72.676  1.00  0.00     0.359 C  
HETATM   22  O5* UNL     1     -14.078   8.946  73.287  1.00  0.00    -1.211 OA 
HETATM   23  H5* UNL     1     -14.295   8.751  74.190  1.00  0.00     0.000 HD 
ENDBRANCH  16  21
ENDBRANCH   8  14
TORSDOF 2
ENDMDL
MODEL       40
REMARK 921   NORMALIZED FREE ENERGY PREDICTED BY IDOCK:   -5.75 KCAL/MOL
REMARK 922        TOTAL FREE ENERGY PREDICTED BY IDOCK:   -6.77 KCAL/MOL
REMARK 923 INTER-LIGAND FREE ENERGY PREDICTED BY IDOCK:   -6.51 KCAL/MOL
REMARK 924 INTRA-LIGAND FREE ENERGY PREDICTED BY IDOCK:   -0.25 KCAL/MOL
REMARK 927      BINDING AFFINITY PREDICTED BY RF-SCORE:    0.00 PKD
ROOT
HETATM    1  N   UNL     1      -9.922  10.580  62.567  1.00  0.00    -0.755 NA 
HETATM    2  C   UNL     1     -10.371  11.240  63.702  1.00  0.00    -0.408 A  
HETATM    3  H1  UNL     1      -9.996  10.974  61.630  1.00  0.00     0.000 HD 
HETATM    4  H2  UNL     1     -10.372   9.664  62.550  1.00  0.00     0.000 HD 
HETATM    5  C   UNL     1     -10.269  10.696  64.996  1.00  0.00    -0.310 A  
HETATM    6  N   UNL     1      -9.784   9.494  65.462  1.00  0.00    -0.293 NA 
HETATM    7  C   UNL     1      -9.926   9.559  66.770  1.00  0.00    -0.233 A  
HETATM    8  N   UNL     1     -10.513  10.732  67.168  1.00  0.00    -0.224 NA 
HETATM    9  C   UNL     1     -10.737  11.476  66.041  1.00  0.00    -0.281 A  
HETATM   10  N   UNL     1     -10.936  12.458  63.555  1.00  0.00    -0.460 NA 
HETATM   11  N   UNL     1     -11.290  12.697  65.955  1.00  0.00    -0.310 NA 
HETATM   12 CL   UNL     1     -12.047  14.637  64.415  1.00  0.00    -0.498 Cl 
HETATM   13  C   UNL     1     -11.343  13.098  64.667  1.00  0.00    -0.333 A  
ENDROOT
BRANCH   8  14
HETATM   14  C1* UNL     1     -10.801  11.155  68.525  1.00  0.00    -0.203 C  
HETATM   15  C2* UNL     1     -12.284  11.288  68.835  1.00  0.00    -0.160 C  
HETATM   16  C4* UNL     1     -11.163  10.133  70.600  1.00  0.00    -0.340 C  
HETATM   17  C3* UNL     1     -12.299  11.124  70.333  1.00  0.00    -0.344 C  
HETATM   18  O3* UNL     1     -11.975  12.385  70.928  1.00  0.00    -0.435 OA 
HETATM   19  O4* UNL     1     -10.280  10.181  69.453  1.00  0.00    -0.200 OA 
HETATM   20  H3* UNL     1     -11.984  12.281  71.873  1.00  0.00     0.000 HD 
BRANCH  16  21
HETATM   21  C5* UNL     1     -11.646   8.690  70.766  1.00  0.00    -0.242 C  
HETATM   22  O5* UNL     1     -13.028   8.644  71.111  1.00  0.00    -0.484 OA 
HETATM   23  H5* UNL     1     -13.327   7.749  71.214  1.00  0.00     0.000 HD 
ENDBRANCH  16  21
ENDBRANCH   8  14
TORSDOF 2
ENDMDL
MODEL       41
REMARK 921   NORMALIZED FREE ENERGY PREDICTED BY IDOCK:   -5.75 KCAL/MOL
REMARK 922        TOTAL FREE ENERGY PREDICTED BY IDOCK:   -6.76 KCAL/MOL
REMARK 923 INTER-LIGAND FREE ENERGY PREDICTED BY IDOCK:   -6.38 KCAL/MOL
REMARK 924 INTRA-LIGAND FREE ENERGY PREDICTED BY IDOCK:   -0.38 KCAL/MOL
REMARK 927      BINDING AFFINITY PREDICTED BY RF-SCORE:    0.00 PKD
ROOT
HETATM    1  N   UNL     1     -12.941  10.789  71.938  1.00  0.00    -0.463 NA 
HETATM    2  C   UNL     1     -12.554  11.714  70.980  1.00  0.00    -0.331 A  
HETATM    3  H1  UNL     1     -13.388  11.053  72.816  1.00  0.00     0.000 HD 
HETATM    4  H2  UNL     1     -12.121  10.229  72.170  1.00  0.00     0.000 HD 
HETATM    5  C   UNL     1     -11.937  11.351  69.769  1.00  0.00    -0.353 A  
HETATM    6  N   UNL     1     -11.556  10.133  69.249  1.00  0.00    -0.118 NA 
HETATM    7  C   UNL     1     -11.053  10.416  68.065  1.00  0.00    -0.298 A  
HETATM    8  N   UNL     1     -11.057  11.762  67.811  1.00  0.00    -0.227 NA 
HETATM    9  C   UNL     1     -11.624  12.379  68.893  1.00  0.00    -0.316 A  
HETATM   10  N   UNL     1     -12.775  13.024  71.226  1.00  0.00    -0.348 NA 
HETATM   11  N   UNL     1     -11.837  13.691  69.077  1.00  0.00    -0.333 NA 
HETATM   12 CL   UNL     1     -12.727  15.551  70.647  1.00  0.00    -0.497 Cl 
HETATM   13  C   UNL     1     -12.418  13.909  70.276  1.00  0.00    -0.314 A  
ENDROOT
BRANCH   8  14
HETATM   14  C1* UNL     1     -10.604  12.430  66.606  1.00  0.00    -0.231 C  
HETATM   15  C2* UNL     1     -11.728  12.898  65.693  1.00  0.00    -0.430 C  
HETATM   16  C4* UNL     1     -10.090  14.618  65.947  1.00  0.00    -0.320 C  
HETATM   17  C3* UNL     1     -11.058  14.011  64.929  1.00  0.00    -0.375 C  
HETATM   18  O3* UNL     1     -10.310  13.433  63.853  1.00  0.00    -0.635 OA 
HETATM   19  O4* UNL     1      -9.856  13.611  66.962  1.00  0.00    -0.239 OA 
HETATM   20  H3* UNL     1      -9.888  14.135  63.371  1.00  0.00     0.000 HD 
BRANCH  16  21
HETATM   21  C5* UNL     1     -10.643  15.867  66.637  1.00  0.00    -0.305 C  
HETATM   22  O5* UNL     1     -10.317  15.877  68.025  1.00  0.00    -0.250 OA 
HETATM   23  H5* UNL     1     -10.660  16.652  68.453  1.00  0.00     0.000 HD 
ENDBRANCH  16  21
ENDBRANCH   8  14
TORSDOF 2
ENDMDL
MODEL       42
REMARK 921   NORMALIZED FREE ENERGY PREDICTED BY IDOCK:   -5.75 KCAL/MOL
REMARK 922        TOTAL FREE ENERGY PREDICTED BY IDOCK:   -6.76 KCAL/MOL
REMARK 923 INTER-LIGAND FREE ENERGY PREDICTED BY IDOCK:   -6.38 KCAL/MOL
REMARK 924 INTRA-LIGAND FREE ENERGY PREDICTED BY IDOCK:   -0.38 KCAL/MOL
REMARK 927      BINDING AFFINITY PREDICTED BY RF-SCORE:    0.00 PKD
ROOT
HETATM    1  N   UNL     1     -13.245   9.929  72.137  1.00  0.00    -0.493 NA 
HETATM    2  C   UNL     1     -12.895  11.135  71.547  1.00  0.00    -0.437 A  
HETATM    3  H1  UNL     1     -13.854   9.866  72.953  1.00  0.00     0.000 HD 
HETATM    4  H2  UNL     1     -12.380   9.439  72.365  1.00  0.00     0.000 HD 
HETATM    5  C   UNL     1     -12.054  11.222  70.423  1.00  0.00    -0.384 A  
HETATM    6  N   UNL     1     -11.390  10.268  69.683  1.00  0.00    -0.255 NA 
HETATM    7  C   UNL     1     -10.779  10.945  68.733  1.00  0.00    -0.207 A  
HETATM    8  N   UNL     1     -10.987  12.294  68.845  1.00  0.00    -0.227 NA 
HETATM    9  C   UNL     1     -11.807  12.491  69.923  1.00  0.00    -0.303 A  
HETATM   10  N   UNL     1     -13.381  12.276  72.082  1.00  0.00    -0.484 NA 
HETATM   11  N   UNL     1     -12.276  13.654  70.401  1.00  0.00    -0.353 NA 
HETATM   12 CL   UNL     1     -13.703  14.846  72.206  1.00  0.00    -0.507 Cl 
HETATM   13  C   UNL     1     -13.054  13.437  71.483  1.00  0.00    -0.342 A  
ENDROOT
BRANCH   8  14
HETATM   14  C1* UNL     1     -10.492  13.336  67.965  1.00  0.00    -0.242 C  
HETATM   15  C2* UNL     1     -11.537  13.894  67.011  1.00  0.00    -0.394 C  
HETATM   16  C4* UNL     1     -10.291  15.669  68.013  1.00  0.00    -0.246 C  
HETATM   17  C3* UNL     1     -10.974  15.259  66.706  1.00  0.00    -0.306 C  
HETATM   18  O3* UNL     1      -9.986  15.122  65.680  1.00  0.00    -0.316 OA 
HETATM   19  O4* UNL     1     -10.030  14.452  68.755  1.00  0.00    -0.233 OA 
HETATM   20  H3* UNL     1      -9.632  15.982  65.488  1.00  0.00     0.000 HD 
BRANCH  16  21
HETATM   21  C5* UNL     1     -11.155  16.580  68.888  1.00  0.00    -0.300 C  
HETATM   22  O5* UNL     1     -11.009  16.260  70.269  1.00  0.00    -0.347 OA 
HETATM   23  H5* UNL     1     -11.546  16.825  70.811  1.00  0.00     0.000 HD 
ENDBRANCH  16  21
ENDBRANCH   8  14
TORSDOF 2
ENDMDL
MODEL       43
REMARK 921   NORMALIZED FREE ENERGY PREDICTED BY IDOCK:   -5.72 KCAL/MOL
REMARK 922        TOTAL FREE ENERGY PREDICTED BY IDOCK:   -6.73 KCAL/MOL
REMARK 923 INTER-LIGAND FREE ENERGY PREDICTED BY IDOCK:   -6.41 KCAL/MOL
REMARK 924 INTRA-LIGAND FREE ENERGY PREDICTED BY IDOCK:   -0.32 KCAL/MOL
REMARK 927      BINDING AFFINITY PREDICTED BY RF-SCORE:    0.00 PKD
ROOT
HETATM    1  N   UNL     1      -6.527  18.172  69.531  1.00  0.00    -0.228 NA 
HETATM    2  C   UNL     1      -7.667  18.000  68.760  1.00  0.00    -0.264 A  
HETATM    3  H1  UNL     1      -6.103  19.085  69.699  1.00  0.00     0.000 HD 
HETATM    4  H2  UNL     1      -5.803  17.566  69.144  1.00  0.00     0.000 HD 
HETATM    5  C   UNL     1      -8.252  16.742  68.528  1.00  0.00    -0.242 A  
HETATM    6  N   UNL     1      -7.902  15.468  68.920  1.00  0.00    -0.166 NA 
HETATM    7  C   UNL     1      -8.844  14.693  68.422  1.00  0.00    -0.181 A  
HETATM    8  N   UNL     1      -9.766  15.401  67.697  1.00  0.00    -0.211 NA 
HETATM    9  C   UNL     1      -9.404  16.720  67.757  1.00  0.00    -0.233 A  
HETATM   10  N   UNL     1      -8.236  19.091  68.203  1.00  0.00    -0.302 NA 
HETATM   11  N   UNL     1     -10.022  17.771  67.196  1.00  0.00    -0.309 NA 
HETATM   12 CL   UNL     1     -10.032  20.333  66.804  1.00  0.00    -0.595 Cl 
HETATM   13  C   UNL     1      -9.357  18.912  67.479  1.00  0.00    -0.294 A  
ENDROOT
BRANCH   8  14
HETATM   14  C1* UNL     1     -10.945  14.884  67.031  1.00  0.00    -0.327 C  
HETATM   15  C2* UNL     1     -10.695  14.393  65.613  1.00  0.00    -0.326 C  
HETATM   16  C4* UNL     1     -12.028  12.818  66.817  1.00  0.00    -0.319 C  
HETATM   17  C3* UNL     1     -11.828  13.417  65.422  1.00  0.00    -0.353 C  
HETATM   18  O3* UNL     1     -12.999  14.152  65.052  1.00  0.00    -0.721 OA 
HETATM   19  O4* UNL     1     -11.455  13.752  67.765  1.00  0.00    -0.287 OA 
HETATM   20  H3* UNL     1     -13.713  13.537  64.932  1.00  0.00     0.000 HD 
BRANCH  16  21
HETATM   21  C5* UNL     1     -11.330  11.469  67.001  1.00  0.00    -0.269 C  
HETATM   22  O5* UNL     1     -12.001  10.669  67.971  1.00  0.00    -0.784 OA 
HETATM   23  H5* UNL     1     -11.568   9.831  68.085  1.00  0.00     0.000 HD 
ENDBRANCH  16  21
ENDBRANCH   8  14
TORSDOF 2
ENDMDL
MODEL       44
REMARK 921   NORMALIZED FREE ENERGY PREDICTED BY IDOCK:   -5.72 KCAL/MOL
REMARK 922        TOTAL FREE ENERGY PREDICTED BY IDOCK:   -6.73 KCAL/MOL
REMARK 923 INTER-LIGAND FREE ENERGY PREDICTED BY IDOCK:   -6.41 KCAL/MOL
REMARK 924 INTRA-LIGAND FREE ENERGY PREDICTED BY IDOCK:   -0.32 KCAL/MOL
REMARK 927      BINDING AFFINITY PREDICTED BY RF-SCORE:    0.00 PKD
ROOT
HETATM    1  N   UNL     1      -6.374  10.835  70.172  1.00  0.00    -0.137 NA 
HETATM    2  C   UNL     1      -7.509  10.652  69.396  1.00  0.00    -0.135 A  
HETATM    3  H1  UNL     1      -5.989  10.106  70.773  1.00  0.00     0.000 HD 
HETATM    4  H2  UNL     1      -6.531  11.658  70.753  1.00  0.00     0.000 HD 
HETATM    5  C   UNL     1      -8.041  11.657  68.567  1.00  0.00    -0.145 A  
HETATM    6  N   UNL     1      -7.663  12.960  68.327  1.00  0.00    -0.129 NA 
HETATM    7  C   UNL     1      -8.525  13.401  67.435  1.00  0.00    -0.196 A  
HETATM    8  N   UNL     1      -9.464  12.457  67.114  1.00  0.00    -0.193 NA 
HETATM    9  C   UNL     1      -9.167  11.328  67.829  1.00  0.00    -0.156 A  
HETATM   10  N   UNL     1      -8.134   9.456  69.445  1.00  0.00    -0.098 NA 
HETATM   11  N   UNL     1      -9.817  10.153  67.824  1.00  0.00    -0.159 NA 
HETATM   12 CL   UNL     1      -9.964   7.746  68.771  1.00  0.00    -0.173 Cl 
HETATM   13  C   UNL     1      -9.220   9.284  68.667  1.00  0.00    -0.135 A  
ENDROOT
BRANCH   8  14
HETATM   14  C1* UNL     1     -10.546  12.583  66.156  1.00  0.00    -0.253 C  
HETATM   15  C2* UNL     1     -11.841  13.122  66.746  1.00  0.00    -0.444 C  
HETATM   16  C4* UNL     1     -11.348  14.214  64.679  1.00  0.00    -0.371 C  
HETATM   17  C3* UNL     1     -12.514  13.700  65.527  1.00  0.00    -0.503 C  
HETATM   18  O3* UNL     1     -13.174  12.639  64.830  1.00  0.00    -0.846 OA 
HETATM   19  O4* UNL     1     -10.162  13.505  65.115  1.00  0.00    -0.330 OA 
HETATM   20  H3* UNL     1     -13.599  13.003  64.062  1.00  0.00     0.000 HD 
BRANCH  16  21
HETATM   21  C5* UNL     1     -11.093  15.713  64.846  1.00  0.00    -0.402 C  
HETATM   22  O5* UNL     1     -11.578  16.448  63.726  1.00  0.00    -1.605 OA 
HETATM   23  H5* UNL     1     -11.419  17.378  63.829  1.00  0.00     0.000 HD 
ENDBRANCH  16  21
ENDBRANCH   8  14
TORSDOF 2
ENDMDL
MODEL       45
REMARK 921   NORMALIZED FREE ENERGY PREDICTED BY IDOCK:   -5.71 KCAL/MOL
REMARK 922        TOTAL FREE ENERGY PREDICTED BY IDOCK:   -6.73 KCAL/MOL
REMARK 923 INTER-LIGAND FREE ENERGY PREDICTED BY IDOCK:   -6.46 KCAL/MOL
REMARK 924 INTRA-LIGAND FREE ENERGY PREDICTED BY IDOCK:   -0.27 KCAL/MOL
REMARK 927      BINDING AFFINITY PREDICTED BY RF-SCORE:    0.00 PKD
ROOT
HETATM    1  N   UNL     1      -9.776   7.265  66.283  1.00  0.00    -0.413 NA 
HETATM    2  C   UNL     1     -10.181   8.375  67.010  1.00  0.00    -0.307 A  
HETATM    3  H1  UNL     1      -9.593   6.357  66.711  1.00  0.00     0.000 HD 
HETATM    4  H2  UNL     1      -8.939   7.530  65.762  1.00  0.00     0.000 HD 
HETATM    5  C   UNL     1     -10.433   9.627  66.421  1.00  0.00    -0.111 A  
HETATM    6  N   UNL     1     -10.339  10.078  65.122  1.00  0.00    -0.095 NA 
HETATM    7  C   UNL     1     -10.729  11.335  65.175  1.00  0.00    -0.246 A  
HETATM    8  N   UNL     1     -11.035  11.728  66.451  1.00  0.00    -0.284 NA 
HETATM    9  C   UNL     1     -10.854  10.642  67.265  1.00  0.00    -0.287 A  
HETATM   10  N   UNL     1     -10.335   8.245  68.346  1.00  0.00    -0.209 NA 
HETATM   11  N   UNL     1     -11.041  10.566  68.592  1.00  0.00    -0.252 NA 
HETATM   12 CL   UNL     1     -10.933   9.094  70.722  1.00  0.00    -0.304 Cl 
HETATM   13  C   UNL     1     -10.754   9.323  69.035  1.00  0.00    -0.167 A  
ENDROOT
BRANCH   8  14
HETATM   14  C1* UNL     1     -11.519  13.026  66.879  1.00  0.00    -0.339 C  
HETATM   15  C2* UNL     1     -10.491  13.857  67.631  1.00  0.00    -0.245 C  
HETATM   16  C4* UNL     1     -11.614  15.196  66.002  1.00  0.00    -0.080 C  
HETATM   17  C3* UNL     1     -11.004  15.257  67.405  1.00  0.00    -0.321 C  
HETATM   18  O3* UNL     1     -12.039  15.518  68.359  1.00  0.00    -0.520 OA 
HETATM   19  O4* UNL     1     -11.899  13.803  65.724  1.00  0.00    -0.340 OA 
HETATM   20  H3* UNL     1     -12.362  16.400  68.216  1.00  0.00     0.000 HD 
BRANCH  16  21
HETATM   21  C5* UNL     1     -10.676  15.715  64.911  1.00  0.00    -0.382 C  
HETATM   22  O5* UNL     1     -11.386  16.475  63.937  1.00  0.00    -1.557 OA 
HETATM   23  H5* UNL     1     -10.804  16.797  63.260  1.00  0.00     0.000 HD 
ENDBRANCH  16  21
ENDBRANCH   8  14
TORSDOF 2
ENDMDL
MODEL       46
REMARK 921   NORMALIZED FREE ENERGY PREDICTED BY IDOCK:   -5.69 KCAL/MOL
REMARK 922        TOTAL FREE ENERGY PREDICTED BY IDOCK:   -6.70 KCAL/MOL
REMARK 923 INTER-LIGAND FREE ENERGY PREDICTED BY IDOCK:   -6.25 KCAL/MOL
REMARK 924 INTRA-LIGAND FREE ENERGY PREDICTED BY IDOCK:   -0.45 KCAL/MOL
REMARK 927      BINDING AFFINITY PREDICTED BY RF-SCORE:    0.00 PKD
ROOT
HETATM    1  N   UNL     1     -10.544  10.823  62.878  1.00  0.00    -0.709 NA 
HETATM    2  C   UNL     1     -10.374  11.406  64.126  1.00  0.00    -0.344 A  
HETATM    3  H1  UNL     1      -9.910  10.118  62.504  1.00  0.00     0.000 HD 
HETATM    4  H2  UNL     1     -10.599  11.579  62.195  1.00  0.00     0.000 HD 
HETATM    5  C   UNL     1     -11.249  12.379  64.643  1.00  0.00    -0.312 A  
HETATM    6  N   UNL     1     -12.372  12.987  64.127  1.00  0.00    -0.569 NA 
HETATM    7  C   UNL     1     -12.785  13.796  65.081  1.00  0.00    -0.397 A  
HETATM    8  N   UNL     1     -11.961  13.766  66.175  1.00  0.00    -0.393 NA 
HETATM    9  C   UNL     1     -10.970  12.858  65.914  1.00  0.00    -0.276 A  
HETATM   10  N   UNL     1      -9.316  11.023  64.874  1.00  0.00    -0.216 NA 
HETATM   11  N   UNL     1      -9.947  12.502  66.707  1.00  0.00    -0.223 NA 
HETATM   12 CL   UNL     1      -7.821  11.049  66.992  1.00  0.00    -0.131 Cl 
HETATM   13  C   UNL     1      -9.178  11.578  66.093  1.00  0.00    -0.219 A  
ENDROOT
BRANCH   8  14
HETATM   14  C1* UNL     1     -12.119  14.502  67.415  1.00  0.00    -0.257 C  
HETATM   15  C2* UNL     1     -12.086  13.634  68.664  1.00  0.00    -0.325 C  
HETATM   16  C4* UNL     1     -10.725  15.575  68.961  1.00  0.00    -0.243 C  
HETATM   17  C3* UNL     1     -11.662  14.628  69.715  1.00  0.00    -0.313 C  
HETATM   18  O3* UNL     1     -12.820  15.352  70.145  1.00  0.00    -0.626 OA 
HETATM   19  O4* UNL     1     -11.038  15.448  67.552  1.00  0.00    -0.314 OA 
HETATM   20  H3* UNL     1     -12.552  15.978  70.808  1.00  0.00     0.000 HD 
BRANCH  16  21
HETATM   21  C5* UNL     1      -9.245  15.239  69.150  1.00  0.00    -0.234 C  
HETATM   22  O5* UNL     1      -8.643  14.847  67.919  1.00  0.00    -0.152 OA 
HETATM   23  H5* UNL     1      -7.725  14.638  68.036  1.00  0.00     0.000 HD 
ENDBRANCH  16  21
ENDBRANCH   8  14
TORSDOF 2
ENDMDL
MODEL       47
REMARK 921   NORMALIZED FREE ENERGY PREDICTED BY IDOCK:   -5.69 KCAL/MOL
REMARK 922        TOTAL FREE ENERGY PREDICTED BY IDOCK:   -6.70 KCAL/MOL
REMARK 923 INTER-LIGAND FREE ENERGY PREDICTED BY IDOCK:   -6.36 KCAL/MOL
REMARK 924 INTRA-LIGAND FREE ENERGY PREDICTED BY IDOCK:   -0.34 KCAL/MOL
REMARK 927      BINDING AFFINITY PREDICTED BY RF-SCORE:    0.00 PKD
ROOT
HETATM    1  N   UNL     1      -6.460  17.991  69.691  1.00  0.00    -0.192 NA 
HETATM    2  C   UNL     1      -7.535  18.021  68.814  1.00  0.00    -0.264 A  
HETATM    3  H1  UNL     1      -6.033  18.834  70.075  1.00  0.00     0.000 HD 
HETATM    4  H2  UNL     1      -5.719  17.449  69.247  1.00  0.00     0.000 HD 
HETATM    5  C   UNL     1      -8.124  16.858  68.284  1.00  0.00    -0.217 A  
HETATM    6  N   UNL     1      -7.835  15.519  68.434  1.00  0.00    -0.123 NA 
HETATM    7  C   UNL     1      -8.747  14.897  67.716  1.00  0.00    -0.167 A  
HETATM    8  N   UNL     1      -9.589  15.771  67.081  1.00  0.00    -0.216 NA 
HETATM    9  C   UNL     1      -9.206  17.036  67.437  1.00  0.00    -0.234 A  
HETATM   10  N   UNL     1      -8.032  19.222  68.449  1.00  0.00    -0.328 NA 
HETATM   11  N   UNL     1      -9.753  18.201  67.056  1.00  0.00    -0.295 NA 
HETATM   12 CL   UNL     1      -9.676  20.787  67.196  1.00  0.00    -0.561 Cl 
HETATM   13  C   UNL     1      -9.091  19.235  67.617  1.00  0.00    -0.301 A  
ENDROOT
BRANCH   8  14
HETATM   14  C1* UNL     1     -10.719  15.443  66.232  1.00  0.00    -0.312 C  
HETATM   15  C2* UNL     1     -10.333  14.900  64.864  1.00  0.00    -0.347 C  
HETATM   16  C4* UNL     1     -12.075  13.578  65.825  1.00  0.00    -0.433 C  
HETATM   17  C3* UNL     1     -11.566  14.119  64.487  1.00  0.00    -0.389 C  
HETATM   18  O3* UNL     1     -12.530  15.030  63.948  1.00  0.00    -1.005 OA 
HETATM   19  O4* UNL     1     -11.514  14.418  66.863  1.00  0.00    -0.337 OA 
HETATM   20  H3* UNL     1     -13.307  14.537  63.710  1.00  0.00     0.000 HD 
BRANCH  16  21
HETATM   21  C5* UNL     1     -11.644  12.136  66.098  1.00  0.00    -0.354 C  
HETATM   22  O5* UNL     1     -11.044  11.549  64.947  1.00  0.00    -0.284 OA 
HETATM   23  H5* UNL     1     -10.776  10.654  65.116  1.00  0.00     0.000 HD 
ENDBRANCH  16  21
ENDBRANCH   8  14
TORSDOF 2
ENDMDL
MODEL       48
REMARK 921   NORMALIZED FREE ENERGY PREDICTED BY IDOCK:   -5.69 KCAL/MOL
REMARK 922        TOTAL FREE ENERGY PREDICTED BY IDOCK:   -6.69 KCAL/MOL
REMARK 923 INTER-LIGAND FREE ENERGY PREDICTED BY IDOCK:   -6.36 KCAL/MOL
REMARK 924 INTRA-LIGAND FREE ENERGY PREDICTED BY IDOCK:   -0.33 KCAL/MOL
REMARK 927      BINDING AFFINITY PREDICTED BY RF-SCORE:    0.00 PKD
ROOT
HETATM    1  N   UNL     1     -13.667   9.203  72.976  1.00  0.00    -1.009 NA 
HETATM    2  C   UNL     1     -12.814   9.259  71.883  1.00  0.00    -0.404 A  
HETATM    3  H1  UNL     1     -13.907   8.333  73.450  1.00  0.00     0.000 HD 
HETATM    4  H2  UNL     1     -14.542   9.653  72.703  1.00  0.00     0.000 HD 
HETATM    5  C   UNL     1     -12.484  10.460  71.229  1.00  0.00    -0.415 A  
HETATM    6  N   UNL     1     -12.875  11.765  71.430  1.00  0.00    -0.386 NA 
HETATM    7  C   UNL     1     -12.215  12.457  70.524  1.00  0.00    -0.295 A  
HETATM    8  N   UNL     1     -11.443  11.656  69.724  1.00  0.00    -0.282 NA 
HETATM    9  C   UNL     1     -11.601  10.369  70.165  1.00  0.00    -0.312 A  
HETATM   10  N   UNL     1     -12.283   8.104  71.425  1.00  0.00    -0.295 NA 
HETATM   11  N   UNL     1     -11.029   9.256  69.679  1.00  0.00    -0.213 NA 
HETATM   12 CL   UNL     1     -10.795   6.681  69.849  1.00  0.00    -0.298 Cl 
HETATM   13  C   UNL     1     -11.437   8.176  70.380  1.00  0.00    -0.125 A  
ENDROOT
BRANCH   8  14
HETATM   14  C1* UNL     1     -10.569  12.073  68.645  1.00  0.00    -0.229 C  
HETATM   15  C2* UNL     1     -11.192  11.963  67.261  1.00  0.00    -0.376 C  
HETATM   16  C4* UNL     1     -10.074  14.060  67.508  1.00  0.00    -0.237 C  
HETATM   17  C3* UNL     1     -10.382  12.967  66.481  1.00  0.00    -0.274 C  
HETATM   18  O3* UNL     1      -9.160  12.343  66.074  1.00  0.00    -0.412 OA 
HETATM   19  O4* UNL     1     -10.217  13.461  68.820  1.00  0.00    -0.211 OA 
HETATM   20  H3* UNL     1      -8.650  12.976  65.582  1.00  0.00     0.000 HD 
BRANCH  16  21
HETATM   21  C5* UNL     1     -11.027  15.254  67.426  1.00  0.00    -0.321 C  
HETATM   22  O5* UNL     1     -10.780  16.185  68.477  1.00  0.00    -0.268 OA 
HETATM   23  H5* UNL     1     -11.372  16.925  68.426  1.00  0.00     0.000 HD 
ENDBRANCH  16  21
ENDBRANCH   8  14
TORSDOF 2
ENDMDL
MODEL       49
REMARK 921   NORMALIZED FREE ENERGY PREDICTED BY IDOCK:   -5.69 KCAL/MOL
REMARK 922        TOTAL FREE ENERGY PREDICTED BY IDOCK:   -6.69 KCAL/MOL
REMARK 923 INTER-LIGAND FREE ENERGY PREDICTED BY IDOCK:   -6.57 KCAL/MOL
REMARK 924 INTRA-LIGAND FREE ENERGY PREDICTED BY IDOCK:   -0.13 KCAL/MOL
REMARK 927      BINDING AFFINITY PREDICTED BY RF-SCORE:    0.00 PKD
ROOT
HETATM    1  N   UNL     1      -6.151  12.991  70.148  1.00  0.00    -0.290 NA 
HETATM    2  C   UNL     1      -7.128  13.497  69.302  1.00  0.00     0.038 A  
HETATM    3  H1  UNL     1      -5.589  13.579  70.763  1.00  0.00     0.000 HD 
HETATM    4  H2  UNL     1      -5.506  12.445  69.576  1.00  0.00     0.000 HD 
HETATM    5  C   UNL     1      -7.901  12.685  68.453  1.00  0.00    -0.136 A  
HETATM    6  N   UNL     1      -7.905  11.328  68.214  1.00  0.00    -0.122 NA 
HETATM    7  C   UNL     1      -8.870  11.145  67.336  1.00  0.00    -0.139 A  
HETATM    8  N   UNL     1      -9.465  12.323  66.969  1.00  0.00    -0.199 NA 
HETATM    9  C   UNL     1      -8.858  13.324  67.679  1.00  0.00    -0.200 A  
HETATM   10  N   UNL     1      -7.338  14.831  69.292  1.00  0.00    -0.161 NA 
HETATM   11  N   UNL     1      -9.123  14.639  67.642  1.00  0.00    -0.188 NA 
HETATM   12 CL   UNL     1      -8.528  17.003  68.522  1.00  0.00    -0.249 Cl 
HETATM   13  C   UNL     1      -8.307  15.306  68.486  1.00  0.00    -0.152 A  
ENDROOT
BRANCH   8  14
HETATM   14  C1* UNL     1     -10.571  12.499  66.047  1.00  0.00    -0.263 C  
HETATM   15  C2* UNL     1     -11.816  13.104  66.677  1.00  0.00    -0.449 C  
HETATM   16  C4* UNL     1     -11.340  14.163  64.590  1.00  0.00    -0.371 C  
HETATM   17  C3* UNL     1     -12.501  13.711  65.479  1.00  0.00    -0.503 C  
HETATM   18  O3* UNL     1     -13.236  12.681  64.809  1.00  0.00    -0.846 OA 
HETATM   19  O4* UNL     1     -10.176  13.398  64.990  1.00  0.00    -0.330 OA 
HETATM   20  H3* UNL     1     -13.667  13.064  64.055  1.00  0.00     0.000 HD 
BRANCH  16  21
HETATM   21  C5* UNL     1     -11.005  15.648  64.741  1.00  0.00    -0.400 C  
HETATM   22  O5* UNL     1     -11.612  16.422  63.709  1.00  0.00    -1.605 OA 
HETATM   23  H5* UNL     1     -11.403  17.344  63.803  1.00  0.00     0.000 HD 
ENDBRANCH  16  21
ENDBRANCH   8  14
TORSDOF 2
ENDMDL
MODEL       50
REMARK 921   NORMALIZED FREE ENERGY PREDICTED BY IDOCK:   -5.68 KCAL/MOL
REMARK 922        TOTAL FREE ENERGY PREDICTED BY IDOCK:   -6.68 KCAL/MOL
REMARK 923 INTER-LIGAND FREE ENERGY PREDICTED BY IDOCK:   -6.54 KCAL/MOL
REMARK 924 INTRA-LIGAND FREE ENERGY PREDICTED BY IDOCK:   -0.14 KCAL/MOL
REMARK 927      BINDING AFFINITY PREDICTED BY RF-SCORE:    0.00 PKD
ROOT
HETATM    1  N   UNL     1      -8.567   7.324  65.581  1.00  0.00    -0.242 NA 
HETATM    2  C   UNL     1      -9.053   8.607  65.371  1.00  0.00    -0.090 A  
HETATM    3  H1  UNL     1      -7.993   6.829  64.899  1.00  0.00     0.000 HD 
HETATM    4  H2  UNL     1      -9.365   6.727  65.800  1.00  0.00     0.000 HD 
HETATM    5  C   UNL     1      -9.845   9.290  66.311  1.00  0.00    -0.291 A  
HETATM    6  N   UNL     1     -10.335   8.932  67.549  1.00  0.00    -0.247 NA 
HETATM    7  C   UNL     1     -10.989   9.994  67.971  1.00  0.00    -0.240 A  
HETATM    8  N   UNL     1     -10.977  11.008  67.050  1.00  0.00    -0.284 NA 
HETATM    9  C   UNL     1     -10.243  10.575  65.978  1.00  0.00    -0.245 A  
HETATM   10  N   UNL     1      -8.757   9.221  64.205  1.00  0.00    -0.195 NA 
HETATM   11  N   UNL     1      -9.963  11.241  64.846  1.00  0.00    -0.257 NA 
HETATM   12 CL   UNL     1      -8.801  11.201  62.531  1.00  0.00    -0.349 Cl 
HETATM   13  C   UNL     1      -9.214  10.475  64.025  1.00  0.00    -0.253 A  
ENDROOT
BRANCH   8  14
HETATM   14  C1* UNL     1     -11.571  12.325  67.183  1.00  0.00    -0.353 C  
HETATM   15  C2* UNL     1     -10.574  13.470  67.086  1.00  0.00    -0.264 C  
HETATM   16  C4* UNL     1     -12.509  13.935  65.765  1.00  0.00    -0.495 C  
HETATM   17  C3* UNL     1     -11.460  14.610  66.652  1.00  0.00    -0.357 C  
HETATM   18  O3* UNL     1     -12.101  15.152  67.812  1.00  0.00    -0.456 OA 
HETATM   19  O4* UNL     1     -12.526  12.531  66.122  1.00  0.00    -0.522 OA 
HETATM   20  H3* UNL     1     -12.659  15.870  67.537  1.00  0.00     0.000 HD 
BRANCH  16  21
HETATM   21  C5* UNL     1     -12.196  14.039  64.271  1.00  0.00    -0.418 C  
HETATM   22  O5* UNL     1     -12.277  15.388  63.819  1.00  0.00    -0.984 OA 
HETATM   23  H5* UNL     1     -12.083  15.453  62.892  1.00  0.00     0.000 HD 
ENDBRANCH  16  21
ENDBRANCH   8  14
TORSDOF 2
ENDMDL
MODEL       51
REMARK 921   NORMALIZED FREE ENERGY PREDICTED BY IDOCK:   -5.66 KCAL/MOL
REMARK 922        TOTAL FREE ENERGY PREDICTED BY IDOCK:   -6.67 KCAL/MOL
REMARK 923 INTER-LIGAND FREE ENERGY PREDICTED BY IDOCK:   -6.44 KCAL/MOL
REMARK 924 INTRA-LIGAND FREE ENERGY PREDICTED BY IDOCK:   -0.23 KCAL/MOL
REMARK 927      BINDING AFFINITY PREDICTED BY RF-SCORE:    0.00 PKD
ROOT
HETATM    1  N   UNL     1     -13.639  15.958  72.471  1.00  0.00    -0.471 NA 
HETATM    2  C   UNL     1     -13.022  15.101  71.570  1.00  0.00    -0.382 A  
HETATM    3  H1  UNL     1     -13.600  16.973  72.388  1.00  0.00     0.000 HD 
HETATM    4  H2  UNL     1     -13.302  15.715  73.403  1.00  0.00     0.000 HD 
HETATM    5  C   UNL     1     -13.075  13.700  71.686  1.00  0.00    -0.372 A  
HETATM    6  N   UNL     1     -13.655  12.866  72.616  1.00  0.00    -0.516 NA 
HETATM    7  C   UNL     1     -13.395  11.649  72.184  1.00  0.00    -0.205 A  
HETATM    8  N   UNL     1     -12.644  11.657  71.038  1.00  0.00    -0.372 NA 
HETATM    9  C   UNL     1     -12.432  12.967  70.701  1.00  0.00    -0.268 A  
HETATM   10  N   UNL     1     -12.333  15.641  70.541  1.00  0.00    -0.411 NA 
HETATM   11  N   UNL     1     -11.751  13.448  69.649  1.00  0.00    -0.309 NA 
HETATM   12 CL   UNL     1     -10.907  15.542  68.378  1.00  0.00    -0.262 Cl 
HETATM   13  C   UNL     1     -11.761  14.798  69.661  1.00  0.00    -0.314 A  
ENDROOT
BRANCH   8  14
HETATM   14  C1* UNL     1     -12.195  10.510  70.273  1.00  0.00    -0.311 C  
HETATM   15  C2* UNL     1     -10.682  10.389  70.163  1.00  0.00    -0.292 C  
HETATM   16  C4* UNL     1     -11.652   8.272  70.697  1.00  0.00    -0.191 C  
HETATM   17  C3* UNL     1     -10.512   8.914  69.902  1.00  0.00    -0.214 C  
HETATM   18  O3* UNL     1     -10.719   8.676  68.505  1.00  0.00    -0.382 OA 
HETATM   19  O4* UNL     1     -12.651   9.299  70.910  1.00  0.00    -0.231 OA 
HETATM   20  H3* UNL     1     -10.612   7.746  68.341  1.00  0.00     0.000 HD 
BRANCH  16  21
HETATM   21  C5* UNL     1     -11.213   7.747  72.066  1.00  0.00    -0.278 C  
HETATM   22  O5* UNL     1     -12.177   8.052  73.069  1.00  0.00    -0.659 OA 
HETATM   23  H5* UNL     1     -11.905   7.726  73.919  1.00  0.00     0.000 HD 
ENDBRANCH  16  21
ENDBRANCH   8  14
TORSDOF 2
ENDMDL
MODEL       52
REMARK 921   NORMALIZED FREE ENERGY PREDICTED BY IDOCK:   -5.63 KCAL/MOL
REMARK 922        TOTAL FREE ENERGY PREDICTED BY IDOCK:   -6.63 KCAL/MOL
REMARK 923 INTER-LIGAND FREE ENERGY PREDICTED BY IDOCK:   -6.36 KCAL/MOL
REMARK 924 INTRA-LIGAND FREE ENERGY PREDICTED BY IDOCK:   -0.27 KCAL/MOL
REMARK 927      BINDING AFFINITY PREDICTED BY RF-SCORE:    0.00 PKD
ROOT
HETATM    1  N   UNL     1     -13.892  15.545  72.376  1.00  0.00    -0.542 NA 
HETATM    2  C   UNL     1     -13.151  14.914  71.387  1.00  0.00    -0.369 A  
HETATM    3  H1  UNL     1     -14.029  16.555  72.408  1.00  0.00     0.000 HD 
HETATM    4  H2  UNL     1     -13.504  15.261  73.276  1.00  0.00     0.000 HD 
HETATM    5  C   UNL     1     -12.961  13.521  71.343  1.00  0.00    -0.339 A  
HETATM    6  N   UNL     1     -13.375  12.500  72.171  1.00  0.00    -0.510 NA 
HETATM    7  C   UNL     1     -12.917  11.403  71.605  1.00  0.00    -0.418 A  
HETATM    8  N   UNL     1     -12.196  11.668  70.471  1.00  0.00    -0.369 NA 
HETATM    9  C   UNL     1     -12.216  13.024  70.285  1.00  0.00    -0.296 A  
HETATM   10  N   UNL     1     -12.581  15.676  70.429  1.00  0.00    -0.402 NA 
HETATM   11  N   UNL     1     -11.644  13.730  69.297  1.00  0.00    -0.291 NA 
HETATM   12 CL   UNL     1     -11.192  16.067  68.274  1.00  0.00    -0.356 Cl 
HETATM   13  C   UNL     1     -11.886  15.048  69.461  1.00  0.00    -0.330 A  
ENDROOT
BRANCH   8  14
HETATM   14  C1* UNL     1     -11.568  10.708  69.584  1.00  0.00    -0.296 C  
HETATM   15  C2* UNL     1     -11.764  11.007  68.105  1.00  0.00    -0.277 C  
HETATM   16  C4* UNL     1      -9.485  10.438  68.546  1.00  0.00    -0.159 C  
HETATM   17  C3* UNL     1     -10.585  10.295  67.491  1.00  0.00    -0.268 C  
HETATM   18  O3* UNL     1     -10.920   8.911  67.344  1.00  0.00    -0.441 OA 
HETATM   19  O4* UNL     1     -10.143  10.706  69.810  1.00  0.00    -0.162 OA 
HETATM   20  H3* UNL     1     -10.177   8.462  66.957  1.00  0.00     0.000 HD 
BRANCH  16  21
HETATM   21  C5* UNL     1      -8.521  11.591  68.261  1.00  0.00    -0.159 C  
HETATM   22  O5* UNL     1      -8.963  12.799  68.875  1.00  0.00    -0.375 OA 
HETATM   23  H5* UNL     1      -8.364  13.514  68.698  1.00  0.00     0.000 HD 
ENDBRANCH  16  21
ENDBRANCH   8  14
TORSDOF 2
ENDMDL
MODEL       53
REMARK 921   NORMALIZED FREE ENERGY PREDICTED BY IDOCK:   -5.59 KCAL/MOL
REMARK 922        TOTAL FREE ENERGY PREDICTED BY IDOCK:   -6.59 KCAL/MOL
REMARK 923 INTER-LIGAND FREE ENERGY PREDICTED BY IDOCK:   -6.26 KCAL/MOL
REMARK 924 INTRA-LIGAND FREE ENERGY PREDICTED BY IDOCK:   -0.33 KCAL/MOL
REMARK 927      BINDING AFFINITY PREDICTED BY RF-SCORE:    0.00 PKD
ROOT
HETATM    1  N   UNL     1     -11.667  16.271  68.558  1.00  0.00    -0.212 NA 
HETATM    2  C   UNL     1     -11.544  14.927  68.237  1.00  0.00    -0.334 A  
HETATM    3  H1  UNL     1     -11.453  17.021  67.901  1.00  0.00     0.000 HD 
HETATM    4  H2  UNL     1     -11.115  16.436  69.400  1.00  0.00     0.000 HD 
HETATM    5  C   UNL     1     -11.839  13.892  69.144  1.00  0.00    -0.358 A  
HETATM    6  N   UNL     1     -12.258  13.899  70.457  1.00  0.00    -0.353 NA 
HETATM    7  C   UNL     1     -12.394  12.627  70.772  1.00  0.00    -0.283 A  
HETATM    8  N   UNL     1     -12.048  11.799  69.737  1.00  0.00    -0.290 NA 
HETATM    9  C   UNL     1     -11.692  12.595  68.681  1.00  0.00    -0.325 A  
HETATM   10  N   UNL     1     -11.113  14.600  67.000  1.00  0.00    -0.324 NA 
HETATM   11  N   UNL     1     -11.288  12.212  67.459  1.00  0.00    -0.303 NA 
HETATM   12 CL   UNL     1     -10.476  12.943  65.110  1.00  0.00    -0.314 Cl 
HETATM   13  C   UNL     1     -11.023  13.292  66.694  1.00  0.00    -0.283 A  
ENDROOT
BRANCH   8  14
HETATM   14  C1* UNL     1     -12.097  10.350  69.717  1.00  0.00    -0.138 C  
HETATM   15  C2* UNL     1     -10.797   9.677  70.131  1.00  0.00    -0.325 C  
HETATM   16  C4* UNL     1     -12.656   8.631  71.206  1.00  0.00    -0.235 C  
HETATM   17  C3* UNL     1     -11.285   8.329  70.596  1.00  0.00    -0.256 C  
HETATM   18  O3* UNL     1     -11.454   7.489  69.449  1.00  0.00    -0.440 OA 
HETATM   19  O4* UNL     1     -13.102   9.889  70.643  1.00  0.00    -0.242 OA 
HETATM   20  H3* UNL     1     -11.761   6.639  69.742  1.00  0.00     0.000 HD 
BRANCH  16  21
HETATM   21  C5* UNL     1     -12.621   8.780  72.729  1.00  0.00    -0.046 C  
HETATM   22  O5* UNL     1     -13.937   8.876  73.268  1.00  0.00    -1.203 OA 
HETATM   23  H5* UNL     1     -13.915   8.968  74.213  1.00  0.00     0.000 HD 
ENDBRANCH  16  21
ENDBRANCH   8  14
TORSDOF 2
ENDMDL
MODEL       54
REMARK 921   NORMALIZED FREE ENERGY PREDICTED BY IDOCK:   -5.58 KCAL/MOL
REMARK 922        TOTAL FREE ENERGY PREDICTED BY IDOCK:   -6.58 KCAL/MOL
REMARK 923 INTER-LIGAND FREE ENERGY PREDICTED BY IDOCK:   -6.26 KCAL/MOL
REMARK 924 INTRA-LIGAND FREE ENERGY PREDICTED BY IDOCK:   -0.32 KCAL/MOL
REMARK 927      BINDING AFFINITY PREDICTED BY RF-SCORE:    0.00 PKD
ROOT
HETATM    1  N   UNL     1      -6.335  17.506  69.246  1.00  0.00    -0.235 NA 
HETATM    2  C   UNL     1      -7.554  17.384  68.596  1.00  0.00    -0.265 A  
HETATM    3  H1  UNL     1      -6.004  18.384  69.646  1.00  0.00     0.000 HD 
HETATM    4  H2  UNL     1      -5.613  17.171  68.607  1.00  0.00     0.000 HD 
HETATM    5  C   UNL     1      -8.010  16.173  68.044  1.00  0.00    -0.145 A  
HETATM    6  N   UNL     1      -7.449  14.917  67.968  1.00  0.00    -0.114 NA 
HETATM    7  C   UNL     1      -8.356  14.180  67.361  1.00  0.00    -0.197 A  
HETATM    8  N   UNL     1      -9.462  14.908  67.009  1.00  0.00    -0.220 NA 
HETATM    9  C   UNL     1      -9.259  16.191  67.443  1.00  0.00    -0.208 A  
HETATM   10  N   UNL     1      -8.333  18.481  68.483  1.00  0.00    -0.332 NA 
HETATM   11  N   UNL     1     -10.082  17.244  67.319  1.00  0.00    -0.291 NA 
HETATM   12 CL   UNL     1     -10.468  19.767  67.764  1.00  0.00    -0.565 Cl 
HETATM   13  C   UNL     1      -9.526  18.342  67.872  1.00  0.00    -0.285 A  
ENDROOT
BRANCH   8  14
HETATM   14  C1* UNL     1     -10.661  14.425  66.351  1.00  0.00    -0.297 C  
HETATM   15  C2* UNL     1     -10.744  14.772  64.873  1.00  0.00    -0.438 C  
HETATM   16  C4* UNL     1     -11.337  12.485  65.226  1.00  0.00    -0.324 C  
HETATM   17  C3* UNL     1     -11.671  13.701  64.359  1.00  0.00    -0.411 C  
HETATM   18  O3* UNL     1     -13.019  14.109  64.617  1.00  0.00    -0.629 OA 
HETATM   19  O4* UNL     1     -10.705  12.985  66.431  1.00  0.00    -0.278 OA 
HETATM   20  H3* UNL     1     -13.604  13.433  64.293  1.00  0.00     0.000 HD 
BRANCH  16  21
HETATM   21  C5* UNL     1     -10.368  11.510  64.554  1.00  0.00    -0.302 C  
HETATM   22  O5* UNL     1     -10.872  11.065  63.297  1.00  0.00    -0.726 OA 
HETATM   23  H5* UNL     1     -10.271  10.460  62.880  1.00  0.00     0.000 HD 
ENDBRANCH  16  21
ENDBRANCH   8  14
TORSDOF 2
ENDMDL
MODEL       55
REMARK 921   NORMALIZED FREE ENERGY PREDICTED BY IDOCK:   -5.58 KCAL/MOL
REMARK 922        TOTAL FREE ENERGY PREDICTED BY IDOCK:   -6.58 KCAL/MOL
REMARK 923 INTER-LIGAND FREE ENERGY PREDICTED BY IDOCK:   -6.24 KCAL/MOL
REMARK 924 INTRA-LIGAND FREE ENERGY PREDICTED BY IDOCK:   -0.34 KCAL/MOL
REMARK 927      BINDING AFFINITY PREDICTED BY RF-SCORE:    0.00 PKD
ROOT
HETATM    1  N   UNL     1     -12.279  15.989  63.754  1.00  0.00    -1.134 NA 
HETATM    2  C   UNL     1     -11.340  15.682  64.728  1.00  0.00    -0.343 A  
HETATM    3  H1  UNL     1     -12.360  16.914  63.332  1.00  0.00     0.000 HD 
HETATM    4  H2  UNL     1     -13.196  15.742  64.127  1.00  0.00     0.000 HD 
HETATM    5  C   UNL     1     -11.229  14.406  65.310  1.00  0.00    -0.345 A  
HETATM    6  N   UNL     1     -11.940  13.239  65.134  1.00  0.00    -0.359 NA 
HETATM    7  C   UNL     1     -11.359  12.369  65.934  1.00  0.00    -0.356 A  
HETATM    8  N   UNL     1     -10.330  12.927  66.645  1.00  0.00    -0.248 NA 
HETATM    9  C   UNL     1     -10.229  14.235  66.255  1.00  0.00    -0.301 A  
HETATM   10  N   UNL     1     -10.500  16.657  65.138  1.00  0.00    -0.672 NA 
HETATM   11  N   UNL     1      -9.356  15.160  66.686  1.00  0.00    -0.249 NA 
HETATM   12 CL   UNL     1      -8.539  17.614  66.539  1.00  0.00    -0.282 Cl 
HETATM   13  C   UNL     1      -9.576  16.338  66.065  1.00  0.00    -0.337 A  
ENDROOT
BRANCH   8  14
HETATM   14  C1* UNL     1      -9.458  12.265  67.596  1.00  0.00    -0.188 C  
HETATM   15  C2* UNL     1      -9.869  10.839  67.930  1.00  0.00    -0.185 C  
HETATM   16  C4* UNL     1      -7.518  10.955  67.521  1.00  0.00    -0.097 C  
HETATM   17  C3* UNL     1      -8.561  10.243  68.386  1.00  0.00    -0.125 C  
HETATM   18  O3* UNL     1      -8.357  10.596  69.758  1.00  0.00    -0.381 OA 
HETATM   19  O4* UNL     1      -8.125  12.183  67.050  1.00  0.00    -0.172 OA 
HETATM   20  H3* UNL     1      -7.533  10.221  70.045  1.00  0.00     0.000 HD 
BRANCH  16  21
HETATM   21  C5* UNL     1      -7.088  10.141  66.299  1.00  0.00    -0.110 C  
HETATM   22  O5* UNL     1      -7.234  10.894  65.098  1.00  0.00    -0.355 OA 
HETATM   23  H5* UNL     1      -6.968  10.389  64.340  1.00  0.00     0.000 HD 
ENDBRANCH  16  21
ENDBRANCH   8  14
TORSDOF 2
ENDMDL
MODEL       56
REMARK 921   NORMALIZED FREE ENERGY PREDICTED BY IDOCK:   -5.57 KCAL/MOL
REMARK 922        TOTAL FREE ENERGY PREDICTED BY IDOCK:   -6.57 KCAL/MOL
REMARK 923 INTER-LIGAND FREE ENERGY PREDICTED BY IDOCK:   -6.25 KCAL/MOL
REMARK 924 INTRA-LIGAND FREE ENERGY PREDICTED BY IDOCK:   -0.32 KCAL/MOL
REMARK 927      BINDING AFFINITY PREDICTED BY RF-SCORE:    0.00 PKD
ROOT
HETATM    1  N   UNL     1     -10.599  20.429  65.216  1.00  0.00    -0.130 NA 
HETATM    2  C   UNL     1     -10.025  19.470  66.038  1.00  0.00    -0.398 A  
HETATM    3  H1  UNL     1     -10.463  21.431  65.352  1.00  0.00     0.000 HD 
HETATM    4  H2  UNL     1     -11.604  20.257  65.202  1.00  0.00     0.000 HD 
HETATM    5  C   UNL     1     -10.213  18.088  65.850  1.00  0.00    -0.229 A  
HETATM    6  N   UNL     1     -10.947  17.367  64.934  1.00  0.00    -0.851 NA 
HETATM    7  C   UNL     1     -10.716  16.106  65.238  1.00  0.00    -0.368 A  
HETATM    8  N   UNL     1      -9.897  15.979  66.329  1.00  0.00    -0.286 NA 
HETATM    9  C   UNL     1      -9.561  17.243  66.734  1.00  0.00    -0.272 A  
HETATM   10  N   UNL     1      -9.257  19.885  67.068  1.00  0.00    -0.346 NA 
HETATM   11  N   UNL     1      -8.772  17.598  67.761  1.00  0.00    -0.230 NA 
HETATM   12 CL   UNL     1      -7.721  19.532  69.127  1.00  0.00    -0.349 Cl 
HETATM   13  C   UNL     1      -8.685  18.943  67.842  1.00  0.00    -0.298 A  
ENDROOT
BRANCH   8  14
HETATM   14  C1* UNL     1      -9.413  14.750  66.927  1.00  0.00    -0.240 C  
HETATM   15  C2* UNL     1     -10.097  14.383  68.236  1.00  0.00    -0.239 C  
HETATM   16  C4* UNL     1      -9.931  12.468  66.816  1.00  0.00    -0.228 C  
HETATM   17  C3* UNL     1      -9.880  12.892  68.286  1.00  0.00    -0.228 C  
HETATM   18  O3* UNL     1      -8.568  12.644  68.804  1.00  0.00    -0.356 OA 
HETATM   19  O4* UNL     1      -9.652  13.649  66.025  1.00  0.00    -0.253 OA 
HETATM   20  H3* UNL     1      -8.431  11.705  68.836  1.00  0.00     0.000 HD 
BRANCH  16  21
HETATM   21  C5* UNL     1     -11.297  11.925  66.391  1.00  0.00    -0.339 C  
HETATM   22  O5* UNL     1     -12.126  11.669  67.521  1.00  0.00    -0.611 OA 
HETATM   23  H5* UNL     1     -12.973  11.332  67.257  1.00  0.00     0.000 HD 
ENDBRANCH  16  21
ENDBRANCH   8  14
TORSDOF 2
ENDMDL
MODEL       57
REMARK 921   NORMALIZED FREE ENERGY PREDICTED BY IDOCK:   -5.57 KCAL/MOL
REMARK 922        TOTAL FREE ENERGY PREDICTED BY IDOCK:   -6.56 KCAL/MOL
REMARK 923 INTER-LIGAND FREE ENERGY PREDICTED BY IDOCK:   -6.56 KCAL/MOL
REMARK 924 INTRA-LIGAND FREE ENERGY PREDICTED BY IDOCK:    0.00 KCAL/MOL
REMARK 927      BINDING AFFINITY PREDICTED BY RF-SCORE:    0.00 PKD
ROOT
HETATM    1  N   UNL     1     -12.601  10.761  71.570  1.00  0.00    -0.399 NA 
HETATM    2  C   UNL     1     -12.177  11.516  70.485  1.00  0.00    -0.377 A  
HETATM    3  H1  UNL     1     -13.042  11.170  72.393  1.00  0.00     0.000 HD 
HETATM    4  H2  UNL     1     -11.802  10.214  71.892  1.00  0.00     0.000 HD 
HETATM    5  C   UNL     1     -11.568  10.951  69.350  1.00  0.00    -0.316 A  
HETATM    6  N   UNL     1     -11.229   9.656  69.025  1.00  0.00    -0.064 NA 
HETATM    7  C   UNL     1     -10.711   9.738  67.817  1.00  0.00    -0.272 A  
HETATM    8  N   UNL     1     -10.665  11.029  67.361  1.00  0.00    -0.240 NA 
HETATM    9  C   UNL     1     -11.215  11.822  68.332  1.00  0.00    -0.251 A  
HETATM   10  N   UNL     1     -12.352  12.854  70.528  1.00  0.00    -0.324 NA 
HETATM   11  N   UNL     1     -11.382  13.154  68.312  1.00  0.00    -0.277 NA 
HETATM   12 CL   UNL     1     -12.212  15.261  69.572  1.00  0.00    -0.306 Cl 
HETATM   13  C   UNL     1     -11.959  13.572  69.458  1.00  0.00    -0.334 A  
ENDROOT
BRANCH   8  14
HETATM   14  C1* UNL     1     -10.184  11.490  66.073  1.00  0.00    -0.242 C  
HETATM   15  C2* UNL     1     -10.133  10.409  65.004  1.00  0.00    -0.379 C  
HETATM   16  C4* UNL     1     -11.106  12.406  64.125  1.00  0.00    -0.372 C  
HETATM   17  C3* UNL     1     -10.210  11.226  63.739  1.00  0.00    -0.377 C  
HETATM   18  O3* UNL     1      -8.898  11.710  63.433  1.00  0.00    -0.458 OA 
HETATM   19  O4* UNL     1     -11.065  12.515  65.569  1.00  0.00    -0.284 OA 
HETATM   20  H3* UNL     1      -8.947  12.225  62.637  1.00  0.00     0.000 HD 
BRANCH  16  21
HETATM   21  C5* UNL     1     -12.565  12.220  63.705  1.00  0.00    -0.490 C  
HETATM   22  O5* UNL     1     -12.685  11.251  62.667  1.00  0.00    -0.801 OA 
HETATM   23  H5* UNL     1     -13.590  11.136  62.406  1.00  0.00     0.000 HD 
ENDBRANCH  16  21
ENDBRANCH   8  14
TORSDOF 2
ENDMDL
MODEL       58
REMARK 921   NORMALIZED FREE ENERGY PREDICTED BY IDOCK:   -5.55 KCAL/MOL
REMARK 922        TOTAL FREE ENERGY PREDICTED BY IDOCK:   -6.55 KCAL/MOL
REMARK 923 INTER-LIGAND FREE ENERGY PREDICTED BY IDOCK:   -6.29 KCAL/MOL
REMARK 924 INTRA-LIGAND FREE ENERGY PREDICTED BY IDOCK:   -0.26 KCAL/MOL
REMARK 927      BINDING AFFINITY PREDICTED BY RF-SCORE:    0.00 PKD
ROOT
HETATM    1  N   UNL     1      -9.839  10.496  63.740  1.00  0.00    -0.341 NA 
HETATM    2  C   UNL     1     -10.489  11.037  64.839  1.00  0.00    -0.303 A  
HETATM    3  H1  UNL     1      -9.909  10.891  62.802  1.00  0.00     0.000 HD 
HETATM    4  H2  UNL     1     -10.109   9.514  63.678  1.00  0.00     0.000 HD 
HETATM    5  C   UNL     1     -10.392  10.491  66.132  1.00  0.00    -0.210 A  
HETATM    6  N   UNL     1      -9.733   9.388  66.628  1.00  0.00    -0.201 NA 
HETATM    7  C   UNL     1      -9.987   9.397  67.920  1.00  0.00    -0.182 A  
HETATM    8  N   UNL     1     -10.809  10.433  68.277  1.00  0.00    -0.235 NA 
HETATM    9  C   UNL     1     -11.077  11.149  67.141  1.00  0.00    -0.287 A  
HETATM   10  N   UNL     1     -11.255  12.134  64.655  1.00  0.00    -0.313 NA 
HETATM   11  N   UNL     1     -11.836  12.250  67.020  1.00  0.00    -0.574 NA 
HETATM   12 CL   UNL     1     -12.812  14.054  65.437  1.00  0.00    -0.515 Cl 
HETATM   13  C   UNL     1     -11.860  12.664  65.735  1.00  0.00    -0.444 A  
ENDROOT
BRANCH   8  14
HETATM   14  C1* UNL     1     -11.277  10.766  69.609  1.00  0.00    -0.291 C  
HETATM   15  C2* UNL     1     -12.755  10.490  69.838  1.00  0.00    -0.037 C  
HETATM   16  C4* UNL     1     -11.462   9.690  71.681  1.00  0.00    -0.305 C  
HETATM   17  C3* UNL     1     -12.808  10.333  71.337  1.00  0.00    -0.441 C  
HETATM   18  O3* UNL     1     -12.873  11.636  71.925  1.00  0.00    -0.364 OA 
HETATM   19  O4* UNL     1     -10.563   9.974  70.581  1.00  0.00    -0.295 OA 
HETATM   20  H3* UNL     1     -12.906  11.537  72.869  1.00  0.00     0.000 HD 
BRANCH  16  21
HETATM   21  C5* UNL     1     -11.541   8.171  71.847  1.00  0.00    -0.306 C  
HETATM   22  O5* UNL     1     -11.561   7.803  73.223  1.00  0.00    -0.644 OA 
HETATM   23  H5* UNL     1     -11.610   6.860  73.327  1.00  0.00     0.000 HD 
ENDBRANCH  16  21
ENDBRANCH   8  14
TORSDOF 2
ENDMDL
MODEL       59
REMARK 921   NORMALIZED FREE ENERGY PREDICTED BY IDOCK:   -5.46 KCAL/MOL
REMARK 922        TOTAL FREE ENERGY PREDICTED BY IDOCK:   -6.45 KCAL/MOL
REMARK 923 INTER-LIGAND FREE ENERGY PREDICTED BY IDOCK:   -6.07 KCAL/MOL
REMARK 924 INTRA-LIGAND FREE ENERGY PREDICTED BY IDOCK:   -0.37 KCAL/MOL
REMARK 927      BINDING AFFINITY PREDICTED BY RF-SCORE:    0.00 PKD
ROOT
HETATM    1  N   UNL     1     -12.160  15.885  63.784  1.00  0.00    -1.230 NA 
HETATM    2  C   UNL     1     -11.234  16.364  64.699  1.00  0.00    -0.192 A  
HETATM    3  H1  UNL     1     -12.778  16.495  63.248  1.00  0.00     0.000 HD 
HETATM    4  H2  UNL     1     -12.748  15.208  64.271  1.00  0.00     0.000 HD 
HETATM    5  C   UNL     1     -10.382  15.524  65.439  1.00  0.00    -0.394 A  
HETATM    6  N   UNL     1     -10.247  14.154  65.493  1.00  0.00    -0.336 NA 
HETATM    7  C   UNL     1      -9.266  13.947  66.348  1.00  0.00    -0.152 A  
HETATM    8  N   UNL     1      -8.786  15.116  66.876  1.00  0.00    -0.239 NA 
HETATM    9  C   UNL     1      -9.489  16.141  66.301  1.00  0.00    -0.316 A  
HETATM   10  N   UNL     1     -11.153  17.699  64.890  1.00  0.00    -0.717 NA 
HETATM   11  N   UNL     1      -9.352  17.459  66.517  1.00  0.00    -0.264 NA 
HETATM   12 CL   UNL     1     -10.175  19.851  65.957  1.00  0.00    -0.593 Cl 
HETATM   13  C   UNL     1     -10.231  18.152  65.762  1.00  0.00    -0.105 A  
ENDROOT
BRANCH   8  14
HETATM   14  C1* UNL     1      -7.699  15.273  67.823  1.00  0.00    -0.149 C  
HETATM   15  C2* UNL     1      -8.113  15.110  69.278  1.00  0.00    -0.217 C  
HETATM   16  C4* UNL     1      -6.102  13.897  68.843  1.00  0.00    -0.087 C  
HETATM   17  C3* UNL     1      -6.809  14.717  69.925  1.00  0.00    -0.158 C  
HETATM   18  O3* UNL     1      -6.057  15.907  70.183  1.00  0.00    -0.171 OA 
HETATM   19  O4* UNL     1      -6.696  14.266  67.574  1.00  0.00    -0.185 OA 
HETATM   20  H3* UNL     1      -5.235  15.659  70.590  1.00  0.00     0.000 HD 
BRANCH  16  21
HETATM   21  C5* UNL     1      -6.269  12.387  69.023  1.00  0.00    -0.083 C  
HETATM   22  O5* UNL     1      -6.511  12.052  70.386  1.00  0.00    -0.488 OA 
HETATM   23  H5* UNL     1      -6.615  11.115  70.498  1.00  0.00     0.000 HD 
ENDBRANCH  16  21
ENDBRANCH   8  14
TORSDOF 2
ENDMDL
MODEL       60
REMARK 921   NORMALIZED FREE ENERGY PREDICTED BY IDOCK:   -5.45 KCAL/MOL
REMARK 922        TOTAL FREE ENERGY PREDICTED BY IDOCK:   -6.43 KCAL/MOL
REMARK 923 INTER-LIGAND FREE ENERGY PREDICTED BY IDOCK:   -6.17 KCAL/MOL
REMARK 924 INTRA-LIGAND FREE ENERGY PREDICTED BY IDOCK:   -0.26 KCAL/MOL
REMARK 927      BINDING AFFINITY PREDICTED BY RF-SCORE:    0.00 PKD
ROOT
HETATM    1  N   UNL     1     -10.009  10.672  62.739  1.00  0.00    -0.716 NA 
HETATM    2  C   UNL     1     -10.106  10.925  64.100  1.00  0.00    -0.355 A  
HETATM    3  H1  UNL     1      -9.838   9.741  62.358  1.00  0.00     0.000 HD 
HETATM    4  H2  UNL     1      -9.292  11.292  62.364  1.00  0.00     0.000 HD 
HETATM    5  C   UNL     1     -10.342  12.208  64.626  1.00  0.00    -0.297 A  
HETATM    6  N   UNL     1     -10.500  13.441  64.031  1.00  0.00    -0.267 NA 
HETATM    7  C   UNL     1     -10.721  14.269  65.031  1.00  0.00    -0.420 A  
HETATM    8  N   UNL     1     -10.677  13.637  66.246  1.00  0.00    -0.283 NA 
HETATM    9  C   UNL     1     -10.438  12.311  66.004  1.00  0.00    -0.254 A  
HETATM   10  N   UNL     1      -9.960   9.891  64.956  1.00  0.00    -0.270 NA 
HETATM   11  N   UNL     1     -10.321  11.318  66.900  1.00  0.00    -0.225 NA 
HETATM   12 CL   UNL     1      -9.891   8.795  67.305  1.00  0.00    -0.240 Cl 
HETATM   13  C   UNL     1     -10.082  10.146  66.273  1.00  0.00    -0.238 A  
ENDROOT
BRANCH   8  14
HETATM   14  C1* UNL     1     -10.897  14.226  67.552  1.00  0.00    -0.280 C  
HETATM   15  C2* UNL     1      -9.638  14.359  68.396  1.00  0.00    -0.219 C  
HETATM   16  C4* UNL     1     -10.917  16.375  68.484  1.00  0.00    -0.350 C  
HETATM   17  C3* UNL     1     -10.015  15.476  69.335  1.00  0.00    -0.277 C  
HETATM   18  O3* UNL     1     -10.780  14.923  70.411  1.00  0.00    -0.476 OA 
HETATM   19  O4* UNL     1     -11.421  15.562  67.396  1.00  0.00    -0.271 OA 
HETATM   20  H3* UNL     1     -11.018  15.627  71.002  1.00  0.00     0.000 HD 
BRANCH  16  21
HETATM   21  C5* UNL     1     -10.181  17.572  67.879  1.00  0.00    -0.350 C  
HETATM   22  O5* UNL     1     -10.595  18.793  68.484  1.00  0.00    -0.381 OA 
HETATM   23  H5* UNL     1     -10.139  19.536  68.108  1.00  0.00     0.000 HD 
ENDBRANCH  16  21
ENDBRANCH   8  14
TORSDOF 2
ENDMDL
MODEL       61
REMARK 921   NORMALIZED FREE ENERGY PREDICTED BY IDOCK:   -5.42 KCAL/MOL
REMARK 922        TOTAL FREE ENERGY PREDICTED BY IDOCK:   -6.40 KCAL/MOL
REMARK 923 INTER-LIGAND FREE ENERGY PREDICTED BY IDOCK:   -6.08 KCAL/MOL
REMARK 924 INTRA-LIGAND FREE ENERGY PREDICTED BY IDOCK:   -0.32 KCAL/MOL
REMARK 927      BINDING AFFINITY PREDICTED BY RF-SCORE:    0.00 PKD
ROOT
HETATM    1  N   UNL     1     -12.452  10.918  68.745  1.00  0.00    -0.706 NA 
HETATM    2  C   UNL     1     -11.492  11.675  68.087  1.00  0.00    -0.313 A  
HETATM    3  H1  UNL     1     -12.537   9.908  68.631  1.00  0.00     0.000 HD 
HETATM    4  H2  UNL     1     -13.361  11.327  68.531  1.00  0.00     0.000 HD 
HETATM    5  C   UNL     1     -11.375  13.068  68.244  1.00  0.00    -0.288 A  
HETATM    6  N   UNL     1     -12.097  13.984  68.978  1.00  0.00    -0.348 NA 
HETATM    7  C   UNL     1     -11.503  15.138  68.751  1.00  0.00    -0.319 A  
HETATM    8  N   UNL     1     -10.456  15.017  67.876  1.00  0.00    -0.245 NA 
HETATM    9  C   UNL     1     -10.356  13.693  67.543  1.00  0.00    -0.241 A  
HETATM   10  N   UNL     1     -10.638  11.043  67.254  1.00  0.00    -0.231 NA 
HETATM   11  N   UNL     1      -9.469  13.114  66.718  1.00  0.00    -0.246 NA 
HETATM   12 CL   UNL     1      -8.642  10.927  65.603  1.00  0.00    -0.178 Cl 
HETATM   13  C   UNL     1      -9.696  11.786  66.642  1.00  0.00    -0.202 A  
ENDROOT
BRANCH   8  14
HETATM   14  C1* UNL     1      -9.566  16.067  67.419  1.00  0.00    -0.225 C  
HETATM   15  C2* UNL     1      -9.989  16.715  66.109  1.00  0.00    -0.356 C  
HETATM   16  C4* UNL     1      -9.359  18.383  67.699  1.00  0.00    -0.267 C  
HETATM   17  C3* UNL     1      -9.317  18.061  66.203  1.00  0.00    -0.129 C  
HETATM   18  O3* UNL     1      -7.954  17.915  65.790  1.00  0.00    -0.540 OA 
HETATM   19  O4* UNL     1      -9.527  17.125  68.399  1.00  0.00    -0.258 OA 
HETATM   20  H3* UNL     1      -7.531  18.764  65.849  1.00  0.00     0.000 HD 
BRANCH  16  21
HETATM   21  C5* UNL     1     -10.520  19.300  68.089  1.00  0.00    -0.349 C  
HETATM   22  O5* UNL     1     -10.301  19.897  69.364  1.00  0.00    -0.636 OA 
HETATM   23  H5* UNL     1     -11.022  20.466  69.606  1.00  0.00     0.000 HD 
ENDBRANCH  16  21
ENDBRANCH   8  14
TORSDOF 2
ENDMDL
MODEL       62
REMARK 921   NORMALIZED FREE ENERGY PREDICTED BY IDOCK:   -5.42 KCAL/MOL
REMARK 922        TOTAL FREE ENERGY PREDICTED BY IDOCK:   -6.40 KCAL/MOL
REMARK 923 INTER-LIGAND FREE ENERGY PREDICTED BY IDOCK:   -6.12 KCAL/MOL
REMARK 924 INTRA-LIGAND FREE ENERGY PREDICTED BY IDOCK:   -0.27 KCAL/MOL
REMARK 927      BINDING AFFINITY PREDICTED BY RF-SCORE:    0.00 PKD
ROOT
HETATM    1  N   UNL     1     -11.714  14.116  66.436  1.00  0.00    -0.373 NA 
HETATM    2  C   UNL     1     -11.787  13.620  67.730  1.00  0.00    -0.368 A  
HETATM    3  H1  UNL     1     -11.813  15.107  66.215  1.00  0.00     0.000 HD 
HETATM    4  H2  UNL     1     -12.398  13.608  65.876  1.00  0.00     0.000 HD 
HETATM    5  C   UNL     1     -11.651  12.253  68.036  1.00  0.00    -0.349 A  
HETATM    6  N   UNL     1     -11.457  11.140  67.248  1.00  0.00    -0.501 NA 
HETATM    7  C   UNL     1     -11.380  10.137  68.097  1.00  0.00    -0.099 A  
HETATM    8  N   UNL     1     -11.551  10.544  69.394  1.00  0.00    -0.259 NA 
HETATM    9  C   UNL     1     -11.723  11.902  69.374  1.00  0.00    -0.339 A  
HETATM   10  N   UNL     1     -12.006  14.491  68.739  1.00  0.00    -0.304 NA 
HETATM   11  N   UNL     1     -11.919  12.724  70.418  1.00  0.00    -0.307 NA 
HETATM   12 CL   UNL     1     -12.324  15.152  71.226  1.00  0.00    -0.361 Cl 
HETATM   13  C   UNL     1     -12.048  13.999  69.992  1.00  0.00    -0.348 A  
ENDROOT
BRANCH   8  14
HETATM   14  C1* UNL     1     -11.505   9.721  70.588  1.00  0.00    -0.324 C  
HETATM   15  C2* UNL     1     -12.839   9.094  70.964  1.00  0.00    -0.158 C  
HETATM   16  C4* UNL     1     -11.087   7.476  71.108  1.00  0.00    -0.251 C  
HETATM   17  C3* UNL     1     -12.398   7.901  71.774  1.00  0.00    -0.320 C  
HETATM   18  O3* UNL     1     -12.130   8.338  73.110  1.00  0.00    -0.566 OA 
HETATM   19  O4* UNL     1     -10.588   8.626  70.382  1.00  0.00    -0.209 OA 
HETATM   20  H3* UNL     1     -11.852   7.586  73.621  1.00  0.00     0.000 HD 
BRANCH  16  21
HETATM   21  C5* UNL     1     -11.258   6.326  70.114  1.00  0.00    -0.403 C  
HETATM   22  O5* UNL     1     -11.984   6.743  68.962  1.00  0.00    -0.283 OA 
HETATM   23  H5* UNL     1     -12.091   6.029  68.345  1.00  0.00     0.000 HD 
ENDBRANCH  16  21
ENDBRANCH   8  14
TORSDOF 2
ENDMDL
MODEL       63
REMARK 921   NORMALIZED FREE ENERGY PREDICTED BY IDOCK:   -5.42 KCAL/MOL
REMARK 922        TOTAL FREE ENERGY PREDICTED BY IDOCK:   -6.39 KCAL/MOL
REMARK 923 INTER-LIGAND FREE ENERGY PREDICTED BY IDOCK:   -6.37 KCAL/MOL
REMARK 924 INTRA-LIGAND FREE ENERGY PREDICTED BY IDOCK:   -0.02 KCAL/MOL
REMARK 927      BINDING AFFINITY PREDICTED BY RF-SCORE:    0.00 PKD
ROOT
HETATM    1  N   UNL     1     -13.673   9.111  72.623  1.00  0.00    -0.783 NA 
HETATM    2  C   UNL     1     -13.092  10.121  71.869  1.00  0.00    -0.466 A  
HETATM    3  H1  UNL     1     -14.393   9.286  73.324  1.00  0.00     0.000 HD 
HETATM    4  H2  UNL     1     -12.919   8.601  73.082  1.00  0.00     0.000 HD 
HETATM    5  C   UNL     1     -12.099   9.880  70.902  1.00  0.00    -0.341 A  
HETATM    6  N   UNL     1     -11.467   8.728  70.486  1.00  0.00    -0.238 NA 
HETATM    7  C   UNL     1     -10.648   9.120  69.533  1.00  0.00    -0.223 A  
HETATM    8  N   UNL     1     -10.694  10.475  69.337  1.00  0.00    -0.226 NA 
HETATM    9  C   UNL     1     -11.624  10.980  70.206  1.00  0.00    -0.322 A  
HETATM   10  N   UNL     1     -13.496  11.392  72.079  1.00  0.00    -0.320 NA 
HETATM   11  N   UNL     1     -12.001  12.259  70.360  1.00  0.00    -0.322 NA 
HETATM   12 CL   UNL     1     -13.499  13.947  71.633  1.00  0.00    -0.428 Cl 
HETATM   13  C   UNL     1     -12.943  12.358  71.322  1.00  0.00    -0.203 A  
ENDROOT
BRANCH   8  14
HETATM   14  C1* UNL     1      -9.951  11.248  68.361  1.00  0.00    -0.197 C  
HETATM   15  C2* UNL     1     -10.308  10.934  66.915  1.00  0.00    -0.285 C  
HETATM   16  C4* UNL     1     -10.192  13.297  67.251  1.00  0.00    -0.240 C  
HETATM   17  C3* UNL     1      -9.902  12.207  66.217  1.00  0.00    -0.234 C  
HETATM   18  O3* UNL     1      -8.493  12.155  65.969  1.00  0.00    -0.384 OA 
HETATM   19  O4* UNL     1     -10.226  12.652  68.548  1.00  0.00    -0.229 OA 
HETATM   20  H3* UNL     1      -8.236  12.957  65.529  1.00  0.00     0.000 HD 
BRANCH  16  21
HETATM   21  C5* UNL     1     -11.537  13.994  67.034  1.00  0.00    -0.371 C  
HETATM   22  O5* UNL     1     -12.185  14.265  68.274  1.00  0.00    -0.562 OA 
HETATM   23  H5* UNL     1     -13.020  14.697  68.139  1.00  0.00     0.000 HD 
ENDBRANCH  16  21
ENDBRANCH   8  14
TORSDOF 2
ENDMDL
MODEL       64
REMARK 921   NORMALIZED FREE ENERGY PREDICTED BY IDOCK:   -5.41 KCAL/MOL
REMARK 922        TOTAL FREE ENERGY PREDICTED BY IDOCK:   -6.39 KCAL/MOL
REMARK 923 INTER-LIGAND FREE ENERGY PREDICTED BY IDOCK:   -5.97 KCAL/MOL
REMARK 924 INTRA-LIGAND FREE ENERGY PREDICTED BY IDOCK:   -0.41 KCAL/MOL
REMARK 927      BINDING AFFINITY PREDICTED BY RF-SCORE:    0.00 PKD
ROOT
HETATM    1  N   UNL     1      -6.234  17.824  66.789  1.00  0.00    -0.149 NA 
HETATM    2  C   UNL     1      -7.035  16.692  66.855  1.00  0.00    -0.227 A  
HETATM    3  H1  UNL     1      -5.270  17.842  67.120  1.00  0.00     0.000 HD 
HETATM    4  H2  UNL     1      -6.733  18.578  67.262  1.00  0.00     0.000 HD 
HETATM    5  C   UNL     1      -8.366  16.668  66.399  1.00  0.00    -0.318 A  
HETATM    6  N   UNL     1      -9.177  17.636  65.849  1.00  0.00    -0.518 NA 
HETATM    7  C   UNL     1     -10.312  17.018  65.596  1.00  0.00    -0.209 A  
HETATM    8  N   UNL     1     -10.285  15.706  65.989  1.00  0.00    -0.312 NA 
HETATM    9  C   UNL     1      -9.041  15.462  66.505  1.00  0.00    -0.300 A  
HETATM   10  N   UNL     1      -6.512  15.567  67.387  1.00  0.00    -0.274 NA 
HETATM   11  N   UNL     1      -8.567  14.311  67.006  1.00  0.00    -0.212 NA 
HETATM   12 CL   UNL     1      -6.570  13.075  68.102  1.00  0.00    -0.089 Cl 
HETATM   13  C   UNL     1      -7.291  14.469  67.420  1.00  0.00    -0.157 A  
ENDROOT
BRANCH   8  14
HETATM   14  C1* UNL     1     -11.342  14.723  65.846  1.00  0.00    -0.331 C  
HETATM   15  C2* UNL     1     -10.986  13.555  64.938  1.00  0.00    -0.359 C  
HETATM   16  C4* UNL     1     -12.027  12.770  66.940  1.00  0.00    -0.310 C  
HETATM   17  C3* UNL     1     -11.920  12.483  65.440  1.00  0.00    -0.437 C  
HETATM   18  O3* UNL     1     -13.201  12.678  64.830  1.00  0.00    -0.846 OA 
HETATM   19  O4* UNL     1     -11.648  14.154  67.136  1.00  0.00    -0.336 OA 
HETATM   20  H3* UNL     1     -13.789  12.003  65.146  1.00  0.00     0.000 HD 
BRANCH  16  21
HETATM   21  C5* UNL     1     -11.099  11.899  67.790  1.00  0.00    -0.239 C  
HETATM   22  O5* UNL     1     -10.538  12.643  68.868  1.00  0.00    -0.351 OA 
HETATM   23  H5* UNL     1      -9.961  12.103  69.395  1.00  0.00     0.000 HD 
ENDBRANCH  16  21
ENDBRANCH   8  14
TORSDOF 2
ENDMDL
MODEL       65
REMARK 921   NORMALIZED FREE ENERGY PREDICTED BY IDOCK:   -5.41 KCAL/MOL
REMARK 922        TOTAL FREE ENERGY PREDICTED BY IDOCK:   -6.39 KCAL/MOL
REMARK 923 INTER-LIGAND FREE ENERGY PREDICTED BY IDOCK:   -6.02 KCAL/MOL
REMARK 924 INTRA-LIGAND FREE ENERGY PREDICTED BY IDOCK:   -0.37 KCAL/MOL
REMARK 927      BINDING AFFINITY PREDICTED BY RF-SCORE:    0.00 PKD
ROOT
HETATM    1  N   UNL     1     -10.307  19.099  69.066  1.00  0.00    -0.510 NA 
HETATM    2  C   UNL     1      -9.786  18.138  68.211  1.00  0.00    -0.351 A  
HETATM    3  H1  UNL     1      -9.917  20.038  69.149  1.00  0.00     0.000 HD 
HETATM    4  H2  UNL     1     -10.330  18.694  70.002  1.00  0.00     0.000 HD 
HETATM    5  C   UNL     1     -10.323  16.843  68.096  1.00  0.00    -0.336 A  
HETATM    6  N   UNL     1     -11.371  16.211  68.731  1.00  0.00    -0.362 NA 
HETATM    7  C   UNL     1     -11.417  15.012  68.190  1.00  0.00    -0.339 A  
HETATM    8  N   UNL     1     -10.427  14.825  67.262  1.00  0.00    -0.262 NA 
HETATM    9  C   UNL     1      -9.717  15.993  67.185  1.00  0.00    -0.228 A  
HETATM   10  N   UNL     1      -8.711  18.462  67.461  1.00  0.00    -0.256 NA 
HETATM   11  N   UNL     1      -8.661  16.266  66.402  1.00  0.00    -0.299 NA 
HETATM   12 CL   UNL     1      -6.872  18.001  65.692  1.00  0.00    -0.276 Cl 
HETATM   13  C   UNL     1      -8.232  17.528  66.617  1.00  0.00    -0.256 A  
ENDROOT
BRANCH   8  14
HETATM   14  C1* UNL     1     -10.190  13.644  66.454  1.00  0.00    -0.292 C  
HETATM   15  C2* UNL     1      -8.958  12.850  66.860  1.00  0.00    -0.210 C  
HETATM   16  C4* UNL     1     -10.810  11.386  66.495  1.00  0.00    -0.283 C  
HETATM   17  C3* UNL     1      -9.291  11.478  66.331  1.00  0.00    -0.209 C  
HETATM   18  O3* UNL     1      -8.963  11.438  64.938  1.00  0.00    -0.390 OA 
HETATM   19  O4* UNL     1     -11.310  12.743  66.580  1.00  0.00    -0.291 OA 
HETATM   20  H3* UNL     1      -9.173  10.574  64.605  1.00  0.00     0.000 HD 
BRANCH  16  21
HETATM   21  C5* UNL     1     -11.238  10.643  67.762  1.00  0.00    -0.313 C  
HETATM   22  O5* UNL     1     -12.205  11.390  68.496  1.00  0.00    -0.557 OA 
HETATM   23  H5* UNL     1     -12.470  10.929  69.283  1.00  0.00     0.000 HD 
ENDBRANCH  16  21
ENDBRANCH   8  14
TORSDOF 2
ENDMDL
MODEL       66
REMARK 921   NORMALIZED FREE ENERGY PREDICTED BY IDOCK:   -5.38 KCAL/MOL
REMARK 922        TOTAL FREE ENERGY PREDICTED BY IDOCK:   -6.35 KCAL/MOL
REMARK 923 INTER-LIGAND FREE ENERGY PREDICTED BY IDOCK:   -6.02 KCAL/MOL
REMARK 924 INTRA-LIGAND FREE ENERGY PREDICTED BY IDOCK:   -0.33 KCAL/MOL
REMARK 927      BINDING AFFINITY PREDICTED BY RF-SCORE:    0.00 PKD
ROOT
HETATM    1  N   UNL     1     -11.702  16.535  63.895  1.00  0.00    -1.484 NA 
HETATM    2  C   UNL     1     -11.462  15.227  64.289  1.00  0.00    -0.153 A  
HETATM    3  H1  UNL     1     -12.396  16.785  63.190  1.00  0.00     0.000 HD 
HETATM    4  H2  UNL     1     -10.810  16.933  63.599  1.00  0.00     0.000 HD 
HETATM    5  C   UNL     1     -10.505  14.883  65.261  1.00  0.00    -0.404 A  
HETATM    6  N   UNL     1      -9.616  15.635  65.997  1.00  0.00    -0.326 NA 
HETATM    7  C   UNL     1      -8.995  14.765  66.765  1.00  0.00    -0.266 A  
HETATM    8  N   UNL     1      -9.414  13.481  66.535  1.00  0.00    -0.271 NA 
HETATM    9  C   UNL     1     -10.387  13.538  65.574  1.00  0.00    -0.300 A  
HETATM   10  N   UNL     1     -12.178  14.241  63.707  1.00  0.00    -0.651 NA 
HETATM   11  N   UNL     1     -11.083  12.520  65.043  1.00  0.00    -0.290 NA 
HETATM   12 CL   UNL     1     -12.893  11.774  63.346  1.00  0.00    -0.539 Cl 
HETATM   13  C   UNL     1     -11.953  12.978  64.118  1.00  0.00    -0.427 A  
ENDROOT
BRANCH   8  14
HETATM   14  C1* UNL     1      -8.971  12.276  67.210  1.00  0.00    -0.187 C  
HETATM   15  C2* UNL     1      -8.211  11.306  66.318  1.00  0.00    -0.126 C  
HETATM   16  C4* UNL     1      -7.082  11.577  68.406  1.00  0.00    -0.081 C  
HETATM   17  C3* UNL     1      -7.396  10.537  67.326  1.00  0.00    -0.091 C  
HETATM   18  O3* UNL     1      -8.221   9.510  67.886  1.00  0.00    -0.112 OA 
HETATM   19  O4* UNL     1      -8.070  12.629  68.281  1.00  0.00    -0.152 OA 
HETATM   20  H3* UNL     1      -7.708   9.026  68.521  1.00  0.00     0.000 HD 
BRANCH  16  21
HETATM   21  C5* UNL     1      -5.696  12.207  68.253  1.00  0.00    -0.052 C  
HETATM   22  O5* UNL     1      -5.788  13.616  68.062  1.00  0.00    -0.108 OA 
HETATM   23  H5* UNL     1      -4.929  14.008  67.967  1.00  0.00     0.000 HD 
ENDBRANCH  16  21
ENDBRANCH   8  14
TORSDOF 2
ENDMDL
MODEL       67
REMARK 921   NORMALIZED FREE ENERGY PREDICTED BY IDOCK:   -5.38 KCAL/MOL
REMARK 922        TOTAL FREE ENERGY PREDICTED BY IDOCK:   -6.35 KCAL/MOL
REMARK 923 INTER-LIGAND FREE ENERGY PREDICTED BY IDOCK:   -6.22 KCAL/MOL
REMARK 924 INTRA-LIGAND FREE ENERGY PREDICTED BY IDOCK:   -0.13 KCAL/MOL
REMARK 927      BINDING AFFINITY PREDICTED BY RF-SCORE:    0.00 PKD
ROOT
HETATM    1  N   UNL     1     -12.554  11.355  62.834  1.00  0.00    -0.847 NA 
HETATM    2  C   UNL     1     -11.686  12.019  63.689  1.00  0.00    -0.493 A  
HETATM    3  H1  UNL     1     -12.479  10.358  62.631  1.00  0.00     0.000 HD 
HETATM    4  H2  UNL     1     -12.541  11.850  61.942  1.00  0.00     0.000 HD 
HETATM    5  C   UNL     1     -11.789  13.394  63.969  1.00  0.00    -0.445 A  
HETATM    6  N   UNL     1     -12.649  14.372  63.519  1.00  0.00    -0.658 NA 
HETATM    7  C   UNL     1     -12.276  15.465  64.153  1.00  0.00    -0.057 A  
HETATM    8  N   UNL     1     -11.193  15.248  64.962  1.00  0.00    -0.401 NA 
HETATM    9  C   UNL     1     -10.868  13.922  64.860  1.00  0.00    -0.405 A  
HETATM   10  N   UNL     1     -10.694  11.312  64.273  1.00  0.00    -0.353 NA 
HETATM   11  N   UNL     1      -9.876  13.265  65.482  1.00  0.00    -0.193 NA 
HETATM   12 CL   UNL     1      -8.642  11.013  65.830  1.00  0.00    -0.174 Cl 
HETATM   13  C   UNL     1      -9.875  11.964  65.120  1.00  0.00    -0.218 A  
ENDROOT
BRANCH   8  14
HETATM   14  C1* UNL     1     -10.531  16.210  65.822  1.00  0.00    -0.367 C  
HETATM   15  C2* UNL     1     -10.665  15.914  67.308  1.00  0.00    -0.306 C  
HETATM   16  C4* UNL     1      -8.408  16.486  66.773  1.00  0.00    -0.239 C  
HETATM   17  C3* UNL     1      -9.464  16.629  67.872  1.00  0.00    -0.225 C  
HETATM   18  O3* UNL     1      -9.796  18.012  68.031  1.00  0.00    -0.294 OA 
HETATM   19  O4* UNL     1      -9.116  16.216  65.538  1.00  0.00    -0.344 OA 
HETATM   20  H3* UNL     1      -9.039  18.463  68.387  1.00  0.00     0.000 HD 
BRANCH  16  21
HETATM   21  C5* UNL     1      -7.430  15.336  67.020  1.00  0.00    -0.089 C  
HETATM   22  O5* UNL     1      -6.584  15.607  68.134  1.00  0.00    -0.111 OA 
HETATM   23  H5* UNL     1      -5.977  14.893  68.287  1.00  0.00     0.000 HD 
ENDBRANCH  16  21
ENDBRANCH   8  14
TORSDOF 2
ENDMDL
MODEL       68
REMARK 921   NORMALIZED FREE ENERGY PREDICTED BY IDOCK:   -5.38 KCAL/MOL
REMARK 922        TOTAL FREE ENERGY PREDICTED BY IDOCK:   -6.35 KCAL/MOL
REMARK 923 INTER-LIGAND FREE ENERGY PREDICTED BY IDOCK:   -6.47 KCAL/MOL
REMARK 924 INTRA-LIGAND FREE ENERGY PREDICTED BY IDOCK:    0.13 KCAL/MOL
REMARK 927      BINDING AFFINITY PREDICTED BY RF-SCORE:    0.00 PKD
ROOT
HETATM    1  N   UNL     1     -10.074  19.188  65.998  1.00  0.00    -0.483 NA 
HETATM    2  C   UNL     1      -9.941  17.853  66.351  1.00  0.00    -0.358 A  
HETATM    3  H1  UNL     1      -9.662  19.949  66.538  1.00  0.00     0.000 HD 
HETATM    4  H2  UNL     1     -11.072  19.382  65.910  1.00  0.00     0.000 HD 
HETATM    5  C   UNL     1     -10.510  16.803  65.606  1.00  0.00    -0.269 A  
HETATM    6  N   UNL     1     -11.289  16.786  64.470  1.00  0.00    -0.993 NA 
HETATM    7  C   UNL     1     -11.496  15.509  64.224  1.00  0.00    -0.180 A  
HETATM    8  N   UNL     1     -10.918  14.701  65.167  1.00  0.00    -0.361 NA 
HETATM    9  C   UNL     1     -10.277  15.515  66.062  1.00  0.00    -0.330 A  
HETATM   10  N   UNL     1      -9.238  17.550  67.463  1.00  0.00    -0.240 NA 
HETATM   11  N   UNL     1      -9.573  15.156  67.147  1.00  0.00    -0.215 NA 
HETATM   12 CL   UNL     1      -8.191  15.931  69.197  1.00  0.00    -0.230 Cl 
HETATM   13  C   UNL     1      -9.095  16.249  67.779  1.00  0.00    -0.195 A  
ENDROOT
BRANCH   8  14
HETATM   14  C1* UNL     1     -10.920  13.251  65.204  1.00  0.00    -0.299 C  
HETATM   15  C2* UNL     1      -9.630  12.640  65.728  1.00  0.00    -0.117 C  
HETATM   16  C4* UNL     1     -11.522  11.574  66.724  1.00  0.00    -0.157 C  
HETATM   17  C3* UNL     1     -10.105  11.295  66.216  1.00  0.00    -0.230 C  
HETATM   18  O3* UNL     1     -10.172  10.406  65.096  1.00  0.00    -0.304 OA 
HETATM   19  O4* UNL     1     -11.969  12.794  66.082  1.00  0.00    -0.407 OA 
HETATM   20  H3* UNL     1     -10.471   9.558  65.404  1.00  0.00     0.000 HD 
BRANCH  16  21
HETATM   21  C5* UNL     1     -11.591  11.783  68.238  1.00  0.00    -0.308 C  
HETATM   22  O5* UNL     1     -12.290  10.717  68.875  1.00  0.00    -0.800 OA 
HETATM   23  H5* UNL     1     -12.333  10.846  69.815  1.00  0.00     0.000 HD 
ENDBRANCH  16  21
ENDBRANCH   8  14
TORSDOF 2
ENDMDL
MODEL       69
REMARK 921   NORMALIZED FREE ENERGY PREDICTED BY IDOCK:   -5.36 KCAL/MOL
REMARK 922        TOTAL FREE ENERGY PREDICTED BY IDOCK:   -6.33 KCAL/MOL
REMARK 923 INTER-LIGAND FREE ENERGY PREDICTED BY IDOCK:   -5.99 KCAL/MOL
REMARK 924 INTRA-LIGAND FREE ENERGY PREDICTED BY IDOCK:   -0.33 KCAL/MOL
REMARK 927      BINDING AFFINITY PREDICTED BY RF-SCORE:    0.00 PKD
ROOT
HETATM    1  N   UNL     1     -10.403   7.528  70.237  1.00  0.00    -0.209 NA 
HETATM    2  C   UNL     1     -11.262   8.568  70.562  1.00  0.00    -0.242 A  
HETATM    3  H1  UNL     1     -10.514   6.581  70.600  1.00  0.00     0.000 HD 
HETATM    4  H2  UNL     1      -9.456   7.833  70.464  1.00  0.00     0.000 HD 
HETATM    5  C   UNL     1     -11.108   9.874  70.062  1.00  0.00    -0.285 A  
HETATM    6  N   UNL     1     -10.170  10.446  69.232  1.00  0.00    -0.218 NA 
HETATM    7  C   UNL     1     -10.560  11.697  69.096  1.00  0.00    -0.108 A  
HETATM    8  N   UNL     1     -11.686  11.969  69.828  1.00  0.00    -0.323 NA 
HETATM    9  C   UNL     1     -12.055  10.808  70.453  1.00  0.00    -0.354 A  
HETATM   10  N   UNL     1     -12.288   8.312  71.402  1.00  0.00    -0.305 NA 
HETATM   11  N   UNL     1     -13.102  10.607  71.268  1.00  0.00    -0.381 NA 
HETATM   12 CL   UNL     1     -14.410   8.937  72.756  1.00  0.00    -0.253 Cl 
HETATM   13  C   UNL     1     -13.129   9.325  71.689  1.00  0.00    -0.382 A  
ENDROOT
BRANCH   8  14
HETATM   14  C1* UNL     1     -12.406  13.226  69.899  1.00  0.00    -0.163 C  
HETATM   15  C2* UNL     1     -12.017  14.100  71.082  1.00  0.00    -0.316 C  
HETATM   16  C4* UNL     1     -12.137  15.405  69.084  1.00  0.00    -0.242 C  
HETATM   17  C3* UNL     1     -12.407  15.471  70.590  1.00  0.00    -0.416 C  
HETATM   18  O3* UNL     1     -13.810  15.648  70.811  1.00  0.00    -0.850 OA 
HETATM   19  O4* UNL     1     -12.133  14.004  68.715  1.00  0.00    -0.349 OA 
HETATM   20  H3* UNL     1     -14.055  16.512  70.501  1.00  0.00     0.000 HD 
BRANCH  16  21
HETATM   21  C5* UNL     1     -10.787  16.004  68.685  1.00  0.00    -0.301 C  
HETATM   22  O5* UNL     1     -10.522  15.803  67.299  1.00  0.00    -0.294 OA 
HETATM   23  H5* UNL     1      -9.685  16.174  67.051  1.00  0.00     0.000 HD 
ENDBRANCH  16  21
ENDBRANCH   8  14
TORSDOF 2
ENDMDL
MODEL       70
REMARK 921   NORMALIZED FREE ENERGY PREDICTED BY IDOCK:   -5.34 KCAL/MOL
REMARK 922        TOTAL FREE ENERGY PREDICTED BY IDOCK:   -6.31 KCAL/MOL
REMARK 923 INTER-LIGAND FREE ENERGY PREDICTED BY IDOCK:   -5.92 KCAL/MOL
REMARK 924 INTRA-LIGAND FREE ENERGY PREDICTED BY IDOCK:   -0.39 KCAL/MOL
REMARK 927      BINDING AFFINITY PREDICTED BY RF-SCORE:    0.00 PKD
ROOT
HETATM    1  N   UNL     1     -12.397  14.346  68.866  1.00  0.00    -0.576 NA 
HETATM    2  C   UNL     1     -12.011  13.492  67.842  1.00  0.00    -0.337 A  
HETATM    3  H1  UNL     1     -12.816  15.260  68.698  1.00  0.00     0.000 HD 
HETATM    4  H2  UNL     1     -11.584  14.489  69.466  1.00  0.00     0.000 HD 
HETATM    5  C   UNL     1     -11.431  12.231  68.074  1.00  0.00    -0.321 A  
HETATM    6  N   UNL     1     -11.091  11.563  69.230  1.00  0.00    -0.249 NA 
HETATM    7  C   UNL     1     -10.610  10.408  68.820  1.00  0.00    -0.208 A  
HETATM    8  N   UNL     1     -10.589  10.312  67.454  1.00  0.00    -0.251 NA 
HETATM    9  C   UNL     1     -11.117  11.474  66.957  1.00  0.00    -0.307 A  
HETATM   10  N   UNL     1     -12.197  13.896  66.567  1.00  0.00    -0.450 NA 
HETATM   11  N   UNL     1     -11.295  11.815  65.671  1.00  0.00    -0.279 NA 
HETATM   12 CL   UNL     1     -12.105  13.613  63.991  1.00  0.00    -0.495 Cl 
HETATM   13  C   UNL     1     -11.842  13.046  65.584  1.00  0.00    -0.399 A  
ENDROOT
BRANCH   8  14
HETATM   14  C1* UNL     1     -10.150   9.182  66.658  1.00  0.00    -0.273 C  
HETATM   15  C2* UNL     1      -8.750   8.690  66.993  1.00  0.00    -0.135 C  
HETATM   16  C4* UNL     1     -10.255   6.846  66.791  1.00  0.00    -0.206 C  
HETATM   17  C3* UNL     1      -8.807   7.260  66.519  1.00  0.00    -0.141 C  
HETATM   18  O3* UNL     1      -8.568   7.242  65.108  1.00  0.00    -0.321 OA 
HETATM   19  O4* UNL     1     -11.035   8.064  66.881  1.00  0.00    -0.154 OA 
HETATM   20  H3* UNL     1      -8.604   6.341  64.810  1.00  0.00     0.000 HD 
BRANCH  16  21
HETATM   21  C5* UNL     1     -10.429   6.075  68.102  1.00  0.00    -0.236 C  
HETATM   22  O5* UNL     1     -11.601   6.492  68.795  1.00  0.00    -0.588 OA 
HETATM   23  H5* UNL     1     -11.709   6.015  69.609  1.00  0.00     0.000 HD 
ENDBRANCH  16  21
ENDBRANCH   8  14
TORSDOF 2
ENDMDL
MODEL       71
REMARK 921   NORMALIZED FREE ENERGY PREDICTED BY IDOCK:   -5.34 KCAL/MOL
REMARK 922        TOTAL FREE ENERGY PREDICTED BY IDOCK:   -6.31 KCAL/MOL
REMARK 923 INTER-LIGAND FREE ENERGY PREDICTED BY IDOCK:   -5.88 KCAL/MOL
REMARK 924 INTRA-LIGAND FREE ENERGY PREDICTED BY IDOCK:   -0.42 KCAL/MOL
REMARK 927      BINDING AFFINITY PREDICTED BY RF-SCORE:    0.00 PKD
ROOT
HETATM    1  N   UNL     1     -12.519  14.175  63.391  1.00  0.00    -1.116 NA 
HETATM    2  C   UNL     1     -12.069  13.562  64.552  1.00  0.00    -0.416 A  
HETATM    3  H1  UNL     1     -13.081  15.026  63.395  1.00  0.00     0.000 HD 
HETATM    4  H2  UNL     1     -13.030  13.474  62.854  1.00  0.00     0.000 HD 
HETATM    5  C   UNL     1     -11.294  12.388  64.547  1.00  0.00    -0.328 A  
HETATM    6  N   UNL     1     -10.832  11.584  63.528  1.00  0.00    -0.410 NA 
HETATM    7  C   UNL     1     -10.137  10.642  64.133  1.00  0.00    -0.334 A  
HETATM    8  N   UNL     1     -10.159  10.779  65.496  1.00  0.00    -0.261 NA 
HETATM    9  C   UNL     1     -10.895  11.897  65.780  1.00  0.00    -0.295 A  
HETATM   10  N   UNL     1     -12.398  14.116  65.739  1.00  0.00    -0.458 NA 
HETATM   11  N   UNL     1     -11.176  12.415  66.987  1.00  0.00    -0.285 NA 
HETATM   12 CL   UNL     1     -12.381  14.277  68.327  1.00  0.00    -0.164 Cl 
HETATM   13  C   UNL     1     -11.934  13.525  66.856  1.00  0.00    -0.399 A  
ENDROOT
BRANCH   8  14
HETATM   14  C1* UNL     1      -9.488   9.944  66.474  1.00  0.00    -0.181 C  
HETATM   15  C2* UNL     1     -10.380   8.884  67.104  1.00  0.00    -0.351 C  
HETATM   16  C4* UNL     1      -8.278   7.939  66.476  1.00  0.00    -0.113 C  
HETATM   17  C3* UNL     1      -9.368   7.858  67.547  1.00  0.00    -0.143 C  
HETATM   18  O3* UNL     1      -8.826   8.272  68.806  1.00  0.00    -0.136 OA 
HETATM   19  O4* UNL     1      -8.405   9.233  65.838  1.00  0.00    -0.112 OA 
HETATM   20  H3* UNL     1      -8.189   7.626  69.085  1.00  0.00     0.000 HD 
BRANCH  16  21
HETATM   21  C5* UNL     1      -8.410   6.864  65.396  1.00  0.00    -0.119 C  
HETATM   22  O5* UNL     1      -8.724   7.439  64.130  1.00  0.00    -0.263 OA 
HETATM   23  H5* UNL     1      -8.806   6.771  63.460  1.00  0.00     0.000 HD 
ENDBRANCH  16  21
ENDBRANCH   8  14
TORSDOF 2
ENDMDL
MODEL       72
REMARK 921   NORMALIZED FREE ENERGY PREDICTED BY IDOCK:   -5.34 KCAL/MOL
REMARK 922        TOTAL FREE ENERGY PREDICTED BY IDOCK:   -6.31 KCAL/MOL
REMARK 923 INTER-LIGAND FREE ENERGY PREDICTED BY IDOCK:   -6.18 KCAL/MOL
REMARK 924 INTRA-LIGAND FREE ENERGY PREDICTED BY IDOCK:   -0.13 KCAL/MOL
REMARK 927      BINDING AFFINITY PREDICTED BY RF-SCORE:    0.00 PKD
ROOT
HETATM    1  N   UNL     1     -11.541   8.665  70.711  1.00  0.00    -0.347 NA 
HETATM    2  C   UNL     1     -10.855   8.794  69.512  1.00  0.00    -0.142 A  
HETATM    3  H1  UNL     1     -11.406   7.879  71.346  1.00  0.00     0.000 HD 
HETATM    4  H2  UNL     1     -12.537   8.720  70.499  1.00  0.00     0.000 HD 
HETATM    5  C   UNL     1     -11.040   9.879  68.636  1.00  0.00    -0.134 A  
HETATM    6  N   UNL     1     -11.867  10.980  68.682  1.00  0.00    -0.484 NA 
HETATM    7  C   UNL     1     -11.579  11.663  67.594  1.00  0.00    -0.279 A  
HETATM    8  N   UNL     1     -10.631  11.037  66.827  1.00  0.00    -0.255 NA 
HETATM    9  C   UNL     1     -10.271   9.891  67.483  1.00  0.00    -0.216 A  
HETATM   10  N   UNL     1      -9.974   7.829  69.170  1.00  0.00    -0.178 NA 
HETATM   11  N   UNL     1      -9.369   8.971  67.103  1.00  0.00    -0.143 NA 
HETATM   12 CL   UNL     1      -8.193   6.726  67.641  1.00  0.00    -0.119 Cl 
HETATM   13  C   UNL     1      -9.296   7.980  68.016  1.00  0.00    -0.138 A  
ENDROOT
BRANCH   8  14
HETATM   14  C1* UNL     1     -10.057  11.507  65.581  1.00  0.00    -0.237 C  
HETATM   15  C2* UNL     1     -10.256  10.559  64.408  1.00  0.00    -0.337 C  
HETATM   16  C4* UNL     1     -10.745  12.805  63.757  1.00  0.00    -0.361 C  
HETATM   17  C3* UNL     1     -10.144  11.499  63.234  1.00  0.00    -0.406 C  
HETATM   18  O3* UNL     1      -8.756  11.700  62.947  1.00  0.00    -0.600 OA 
HETATM   19  O4* UNL     1     -10.681  12.752  65.204  1.00  0.00    -0.281 OA 
HETATM   20  H3* UNL     1      -8.685  12.292  62.208  1.00  0.00     0.000 HD 
BRANCH  16  21
HETATM   21  C5* UNL     1     -12.209  13.001  63.356  1.00  0.00    -0.472 C  
HETATM   22  O5* UNL     1     -12.570  14.379  63.377  1.00  0.00    -1.054 OA 
HETATM   23  H5* UNL     1     -13.479  14.501  63.128  1.00  0.00     0.000 HD 
ENDBRANCH  16  21
ENDBRANCH   8  14
TORSDOF 2
ENDMDL
MODEL       73
REMARK 921   NORMALIZED FREE ENERGY PREDICTED BY IDOCK:   -5.32 KCAL/MOL
REMARK 922        TOTAL FREE ENERGY PREDICTED BY IDOCK:   -6.29 KCAL/MOL
REMARK 923 INTER-LIGAND FREE ENERGY PREDICTED BY IDOCK:   -5.96 KCAL/MOL
REMARK 924 INTRA-LIGAND FREE ENERGY PREDICTED BY IDOCK:   -0.32 KCAL/MOL
REMARK 927      BINDING AFFINITY PREDICTED BY RF-SCORE:    0.00 PKD
ROOT
HETATM    1  N   UNL     1      -9.872   7.060  70.265  1.00  0.00    -0.176 NA 
HETATM    2  C   UNL     1     -10.659   8.203  70.271  1.00  0.00    -0.228 A  
HETATM    3  H1  UNL     1     -10.022   6.280  70.904  1.00  0.00     0.000 HD 
HETATM    4  H2  UNL     1      -8.902   7.358  70.370  1.00  0.00     0.000 HD 
HETATM    5  C   UNL     1     -10.452   9.280  69.390  1.00  0.00    -0.219 A  
HETATM    6  N   UNL     1      -9.515   9.508  68.405  1.00  0.00    -0.137 NA 
HETATM    7  C   UNL     1      -9.839  10.680  67.898  1.00  0.00    -0.161 A  
HETATM    8  N   UNL     1     -10.919  11.236  68.532  1.00  0.00    -0.202 NA 
HETATM    9  C   UNL     1     -11.328  10.349  69.491  1.00  0.00    -0.265 A  
HETATM   10  N   UNL     1     -11.665   8.285  71.168  1.00  0.00    -0.279 NA 
HETATM   11  N   UNL     1     -12.354  10.475  70.348  1.00  0.00    -0.319 NA 
HETATM   12 CL   UNL     1     -13.696   9.430  72.303  1.00  0.00    -0.510 Cl 
HETATM   13  C   UNL     1     -12.436   9.389  71.145  1.00  0.00    -0.293 A  
ENDROOT
BRANCH   8  14
HETATM   14  C1* UNL     1     -11.564  12.498  68.226  1.00  0.00    -0.328 C  
HETATM   15  C2* UNL     1     -10.598  13.636  67.932  1.00  0.00    -0.255 C  
HETATM   16  C4* UNL     1     -12.360  13.600  66.319  1.00  0.00    -0.412 C  
HETATM   17  C3* UNL     1     -11.455  14.556  67.099  1.00  0.00    -0.368 C  
HETATM   18  O3* UNL     1     -12.255  15.350  67.982  1.00  0.00    -0.407 OA 
HETATM   19  O4* UNL     1     -12.381  12.347  67.046  1.00  0.00    -0.399 OA 
HETATM   20  H3* UNL     1     -12.794  15.929  67.457  1.00  0.00     0.000 HD 
BRANCH  16  21
HETATM   21  C5* UNL     1     -11.861  13.315  64.901  1.00  0.00    -0.362 C  
HETATM   22  O5* UNL     1     -12.048  14.444  64.051  1.00  0.00    -0.646 OA 
HETATM   23  H5* UNL     1     -11.738  14.267  63.171  1.00  0.00     0.000 HD 
ENDBRANCH  16  21
ENDBRANCH   8  14
TORSDOF 2
ENDMDL
MODEL       74
REMARK 921   NORMALIZED FREE ENERGY PREDICTED BY IDOCK:   -5.30 KCAL/MOL
REMARK 922        TOTAL FREE ENERGY PREDICTED BY IDOCK:   -6.26 KCAL/MOL
REMARK 923 INTER-LIGAND FREE ENERGY PREDICTED BY IDOCK:   -5.94 KCAL/MOL
REMARK 924 INTRA-LIGAND FREE ENERGY PREDICTED BY IDOCK:   -0.32 KCAL/MOL
REMARK 927      BINDING AFFINITY PREDICTED BY RF-SCORE:    0.00 PKD
ROOT
HETATM    1  N   UNL     1     -13.376  10.466  72.239  1.00  0.00    -0.586 NA 
HETATM    2  C   UNL     1     -12.529  10.709  71.167  1.00  0.00    -0.418 A  
HETATM    3  H1  UNL     1     -13.520   9.537  72.633  1.00  0.00     0.000 HD 
HETATM    4  H2  UNL     1     -14.293  10.839  71.993  1.00  0.00     0.000 HD 
HETATM    5  C   UNL     1     -12.330  11.991  70.622  1.00  0.00    -0.304 A  
HETATM    6  N   UNL     1     -12.864  13.223  70.929  1.00  0.00    -0.231 NA 
HETATM    7  C   UNL     1     -12.280  14.059  70.095  1.00  0.00    -0.359 A  
HETATM    8  N   UNL     1     -11.420  13.420  69.241  1.00  0.00    -0.281 NA 
HETATM    9  C   UNL     1     -11.437  12.090  69.567  1.00  0.00    -0.282 A  
HETATM   10  N   UNL     1     -11.872   9.664  70.620  1.00  0.00    -0.270 NA 
HETATM   11  N   UNL     1     -10.744  11.092  68.997  1.00  0.00    -0.208 NA 
HETATM   12 CL   UNL     1     -10.227   8.553  68.950  1.00  0.00    -0.214 Cl 
HETATM   13  C   UNL     1     -11.033   9.918  69.597  1.00  0.00    -0.252 A  
ENDROOT
BRANCH   8  14
HETATM   14  C1* UNL     1     -10.592  14.021  68.213  1.00  0.00    -0.249 C  
HETATM   15  C2* UNL     1     -11.359  14.467  66.977  1.00  0.00    -0.357 C  
HETATM   16  C4* UNL     1      -9.826  16.165  67.665  1.00  0.00    -0.236 C  
HETATM   17  C3* UNL     1     -10.447  15.529  66.419  1.00  0.00    -0.306 C  
HETATM   18  O3* UNL     1      -9.420  14.887  65.655  1.00  0.00    -0.466 OA 
HETATM   19  O4* UNL     1      -9.955  15.203  68.741  1.00  0.00    -0.213 OA 
HETATM   20  H3* UNL     1      -8.845  15.557  65.303  1.00  0.00     0.000 HD 
BRANCH  16  21
HETATM   21  C5* UNL     1     -10.526  17.456  68.098  1.00  0.00    -0.389 C  
HETATM   22  O5* UNL     1      -9.582  18.485  68.379  1.00  0.00    -0.320 OA 
HETATM   23  H5* UNL     1     -10.016  19.286  68.648  1.00  0.00     0.000 HD 
ENDBRANCH  16  21
ENDBRANCH   8  14
TORSDOF 2
ENDMDL
MODEL       75
REMARK 921   NORMALIZED FREE ENERGY PREDICTED BY IDOCK:   -5.27 KCAL/MOL
REMARK 922        TOTAL FREE ENERGY PREDICTED BY IDOCK:   -6.23 KCAL/MOL
REMARK 923 INTER-LIGAND FREE ENERGY PREDICTED BY IDOCK:   -6.07 KCAL/MOL
REMARK 924 INTRA-LIGAND FREE ENERGY PREDICTED BY IDOCK:   -0.16 KCAL/MOL
REMARK 927      BINDING AFFINITY PREDICTED BY RF-SCORE:    0.00 PKD
ROOT
HETATM    1  N   UNL     1     -10.107   7.609  69.298  1.00  0.00    -0.185 NA 
HETATM    2  C   UNL     1     -10.132   8.522  68.253  1.00  0.00    -0.192 A  
HETATM    3  H1  UNL     1      -9.670   6.691  69.223  1.00  0.00     0.000 HD 
HETATM    4  H2  UNL     1     -11.071   7.465  69.600  1.00  0.00     0.000 HD 
HETATM    5  C   UNL     1     -10.736   9.788  68.356  1.00  0.00    -0.221 A  
HETATM    6  N   UNL     1     -11.417  10.413  69.378  1.00  0.00    -0.242 NA 
HETATM    7  C   UNL     1     -11.724  11.600  68.900  1.00  0.00    -0.334 A  
HETATM    8  N   UNL     1     -11.307  11.760  67.605  1.00  0.00    -0.283 NA 
HETATM    9  C   UNL     1     -10.666  10.606  67.240  1.00  0.00    -0.285 A  
HETATM   10  N   UNL     1      -9.556   8.172  67.082  1.00  0.00    -0.162 NA 
HETATM   11  N   UNL     1     -10.092  10.320  66.060  1.00  0.00    -0.246 NA 
HETATM   12 CL   UNL     1      -8.816   8.576  64.630  1.00  0.00    -0.024 Cl 
HETATM   13  C   UNL     1      -9.565   9.077  66.085  1.00  0.00    -0.272 A  
ENDROOT
BRANCH   8  14
HETATM   14  C1* UNL     1     -11.451  12.939  66.773  1.00  0.00    -0.340 C  
HETATM   15  C2* UNL     1     -10.135  13.503  66.258  1.00  0.00    -0.298 C  
HETATM   16  C4* UNL     1     -11.749  13.408  64.498  1.00  0.00    -0.384 C  
HETATM   17  C3* UNL     1     -10.584  14.249  65.027  1.00  0.00    -0.425 C  
HETATM   18  O3* UNL     1     -11.074  15.533  65.431  1.00  0.00    -0.337 OA 
HETATM   19  O4* UNL     1     -12.235  12.612  65.607  1.00  0.00    -0.512 OA 
HETATM   20  H3* UNL     1     -11.356  16.003  64.655  1.00  0.00     0.000 HD 
BRANCH  16  21
HETATM   21  C5* UNL     1     -11.344  12.455  63.372  1.00  0.00    -0.433 C  
HETATM   22  O5* UNL     1     -12.344  11.465  63.148  1.00  0.00    -0.895 OA 
HETATM   23  H5* UNL     1     -12.093  10.873  62.450  1.00  0.00     0.000 HD 
ENDBRANCH  16  21
ENDBRANCH   8  14
TORSDOF 2
ENDMDL
MODEL       76
REMARK 921   NORMALIZED FREE ENERGY PREDICTED BY IDOCK:   -5.26 KCAL/MOL
REMARK 922        TOTAL FREE ENERGY PREDICTED BY IDOCK:   -6.21 KCAL/MOL
REMARK 923 INTER-LIGAND FREE ENERGY PREDICTED BY IDOCK:   -5.84 KCAL/MOL
REMARK 924 INTRA-LIGAND FREE ENERGY PREDICTED BY IDOCK:   -0.38 KCAL/MOL
REMARK 927      BINDING AFFINITY PREDICTED BY RF-SCORE:    0.00 PKD
ROOT
HETATM    1  N   UNL     1      -6.215  14.286  70.521  1.00  0.00    -0.290 NA 
HETATM    2  C   UNL     1      -6.967  15.070  69.659  1.00  0.00    -0.191 A  
HETATM    3  H1  UNL     1      -5.507  14.670  71.147  1.00  0.00     0.000 HD 
HETATM    4  H2  UNL     1      -5.765  13.562  69.961  1.00  0.00     0.000 HD 
HETATM    5  C   UNL     1      -7.943  14.540  68.795  1.00  0.00    -0.142 A  
HETATM    6  N   UNL     1      -8.371  13.253  68.555  1.00  0.00    -0.120 NA 
HETATM    7  C   UNL     1      -9.328  13.378  67.660  1.00  0.00    -0.217 A  
HETATM    8  N   UNL     1      -9.514  14.682  67.283  1.00  0.00    -0.214 NA 
HETATM    9  C   UNL     1      -8.635  15.444  68.005  1.00  0.00    -0.151 A  
HETATM   10  N   UNL     1      -6.746  16.402  69.646  1.00  0.00    -0.199 NA 
HETATM   11  N   UNL     1      -8.471  16.775  67.964  1.00  0.00    -0.201 NA 
HETATM   12 CL   UNL     1      -7.175  18.835  68.856  1.00  0.00    -0.334 Cl 
HETATM   13  C   UNL     1      -7.501  17.155  68.823  1.00  0.00    -0.250 A  
ENDROOT
BRANCH   8  14
HETATM   14  C1* UNL     1     -10.492  15.194  66.341  1.00  0.00    -0.297 C  
HETATM   15  C2* UNL     1     -10.129  14.967  64.881  1.00  0.00    -0.179 C  
HETATM   16  C4* UNL     1     -12.418  14.404  65.269  1.00  0.00    -0.356 C  
HETATM   17  C3* UNL     1     -11.483  15.011  64.220  1.00  0.00    -0.128 C  
HETATM   18  O3* UNL     1     -11.837  16.381  64.007  1.00  0.00    -1.288 OA 
HETATM   19  O4* UNL     1     -11.755  14.530  66.551  1.00  0.00    -0.374 OA 
HETATM   20  H3* UNL     1     -12.691  16.409  63.590  1.00  0.00     0.000 HD 
BRANCH  16  21
HETATM   21  C5* UNL     1     -12.713  12.922  65.032  1.00  0.00    -0.404 C  
HETATM   22  O5* UNL     1     -11.890  12.094  65.849  1.00  0.00    -0.504 OA 
HETATM   23  H5* UNL     1     -12.073  11.174  65.702  1.00  0.00     0.000 HD 
ENDBRANCH  16  21
ENDBRANCH   8  14
TORSDOF 2
ENDMDL
MODEL       77
REMARK 921   NORMALIZED FREE ENERGY PREDICTED BY IDOCK:   -5.24 KCAL/MOL
REMARK 922        TOTAL FREE ENERGY PREDICTED BY IDOCK:   -6.19 KCAL/MOL
REMARK 923 INTER-LIGAND FREE ENERGY PREDICTED BY IDOCK:   -5.73 KCAL/MOL
REMARK 924 INTRA-LIGAND FREE ENERGY PREDICTED BY IDOCK:   -0.46 KCAL/MOL
REMARK 927      BINDING AFFINITY PREDICTED BY RF-SCORE:    0.00 PKD
ROOT
HETATM    1  N   UNL     1     -10.573   7.872  73.039  1.00  0.00    -0.365 NA 
HETATM    2  C   UNL     1     -10.350   8.620  71.892  1.00  0.00    -0.335 A  
HETATM    3  H1  UNL     1      -9.900   7.198  73.402  1.00  0.00     0.000 HD 
HETATM    4  H2  UNL     1     -11.459   7.382  72.916  1.00  0.00     0.000 HD 
HETATM    5  C   UNL     1     -11.280   9.550  71.391  1.00  0.00    -0.382 A  
HETATM    6  N   UNL     1     -12.535   9.929  71.815  1.00  0.00    -0.398 NA 
HETATM    7  C   UNL     1     -12.909  10.860  70.962  1.00  0.00    -0.376 A  
HETATM    8  N   UNL     1     -11.972  11.075  69.987  1.00  0.00    -0.320 NA 
HETATM    9  C   UNL     1     -10.916  10.244  70.248  1.00  0.00    -0.309 A  
HETATM   10  N   UNL     1      -9.190   8.440  71.225  1.00  0.00    -0.162 NA 
HETATM   11  N   UNL     1      -9.772  10.120  69.556  1.00  0.00    -0.227 NA 
HETATM   12 CL   UNL     1      -7.487   8.920  69.329  1.00  0.00    -0.073 Cl 
HETATM   13  C   UNL     1      -8.976   9.191  70.128  1.00  0.00    -0.198 A  
ENDROOT
BRANCH   8  14
HETATM   14  C1* UNL     1     -12.035  12.037  68.903  1.00  0.00    -0.246 C  
HETATM   15  C2* UNL     1     -10.837  12.972  68.830  1.00  0.00    -0.277 C  
HETATM   16  C4* UNL     1     -11.376  12.136  66.657  1.00  0.00    -0.350 C  
HETATM   17  C3* UNL     1     -10.858  13.383  67.379  1.00  0.00    -0.268 C  
HETATM   18  O3* UNL     1     -11.805  14.445  67.225  1.00  0.00    -0.384 OA 
HETATM   19  O4* UNL     1     -12.078  11.337  67.641  1.00  0.00    -0.600 OA 
HETATM   20  H3* UNL     1     -11.818  14.704  66.311  1.00  0.00     0.000 HD 
BRANCH  16  21
HETATM   21  C5* UNL     1     -10.261  11.277  66.058  1.00  0.00    -0.247 C  
HETATM   22  O5* UNL     1     -10.228   9.984  66.657  1.00  0.00    -0.217 OA 
HETATM   23  H5* UNL     1      -9.535   9.450  66.285  1.00  0.00     0.000 HD 
ENDBRANCH  16  21
ENDBRANCH   8  14
TORSDOF 2
ENDMDL
MODEL       78
REMARK 921   NORMALIZED FREE ENERGY PREDICTED BY IDOCK:   -5.20 KCAL/MOL
REMARK 922        TOTAL FREE ENERGY PREDICTED BY IDOCK:   -6.15 KCAL/MOL
REMARK 923 INTER-LIGAND FREE ENERGY PREDICTED BY IDOCK:   -5.95 KCAL/MOL
REMARK 924 INTRA-LIGAND FREE ENERGY PREDICTED BY IDOCK:   -0.20 KCAL/MOL
REMARK 927      BINDING AFFINITY PREDICTED BY RF-SCORE:    0.00 PKD
ROOT
HETATM    1  N   UNL     1     -11.142  11.892  65.698  1.00  0.00    -0.313 NA 
HETATM    2  C   UNL     1     -10.480  13.027  66.146  1.00  0.00    -0.279 A  
HETATM    3  H1  UNL     1     -10.949  10.958  66.059  1.00  0.00     0.000 HD 
HETATM    4  H2  UNL     1     -11.034  11.856  64.685  1.00  0.00     0.000 HD 
HETATM    5  C   UNL     1     -10.746  14.315  65.649  1.00  0.00    -0.316 A  
HETATM    6  N   UNL     1     -11.609  14.777  64.678  1.00  0.00    -0.407 NA 
HETATM    7  C   UNL     1     -11.437  16.082  64.669  1.00  0.00    -0.250 A  
HETATM    8  N   UNL     1     -10.478  16.483  65.563  1.00  0.00    -0.546 NA 
HETATM    9  C   UNL     1     -10.026  15.361  66.204  1.00  0.00    -0.307 A  
HETATM   10  N   UNL     1      -9.534  12.883  67.099  1.00  0.00    -0.221 NA 
HETATM   11  N   UNL     1      -9.090  15.279  67.163  1.00  0.00    -0.200 NA 
HETATM   12 CL   UNL     1      -7.733  13.748  68.752  1.00  0.00    -0.115 Cl 
HETATM   13  C   UNL     1      -8.918  13.995  67.543  1.00  0.00    -0.195 A  
ENDROOT
BRANCH   8  14
HETATM   14  C1* UNL     1     -10.046  17.839  65.840  1.00  0.00    -0.174 C  
HETATM   15  C2* UNL     1     -10.533  18.388  67.173  1.00  0.00    -0.434 C  
HETATM   16  C4* UNL     1      -8.216  18.882  66.863  1.00  0.00    -0.268 C  
HETATM   17  C3* UNL     1      -9.505  19.454  67.457  1.00  0.00    -0.312 C  
HETATM   18  O3* UNL     1      -9.871  20.637  66.740  1.00  0.00    -0.607 OA 
HETATM   19  O4* UNL     1      -8.605  17.885  65.886  1.00  0.00    -0.510 OA 
HETATM   20  H3* UNL     1      -9.224  21.309  66.919  1.00  0.00     0.000 HD 
BRANCH  16  21
HETATM   21  C5* UNL     1      -7.321  18.202  67.902  1.00  0.00    -0.225 C  
HETATM   22  O5* UNL     1      -8.090  17.431  68.821  1.00  0.00    -0.269 OA 
HETATM   23  H5* UNL     1      -7.534  17.009  69.465  1.00  0.00     0.000 HD 
ENDBRANCH  16  21
ENDBRANCH   8  14
TORSDOF 2
ENDMDL
MODEL       79
REMARK 921   NORMALIZED FREE ENERGY PREDICTED BY IDOCK:   -5.19 KCAL/MOL
REMARK 922        TOTAL FREE ENERGY PREDICTED BY IDOCK:   -6.14 KCAL/MOL
REMARK 923 INTER-LIGAND FREE ENERGY PREDICTED BY IDOCK:   -5.77 KCAL/MOL
REMARK 924 INTRA-LIGAND FREE ENERGY PREDICTED BY IDOCK:   -0.37 KCAL/MOL
REMARK 927      BINDING AFFINITY PREDICTED BY RF-SCORE:    0.00 PKD
ROOT
HETATM    1  N   UNL     1     -12.567   7.819  72.442  1.00  0.00    -0.534 NA 
HETATM    2  C   UNL     1     -12.401   9.028  71.781  1.00  0.00    -0.367 A  
HETATM    3  H1  UNL     1     -13.127   7.722  73.288  1.00  0.00     0.000 HD 
HETATM    4  H2  UNL     1     -11.637   7.454  72.647  1.00  0.00     0.000 HD 
HETATM    5  C   UNL     1     -11.628   9.163  70.613  1.00  0.00    -0.235 A  
HETATM    6  N   UNL     1     -10.880   8.263  69.885  1.00  0.00    -0.240 NA 
HETATM    7  C   UNL     1     -10.404   8.963  68.876  1.00  0.00    -0.212 A  
HETATM    8  N   UNL     1     -10.778  10.279  68.937  1.00  0.00    -0.214 NA 
HETATM    9  C   UNL     1     -11.568  10.426  70.045  1.00  0.00    -0.301 A  
HETATM   10  N   UNL     1     -13.005  10.124  72.288  1.00  0.00    -0.324 NA 
HETATM   11  N   UNL     1     -12.161  11.543  70.493  1.00  0.00    -0.377 NA 
HETATM   12 CL   UNL     1     -13.649  12.636  72.312  1.00  0.00    -0.611 Cl 
HETATM   13  C   UNL     1     -12.857  11.285  71.622  1.00  0.00    -0.405 A  
ENDROOT
BRANCH   8  14
HETATM   14  C1* UNL     1     -10.460  11.329  67.988  1.00  0.00    -0.188 C  
HETATM   15  C2* UNL     1      -9.041  11.865  68.105  1.00  0.00    -0.190 C  
HETATM   16  C4* UNL     1      -9.598  11.474  65.815  1.00  0.00    -0.235 C  
HETATM   17  C3* UNL     1      -8.809  12.421  66.723  1.00  0.00    -0.189 C  
HETATM   18  O3* UNL     1      -9.389  13.728  66.659  1.00  0.00    -0.269 OA 
HETATM   19  O4* UNL     1     -10.588  10.819  66.645  1.00  0.00    -0.245 OA 
HETATM   20  H3* UNL     1      -9.243  14.079  65.789  1.00  0.00     0.000 HD 
BRANCH  16  21
HETATM   21  C5* UNL     1      -8.730  10.392  65.170  1.00  0.00    -0.181 C  
HETATM   22  O5* UNL     1      -9.483   9.210  64.914  1.00  0.00    -0.453 OA 
HETATM   23  H5* UNL     1      -8.945   8.538  64.514  1.00  0.00     0.000 HD 
ENDBRANCH  16  21
ENDBRANCH   8  14
TORSDOF 2
ENDMDL
MODEL       80
REMARK 921   NORMALIZED FREE ENERGY PREDICTED BY IDOCK:   -5.18 KCAL/MOL
REMARK 922        TOTAL FREE ENERGY PREDICTED BY IDOCK:   -6.13 KCAL/MOL
REMARK 923 INTER-LIGAND FREE ENERGY PREDICTED BY IDOCK:   -6.29 KCAL/MOL
REMARK 924 INTRA-LIGAND FREE ENERGY PREDICTED BY IDOCK:    0.16 KCAL/MOL
REMARK 927      BINDING AFFINITY PREDICTED BY RF-SCORE:    0.00 PKD
ROOT
HETATM    1  N   UNL     1     -10.299  19.031  68.712  1.00  0.00    -0.488 NA 
HETATM    2  C   UNL     1     -10.518  17.662  68.653  1.00  0.00    -0.317 A  
HETATM    3  H1  UNL     1     -10.493  19.590  69.543  1.00  0.00     0.000 HD 
HETATM    4  H2  UNL     1     -10.806  19.455  67.935  1.00  0.00     0.000 HD 
HETATM    5  C   UNL     1     -10.251  16.892  67.506  1.00  0.00    -0.295 A  
HETATM    6  N   UNL     1      -9.780  17.222  66.254  1.00  0.00    -0.361 NA 
HETATM    7  C   UNL     1      -9.710  16.076  65.609  1.00  0.00    -0.238 A  
HETATM    8  N   UNL     1     -10.148  15.026  66.372  1.00  0.00    -0.265 NA 
HETATM    9  C   UNL     1     -10.497  15.531  67.596  1.00  0.00    -0.279 A  
HETATM   10  N   UNL     1     -11.018  17.046  69.746  1.00  0.00     0.002 NA 
HETATM   11  N   UNL     1     -10.973  14.863  68.659  1.00  0.00    -0.247 NA 
HETATM   12 CL   UNL     1     -11.832  14.990  71.100  1.00  0.00    -0.355 Cl 
HETATM   13  C   UNL     1     -11.201  15.713  69.683  1.00  0.00    -0.310 A  
ENDROOT
BRANCH   8  14
HETATM   14  C1* UNL     1     -10.190  13.625  65.999  1.00  0.00    -0.307 C  
HETATM   15  C2* UNL     1     -11.401  12.875  66.534  1.00  0.00    -0.361 C  
HETATM   16  C4* UNL     1     -11.041  12.345  64.232  1.00  0.00    -0.349 C  
HETATM   17  C3* UNL     1     -11.509  11.733  65.555  1.00  0.00    -0.179 C  
HETATM   18  O3* UNL     1     -10.592  10.709  65.952  1.00  0.00    -0.199 OA 
HETATM   19  O4* UNL     1     -10.248  13.512  64.562  1.00  0.00    -0.396 OA 
HETATM   20  H3* UNL     1     -10.660   9.990  65.335  1.00  0.00     0.000 HD 
BRANCH  16  21
HETATM   21  C5* UNL     1     -12.194  12.796  63.333  1.00  0.00    -0.504 C  
HETATM   22  O5* UNL     1     -13.000  11.691  62.933  1.00  0.00    -0.845 OA 
HETATM   23  H5* UNL     1     -13.715  11.971  62.374  1.00  0.00     0.000 HD 
ENDBRANCH  16  21
ENDBRANCH   8  14
TORSDOF 2
ENDMDL
MODEL       81
REMARK 921   NORMALIZED FREE ENERGY PREDICTED BY IDOCK:   -5.17 KCAL/MOL
REMARK 922        TOTAL FREE ENERGY PREDICTED BY IDOCK:   -6.12 KCAL/MOL
REMARK 923 INTER-LIGAND FREE ENERGY PREDICTED BY IDOCK:   -5.70 KCAL/MOL
REMARK 924 INTRA-LIGAND FREE ENERGY PREDICTED BY IDOCK:   -0.42 KCAL/MOL
REMARK 927      BINDING AFFINITY PREDICTED BY RF-SCORE:    0.00 PKD
ROOT
HETATM    1  N   UNL     1      -6.573  18.100  69.277  1.00  0.00    -0.253 NA 
HETATM    2  C   UNL     1      -7.747  17.690  68.662  1.00  0.00    -0.281 A  
HETATM    3  H1  UNL     1      -6.328  19.082  69.407  1.00  0.00     0.000 HD 
HETATM    4  H2  UNL     1      -5.799  17.655  68.783  1.00  0.00     0.000 HD 
HETATM    5  C   UNL     1      -8.085  16.336  68.481  1.00  0.00    -0.193 A  
HETATM    6  N   UNL     1      -7.429  15.165  68.794  1.00  0.00    -0.123 NA 
HETATM    7  C   UNL     1      -8.249  14.209  68.410  1.00  0.00    -0.149 A  
HETATM    8  N   UNL     1      -9.387  14.705  67.831  1.00  0.00    -0.195 NA 
HETATM    9  C   UNL     1      -9.301  16.071  67.872  1.00  0.00    -0.208 A  
HETATM   10  N   UNL     1      -8.599  18.635  68.211  1.00  0.00    -0.312 NA 
HETATM   11  N   UNL     1     -10.193  16.967  67.422  1.00  0.00    -0.306 NA 
HETATM   12 CL   UNL     1     -10.786  19.468  67.092  1.00  0.00    -0.600 Cl 
HETATM   13  C   UNL     1      -9.747  18.223  67.639  1.00  0.00    -0.300 A  
ENDROOT
BRANCH   8  14
HETATM   14  C1* UNL     1     -10.513  13.950  67.317  1.00  0.00    -0.271 C  
HETATM   15  C2* UNL     1     -10.135  12.876  66.308  1.00  0.00    -0.281 C  
HETATM   16  C4* UNL     1     -11.690  12.011  67.902  1.00  0.00    -0.323 C  
HETATM   17  C3* UNL     1     -11.297  11.923  66.425  1.00  0.00    -0.339 C  
HETATM   18  O3* UNL     1     -12.372  12.421  65.621  1.00  0.00    -0.639 OA 
HETATM   19  O4* UNL     1     -11.172  13.268  68.404  1.00  0.00    -0.250 OA 
HETATM   20  H3* UNL     1     -13.104  11.820  65.695  1.00  0.00     0.000 HD 
BRANCH  16  21
HETATM   21  C5* UNL     1     -11.102  10.884  68.753  1.00  0.00    -0.256 C  
HETATM   22  O5* UNL     1      -9.994  11.341  69.523  1.00  0.00    -0.422 OA 
HETATM   23  H5* UNL     1      -9.629  10.641  70.051  1.00  0.00     0.000 HD 
ENDBRANCH  16  21
ENDBRANCH   8  14
TORSDOF 2
ENDMDL
MODEL       82
REMARK 921   NORMALIZED FREE ENERGY PREDICTED BY IDOCK:   -5.16 KCAL/MOL
REMARK 922        TOTAL FREE ENERGY PREDICTED BY IDOCK:   -6.10 KCAL/MOL
REMARK 923 INTER-LIGAND FREE ENERGY PREDICTED BY IDOCK:   -6.05 KCAL/MOL
REMARK 924 INTRA-LIGAND FREE ENERGY PREDICTED BY IDOCK:   -0.06 KCAL/MOL
REMARK 927      BINDING AFFINITY PREDICTED BY RF-SCORE:    0.00 PKD
ROOT
HETATM    1  N   UNL     1     -11.041   8.730  68.819  1.00  0.00    -0.421 NA 
HETATM    2  C   UNL     1     -10.767   9.899  68.123  1.00  0.00    -0.233 A  
HETATM    3  H1  UNL     1     -10.833   7.802  68.449  1.00  0.00     0.000 HD 
HETATM    4  H2  UNL     1     -12.031   8.746  69.064  1.00  0.00     0.000 HD 
HETATM    5  C   UNL     1     -11.053  11.179  68.632  1.00  0.00    -0.239 A  
HETATM    6  N   UNL     1     -11.638  11.602  69.806  1.00  0.00    -0.313 NA 
HETATM    7  C   UNL     1     -11.614  12.917  69.737  1.00  0.00    -0.218 A  
HETATM    8  N   UNL     1     -11.074  13.363  68.560  1.00  0.00    -0.257 NA 
HETATM    9  C   UNL     1     -10.705  12.260  67.838  1.00  0.00    -0.215 A  
HETATM   10  N   UNL     1     -10.205   9.800  66.899  1.00  0.00    -0.236 NA 
HETATM   11  N   UNL     1     -10.130  12.221  66.626  1.00  0.00    -0.212 NA 
HETATM   12 CL   UNL     1      -9.208  10.751  64.702  1.00  0.00    -0.234 Cl 
HETATM   13  C   UNL     1      -9.921  10.943  66.246  1.00  0.00    -0.227 A  
ENDROOT
BRANCH   8  14
HETATM   14  C1* UNL     1     -10.867  14.740  68.153  1.00  0.00    -0.254 C  
HETATM   15  C2* UNL     1      -9.471  15.029  67.622  1.00  0.00    -0.195 C  
HETATM   16  C4* UNL     1     -11.124  16.009  66.202  1.00  0.00     0.027 C  
HETATM   17  C3* UNL     1      -9.717  16.241  66.760  1.00  0.00    -0.241 C  
HETATM   18  O3* UNL     1      -9.729  17.399  67.603  1.00  0.00    -0.260 OA 
HETATM   19  O4* UNL     1     -11.781  15.069  67.087  1.00  0.00    -0.327 OA 
HETATM   20  H3* UNL     1      -9.884  18.163  67.060  1.00  0.00     0.000 HD 
BRANCH  16  21
HETATM   21  C5* UNL     1     -11.124  15.414  64.793  1.00  0.00    -0.403 C  
HETATM   22  O5* UNL     1     -11.528  16.378  63.824  1.00  0.00    -1.590 OA 
HETATM   23  H5* UNL     1     -11.529  16.008  62.950  1.00  0.00     0.000 HD 
ENDBRANCH  16  21
ENDBRANCH   8  14
TORSDOF 2
ENDMDL
MODEL       83
REMARK 921   NORMALIZED FREE ENERGY PREDICTED BY IDOCK:   -5.13 KCAL/MOL
REMARK 922        TOTAL FREE ENERGY PREDICTED BY IDOCK:   -6.08 KCAL/MOL
REMARK 923 INTER-LIGAND FREE ENERGY PREDICTED BY IDOCK:   -5.69 KCAL/MOL
REMARK 924 INTRA-LIGAND FREE ENERGY PREDICTED BY IDOCK:   -0.39 KCAL/MOL
REMARK 927      BINDING AFFINITY PREDICTED BY RF-SCORE:    0.00 PKD
ROOT
HETATM    1  N   UNL     1     -10.399  19.739  69.345  1.00  0.00    -0.586 NA 
HETATM    2  C   UNL     1      -9.701  18.884  68.504  1.00  0.00    -0.387 A  
HETATM    3  H1  UNL     1     -10.293  20.753  69.318  1.00  0.00     0.000 HD 
HETATM    4  H2  UNL     1     -10.218  19.439  70.303  1.00  0.00     0.000 HD 
HETATM    5  C   UNL     1      -9.846  17.485  68.542  1.00  0.00    -0.330 A  
HETATM    6  N   UNL     1     -10.602  16.651  69.336  1.00  0.00    -0.329 NA 
HETATM    7  C   UNL     1     -10.347  15.439  68.888  1.00  0.00    -0.233 A  
HETATM    8  N   UNL     1      -9.434  15.448  67.866  1.00  0.00    -0.197 NA 
HETATM    9  C   UNL     1      -9.104  16.755  67.628  1.00  0.00    -0.218 A  
HETATM   10  N   UNL     1      -8.839  19.422  67.615  1.00  0.00    -0.302 NA 
HETATM   11  N   UNL     1      -8.248  17.236  66.711  1.00  0.00    -0.230 NA 
HETATM   12 CL   UNL     1      -7.114  19.325  65.681  1.00  0.00    -0.301 Cl 
HETATM   13  C   UNL     1      -8.188  18.582  66.787  1.00  0.00    -0.257 A  
ENDROOT
BRANCH   8  14
HETATM   14  C1* UNL     1      -8.937  14.307  67.121  1.00  0.00    -0.225 C  
HETATM   15  C2* UNL     1      -8.465  13.152  67.991  1.00  0.00    -0.181 C  
HETATM   16  C4* UNL     1      -9.821  12.345  66.197  1.00  0.00    -0.252 C  
HETATM   17  C3* UNL     1      -8.601  11.984  67.047  1.00  0.00    -0.185 C  
HETATM   18  O3* UNL     1      -7.439  11.941  66.212  1.00  0.00    -0.364 OA 
HETATM   19  O4* UNL     1      -9.992  13.781  66.288  1.00  0.00    -0.289 OA 
HETATM   20  H3* UNL     1      -7.525  11.205  65.617  1.00  0.00     0.000 HD 
BRANCH  16  21
HETATM   21  C5* UNL     1     -11.113  11.683  66.681  1.00  0.00    -0.307 C  
HETATM   22  O5* UNL     1     -12.204  12.600  66.656  1.00  0.00    -0.517 OA 
HETATM   23  H5* UNL     1     -13.006  12.189  66.956  1.00  0.00     0.000 HD 
ENDBRANCH  16  21
ENDBRANCH   8  14
TORSDOF 2
ENDMDL
MODEL       84
REMARK 921   NORMALIZED FREE ENERGY PREDICTED BY IDOCK:   -5.13 KCAL/MOL
REMARK 922        TOTAL FREE ENERGY PREDICTED BY IDOCK:   -6.08 KCAL/MOL
REMARK 923 INTER-LIGAND FREE ENERGY PREDICTED BY IDOCK:   -6.38 KCAL/MOL
REMARK 924 INTRA-LIGAND FREE ENERGY PREDICTED BY IDOCK:    0.31 KCAL/MOL
REMARK 927      BINDING AFFINITY PREDICTED BY RF-SCORE:    0.00 PKD
ROOT
HETATM    1  N   UNL     1      -8.468  16.320  65.928  1.00  0.00    -0.290 NA 
HETATM    2  C   UNL     1      -9.300  16.529  67.018  1.00  0.00    -0.230 A  
HETATM    3  H1  UNL     1      -7.798  17.016  65.600  1.00  0.00     0.000 HD 
HETATM    4  H2  UNL     1      -9.059  16.069  65.136  1.00  0.00     0.000 HD 
HETATM    5  C   UNL     1     -10.225  15.570  67.470  1.00  0.00    -0.254 A  
HETATM    6  N   UNL     1     -10.558  14.313  67.014  1.00  0.00    -0.278 NA 
HETATM    7  C   UNL     1     -11.472  13.881  67.858  1.00  0.00    -0.318 A  
HETATM    8  N   UNL     1     -11.771  14.813  68.817  1.00  0.00    -0.317 NA 
HETATM    9  C   UNL     1     -10.977  15.903  68.586  1.00  0.00    -0.320 A  
HETATM   10  N   UNL     1      -9.222  17.710  67.668  1.00  0.00    -0.243 NA 
HETATM   11  N   UNL     1     -10.928  17.051  69.281  1.00  0.00    -0.128 NA 
HETATM   12 CL   UNL     1      -9.869  19.403  69.522  1.00  0.00    -0.235 Cl 
HETATM   13  C   UNL     1     -10.018  17.888  68.740  1.00  0.00    -0.376 A  
ENDROOT
BRANCH   8  14
HETATM   14  C1* UNL     1     -12.707  14.674  69.916  1.00  0.00    -0.085 C  
HETATM   15  C2* UNL     1     -12.304  13.632  70.950  1.00  0.00    -0.450 C  
HETATM   16  C4* UNL     1     -13.030  15.638  72.026  1.00  0.00    -0.452 C  
HETATM   17  C3* UNL     1     -13.042  14.114  72.173  1.00  0.00    -0.401 C  
HETATM   18  O3* UNL     1     -14.392  13.643  72.100  1.00  0.00    -0.466 OA 
HETATM   19  O4* UNL     1     -12.806  15.927  70.624  1.00  0.00    -0.442 OA 
HETATM   20  H3* UNL     1     -14.857  13.947  72.871  1.00  0.00     0.000 HD 
BRANCH  16  21
HETATM   21  C5* UNL     1     -11.919  16.314  72.832  1.00  0.00    -0.516 C  
HETATM   22  O5* UNL     1     -12.310  16.511  74.188  1.00  0.00    -0.584 OA 
HETATM   23  H5* UNL     1     -11.621  16.931  74.688  1.00  0.00     0.000 HD 
ENDBRANCH  16  21
ENDBRANCH   8  14
TORSDOF 2
ENDMDL
MODEL       85
REMARK 921   NORMALIZED FREE ENERGY PREDICTED BY IDOCK:   -5.11 KCAL/MOL
REMARK 922        TOTAL FREE ENERGY PREDICTED BY IDOCK:   -6.06 KCAL/MOL
REMARK 923 INTER-LIGAND FREE ENERGY PREDICTED BY IDOCK:   -5.63 KCAL/MOL
REMARK 924 INTRA-LIGAND FREE ENERGY PREDICTED BY IDOCK:   -0.43 KCAL/MOL
REMARK 927      BINDING AFFINITY PREDICTED BY RF-SCORE:    0.00 PKD
ROOT
HETATM    1  N   UNL     1     -10.365   5.301  67.483  1.00  0.00    -0.184 NA 
HETATM    2  C   UNL     1     -10.537   6.432  68.269  1.00  0.00    -0.256 A  
HETATM    3  H1  UNL     1     -10.439   4.353  67.850  1.00  0.00     0.000 HD 
HETATM    4  H2  UNL     1      -9.456   5.382  67.027  1.00  0.00     0.000 HD 
HETATM    5  C   UNL     1     -10.435   7.740  67.762  1.00  0.00    -0.211 A  
HETATM    6  N   UNL     1     -10.147   8.230  66.507  1.00  0.00    -0.269 NA 
HETATM    7  C   UNL     1     -10.221   9.539  66.632  1.00  0.00    -0.240 A  
HETATM    8  N   UNL     1     -10.509   9.919  67.917  1.00  0.00    -0.219 NA 
HETATM    9  C   UNL     1     -10.653   8.776  68.656  1.00  0.00    -0.139 A  
HETATM   10  N   UNL     1     -10.807   6.265  69.581  1.00  0.00    -0.301 NA 
HETATM   11  N   UNL     1     -10.942   8.669  69.963  1.00  0.00    -0.234 NA 
HETATM   12 CL   UNL     1     -11.340   7.093  71.980  1.00  0.00    -0.279 Cl 
HETATM   13  C   UNL     1     -10.997   7.370  70.327  1.00  0.00    -0.255 A  
ENDROOT
BRANCH   8  14
HETATM   14  C1* UNL     1     -10.690  11.269  68.415  1.00  0.00    -0.203 C  
HETATM   15  C2* UNL     1      -9.616  12.248  67.964  1.00  0.00    -0.206 C  
HETATM   16  C4* UNL     1     -11.785  13.220  67.724  1.00  0.00    -0.358 C  
HETATM   17  C3* UNL     1     -10.337  13.567  68.080  1.00  0.00    -0.241 C  
HETATM   18  O3* UNL     1     -10.277  13.997  69.444  1.00  0.00    -0.431 OA 
HETATM   19  O4* UNL     1     -11.944  11.795  67.933  1.00  0.00    -0.575 OA 
HETATM   20  H3* UNL     1     -10.732  14.827  69.517  1.00  0.00     0.000 HD 
BRANCH  16  21
HETATM   21  C5* UNL     1     -12.140  13.527  66.267  1.00  0.00    -0.428 C  
HETATM   22  O5* UNL     1     -12.304  12.329  65.512  1.00  0.00    -0.602 OA 
HETATM   23  H5* UNL     1     -12.523  12.519  64.608  1.00  0.00     0.000 HD 
ENDBRANCH  16  21
ENDBRANCH   8  14
TORSDOF 2
ENDMDL
MODEL       86
REMARK 921   NORMALIZED FREE ENERGY PREDICTED BY IDOCK:   -5.11 KCAL/MOL
REMARK 922        TOTAL FREE ENERGY PREDICTED BY IDOCK:   -6.05 KCAL/MOL
REMARK 923 INTER-LIGAND FREE ENERGY PREDICTED BY IDOCK:   -5.98 KCAL/MOL
REMARK 924 INTRA-LIGAND FREE ENERGY PREDICTED BY IDOCK:   -0.07 KCAL/MOL
REMARK 927      BINDING AFFINITY PREDICTED BY RF-SCORE:    0.00 PKD
ROOT
HETATM    1  N   UNL     1     -13.480  10.252  72.502  1.00  0.00    -0.513 NA 
HETATM    2  C   UNL     1     -13.176  11.466  71.903  1.00  0.00    -0.380 A  
HETATM    3  H1  UNL     1     -14.076  10.173  73.326  1.00  0.00     0.000 HD 
HETATM    4  H2  UNL     1     -12.597   9.789  72.717  1.00  0.00     0.000 HD 
HETATM    5  C   UNL     1     -12.355  11.576  70.766  1.00  0.00    -0.375 A  
HETATM    6  N   UNL     1     -11.674  10.640  70.019  1.00  0.00    -0.296 NA 
HETATM    7  C   UNL     1     -11.098  11.332  69.058  1.00  0.00    -0.244 A  
HETATM    8  N   UNL     1     -11.345  12.675  69.169  1.00  0.00    -0.280 NA 
HETATM    9  C   UNL     1     -12.155  12.850  70.260  1.00  0.00    -0.302 A  
HETATM   10  N   UNL     1     -13.688  12.594  72.443  1.00  0.00    -0.432 NA 
HETATM   11  N   UNL     1     -12.652  14.000  70.742  1.00  0.00    -0.349 NA 
HETATM   12 CL   UNL     1     -14.087  15.153  72.565  1.00  0.00    -0.567 Cl 
HETATM   13  C   UNL     1     -13.406  13.762  71.836  1.00  0.00    -0.414 A  
ENDROOT
BRANCH   8  14
HETATM   14  C1* UNL     1     -10.895  13.729  68.280  1.00  0.00    -0.250 C  
HETATM   15  C2* UNL     1     -10.159  14.862  68.980  1.00  0.00    -0.237 C  
HETATM   16  C4* UNL     1      -8.988  14.200  67.005  1.00  0.00    -0.237 C  
HETATM   17  C3* UNL     1      -9.329  15.427  67.856  1.00  0.00    -0.192 C  
HETATM   18  O3* UNL     1     -10.149  16.318  67.092  1.00  0.00    -0.256 OA 
HETATM   19  O4* UNL     1      -9.972  13.183  67.316  1.00  0.00    -0.225 OA 
HETATM   20  H3* UNL     1      -9.626  16.673  66.383  1.00  0.00     0.000 HD 
BRANCH  16  21
HETATM   21  C5* UNL     1      -7.602  13.624  67.303  1.00  0.00    -0.055 C  
HETATM   22  O5* UNL     1      -7.386  12.406  66.595  1.00  0.00    -0.373 OA 
HETATM   23  H5* UNL     1      -6.526  12.049  66.780  1.00  0.00     0.000 HD 
ENDBRANCH  16  21
ENDBRANCH   8  14
TORSDOF 2
ENDMDL
MODEL       87
REMARK 921   NORMALIZED FREE ENERGY PREDICTED BY IDOCK:   -5.11 KCAL/MOL
REMARK 922        TOTAL FREE ENERGY PREDICTED BY IDOCK:   -6.05 KCAL/MOL
REMARK 923 INTER-LIGAND FREE ENERGY PREDICTED BY IDOCK:   -5.57 KCAL/MOL
REMARK 924 INTRA-LIGAND FREE ENERGY PREDICTED BY IDOCK:   -0.48 KCAL/MOL
REMARK 927      BINDING AFFINITY PREDICTED BY RF-SCORE:    0.00 PKD
ROOT
HETATM    1  N   UNL     1     -10.787   7.707  70.493  1.00  0.00    -0.237 NA 
HETATM    2  C   UNL     1     -11.105   9.019  70.174  1.00  0.00    -0.207 A  
HETATM    3  H1  UNL     1     -11.093   7.255  71.354  1.00  0.00     0.000 HD 
HETATM    4  H2  UNL     1      -9.771   7.621  70.448  1.00  0.00     0.000 HD 
HETATM    5  C   UNL     1     -10.682   9.644  68.986  1.00  0.00    -0.211 A  
HETATM    6  N   UNL     1      -9.905   9.209  67.935  1.00  0.00    -0.162 NA 
HETATM    7  C   UNL     1      -9.874  10.226  67.098  1.00  0.00    -0.185 A  
HETATM    8  N   UNL     1     -10.565  11.309  67.575  1.00  0.00    -0.207 NA 
HETATM    9  C   UNL     1     -11.094  10.952  68.786  1.00  0.00    -0.256 A  
HETATM   10  N   UNL     1     -11.851   9.729  71.048  1.00  0.00    -0.328 NA 
HETATM   11  N   UNL     1     -11.848  11.697  69.609  1.00  0.00    -0.330 NA 
HETATM   12 CL   UNL     1     -13.124  11.838  71.860  1.00  0.00    -0.550 Cl 
HETATM   13  C   UNL     1     -12.175  10.993  70.713  1.00  0.00    -0.380 A  
ENDROOT
BRANCH   8  14
HETATM   14  C1* UNL     1     -10.763  12.585  66.916  1.00  0.00    -0.243 C  
HETATM   15  C2* UNL     1     -12.222  12.939  66.669  1.00  0.00    -0.229 C  
HETATM   16  C4* UNL     1     -11.047  14.820  67.555  1.00  0.00    -0.319 C  
HETATM   17  C3* UNL     1     -12.161  14.442  66.576  1.00  0.00    -0.372 C  
HETATM   18  O3* UNL     1     -11.762  14.796  65.248  1.00  0.00    -0.351 OA 
HETATM   19  O4* UNL     1     -10.226  13.641  67.740  1.00  0.00    -0.234 OA 
HETATM   20  H3* UNL     1     -11.723  15.743  65.189  1.00  0.00     0.000 HD 
BRANCH  16  21
HETATM   21  C5* UNL     1     -11.568  15.254  68.927  1.00  0.00    -0.347 C  
HETATM   22  O5* UNL     1     -10.951  14.509  69.973  1.00  0.00    -0.420 OA 
HETATM   23  H5* UNL     1     -11.275  14.777  70.824  1.00  0.00     0.000 HD 
ENDBRANCH  16  21
ENDBRANCH   8  14
TORSDOF 2
ENDMDL
MODEL       88
REMARK 921   NORMALIZED FREE ENERGY PREDICTED BY IDOCK:   -5.09 KCAL/MOL
REMARK 922        TOTAL FREE ENERGY PREDICTED BY IDOCK:   -6.03 KCAL/MOL
REMARK 923 INTER-LIGAND FREE ENERGY PREDICTED BY IDOCK:   -5.79 KCAL/MOL
REMARK 924 INTRA-LIGAND FREE ENERGY PREDICTED BY IDOCK:   -0.25 KCAL/MOL
REMARK 927      BINDING AFFINITY PREDICTED BY RF-SCORE:    0.00 PKD
ROOT
HETATM    1  N   UNL     1      -8.383  17.101  65.963  1.00  0.00    -0.527 NA 
HETATM    2  C   UNL     1      -9.261  16.026  65.981  1.00  0.00    -0.340 A  
HETATM    3  H1  UNL     1      -8.552  17.946  65.417  1.00  0.00     0.000 HD 
HETATM    4  H2  UNL     1      -7.467  16.742  65.695  1.00  0.00     0.000 HD 
HETATM    5  C   UNL     1      -9.028  14.861  66.734  1.00  0.00    -0.268 A  
HETATM    6  N   UNL     1      -7.988  14.473  67.549  1.00  0.00    -0.177 NA 
HETATM    7  C   UNL     1      -8.341  13.289  68.004  1.00  0.00    -0.162 A  
HETATM    8  N   UNL     1      -9.542  12.876  67.492  1.00  0.00    -0.195 NA 
HETATM    9  C   UNL     1     -10.001  13.875  66.676  1.00  0.00    -0.279 A  
HETATM   10  N   UNL     1     -10.384  16.103  65.236  1.00  0.00    -0.565 NA 
HETATM   11  N   UNL     1     -11.143  13.905  65.970  1.00  0.00    -0.288 NA 
HETATM   12 CL   UNL     1     -12.646  15.223  64.322  1.00  0.00    -0.097 Cl 
HETATM   13  C   UNL     1     -11.239  15.064  65.284  1.00  0.00    -0.367 A  
ENDROOT
BRANCH   8  14
HETATM   14  C1* UNL     1     -10.247  11.643  67.787  1.00  0.00    -0.186 C  
HETATM   15  C2* UNL     1      -9.564  10.768  68.827  1.00  0.00    -0.194 C  
HETATM   16  C4* UNL     1     -11.904  10.930  69.281  1.00  0.00    -0.324 C  
HETATM   17  C3* UNL     1     -10.721   9.960  69.355  1.00  0.00    -0.232 C  
HETATM   18  O3* UNL     1     -10.952   8.865  68.461  1.00  0.00    -0.448 OA 
HETATM   19  O4* UNL     1     -11.554  11.951  68.315  1.00  0.00    -0.284 OA 
HETATM   20  H3* UNL     1     -11.682   8.356  68.794  1.00  0.00     0.000 HD 
BRANCH  16  21
HETATM   21  C5* UNL     1     -12.203  11.621  70.613  1.00  0.00    -0.366 C  
HETATM   22  O5* UNL     1     -11.911  13.014  70.549  1.00  0.00    -0.488 OA 
HETATM   23  H5* UNL     1     -12.097  13.443  71.376  1.00  0.00     0.000 HD 
ENDBRANCH  16  21
ENDBRANCH   8  14
TORSDOF 2
ENDMDL
MODEL       89
REMARK 921   NORMALIZED FREE ENERGY PREDICTED BY IDOCK:   -5.09 KCAL/MOL
REMARK 922        TOTAL FREE ENERGY PREDICTED BY IDOCK:   -6.03 KCAL/MOL
REMARK 923 INTER-LIGAND FREE ENERGY PREDICTED BY IDOCK:   -5.90 KCAL/MOL
REMARK 924 INTRA-LIGAND FREE ENERGY PREDICTED BY IDOCK:   -0.13 KCAL/MOL
REMARK 927      BINDING AFFINITY PREDICTED BY RF-SCORE:    0.00 PKD
ROOT
HETATM    1  N   UNL     1      -5.870  16.524  70.038  1.00  0.00    -0.210 NA 
HETATM    2  C   UNL     1      -6.960  16.436  69.185  1.00  0.00    -0.218 A  
HETATM    3  H1  UNL     1      -5.525  17.409  70.410  1.00  0.00     0.000 HD 
HETATM    4  H2  UNL     1      -5.085  16.060  69.579  1.00  0.00     0.000 HD 
HETATM    5  C   UNL     1      -7.435  15.215  68.672  1.00  0.00    -0.124 A  
HETATM    6  N   UNL     1      -7.004  13.915  68.819  1.00  0.00    -0.103 NA 
HETATM    7  C   UNL     1      -7.861  13.197  68.123  1.00  0.00    -0.145 A  
HETATM    8  N   UNL     1      -8.804  13.974  67.504  1.00  0.00    -0.187 NA 
HETATM    9  C   UNL     1      -8.548  15.274  67.849  1.00  0.00    -0.152 A  
HETATM   10  N   UNL     1      -7.588  17.577  68.828  1.00  0.00    -0.267 NA 
HETATM   11  N   UNL     1      -9.222  16.374  67.476  1.00  0.00    -0.198 NA 
HETATM   12 CL   UNL     1      -9.416  18.955  67.607  1.00  0.00    -0.327 Cl 
HETATM   13  C   UNL     1      -8.661  17.475  68.020  1.00  0.00    -0.254 A  
ENDROOT
BRANCH   8  14
HETATM   14  C1* UNL     1      -9.911  13.526  66.681  1.00  0.00    -0.282 C  
HETATM   15  C2* UNL     1     -11.283  13.839  67.259  1.00  0.00    -0.329 C  
HETATM   16  C4* UNL     1     -11.211  14.389  64.935  1.00  0.00    -0.389 C  
HETATM   17  C3* UNL     1     -12.142  13.843  66.020  1.00  0.00    -0.437 C  
HETATM   18  O3* UNL     1     -12.489  12.490  65.707  1.00  0.00    -0.626 OA 
HETATM   19  O4* UNL     1      -9.853  14.183  65.398  1.00  0.00    -0.292 OA 
HETATM   20  H3* UNL     1     -13.030  12.493  64.926  1.00  0.00     0.000 HD 
BRANCH  16  21
HETATM   21  C5* UNL     1     -11.399  15.885  64.674  1.00  0.00    -0.322 C  
HETATM   22  O5* UNL     1     -12.329  16.112  63.618  1.00  0.00    -1.039 OA 
HETATM   23  H5* UNL     1     -12.445  17.040  63.455  1.00  0.00     0.000 HD 
ENDBRANCH  16  21
ENDBRANCH   8  14
TORSDOF 2
ENDMDL
MODEL       90
REMARK 921   NORMALIZED FREE ENERGY PREDICTED BY IDOCK:   -5.08 KCAL/MOL
REMARK 922        TOTAL FREE ENERGY PREDICTED BY IDOCK:   -6.02 KCAL/MOL
REMARK 923 INTER-LIGAND FREE ENERGY PREDICTED BY IDOCK:   -5.64 KCAL/MOL
REMARK 924 INTRA-LIGAND FREE ENERGY PREDICTED BY IDOCK:   -0.37 KCAL/MOL
REMARK 927      BINDING AFFINITY PREDICTED BY RF-SCORE:    0.00 PKD
ROOT
HETATM    1  N   UNL     1     -10.040  13.058  63.906  1.00  0.00    -0.757 NA 
HETATM    2  C   UNL     1     -10.114  12.012  64.815  1.00  0.00    -0.257 A  
HETATM    3  H1  UNL     1      -9.556  12.983  63.011  1.00  0.00     0.000 HD 
HETATM    4  H2  UNL     1      -9.650  13.862  64.397  1.00  0.00     0.000 HD 
HETATM    5  C   UNL     1     -10.781  12.115  66.049  1.00  0.00    -0.273 A  
HETATM    6  N   UNL     1     -11.450  13.154  66.659  1.00  0.00    -0.331 NA 
HETATM    7  C   UNL     1     -11.889  12.649  67.794  1.00  0.00    -0.323 A  
HETATM    8  N   UNL     1     -11.504  11.345  67.962  1.00  0.00    -0.381 NA 
HETATM    9  C   UNL     1     -10.794  10.984  66.849  1.00  0.00    -0.269 A  
HETATM   10  N   UNL     1      -9.511  10.845  64.500  1.00  0.00    -0.230 NA 
HETATM   11  N   UNL     1     -10.230   9.796  66.580  1.00  0.00    -0.232 NA 
HETATM   12 CL   UNL     1      -8.831   8.379  64.922  1.00  0.00    -0.055 Cl 
HETATM   13  C   UNL     1      -9.612   9.831  65.380  1.00  0.00    -0.292 A  
ENDROOT
BRANCH   8  14
HETATM   14  C1* UNL     1     -11.825  10.470  69.074  1.00  0.00    -0.111 C  
HETATM   15  C2* UNL     1     -10.745  10.399  70.142  1.00  0.00    -0.292 C  
HETATM   16  C4* UNL     1     -12.897  10.654  71.148  1.00  0.00    -0.420 C  
HETATM   17  C3* UNL     1     -11.539   9.977  71.352  1.00  0.00    -0.305 C  
HETATM   18  O3* UNL     1     -11.709   8.557  71.308  1.00  0.00    -0.271 OA 
HETATM   19  O4* UNL     1     -13.015  10.948  69.734  1.00  0.00    -0.121 OA 
HETATM   20  H3* UNL     1     -12.209   8.291  72.071  1.00  0.00     0.000 HD 
BRANCH  16  21
HETATM   21  C5* UNL     1     -13.040  11.968  71.918  1.00  0.00    -0.370 C  
HETATM   22  O5* UNL     1     -12.692  13.085  71.104  1.00  0.00    -0.354 OA 
HETATM   23  H5* UNL     1     -12.781  13.900  71.582  1.00  0.00     0.000 HD 
ENDBRANCH  16  21
ENDBRANCH   8  14
TORSDOF 2
ENDMDL
MODEL       91
REMARK 921   NORMALIZED FREE ENERGY PREDICTED BY IDOCK:   -5.06 KCAL/MOL
REMARK 922        TOTAL FREE ENERGY PREDICTED BY IDOCK:   -6.00 KCAL/MOL
REMARK 923 INTER-LIGAND FREE ENERGY PREDICTED BY IDOCK:   -5.88 KCAL/MOL
REMARK 924 INTRA-LIGAND FREE ENERGY PREDICTED BY IDOCK:   -0.12 KCAL/MOL
REMARK 927      BINDING AFFINITY PREDICTED BY RF-SCORE:    0.00 PKD
ROOT
HETATM    1  N   UNL     1     -12.177  12.543  69.004  1.00  0.00    -0.098 NA 
HETATM    2  C   UNL     1     -11.680  13.625  68.292  1.00  0.00    -0.363 A  
HETATM    3  H1  UNL     1     -12.373  11.639  68.574  1.00  0.00     0.000 HD 
HETATM    4  H2  UNL     1     -13.030  12.851  69.471  1.00  0.00     0.000 HD 
HETATM    5  C   UNL     1     -11.409  14.872  68.884  1.00  0.00    -0.283 A  
HETATM    6  N   UNL     1     -11.560  15.342  70.171  1.00  0.00    -0.298 NA 
HETATM    7  C   UNL     1     -11.112  16.580  70.130  1.00  0.00    -0.182 A  
HETATM    8  N   UNL     1     -10.714  16.945  68.871  1.00  0.00    -0.335 NA 
HETATM    9  C   UNL     1     -10.894  15.858  68.058  1.00  0.00    -0.317 A  
HETATM   10  N   UNL     1     -11.453  13.474  66.969  1.00  0.00    -0.324 NA 
HETATM   11  N   UNL     1     -10.632  15.758  66.745  1.00  0.00    -0.310 NA 
HETATM   12 CL   UNL     1     -10.678  14.268  64.626  1.00  0.00    -0.419 Cl 
HETATM   13  C   UNL     1     -10.947  14.524  66.297  1.00  0.00    -0.323 A  
ENDROOT
BRANCH   8  14
HETATM   14  C1* UNL     1     -10.148  18.216  68.461  1.00  0.00    -0.400 C  
HETATM   15  C2* UNL     1      -8.928  18.093  67.561  1.00  0.00    -0.257 C  
HETATM   16  C4* UNL     1     -10.438  19.734  66.702  1.00  0.00    -0.497 C  
HETATM   17  C3* UNL     1      -8.946  19.418  66.840  1.00  0.00    -0.310 C  
HETATM   18  O3* UNL     1      -8.332  20.398  67.683  1.00  0.00    -0.302 OA 
HETATM   19  O4* UNL     1     -11.131  18.959  67.711  1.00  0.00    -0.274 OA 
HETATM   20  H3* UNL     1      -8.343  21.233  67.229  1.00  0.00     0.000 HD 
BRANCH  16  21
HETATM   21  C5* UNL     1     -11.012  19.354  65.336  1.00  0.00     0.176 C  
HETATM   22  O5* UNL     1     -10.844  17.964  65.073  1.00  0.00    -0.767 OA 
HETATM   23  H5* UNL     1     -11.200  17.728  64.225  1.00  0.00     0.000 HD 
ENDBRANCH  16  21
ENDBRANCH   8  14
TORSDOF 2
ENDMDL
MODEL       92
REMARK 921   NORMALIZED FREE ENERGY PREDICTED BY IDOCK:   -5.06 KCAL/MOL
REMARK 922        TOTAL FREE ENERGY PREDICTED BY IDOCK:   -6.00 KCAL/MOL
REMARK 923 INTER-LIGAND FREE ENERGY PREDICTED BY IDOCK:   -5.58 KCAL/MOL
REMARK 924 INTRA-LIGAND FREE ENERGY PREDICTED BY IDOCK:   -0.42 KCAL/MOL
REMARK 927      BINDING AFFINITY PREDICTED BY RF-SCORE:    0.00 PKD
ROOT
HETATM    1  N   UNL     1     -10.968   7.756  67.842  1.00  0.00    -0.484 NA 
HETATM    2  C   UNL     1     -10.629   8.993  67.312  1.00  0.00    -0.231 A  
HETATM    3  H1  UNL     1     -10.782   6.876  67.361  1.00  0.00     0.000 HD 
HETATM    4  H2  UNL     1     -11.964   7.780  68.060  1.00  0.00     0.000 HD 
HETATM    5  C   UNL     1     -10.887  10.207  67.975  1.00  0.00    -0.270 A  
HETATM    6  N   UNL     1     -11.494  10.499  69.176  1.00  0.00    -0.259 NA 
HETATM    7  C   UNL     1     -11.420  11.810  69.280  1.00  0.00    -0.306 A  
HETATM    8  N   UNL     1     -10.827  12.382  68.186  1.00  0.00    -0.212 NA 
HETATM    9  C   UNL     1     -10.474  11.367  67.338  1.00  0.00    -0.205 A  
HETATM   10  N   UNL     1     -10.032   9.030  66.101  1.00  0.00    -0.284 NA 
HETATM   11  N   UNL     1      -9.861  11.462  66.147  1.00  0.00    -0.214 NA 
HETATM   12 CL   UNL     1      -8.930  10.216  64.075  1.00  0.00    -0.236 Cl 
HETATM   13  C   UNL     1      -9.686  10.236  65.610  1.00  0.00    -0.247 A  
ENDROOT
BRANCH   8  14
HETATM   14  C1* UNL     1     -10.557  13.790  67.968  1.00  0.00    -0.252 C  
HETATM   15  C2* UNL     1     -11.774  14.598  67.543  1.00  0.00    -0.403 C  
HETATM   16  C4* UNL     1     -10.557  15.754  69.243  1.00  0.00    -0.244 C  
HETATM   17  C3* UNL     1     -11.383  15.989  67.976  1.00  0.00    -0.266 C  
HETATM   18  O3* UNL     1     -10.546  16.558  66.964  1.00  0.00    -0.310 OA 
HETATM   19  O4* UNL     1     -10.085  14.385  69.194  1.00  0.00    -0.197 OA 
HETATM   20  H3* UNL     1     -10.299  17.434  67.237  1.00  0.00     0.000 HD 
BRANCH  16  21
HETATM   21  C5* UNL     1     -11.362  15.933  70.531  1.00  0.00    -0.390 C  
HETATM   22  O5* UNL     1     -11.126  14.861  71.440  1.00  0.00    -0.566 OA 
HETATM   23  H5* UNL     1     -11.626  14.971  72.240  1.00  0.00     0.000 HD 
ENDBRANCH  16  21
ENDBRANCH   8  14
TORSDOF 2
ENDMDL
MODEL       93
REMARK 921   NORMALIZED FREE ENERGY PREDICTED BY IDOCK:   -5.05 KCAL/MOL
REMARK 922        TOTAL FREE ENERGY PREDICTED BY IDOCK:   -5.99 KCAL/MOL
REMARK 923 INTER-LIGAND FREE ENERGY PREDICTED BY IDOCK:   -6.21 KCAL/MOL
REMARK 924 INTRA-LIGAND FREE ENERGY PREDICTED BY IDOCK:    0.22 KCAL/MOL
REMARK 927      BINDING AFFINITY PREDICTED BY RF-SCORE:    0.00 PKD
ROOT
HETATM    1  N   UNL     1      -7.510  18.236  66.986  1.00  0.00    -0.209 NA 
HETATM    2  C   UNL     1      -7.976  16.932  66.896  1.00  0.00    -0.213 A  
HETATM    3  H1  UNL     1      -6.638  18.483  67.453  1.00  0.00     0.000 HD 
HETATM    4  H2  UNL     1      -8.251  18.796  67.407  1.00  0.00     0.000 HD 
HETATM    5  C   UNL     1      -9.180  16.592  66.251  1.00  0.00    -0.310 A  
HETATM    6  N   UNL     1     -10.144  17.350  65.623  1.00  0.00    -0.586 NA 
HETATM    7  C   UNL     1     -11.027  16.475  65.187  1.00  0.00    -0.191 A  
HETATM    8  N   UNL     1     -10.698  15.192  65.535  1.00  0.00    -0.340 NA 
HETATM    9  C   UNL     1      -9.512  15.247  66.217  1.00  0.00    -0.309 A  
HETATM   10  N   UNL     1      -7.242  15.948  67.459  1.00  0.00    -0.158 NA 
HETATM   11  N   UNL     1      -8.814  14.227  66.741  1.00  0.00    -0.217 NA 
HETATM   12 CL   UNL     1      -6.718  13.484  68.072  1.00  0.00    -0.119 Cl 
HETATM   13  C   UNL     1      -7.694  14.685  67.341  1.00  0.00    -0.201 A  
ENDROOT
BRANCH   8  14
HETATM   14  C1* UNL     1     -11.421  13.978  65.207  1.00  0.00    -0.322 C  
HETATM   15  C2* UNL     1     -12.086  14.001  63.838  1.00  0.00    -0.350 C  
HETATM   16  C4* UNL     1     -10.952  11.926  64.181  1.00  0.00    -0.369 C  
HETATM   17  C3* UNL     1     -12.199  12.530  63.529  1.00  0.00    -0.558 C  
HETATM   18  O3* UNL     1     -13.367  12.020  64.182  1.00  0.00    -0.725 OA 
HETATM   19  O4* UNL     1     -10.507  12.862  65.193  1.00  0.00    -0.294 OA 
HETATM   20  H3* UNL     1     -13.438  11.093  63.988  1.00  0.00     0.000 HD 
BRANCH  16  21
HETATM   21  C5* UNL     1      -9.801  11.710  63.197  1.00  0.00    -0.382 C  
HETATM   22  O5* UNL     1      -8.722  11.009  63.810  1.00  0.00    -0.357 OA 
HETATM   23  H5* UNL     1      -8.007  10.875  63.199  1.00  0.00     0.000 HD 
ENDBRANCH  16  21
ENDBRANCH   8  14
TORSDOF 2
ENDMDL
MODEL       94
REMARK 921   NORMALIZED FREE ENERGY PREDICTED BY IDOCK:   -5.01 KCAL/MOL
REMARK 922        TOTAL FREE ENERGY PREDICTED BY IDOCK:   -5.94 KCAL/MOL
REMARK 923 INTER-LIGAND FREE ENERGY PREDICTED BY IDOCK:   -5.61 KCAL/MOL
REMARK 924 INTRA-LIGAND FREE ENERGY PREDICTED BY IDOCK:   -0.33 KCAL/MOL
REMARK 927      BINDING AFFINITY PREDICTED BY RF-SCORE:    0.00 PKD
ROOT
HETATM    1  N   UNL     1      -9.157   9.086  64.734  1.00  0.00    -0.438 NA 
HETATM    2  C   UNL     1      -9.817   9.514  65.877  1.00  0.00    -0.290 A  
HETATM    3  H1  UNL     1      -9.085   9.653  63.889  1.00  0.00     0.000 HD 
HETATM    4  H2  UNL     1      -9.561   8.189  64.466  1.00  0.00     0.000 HD 
HETATM    5  C   UNL     1      -9.916   8.732  67.042  1.00  0.00    -0.240 A  
HETATM    6  N   UNL     1      -9.472   7.465  67.352  1.00  0.00    -0.137 NA 
HETATM    7  C   UNL     1      -9.837   7.278  68.603  1.00  0.00    -0.161 A  
HETATM    8  N   UNL     1     -10.528   8.349  69.106  1.00  0.00    -0.220 NA 
HETATM    9  C   UNL     1     -10.585   9.295  68.118  1.00  0.00    -0.198 A  
HETATM   10  N   UNL     1     -10.395  10.735  65.864  1.00  0.00    -0.254 NA 
HETATM   11  N   UNL     1     -11.162  10.507  68.168  1.00  0.00    -0.298 NA 
HETATM   12 CL   UNL     1     -11.719  12.703  66.912  1.00  0.00    -0.439 Cl 
HETATM   13  C   UNL     1     -11.010  11.147  66.989  1.00  0.00    -0.289 A  
ENDROOT
BRANCH   8  14
HETATM   14  C1* UNL     1     -11.058   8.503  70.447  1.00  0.00    -0.231 C  
HETATM   15  C2* UNL     1     -11.544   7.206  71.077  1.00  0.00    -0.345 C  
HETATM   16  C4* UNL     1     -10.229   8.450  72.636  1.00  0.00    -0.249 C  
HETATM   17  C3* UNL     1     -11.446   7.525  72.547  1.00  0.00    -0.327 C  
HETATM   18  O3* UNL     1     -12.619   8.250  72.931  1.00  0.00    -0.634 OA 
HETATM   19  O4* UNL     1     -10.026   9.013  71.317  1.00  0.00    -0.260 OA 
HETATM   20  H3* UNL     1     -12.557   8.452  73.857  1.00  0.00     0.000 HD 
BRANCH  16  21
HETATM   21  C5* UNL     1      -8.945   7.723  73.043  1.00  0.00    -0.199 C  
HETATM   22  O5* UNL     1      -7.914   8.647  73.380  1.00  0.00    -0.405 OA 
HETATM   23  H5* UNL     1      -7.117   8.196  73.632  1.00  0.00     0.000 HD 
ENDBRANCH  16  21
ENDBRANCH   8  14
TORSDOF 2
ENDMDL
MODEL       95
REMARK 921   NORMALIZED FREE ENERGY PREDICTED BY IDOCK:   -4.99 KCAL/MOL
REMARK 922        TOTAL FREE ENERGY PREDICTED BY IDOCK:   -5.92 KCAL/MOL
REMARK 923 INTER-LIGAND FREE ENERGY PREDICTED BY IDOCK:   -5.83 KCAL/MOL
REMARK 924 INTRA-LIGAND FREE ENERGY PREDICTED BY IDOCK:   -0.09 KCAL/MOL
REMARK 927      BINDING AFFINITY PREDICTED BY RF-SCORE:    0.00 PKD
ROOT
HETATM    1  N   UNL     1     -13.074   9.987  72.251  1.00  0.00    -0.509 NA 
HETATM    2  C   UNL     1     -12.453  10.463  71.106  1.00  0.00    -0.404 A  
HETATM    3  H1  UNL     1     -13.118   8.996  72.489  1.00  0.00     0.000 HD 
HETATM    4  H2  UNL     1     -14.030  10.343  72.250  1.00  0.00     0.000 HD 
HETATM    5  C   UNL     1     -12.392  11.830  70.778  1.00  0.00    -0.337 A  
HETATM    6  N   UNL     1     -12.888  12.956  71.397  1.00  0.00    -0.341 NA 
HETATM    7  C   UNL     1     -12.493  13.957  70.638  1.00  0.00    -0.366 A  
HETATM    8  N   UNL     1     -11.797  13.529  69.539  1.00  0.00    -0.316 NA 
HETATM    9  C   UNL     1     -11.719  12.164  69.614  1.00  0.00    -0.325 A  
HETATM   10  N   UNL     1     -11.887   9.570  70.266  1.00  0.00    -0.130 NA 
HETATM   11  N   UNL     1     -11.123  11.324  68.753  1.00  0.00    -0.212 NA 
HETATM   12 CL   UNL     1     -10.564   8.867  68.149  1.00  0.00    -0.244 Cl 
HETATM   13  C   UNL     1     -11.264  10.048  69.171  1.00  0.00    -0.149 A  
ENDROOT
BRANCH   8  14
HETATM   14  C1* UNL     1     -11.195  14.349  68.505  1.00  0.00    -0.265 C  
HETATM   15  C2* UNL     1      -9.751  13.988  68.187  1.00  0.00    -0.220 C  
HETATM   16  C4* UNL     1     -10.998  14.297  66.172  1.00  0.00    -0.313 C  
HETATM   17  C3* UNL     1      -9.609  14.511  66.780  1.00  0.00    -0.263 C  
HETATM   18  O3* UNL     1      -9.333  15.914  66.845  1.00  0.00    -0.211 OA 
HETATM   19  O4* UNL     1     -11.931  14.190  67.275  1.00  0.00    -0.397 OA 
HETATM   20  H3* UNL     1      -9.244  16.244  65.959  1.00  0.00     0.000 HD 
BRANCH  16  21
HETATM   21  C5* UNL     1     -11.103  13.020  65.337  1.00  0.00    -0.275 C  
HETATM   22  O5* UNL     1      -9.992  12.886  64.455  1.00  0.00    -0.554 OA 
HETATM   23  H5* UNL     1     -10.057  12.093  63.937  1.00  0.00     0.000 HD 
ENDBRANCH  16  21
ENDBRANCH   8  14
TORSDOF 2
ENDMDL
MODEL       96
REMARK 921   NORMALIZED FREE ENERGY PREDICTED BY IDOCK:   -4.96 KCAL/MOL
REMARK 922        TOTAL FREE ENERGY PREDICTED BY IDOCK:   -5.89 KCAL/MOL
REMARK 923 INTER-LIGAND FREE ENERGY PREDICTED BY IDOCK:   -5.48 KCAL/MOL
REMARK 924 INTRA-LIGAND FREE ENERGY PREDICTED BY IDOCK:   -0.40 KCAL/MOL
REMARK 927      BINDING AFFINITY PREDICTED BY RF-SCORE:    0.00 PKD
ROOT
HETATM    1  N   UNL     1     -13.117  15.100  70.622  1.00  0.00    -0.610 NA 
HETATM    2  C   UNL     1     -12.265  14.870  69.551  1.00  0.00    -0.233 A  
HETATM    3  H1  UNL     1     -13.412  16.034  70.906  1.00  0.00     0.000 HD 
HETATM    4  H2  UNL     1     -12.707  14.648  71.440  1.00  0.00     0.000 HD 
HETATM    5  C   UNL     1     -11.856  13.582  69.160  1.00  0.00    -0.340 A  
HETATM    6  N   UNL     1     -12.121  12.329  69.669  1.00  0.00    -0.253 NA 
HETATM    7  C   UNL     1     -11.483  11.500  68.868  1.00  0.00    -0.289 A  
HETATM    8  N   UNL     1     -10.790  12.160  67.887  1.00  0.00    -0.209 NA 
HETATM    9  C   UNL     1     -11.021  13.499  68.057  1.00  0.00    -0.251 A  
HETATM   10  N   UNL     1     -11.803  15.934  68.859  1.00  0.00    -0.377 NA 
HETATM   11  N   UNL     1     -10.547  14.517  67.322  1.00  0.00    -0.277 NA 
HETATM   12 CL   UNL     1     -10.450  17.082  66.969  1.00  0.00    -0.306 Cl 
HETATM   13  C   UNL     1     -10.998  15.694  67.806  1.00  0.00    -0.316 A  
ENDROOT
BRANCH   8  14
HETATM   14  C1* UNL     1     -10.000  11.573  66.822  1.00  0.00    -0.208 C  
HETATM   15  C2* UNL     1      -8.594  11.168  67.240  1.00  0.00    -0.140 C  
HETATM   16  C4* UNL     1      -9.614   9.433  65.952  1.00  0.00    -0.270 C  
HETATM   17  C3* UNL     1      -8.266  10.108  66.220  1.00  0.00    -0.127 C  
HETATM   18  O3* UNL     1      -7.816  10.755  65.024  1.00  0.00    -0.336 OA 
HETATM   19  O4* UNL     1     -10.644  10.370  66.353  1.00  0.00    -0.206 OA 
HETATM   20  H3* UNL     1      -7.610  10.087  64.382  1.00  0.00     0.000 HD 
BRANCH  16  21
HETATM   21  C5* UNL     1      -9.812   8.142  66.748  1.00  0.00    -0.259 C  
HETATM   22  O5* UNL     1     -11.144   8.041  67.245  1.00  0.00    -0.478 OA 
HETATM   23  H5* UNL     1     -11.267   7.240  67.739  1.00  0.00     0.000 HD 
ENDBRANCH  16  21
ENDBRANCH   8  14
TORSDOF 2
ENDMDL
MODEL       97
REMARK 921   NORMALIZED FREE ENERGY PREDICTED BY IDOCK:   -4.95 KCAL/MOL
REMARK 922        TOTAL FREE ENERGY PREDICTED BY IDOCK:   -5.87 KCAL/MOL
REMARK 923 INTER-LIGAND FREE ENERGY PREDICTED BY IDOCK:   -5.43 KCAL/MOL
REMARK 924 INTRA-LIGAND FREE ENERGY PREDICTED BY IDOCK:   -0.44 KCAL/MOL
REMARK 927      BINDING AFFINITY PREDICTED BY RF-SCORE:    0.00 PKD
ROOT
HETATM    1  N   UNL     1      -9.403   8.937  65.229  1.00  0.00    -0.450 NA 
HETATM    2  C   UNL     1      -9.958   9.087  66.491  1.00  0.00    -0.285 A  
HETATM    3  H1  UNL     1      -9.399   9.682  64.532  1.00  0.00     0.000 HD 
HETATM    4  H2  UNL     1      -9.837   8.120  64.800  1.00  0.00     0.000 HD 
HETATM    5  C   UNL     1      -9.964   8.060  67.453  1.00  0.00    -0.207 A  
HETATM    6  N   UNL     1      -9.506   6.761  67.427  1.00  0.00    -0.131 NA 
HETATM    7  C   UNL     1      -9.763   6.291  68.630  1.00  0.00    -0.127 A  
HETATM    8  N   UNL     1     -10.399   7.212  69.420  1.00  0.00    -0.193 NA 
HETATM    9  C   UNL     1     -10.533   8.357  68.681  1.00  0.00    -0.166 A  
HETATM   10  N   UNL     1     -10.525  10.272  66.806  1.00  0.00    -0.231 NA 
HETATM   11  N   UNL     1     -11.092   9.519  69.055  1.00  0.00    -0.096 NA 
HETATM   12 CL   UNL     1     -11.737  11.937  68.382  1.00  0.00    -0.376 Cl 
HETATM   13  C   UNL     1     -11.037  10.412  68.044  1.00  0.00    -0.298 A  
ENDROOT
BRANCH   8  14
HETATM   14  C1* UNL     1     -10.810   7.051  70.801  1.00  0.00    -0.246 C  
HETATM   15  C2* UNL     1     -10.008   7.883  71.791  1.00  0.00    -0.228 C  
HETATM   16  C4* UNL     1     -12.344   8.051  72.262  1.00  0.00    -0.291 C  
HETATM   17  C3* UNL     1     -10.974   8.003  72.942  1.00  0.00    -0.330 C  
HETATM   18  O3* UNL     1     -10.882   6.815  73.735  1.00  0.00    -0.503 OA 
HETATM   19  O4* UNL     1     -12.184   7.468  70.945  1.00  0.00    -0.279 OA 
HETATM   20  H3* UNL     1     -11.491   6.891  74.461  1.00  0.00     0.000 HD 
BRANCH  16  21
HETATM   21  C5* UNL     1     -12.883   9.473  72.087  1.00  0.00    -0.389 C  
HETATM   22  O5* UNL     1     -13.498   9.639  70.812  1.00  0.00    -0.606 OA 
HETATM   23  H5* UNL     1     -13.832  10.521  70.704  1.00  0.00     0.000 HD 
ENDBRANCH  16  21
ENDBRANCH   8  14
TORSDOF 2
ENDMDL
MODEL       98
REMARK 921   NORMALIZED FREE ENERGY PREDICTED BY IDOCK:   -4.92 KCAL/MOL
REMARK 922        TOTAL FREE ENERGY PREDICTED BY IDOCK:   -5.84 KCAL/MOL
REMARK 923 INTER-LIGAND FREE ENERGY PREDICTED BY IDOCK:   -5.42 KCAL/MOL
REMARK 924 INTRA-LIGAND FREE ENERGY PREDICTED BY IDOCK:   -0.41 KCAL/MOL
REMARK 927      BINDING AFFINITY PREDICTED BY RF-SCORE:    0.00 PKD
ROOT
HETATM    1  N   UNL     1      -9.120  12.497  68.816  1.00  0.00    -0.392 NA 
HETATM    2  C   UNL     1      -8.692  13.752  68.406  1.00  0.00    -0.162 A  
HETATM    3  H1  UNL     1      -8.479  11.728  69.009  1.00  0.00     0.000 HD 
HETATM    4  H2  UNL     1      -9.795  12.166  68.127  1.00  0.00     0.000 HD 
HETATM    5  C   UNL     1      -9.575  14.813  68.139  1.00  0.00    -0.209 A  
HETATM    6  N   UNL     1     -10.949  14.909  68.172  1.00  0.00    -0.263 NA 
HETATM    7  C   UNL     1     -11.206  16.160  67.850  1.00  0.00    -0.245 A  
HETATM    8  N   UNL     1     -10.066  16.868  67.576  1.00  0.00    -0.274 NA 
HETATM    9  C   UNL     1      -9.007  16.019  67.760  1.00  0.00    -0.188 A  
HETATM   10  N   UNL     1      -7.366  13.958  68.252  1.00  0.00    -0.104 NA 
HETATM   11  N   UNL     1      -7.700  16.286  67.609  1.00  0.00    -0.137 NA 
HETATM   12 CL   UNL     1      -5.272  15.387  67.705  1.00  0.00    -0.123 Cl 
HETATM   13  C   UNL     1      -6.963  15.188  67.879  1.00  0.00    -0.151 A  
ENDROOT
BRANCH   8  14
HETATM   14  C1* UNL     1      -9.966  18.269  67.215  1.00  0.00    -0.335 C  
HETATM   15  C2* UNL     1      -9.297  19.138  68.269  1.00  0.00    -0.397 C  
HETATM   16  C4* UNL     1      -8.436  19.647  66.099  1.00  0.00    -0.334 C  
HETATM   17  C3* UNL     1      -8.796  20.293  67.439  1.00  0.00    -0.344 C  
HETATM   18  O3* UNL     1      -9.877  21.212  67.245  1.00  0.00    -0.557 OA 
HETATM   19  O4* UNL     1      -9.170  18.401  66.018  1.00  0.00    -0.505 OA 
HETATM   20  H3* UNL     1      -9.562  21.939  66.723  1.00  0.00     0.000 HD 
BRANCH  16  21
HETATM   21  C5* UNL     1      -6.946  19.329  65.963  1.00  0.00    -0.261 C  
HETATM   22  O5* UNL     1      -6.740  18.115  65.245  1.00  0.00    -0.443 OA 
HETATM   23  H5* UNL     1      -5.816  17.917  65.161  1.00  0.00     0.000 HD 
ENDBRANCH  16  21
ENDBRANCH   8  14
TORSDOF 2
ENDMDL
MODEL       99
REMARK 921   NORMALIZED FREE ENERGY PREDICTED BY IDOCK:   -4.92 KCAL/MOL
REMARK 922        TOTAL FREE ENERGY PREDICTED BY IDOCK:   -5.84 KCAL/MOL
REMARK 923 INTER-LIGAND FREE ENERGY PREDICTED BY IDOCK:   -5.47 KCAL/MOL
REMARK 924 INTRA-LIGAND FREE ENERGY PREDICTED BY IDOCK:   -0.37 KCAL/MOL
REMARK 927      BINDING AFFINITY PREDICTED BY RF-SCORE:    0.00 PKD
ROOT
HETATM    1  N   UNL     1      -9.633  16.367  65.766  1.00  0.00    -0.500 NA 
HETATM    2  C   UNL     1     -10.132  15.077  65.660  1.00  0.00    -0.362 A  
HETATM    3  H1  UNL     1      -9.822  17.094  65.076  1.00  0.00     0.000 HD 
HETATM    4  H2  UNL     1      -8.620  16.295  65.863  1.00  0.00     0.000 HD 
HETATM    5  C   UNL     1      -9.872  14.074  66.611  1.00  0.00    -0.284 A  
HETATM    6  N   UNL     1      -9.121  14.062  67.767  1.00  0.00    -0.184 NA 
HETATM    7  C   UNL     1      -9.274  12.848  68.253  1.00  0.00    -0.187 A  
HETATM    8  N   UNL     1     -10.058  12.063  67.449  1.00  0.00    -0.193 NA 
HETATM    9  C   UNL     1     -10.454  12.836  66.390  1.00  0.00    -0.250 A  
HETATM   10  N   UNL     1     -10.898  14.772  64.590  1.00  0.00    -0.350 NA 
HETATM   11  N   UNL     1     -11.237  12.482  65.358  1.00  0.00    -0.297 NA 
HETATM   12 CL   UNL     1     -12.362  13.200  63.137  1.00  0.00    -0.426 Cl 
HETATM   13  C   UNL     1     -11.397  13.523  64.514  1.00  0.00    -0.365 A  
ENDROOT
BRANCH   8  14
HETATM   14  C1* UNL     1     -10.457  10.689  67.681  1.00  0.00    -0.227 C  
HETATM   15  C2* UNL     1      -9.683   9.668  66.859  1.00  0.00    -0.240 C  
HETATM   16  C4* UNL     1      -9.859   8.950  69.131  1.00  0.00    -0.180 C  
HETATM   17  C3* UNL     1      -9.839   8.423  67.694  1.00  0.00    -0.173 C  
HETATM   18  O3* UNL     1     -11.107   7.832  67.390  1.00  0.00    -0.525 OA 
HETATM   19  O4* UNL     1     -10.230  10.349  69.064  1.00  0.00    -0.193 OA 
HETATM   20  H3* UNL     1     -11.205   7.047  67.916  1.00  0.00     0.000 HD 
BRANCH  16  21
HETATM   21  C5* UNL     1      -8.501   8.853  69.830  1.00  0.00    -0.131 C  
HETATM   22  O5* UNL     1      -8.261   9.992  70.652  1.00  0.00    -0.400 OA 
HETATM   23  H5* UNL     1      -7.419   9.932  71.086  1.00  0.00     0.000 HD 
ENDBRANCH  16  21
ENDBRANCH   8  14
TORSDOF 2
ENDMDL
MODEL      100
REMARK 921   NORMALIZED FREE ENERGY PREDICTED BY IDOCK:   -4.91 KCAL/MOL
REMARK 922        TOTAL FREE ENERGY PREDICTED BY IDOCK:   -5.83 KCAL/MOL
REMARK 923 INTER-LIGAND FREE ENERGY PREDICTED BY IDOCK:   -5.67 KCAL/MOL
REMARK 924 INTRA-LIGAND FREE ENERGY PREDICTED BY IDOCK:   -0.16 KCAL/MOL
REMARK 927      BINDING AFFINITY PREDICTED BY RF-SCORE:    0.00 PKD
ROOT
HETATM    1  N   UNL     1     -13.373   9.015  73.119  1.00  0.00    -0.861 NA 
HETATM    2  C   UNL     1     -12.538   8.818  72.028  1.00  0.00    -0.385 A  
HETATM    3  H1  UNL     1     -13.682   8.256  73.726  1.00  0.00     0.000 HD 
HETATM    4  H2  UNL     1     -14.208   9.494  72.781  1.00  0.00     0.000 HD 
HETATM    5  C   UNL     1     -12.113   9.864  71.189  1.00  0.00    -0.374 A  
HETATM    6  N   UNL     1     -12.381  11.216  71.182  1.00  0.00    -0.364 NA 
HETATM    7  C   UNL     1     -11.677  11.692  70.175  1.00  0.00    -0.296 A  
HETATM    8  N   UNL     1     -10.996  10.707  69.510  1.00  0.00    -0.254 NA 
HETATM    9  C   UNL     1     -11.261   9.526  70.150  1.00  0.00    -0.234 A  
HETATM   10  N   UNL     1     -12.122   7.562  71.758  1.00  0.00    -0.296 NA 
HETATM   11  N   UNL     1     -10.802   8.302  69.846  1.00  0.00    -0.240 NA 
HETATM   12 CL   UNL     1     -10.798   5.776  70.424  1.00  0.00    -0.370 Cl 
HETATM   13  C   UNL     1     -11.292   7.389  70.712  1.00  0.00    -0.280 A  
ENDROOT
BRANCH   8  14
HETATM   14  C1* UNL     1     -10.108  10.865  68.374  1.00  0.00    -0.183 C  
HETATM   15  C2* UNL     1      -9.760  12.311  68.052  1.00  0.00    -0.205 C  
HETATM   16  C4* UNL     1      -7.797  10.949  68.003  1.00  0.00    -0.107 C  
HETATM   17  C3* UNL     1      -8.451  12.154  67.321  1.00  0.00    -0.178 C  
HETATM   18  O3* UNL     1      -8.732  11.828  65.956  1.00  0.00    -0.359 OA 
HETATM   19  O4* UNL     1      -8.857  10.200  68.646  1.00  0.00    -0.125 OA 
HETATM   20  H3* UNL     1      -7.907  11.730  65.495  1.00  0.00     0.000 HD 
BRANCH  16  21
HETATM   21  C5* UNL     1      -6.776  11.341  69.074  1.00  0.00    -0.089 C  
HETATM   22  O5* UNL     1      -7.141  10.821  70.349  1.00  0.00    -0.473 OA 
HETATM   23  H5* UNL     1      -6.508  11.064  71.014  1.00  0.00     0.000 HD 
ENDBRANCH  16  21
ENDBRANCH   8  14
TORSDOF 2
ENDMDL
MODEL      101
REMARK 921   NORMALIZED FREE ENERGY PREDICTED BY IDOCK:   -4.91 KCAL/MOL
REMARK 922        TOTAL FREE ENERGY PREDICTED BY IDOCK:   -5.82 KCAL/MOL
REMARK 923 INTER-LIGAND FREE ENERGY PREDICTED BY IDOCK:   -6.07 KCAL/MOL
REMARK 924 INTRA-LIGAND FREE ENERGY PREDICTED BY IDOCK:    0.24 KCAL/MOL
REMARK 927      BINDING AFFINITY PREDICTED BY RF-SCORE:    0.00 PKD
ROOT
HETATM    1  N   UNL     1      -8.840  11.425  62.483  1.00  0.00    -0.525 NA 
HETATM    2  C   UNL     1      -9.647  11.685  63.582  1.00  0.00    -0.218 A  
HETATM    3  H1  UNL     1      -8.766  12.058  61.687  1.00  0.00     0.000 HD 
HETATM    4  H2  UNL     1      -9.105  10.509  62.120  1.00  0.00     0.000 HD 
HETATM    5  C   UNL     1      -9.750  10.811  64.680  1.00  0.00    -0.289 A  
HETATM    6  N   UNL     1      -9.180   9.586  64.949  1.00  0.00    -0.238 NA 
HETATM    7  C   UNL     1      -9.627   9.263  66.145  1.00  0.00    -0.260 A  
HETATM    8  N   UNL     1     -10.488  10.205  66.646  1.00  0.00    -0.212 NA 
HETATM    9  C   UNL     1     -10.576  11.209  65.719  1.00  0.00    -0.227 A  
HETATM   10  N   UNL     1     -10.369  12.826  63.592  1.00  0.00    -0.352 NA 
HETATM   11  N   UNL     1     -11.300  12.336  65.791  1.00  0.00    -0.341 NA 
HETATM   12 CL   UNL     1     -12.015  14.540  64.630  1.00  0.00    -0.456 Cl 
HETATM   13  C   UNL     1     -11.127  13.077  64.676  1.00  0.00    -0.332 A  
ENDROOT
BRANCH   8  14
HETATM   14  C1* UNL     1     -11.149  10.193  67.937  1.00  0.00    -0.238 C  
HETATM   15  C2* UNL     1     -10.218  10.431  69.116  1.00  0.00    -0.239 C  
HETATM   16  C4* UNL     1     -12.200  11.746  69.340  1.00  0.00    -0.157 C  
HETATM   17  C3* UNL     1     -11.172  10.960  70.157  1.00  0.00    -0.237 C  
HETATM   18  O3* UNL     1     -11.818   9.847  70.783  1.00  0.00    -0.288 OA 
HETATM   19  O4* UNL     1     -12.134  11.246  67.981  1.00  0.00    -0.638 OA 
HETATM   20  H3* UNL     1     -12.419  10.180  71.439  1.00  0.00     0.000 HD 
BRANCH  16  21
HETATM   21  C5* UNL     1     -11.921  13.250  69.304  1.00  0.00    -0.303 C  
HETATM   22  O5* UNL     1     -11.561  13.740  70.593  1.00  0.00    -0.515 OA 
HETATM   23  H5* UNL     1     -11.388  14.673  70.571  1.00  0.00     0.000 HD 
ENDBRANCH  16  21
ENDBRANCH   8  14
TORSDOF 2
ENDMDL
MODEL      102
REMARK 921   NORMALIZED FREE ENERGY PREDICTED BY IDOCK:   -4.88 KCAL/MOL
REMARK 922        TOTAL FREE ENERGY PREDICTED BY IDOCK:   -5.79 KCAL/MOL
REMARK 923 INTER-LIGAND FREE ENERGY PREDICTED BY IDOCK:   -5.44 KCAL/MOL
REMARK 924 INTRA-LIGAND FREE ENERGY PREDICTED BY IDOCK:   -0.35 KCAL/MOL
REMARK 927      BINDING AFFINITY PREDICTED BY RF-SCORE:    0.00 PKD
ROOT
HETATM    1  N   UNL     1     -11.554  15.578  68.433  1.00  0.00    -0.367 NA 
HETATM    2  C   UNL     1     -11.887  14.525  69.273  1.00  0.00    -0.323 A  
HETATM    3  H1  UNL     1     -11.854  16.539  68.600  1.00  0.00     0.000 HD 
HETATM    4  H2  UNL     1     -11.854  15.325  67.492  1.00  0.00     0.000 HD 
HETATM    5  C   UNL     1     -11.474  13.201  69.042  1.00  0.00    -0.296 A  
HETATM    6  N   UNL     1     -10.735  12.620  68.034  1.00  0.00    -0.219 NA 
HETATM    7  C   UNL     1     -10.649  11.350  68.370  1.00  0.00    -0.202 A  
HETATM    8  N   UNL     1     -11.328  11.075  69.528  1.00  0.00    -0.262 NA 
HETATM    9  C   UNL     1     -11.861  12.253  69.976  1.00  0.00    -0.296 A  
HETATM   10  N   UNL     1     -12.649  14.787  70.357  1.00  0.00    -0.352 NA 
HETATM   11  N   UNL     1     -12.600  12.458  71.078  1.00  0.00    -0.325 NA 
HETATM   12 CL   UNL     1     -13.908  14.156  72.535  1.00  0.00    -0.606 Cl 
HETATM   13  C   UNL     1     -12.943  13.760  71.177  1.00  0.00    -0.298 A  
ENDROOT
BRANCH   8  14
HETATM   14  C1* UNL     1     -11.429   9.796  70.205  1.00  0.00    -0.255 C  
HETATM   15  C2* UNL     1     -10.907   8.619  69.395  1.00  0.00    -0.108 C  
HETATM   16  C4* UNL     1     -10.104   8.507  71.643  1.00  0.00    -0.268 C  
HETATM   17  C3* UNL     1     -10.571   7.627  70.480  1.00  0.00    -0.226 C  
HETATM   18  O3* UNL     1     -11.772   6.945  70.856  1.00  0.00    -0.322 OA 
HETATM   19  O4* UNL     1     -10.647   9.831  71.417  1.00  0.00    -0.233 OA 
HETATM   20  H3* UNL     1     -11.560   6.320  71.539  1.00  0.00     0.000 HD 
BRANCH  16  21
HETATM   21  C5* UNL     1      -8.582   8.629  71.736  1.00  0.00    -0.173 C  
HETATM   22  O5* UNL     1      -8.117   9.806  71.080  1.00  0.00    -0.314 OA 
HETATM   23  H5* UNL     1      -7.172   9.881  71.137  1.00  0.00     0.000 HD 
ENDBRANCH  16  21
ENDBRANCH   8  14
TORSDOF 2
ENDMDL
MODEL      103
REMARK 921   NORMALIZED FREE ENERGY PREDICTED BY IDOCK:   -4.87 KCAL/MOL
REMARK 922        TOTAL FREE ENERGY PREDICTED BY IDOCK:   -5.78 KCAL/MOL
REMARK 923 INTER-LIGAND FREE ENERGY PREDICTED BY IDOCK:   -5.45 KCAL/MOL
REMARK 924 INTRA-LIGAND FREE ENERGY PREDICTED BY IDOCK:   -0.33 KCAL/MOL
REMARK 927      BINDING AFFINITY PREDICTED BY RF-SCORE:    0.00 PKD
ROOT
HETATM    1  N   UNL     1     -14.091  13.708  72.656  1.00  0.00    -0.732 NA 
HETATM    2  C   UNL     1     -13.251  13.481  71.575  1.00  0.00    -0.322 A  
HETATM    3  H1  UNL     1     -14.468  14.628  72.882  1.00  0.00     0.000 HD 
HETATM    4  H2  UNL     1     -13.616  13.359  73.489  1.00  0.00     0.000 HD 
HETATM    5  C   UNL     1     -12.731  12.212  71.262  1.00  0.00    -0.261 A  
HETATM    6  N   UNL     1     -12.857  10.981  71.869  1.00  0.00    -0.381 NA 
HETATM    7  C   UNL     1     -12.165  10.159  71.107  1.00  0.00    -0.389 A  
HETATM    8  N   UNL     1     -11.568  10.806  70.058  1.00  0.00    -0.305 NA 
HETATM    9  C   UNL     1     -11.923  12.126  70.139  1.00  0.00    -0.314 A  
HETATM   10  N   UNL     1     -12.915  14.529  70.792  1.00  0.00    -0.359 NA 
HETATM   11  N   UNL     1     -11.572  13.127  69.317  1.00  0.00    -0.298 NA 
HETATM   12 CL   UNL     1     -11.735  15.656  68.777  1.00  0.00    -0.385 Cl 
HETATM   13  C   UNL     1     -12.121  14.289  69.731  1.00  0.00    -0.347 A  
ENDROOT
BRANCH   8  14
HETATM   14  C1* UNL     1     -10.755  10.219  69.010  1.00  0.00    -0.227 C  
HETATM   15  C2* UNL     1      -9.295  10.647  69.040  1.00  0.00    -0.191 C  
HETATM   16  C4* UNL     1      -9.466   8.286  68.718  1.00  0.00    -0.148 C  
HETATM   17  C3* UNL     1      -8.627   9.503  68.321  1.00  0.00    -0.120 C  
HETATM   18  O3* UNL     1      -8.750   9.722  66.912  1.00  0.00    -0.133 OA 
HETATM   19  O4* UNL     1     -10.758   8.783  69.147  1.00  0.00    -0.213 OA 
HETATM   20  H3* UNL     1      -8.329   9.001  66.459  1.00  0.00     0.000 HD 
BRANCH  16  21
HETATM   21  C5* UNL     1      -8.861   7.484  69.873  1.00  0.00    -0.141 C  
HETATM   22  O5* UNL     1      -9.790   7.339  70.943  1.00  0.00    -0.184 OA 
HETATM   23  H5* UNL     1      -9.414   6.842  71.660  1.00  0.00     0.000 HD 
ENDBRANCH  16  21
ENDBRANCH   8  14
TORSDOF 2
ENDMDL
MODEL      104
REMARK 921   NORMALIZED FREE ENERGY PREDICTED BY IDOCK:   -4.81 KCAL/MOL
REMARK 922        TOTAL FREE ENERGY PREDICTED BY IDOCK:   -5.72 KCAL/MOL
REMARK 923 INTER-LIGAND FREE ENERGY PREDICTED BY IDOCK:   -5.31 KCAL/MOL
REMARK 924 INTRA-LIGAND FREE ENERGY PREDICTED BY IDOCK:   -0.41 KCAL/MOL
REMARK 927      BINDING AFFINITY PREDICTED BY RF-SCORE:    0.00 PKD
ROOT
HETATM    1  N   UNL     1     -10.771  17.946  67.795  1.00  0.00    -0.382 NA 
HETATM    2  C   UNL     1     -10.838  16.587  68.066  1.00  0.00    -0.337 A  
HETATM    3  H1  UNL     1     -11.030  18.661  68.475  1.00  0.00     0.000 HD 
HETATM    4  H2  UNL     1     -11.317  18.116  66.951  1.00  0.00     0.000 HD 
HETATM    5  C   UNL     1     -10.482  15.600  67.128  1.00  0.00    -0.303 A  
HETATM    6  N   UNL     1     -10.043  15.674  65.824  1.00  0.00    -0.338 NA 
HETATM    7  C   UNL     1      -9.843  14.422  65.466  1.00  0.00    -0.266 A  
HETATM    8  N   UNL     1     -10.167  13.542  66.464  1.00  0.00    -0.277 NA 
HETATM    9  C   UNL     1     -10.576  14.281  67.542  1.00  0.00    -0.261 A  
HETATM   10  N   UNL     1     -11.272  16.196  69.283  1.00  0.00    -0.332 NA 
HETATM   11  N   UNL     1     -10.981  13.836  68.741  1.00  0.00    -0.257 NA 
HETATM   12 CL   UNL     1     -11.862  14.443  71.101  1.00  0.00    -0.360 Cl 
HETATM   13  C   UNL     1     -11.308  14.874  69.541  1.00  0.00    -0.281 A  
ENDROOT
BRANCH   8  14
HETATM   14  C1* UNL     1     -10.052  12.096  66.433  1.00  0.00    -0.220 C  
HETATM   15  C2* UNL     1      -9.952  11.509  65.033  1.00  0.00    -0.305 C  
HETATM   16  C4* UNL     1      -8.329  10.511  66.475  1.00  0.00    -0.141 C  
HETATM   17  C3* UNL     1      -9.260  10.197  65.302  1.00  0.00    -0.209 C  
HETATM   18  O3* UNL     1     -10.245   9.246  65.722  1.00  0.00    -0.344 OA 
HETATM   19  O4* UNL     1      -8.853  11.694  67.127  1.00  0.00    -0.161 OA 
HETATM   20  H3* UNL     1      -9.809   8.419  65.891  1.00  0.00     0.000 HD 
BRANCH  16  21
HETATM   21  C5* UNL     1      -6.891  10.805  66.044  1.00  0.00    -0.107 C  
HETATM   22  O5* UNL     1      -6.502  12.126  66.411  1.00  0.00    -0.426 OA 
HETATM   23  H5* UNL     1      -5.609  12.309  66.143  1.00  0.00     0.000 HD 
ENDBRANCH  16  21
ENDBRANCH   8  14
TORSDOF 2
ENDMDL
MODEL      105
REMARK 921   NORMALIZED FREE ENERGY PREDICTED BY IDOCK:   -4.81 KCAL/MOL
REMARK 922        TOTAL FREE ENERGY PREDICTED BY IDOCK:   -5.71 KCAL/MOL
REMARK 923 INTER-LIGAND FREE ENERGY PREDICTED BY IDOCK:   -5.97 KCAL/MOL
REMARK 924 INTRA-LIGAND FREE ENERGY PREDICTED BY IDOCK:    0.25 KCAL/MOL
REMARK 927      BINDING AFFINITY PREDICTED BY RF-SCORE:    0.00 PKD
ROOT
HETATM    1  N   UNL     1     -12.719  10.873  71.211  1.00  0.00    -0.412 NA 
HETATM    2  C   UNL     1     -12.517  12.159  70.731  1.00  0.00    -0.271 A  
HETATM    3  H1  UNL     1     -13.181  10.677  72.099  1.00  0.00     0.000 HD 
HETATM    4  H2  UNL     1     -11.811  10.409  71.231  1.00  0.00     0.000 HD 
HETATM    5  C   UNL     1     -11.879  12.428  69.507  1.00  0.00    -0.303 A  
HETATM    6  N   UNL     1     -11.313  11.610  68.554  1.00  0.00    -0.248 NA 
HETATM    7  C   UNL     1     -10.894  12.430  67.612  1.00  0.00    -0.225 A  
HETATM    8  N   UNL     1     -11.130  13.742  67.928  1.00  0.00    -0.257 NA 
HETATM    9  C   UNL     1     -11.765  13.760  69.141  1.00  0.00    -0.334 A  
HETATM   10  N   UNL     1     -12.948  13.197  71.479  1.00  0.00    -0.359 NA 
HETATM   11  N   UNL     1     -12.190  14.829  69.833  1.00  0.00    -0.316 NA 
HETATM   12 CL   UNL     1     -13.339  15.711  71.982  1.00  0.00    -0.541 Cl 
HETATM   13  C   UNL     1     -12.768  14.439  70.989  1.00  0.00    -0.346 A  
ENDROOT
BRANCH   8  14
HETATM   14  C1* UNL     1     -10.827  14.909  67.122  1.00  0.00    -0.311 C  
HETATM   15  C2* UNL     1     -10.607  16.182  67.926  1.00  0.00    -0.309 C  
HETATM   16  C4* UNL     1      -8.914  15.947  66.257  1.00  0.00    -0.346 C  
HETATM   17  C3* UNL     1      -9.760  16.996  66.982  1.00  0.00    -0.263 C  
HETATM   18  O3* UNL     1     -10.624  17.639  66.039  1.00  0.00    -0.338 OA 
HETATM   19  O4* UNL     1      -9.607  14.681  66.386  1.00  0.00    -0.271 OA 
HETATM   20  H3* UNL     1     -10.090  18.153  65.445  1.00  0.00     0.000 HD 
BRANCH  16  21
HETATM   21  C5* UNL     1      -7.514  15.782  66.852  1.00  0.00    -0.169 C  
HETATM   22  O5* UNL     1      -7.183  14.406  67.021  1.00  0.00    -0.348 OA 
HETATM   23  H5* UNL     1      -6.314  14.304  67.390  1.00  0.00     0.000 HD 
ENDBRANCH  16  21
ENDBRANCH   8  14
TORSDOF 2
ENDMDL
MODEL      106
REMARK 921   NORMALIZED FREE ENERGY PREDICTED BY IDOCK:   -4.78 KCAL/MOL
REMARK 922        TOTAL FREE ENERGY PREDICTED BY IDOCK:   -5.68 KCAL/MOL
REMARK 923 INTER-LIGAND FREE ENERGY PREDICTED BY IDOCK:   -5.28 KCAL/MOL
REMARK 924 INTRA-LIGAND FREE ENERGY PREDICTED BY IDOCK:   -0.39 KCAL/MOL
REMARK 927      BINDING AFFINITY PREDICTED BY RF-SCORE:    0.00 PKD
ROOT
HETATM    1  N   UNL     1     -10.028   9.643  65.462  1.00  0.00    -0.362 NA 
HETATM    2  C   UNL     1     -10.256  10.523  66.510  1.00  0.00    -0.231 A  
HETATM    3  H1  UNL     1     -10.003   8.631  65.582  1.00  0.00     0.000 HD 
HETATM    4  H2  UNL     1      -9.153   9.920  65.017  1.00  0.00     0.000 HD 
HETATM    5  C   UNL     1     -10.290  11.920  66.345  1.00  0.00    -0.219 A  
HETATM    6  N   UNL     1     -10.107  12.730  65.245  1.00  0.00    -0.274 NA 
HETATM    7  C   UNL     1     -10.286  13.954  65.697  1.00  0.00    -0.325 A  
HETATM    8  N   UNL     1     -10.541  13.976  67.043  1.00  0.00    -0.278 NA 
HETATM    9  C   UNL     1     -10.551  12.677  67.475  1.00  0.00    -0.221 A  
HETATM   10  N   UNL     1     -10.446  10.013  67.746  1.00  0.00    -0.216 NA 
HETATM   11  N   UNL     1     -10.766  12.225  68.721  1.00  0.00    -0.229 NA 
HETATM   12 CL   UNL     1     -10.928  10.169  70.289  1.00  0.00    -0.355 Cl 
HETATM   13  C   UNL     1     -10.692  10.877  68.749  1.00  0.00    -0.207 A  
ENDROOT
BRANCH   8  14
HETATM   14  C1* UNL     1     -10.811  15.138  67.868  1.00  0.00    -0.291 C  
HETATM   15  C2* UNL     1      -9.583  15.708  68.562  1.00  0.00    -0.199 C  
HETATM   16  C4* UNL     1     -10.880  17.462  67.588  1.00  0.00    -0.233 C  
HETATM   17  C3* UNL     1     -10.001  17.137  68.798  1.00  0.00    -0.315 C  
HETATM   18  O3* UNL     1     -10.799  17.183  69.986  1.00  0.00    -0.328 OA 
HETATM   19  O4* UNL     1     -11.339  16.200  67.045  1.00  0.00    -0.006 OA 
HETATM   20  H3* UNL     1     -11.063  18.083  70.135  1.00  0.00     0.000 HD 
BRANCH  16  21
HETATM   21  C5* UNL     1     -10.132  18.209  66.481  1.00  0.00    -0.386 C  
HETATM   22  O5* UNL     1     -10.579  17.802  65.190  1.00  0.00    -0.610 OA 
HETATM   23  H5* UNL     1     -10.114  18.265  64.504  1.00  0.00     0.000 HD 
ENDBRANCH  16  21
ENDBRANCH   8  14
TORSDOF 2
ENDMDL
MODEL      107
REMARK 921   NORMALIZED FREE ENERGY PREDICTED BY IDOCK:   -4.77 KCAL/MOL
REMARK 922        TOTAL FREE ENERGY PREDICTED BY IDOCK:   -5.67 KCAL/MOL
REMARK 923 INTER-LIGAND FREE ENERGY PREDICTED BY IDOCK:   -5.42 KCAL/MOL
REMARK 924 INTRA-LIGAND FREE ENERGY PREDICTED BY IDOCK:   -0.25 KCAL/MOL
REMARK 927      BINDING AFFINITY PREDICTED BY RF-SCORE:    0.00 PKD
ROOT
HETATM    1  N   UNL     1      -7.774  18.158  65.605  1.00  0.00    -0.514 NA 
HETATM    2  C   UNL     1      -7.998  17.111  66.488  1.00  0.00    -0.289 A  
HETATM    3  H1  UNL     1      -7.077  18.884  65.770  1.00  0.00     0.000 HD 
HETATM    4  H2  UNL     1      -8.668  18.623  65.451  1.00  0.00     0.000 HD 
HETATM    5  C   UNL     1      -8.959  16.110  66.261  1.00  0.00    -0.344 A  
HETATM    6  N   UNL     1      -9.866  15.906  65.244  1.00  0.00    -0.400 NA 
HETATM    7  C   UNL     1     -10.481  14.786  65.563  1.00  0.00    -0.359 A  
HETATM    8  N   UNL     1     -10.041  14.276  66.755  1.00  0.00    -0.259 NA 
HETATM    9  C   UNL     1      -9.059  15.111  67.217  1.00  0.00    -0.198 A  
HETATM   10  N   UNL     1      -7.262  17.058  67.620  1.00  0.00    -0.149 NA 
HETATM   11  N   UNL     1      -8.344  14.998  68.347  1.00  0.00    -0.147 NA 
HETATM   12 CL   UNL     1      -6.506  16.010  69.868  1.00  0.00    -0.158 Cl 
HETATM   13  C   UNL     1      -7.472  16.023  68.455  1.00  0.00    -0.143 A  
ENDROOT
BRANCH   8  14
HETATM   14  C1* UNL     1     -10.473  13.051  67.401  1.00  0.00    -0.234 C  
HETATM   15  C2* UNL     1     -11.585  12.318  66.666  1.00  0.00    -0.438 C  
HETATM   16  C4* UNL     1      -9.885  10.785  67.351  1.00  0.00    -0.177 C  
HETATM   17  C3* UNL     1     -11.399  10.906  67.161  1.00  0.00    -0.088 C  
HETATM   18  O3* UNL     1     -12.045  10.786  68.433  1.00  0.00    -0.805 OA 
HETATM   19  O4* UNL     1      -9.365  12.131  67.479  1.00  0.00    -0.173 OA 
HETATM   20  H3* UNL     1     -11.928   9.896  68.745  1.00  0.00     0.000 HD 
BRANCH  16  21
HETATM   21  C5* UNL     1      -9.180  10.115  66.170  1.00  0.00    -0.159 C  
HETATM   22  O5* UNL     1     -10.120   9.553  65.258  1.00  0.00    -0.387 OA 
HETATM   23  H5* UNL     1      -9.682   9.137  64.525  1.00  0.00     0.000 HD 
ENDBRANCH  16  21
ENDBRANCH   8  14
TORSDOF 2
ENDMDL
MODEL      108
REMARK 921   NORMALIZED FREE ENERGY PREDICTED BY IDOCK:   -4.76 KCAL/MOL
REMARK 922        TOTAL FREE ENERGY PREDICTED BY IDOCK:   -5.66 KCAL/MOL
REMARK 923 INTER-LIGAND FREE ENERGY PREDICTED BY IDOCK:   -5.92 KCAL/MOL
REMARK 924 INTRA-LIGAND FREE ENERGY PREDICTED BY IDOCK:    0.26 KCAL/MOL
REMARK 927      BINDING AFFINITY PREDICTED BY RF-SCORE:    0.00 PKD
ROOT
HETATM    1  N   UNL     1     -13.686  15.182  72.414  1.00  0.00    -0.452 NA 
HETATM    2  C   UNL     1     -12.803  14.998  71.359  1.00  0.00    -0.359 A  
HETATM    3  H1  UNL     1     -13.945  16.104  72.766  1.00  0.00     0.000 HD 
HETATM    4  H2  UNL     1     -13.334  14.642  73.204  1.00  0.00     0.000 HD 
HETATM    5  C   UNL     1     -12.445  13.727  70.873  1.00  0.00    -0.377 A  
HETATM    6  N   UNL     1     -12.793  12.452  71.262  1.00  0.00    -0.313 NA 
HETATM    7  C   UNL     1     -12.166  11.660  70.417  1.00  0.00    -0.347 A  
HETATM    8  N   UNL     1     -11.400  12.362  69.523  1.00  0.00    -0.220 NA 
HETATM    9  C   UNL     1     -11.570  13.692  69.799  1.00  0.00    -0.254 A  
HETATM   10  N   UNL     1     -12.260  16.090  70.779  1.00  0.00    -0.315 NA 
HETATM   11  N   UNL     1     -11.015  14.742  69.172  1.00  0.00    -0.257 NA 
HETATM   12 CL   UNL     1     -10.774  17.319  69.045  1.00  0.00    -0.243 Cl 
HETATM   13  C   UNL     1     -11.425  15.896  69.740  1.00  0.00    -0.342 A  
ENDROOT
BRANCH   8  14
HETATM   14  C1* UNL     1     -10.598  11.825  68.441  1.00  0.00    -0.216 C  
HETATM   15  C2* UNL     1     -11.409  11.265  67.282  1.00  0.00    -0.329 C  
HETATM   16  C4* UNL     1      -9.622  12.626  66.468  1.00  0.00    -0.248 C  
HETATM   17  C3* UNL     1     -10.425  11.363  66.144  1.00  0.00    -0.255 C  
HETATM   18  O3* UNL     1      -9.557  10.225  66.198  1.00  0.00    -0.178 OA 
HETATM   19  O4* UNL     1      -9.774  12.872  67.887  1.00  0.00    -0.204 OA 
HETATM   20  H3* UNL     1      -8.937  10.287  65.481  1.00  0.00     0.000 HD 
BRANCH  16  21
HETATM   21  C5* UNL     1     -10.114  13.864  65.717  1.00  0.00    -0.320 C  
HETATM   22  O5* UNL     1      -9.841  13.765  64.322  1.00  0.00    -0.692 OA 
HETATM   23  H5* UNL     1     -10.147  14.534  63.856  1.00  0.00     0.000 HD 
ENDBRANCH  16  21
ENDBRANCH   8  14
TORSDOF 2
ENDMDL
MODEL      109
REMARK 921   NORMALIZED FREE ENERGY PREDICTED BY IDOCK:   -4.75 KCAL/MOL
REMARK 922        TOTAL FREE ENERGY PREDICTED BY IDOCK:   -5.65 KCAL/MOL
REMARK 923 INTER-LIGAND FREE ENERGY PREDICTED BY IDOCK:   -5.38 KCAL/MOL
REMARK 924 INTRA-LIGAND FREE ENERGY PREDICTED BY IDOCK:   -0.27 KCAL/MOL
REMARK 927      BINDING AFFINITY PREDICTED BY RF-SCORE:    0.00 PKD
ROOT
HETATM    1  N   UNL     1     -12.106  15.045  63.863  1.00  0.00    -0.942 NA 
HETATM    2  C   UNL     1     -11.192  15.350  64.862  1.00  0.00    -0.403 A  
HETATM    3  H1  UNL     1     -12.494  15.747  63.233  1.00  0.00     0.000 HD 
HETATM    4  H2  UNL     1     -12.889  14.563  64.304  1.00  0.00     0.000 HD 
HETATM    5  C   UNL     1     -10.656  14.382  65.731  1.00  0.00    -0.318 A  
HETATM    6  N   UNL     1     -10.867  13.026  65.856  1.00  0.00    -0.270 NA 
HETATM    7  C   UNL     1     -10.063  12.649  66.829  1.00  0.00    -0.237 A  
HETATM    8  N   UNL     1      -9.370  13.703  67.363  1.00  0.00    -0.218 NA 
HETATM    9  C   UNL     1      -9.735  14.824  66.668  1.00  0.00    -0.267 A  
HETATM   10  N   UNL     1     -10.806  16.636  65.008  1.00  0.00    -0.654 NA 
HETATM   11  N   UNL     1      -9.302  16.083  66.845  1.00  0.00    -0.219 NA 
HETATM   12 CL   UNL     1      -9.449  18.559  66.096  1.00  0.00    -0.241 Cl 
HETATM   13  C   UNL     1      -9.900  16.913  65.964  1.00  0.00    -0.258 A  
ENDROOT
BRANCH   8  14
HETATM   14  C1* UNL     1      -8.384  13.659  68.426  1.00  0.00    -0.147 C  
HETATM   15  C2* UNL     1      -6.947  13.555  67.939  1.00  0.00    -0.144 C  
HETATM   16  C4* UNL     1      -7.126  15.197  69.665  1.00  0.00    -0.193 C  
HETATM   17  C3* UNL     1      -6.186  14.125  69.109  1.00  0.00    -0.101 C  
HETATM   18  O3* UNL     1      -6.019  13.092  70.085  1.00  0.00    -0.143 OA 
HETATM   19  O4* UNL     1      -8.461  14.871  69.204  1.00  0.00    -0.185 OA 
HETATM   20  H3* UNL     1      -5.539  13.451  70.823  1.00  0.00     0.000 HD 
BRANCH  16  21
HETATM   21  C5* UNL     1      -6.789  16.609  69.179  1.00  0.00    -0.224 C  
HETATM   22  O5* UNL     1      -7.969  17.384  68.985  1.00  0.00    -0.221 OA 
HETATM   23  H5* UNL     1      -7.760  18.259  68.683  1.00  0.00     0.000 HD 
ENDBRANCH  16  21
ENDBRANCH   8  14
TORSDOF 2
ENDMDL
MODEL      110
REMARK 921   NORMALIZED FREE ENERGY PREDICTED BY IDOCK:   -4.74 KCAL/MOL
REMARK 922        TOTAL FREE ENERGY PREDICTED BY IDOCK:   -5.64 KCAL/MOL
REMARK 923 INTER-LIGAND FREE ENERGY PREDICTED BY IDOCK:   -5.71 KCAL/MOL
REMARK 924 INTRA-LIGAND FREE ENERGY PREDICTED BY IDOCK:    0.07 KCAL/MOL
REMARK 927      BINDING AFFINITY PREDICTED BY RF-SCORE:    0.00 PKD
ROOT
HETATM    1  N   UNL     1     -10.575  17.789  68.186  1.00  0.00    -0.371 NA 
HETATM    2  C   UNL     1     -10.922  16.507  68.588  1.00  0.00    -0.344 A  
HETATM    3  H1  UNL     1     -10.651  18.602  68.796  1.00  0.00     0.000 HD 
HETATM    4  H2  UNL     1     -11.101  17.995  67.336  1.00  0.00     0.000 HD 
HETATM    5  C   UNL     1     -10.818  15.385  67.745  1.00  0.00    -0.302 A  
HETATM    6  N   UNL     1     -10.420  15.241  66.434  1.00  0.00    -0.294 NA 
HETATM    7  C   UNL     1     -10.506  13.949  66.197  1.00  0.00    -0.297 A  
HETATM    8  N   UNL     1     -10.976  13.255  67.280  1.00  0.00    -0.264 NA 
HETATM    9  C   UNL     1     -11.178  14.161  68.286  1.00  0.00    -0.272 A  
HETATM   10  N   UNL     1     -11.387  16.333  69.844  1.00  0.00    -0.308 NA 
HETATM   11  N   UNL     1     -11.627  13.927  69.530  1.00  0.00    -0.285 NA 
HETATM   12 CL   UNL     1     -12.274  14.924  71.832  1.00  0.00    -0.396 Cl 
HETATM   13  C   UNL     1     -11.695  15.079  70.229  1.00  0.00    -0.294 A  
ENDROOT
BRANCH   8  14
HETATM   14  C1* UNL     1     -11.174  11.822  67.388  1.00  0.00    -0.297 C  
HETATM   15  C2* UNL     1      -9.945  11.056  67.853  1.00  0.00    -0.192 C  
HETATM   16  C4* UNL     1     -11.886  10.308  69.027  1.00  0.00     0.075 C  
HETATM   17  C3* UNL     1     -10.563   9.812  68.438  1.00  0.00    -0.226 C  
HETATM   18  O3* UNL     1     -10.834   8.898  67.371  1.00  0.00    -0.435 OA 
HETATM   19  O4* UNL     1     -12.208  11.552  68.358  1.00  0.00    -0.540 OA 
HETATM   20  H3* UNL     1     -11.224   8.114  67.740  1.00  0.00     0.000 HD 
BRANCH  16  21
HETATM   21  C5* UNL     1     -11.814  10.584  70.530  1.00  0.00    -0.347 C  
HETATM   22  O5* UNL     1     -10.774   9.829  71.145  1.00  0.00    -0.324 OA 
HETATM   23  H5* UNL     1     -10.729   9.999  72.077  1.00  0.00     0.000 HD 
ENDBRANCH  16  21
ENDBRANCH   8  14
TORSDOF 2
ENDMDL
MODEL      111
REMARK 921   NORMALIZED FREE ENERGY PREDICTED BY IDOCK:   -4.73 KCAL/MOL
REMARK 922        TOTAL FREE ENERGY PREDICTED BY IDOCK:   -5.62 KCAL/MOL
REMARK 923 INTER-LIGAND FREE ENERGY PREDICTED BY IDOCK:   -5.60 KCAL/MOL
REMARK 924 INTRA-LIGAND FREE ENERGY PREDICTED BY IDOCK:   -0.03 KCAL/MOL
REMARK 927      BINDING AFFINITY PREDICTED BY RF-SCORE:    0.00 PKD
ROOT
HETATM    1  N   UNL     1     -12.877  14.789  64.135  1.00  0.00    -0.591 NA 
HETATM    2  C   UNL     1     -12.258  13.944  65.045  1.00  0.00    -0.425 A  
HETATM    3  H1  UNL     1     -13.430  15.599  64.417  1.00  0.00     0.000 HD 
HETATM    4  H2  UNL     1     -13.467  14.212  63.535  1.00  0.00     0.000 HD 
HETATM    5  C   UNL     1     -11.497  12.826  64.657  1.00  0.00    -0.324 A  
HETATM    6  N   UNL     1     -11.198  12.289  63.424  1.00  0.00    -0.440 NA 
HETATM    7  C   UNL     1     -10.422  11.257  63.687  1.00  0.00    -0.405 A  
HETATM    8  N   UNL     1     -10.235  11.081  65.033  1.00  0.00    -0.280 NA 
HETATM    9  C   UNL     1     -10.916  12.083  65.672  1.00  0.00    -0.297 A  
HETATM   10  N   UNL     1     -12.401  14.205  66.362  1.00  0.00    -0.454 NA 
HETATM   11  N   UNL     1     -11.008  12.305  66.992  1.00  0.00    -0.256 NA 
HETATM   12 CL   UNL     1     -11.988  13.777  68.887  1.00  0.00    -0.388 Cl 
HETATM   13  C   UNL     1     -11.773  13.391  67.233  1.00  0.00    -0.380 A  
ENDROOT
BRANCH   8  14
HETATM   14  C1* UNL     1      -9.427  10.068  65.683  1.00  0.00    -0.220 C  
HETATM   15  C2* UNL     1      -8.701   9.139  64.722  1.00  0.00    -0.208 C  
HETATM   16  C4* UNL     1      -7.224   9.865  66.453  1.00  0.00    -0.100 C  
HETATM   17  C3* UNL     1      -7.552   8.658  65.571  1.00  0.00    -0.087 C  
HETATM   18  O3* UNL     1      -8.016   7.583  66.394  1.00  0.00    -0.101 OA 
HETATM   19  O4* UNL     1      -8.404  10.706  66.477  1.00  0.00    -0.133 OA 
HETATM   20  H3* UNL     1      -7.292   7.281  66.929  1.00  0.00     0.000 HD 
BRANCH  16  21
HETATM   21  C5* UNL     1      -6.057  10.702  65.925  1.00  0.00    -0.138 C  
HETATM   22  O5* UNL     1      -6.061  10.753  64.501  1.00  0.00    -0.369 OA 
HETATM   23  H5* UNL     1      -5.336  11.272  64.173  1.00  0.00     0.000 HD 
ENDBRANCH  16  21
ENDBRANCH   8  14
TORSDOF 2
ENDMDL
MODEL      112
REMARK 921   NORMALIZED FREE ENERGY PREDICTED BY IDOCK:   -4.72 KCAL/MOL
REMARK 922        TOTAL FREE ENERGY PREDICTED BY IDOCK:   -5.61 KCAL/MOL
REMARK 923 INTER-LIGAND FREE ENERGY PREDICTED BY IDOCK:   -5.30 KCAL/MOL
REMARK 924 INTRA-LIGAND FREE ENERGY PREDICTED BY IDOCK:   -0.32 KCAL/MOL
REMARK 927      BINDING AFFINITY PREDICTED BY RF-SCORE:    0.00 PKD
ROOT
HETATM    1  N   UNL     1     -10.329  13.479  64.105  1.00  0.00    -0.708 NA 
HETATM    2  C   UNL     1     -10.698  13.665  65.430  1.00  0.00    -0.308 A  
HETATM    3  H1  UNL     1     -10.173  14.252  63.458  1.00  0.00     0.000 HD 
HETATM    4  H2  UNL     1     -11.019  12.860  63.680  1.00  0.00     0.000 HD 
HETATM    5  C   UNL     1     -10.914  12.599  66.322  1.00  0.00    -0.283 A  
HETATM    6  N   UNL     1     -10.857  11.231  66.166  1.00  0.00    -0.253 NA 
HETATM    7  C   UNL     1     -11.128  10.746  67.360  1.00  0.00    -0.296 A  
HETATM    8  N   UNL     1     -11.394  11.734  68.271  1.00  0.00    -0.257 NA 
HETATM    9  C   UNL     1     -11.257  12.932  67.623  1.00  0.00    -0.278 A  
HETATM   10  N   UNL     1     -10.865  14.928  65.877  1.00  0.00    -0.324 NA 
HETATM   11  N   UNL     1     -11.417  14.166  68.127  1.00  0.00    -0.292 NA 
HETATM   12 CL   UNL     1     -11.391  16.718  67.679  1.00  0.00     0.033 Cl 
HETATM   13  C   UNL     1     -11.198  15.095  67.172  1.00  0.00    -0.320 A  
ENDROOT
BRANCH   8  14
HETATM   14  C1* UNL     1     -11.706  11.572  69.678  1.00  0.00    -0.351 C  
HETATM   15  C2* UNL     1     -13.067  10.948  69.946  1.00  0.00     0.333 C  
HETATM   16  C4* UNL     1     -11.400   9.937  71.326  1.00  0.00    -0.333 C  
HETATM   17  C3* UNL     1     -12.869  10.364  71.322  1.00  0.00    -0.433 C  
HETATM   18  O3* UNL     1     -13.061  11.404  72.287  1.00  0.00    -0.510 OA 
HETATM   19  O4* UNL     1     -10.734  10.698  70.289  1.00  0.00    -0.204 OA 
HETATM   20  H3* UNL     1     -12.937  11.036  73.153  1.00  0.00     0.000 HD 
BRANCH  16  21
HETATM   21  C5* UNL     1     -11.201   8.450  71.023  1.00  0.00    -0.266 C  
HETATM   22  O5* UNL     1     -11.157   7.680  72.222  1.00  0.00    -0.249 OA 
HETATM   23  H5* UNL     1     -11.033   6.758  72.034  1.00  0.00     0.000 HD 
ENDBRANCH  16  21
ENDBRANCH   8  14
TORSDOF 2
ENDMDL
MODEL      113
REMARK 921   NORMALIZED FREE ENERGY PREDICTED BY IDOCK:   -4.71 KCAL/MOL
REMARK 922        TOTAL FREE ENERGY PREDICTED BY IDOCK:   -5.60 KCAL/MOL
REMARK 923 INTER-LIGAND FREE ENERGY PREDICTED BY IDOCK:   -5.52 KCAL/MOL
REMARK 924 INTRA-LIGAND FREE ENERGY PREDICTED BY IDOCK:   -0.08 KCAL/MOL
REMARK 927      BINDING AFFINITY PREDICTED BY RF-SCORE:    0.00 PKD
ROOT
HETATM    1  N   UNL     1     -12.301  14.519  69.246  1.00  0.00    -0.561 NA 
HETATM    2  C   UNL     1     -11.872  13.206  69.380  1.00  0.00    -0.326 A  
HETATM    3  H1  UNL     1     -11.979  15.135  68.500  1.00  0.00     0.000 HD 
HETATM    4  H2  UNL     1     -12.119  14.991  70.132  1.00  0.00     0.000 HD 
HETATM    5  C   UNL     1     -12.316  12.356  70.409  1.00  0.00    -0.227 A  
HETATM    6  N   UNL     1     -13.174  12.550  71.469  1.00  0.00    -0.295 NA 
HETATM    7  C   UNL     1     -13.223  11.384  72.079  1.00  0.00    -0.327 A  
HETATM    8  N   UNL     1     -12.410  10.455  71.485  1.00  0.00    -0.381 NA 
HETATM    9  C   UNL     1     -11.821  11.061  70.408  1.00  0.00    -0.367 A  
HETATM   10  N   UNL     1     -10.982  12.728  68.483  1.00  0.00    -0.247 NA 
HETATM   11  N   UNL     1     -10.953  10.528  69.534  1.00  0.00    -0.246 NA 
HETATM   12 CL   UNL     1      -9.470  10.897  67.441  1.00  0.00    -0.166 Cl 
HETATM   13  C   UNL     1     -10.594  11.445  68.610  1.00  0.00    -0.199 A  
ENDROOT
BRANCH   8  14
HETATM   14  C1* UNL     1     -12.232   9.068  71.869  1.00  0.00    -0.381 C  
HETATM   15  C2* UNL     1     -12.979   8.077  70.989  1.00  0.00     0.006 C  
HETATM   16  C4* UNL     1     -10.743   7.329  71.375  1.00  0.00    -0.227 C  
HETATM   17  C3* UNL     1     -12.175   6.819  71.195  1.00  0.00    -0.360 C  
HETATM   18  O3* UNL     1     -12.611   6.199  72.410  1.00  0.00    -0.542 OA 
HETATM   19  O4* UNL     1     -10.835   8.719  71.774  1.00  0.00    -0.293 OA 
HETATM   20  H3* UNL     1     -12.104   5.406  72.540  1.00  0.00     0.000 HD 
BRANCH  16  21
HETATM   21  C5* UNL     1      -9.911   7.260  70.093  1.00  0.00    -0.179 C  
HETATM   22  O5* UNL     1     -10.540   6.439  69.112  1.00  0.00    -0.204 OA 
HETATM   23  H5* UNL     1     -10.023   6.395  68.317  1.00  0.00     0.000 HD 
ENDBRANCH  16  21
ENDBRANCH   8  14
TORSDOF 2
ENDMDL
MODEL      114
REMARK 921   NORMALIZED FREE ENERGY PREDICTED BY IDOCK:   -4.70 KCAL/MOL
REMARK 922        TOTAL FREE ENERGY PREDICTED BY IDOCK:   -5.60 KCAL/MOL
REMARK 923 INTER-LIGAND FREE ENERGY PREDICTED BY IDOCK:   -5.18 KCAL/MOL
REMARK 924 INTRA-LIGAND FREE ENERGY PREDICTED BY IDOCK:   -0.42 KCAL/MOL
REMARK 927      BINDING AFFINITY PREDICTED BY RF-SCORE:    0.00 PKD
ROOT
HETATM    1  N   UNL     1     -10.212   8.563  68.443  1.00  0.00    -0.199 NA 
HETATM    2  C   UNL     1     -10.158   9.360  67.308  1.00  0.00    -0.226 A  
HETATM    3  H1  UNL     1      -9.789   7.636  68.491  1.00  0.00     0.000 HD 
HETATM    4  H2  UNL     1     -11.194   8.465  68.700  1.00  0.00     0.000 HD 
HETATM    5  C   UNL     1     -10.741  10.639  67.242  1.00  0.00    -0.285 A  
HETATM    6  N   UNL     1     -11.466  11.378  68.151  1.00  0.00    -0.336 NA 
HETATM    7  C   UNL     1     -11.722  12.513  67.534  1.00  0.00    -0.374 A  
HETATM    8  N   UNL     1     -11.227  12.529  66.257  1.00  0.00    -0.299 NA 
HETATM    9  C   UNL     1     -10.590  11.334  66.053  1.00  0.00    -0.258 A  
HETATM   10  N   UNL     1      -9.522   8.881  66.217  1.00  0.00    -0.219 NA 
HETATM   11  N   UNL     1      -9.955  10.916  64.946  1.00  0.00    -0.278 NA 
HETATM   12 CL   UNL     1      -8.634   9.013  63.785  1.00  0.00    -0.180 Cl 
HETATM   13  C   UNL     1      -9.456   9.676  65.132  1.00  0.00    -0.265 A  
ENDROOT
BRANCH   8  14
HETATM   14  C1* UNL     1     -11.299  13.616  65.299  1.00  0.00    -0.296 C  
HETATM   15  C2* UNL     1     -12.577  14.436  65.384  1.00  0.00    -0.339 C  
HETATM   16  C4* UNL     1     -10.674  15.871  65.215  1.00  0.00    -0.424 C  
HETATM   17  C3* UNL     1     -12.138  15.748  64.784  1.00  0.00     0.233 C  
HETATM   18  O3* UNL     1     -12.203  15.636  63.358  1.00  0.00    -0.567 OA 
HETATM   19  O4* UNL     1     -10.212  14.536  65.534  1.00  0.00    -0.327 OA 
HETATM   20  H3* UNL     1     -11.926  16.463  62.980  1.00  0.00     0.000 HD 
BRANCH  16  21
HETATM   21  C5* UNL     1     -10.480  16.748  66.454  1.00  0.00    -0.269 C  
HETATM   22  O5* UNL     1     -10.293  15.955  67.623  1.00  0.00    -0.267 OA 
HETATM   23  H5* UNL     1     -10.173  16.499  68.392  1.00  0.00     0.000 HD 
ENDBRANCH  16  21
ENDBRANCH   8  14
TORSDOF 2
ENDMDL
MODEL      115
REMARK 921   NORMALIZED FREE ENERGY PREDICTED BY IDOCK:   -4.67 KCAL/MOL
REMARK 922        TOTAL FREE ENERGY PREDICTED BY IDOCK:   -5.56 KCAL/MOL
REMARK 923 INTER-LIGAND FREE ENERGY PREDICTED BY IDOCK:   -5.44 KCAL/MOL
REMARK 924 INTRA-LIGAND FREE ENERGY PREDICTED BY IDOCK:   -0.12 KCAL/MOL
REMARK 927      BINDING AFFINITY PREDICTED BY RF-SCORE:    0.00 PKD
ROOT
HETATM    1  N   UNL     1     -12.057  14.228  66.205  1.00  0.00    -0.416 NA 
HETATM    2  C   UNL     1     -11.889  13.447  67.339  1.00  0.00    -0.375 A  
HETATM    3  H1  UNL     1     -12.434  15.175  66.233  1.00  0.00     0.000 HD 
HETATM    4  H2  UNL     1     -12.625  13.693  65.548  1.00  0.00     0.000 HD 
HETATM    5  C   UNL     1     -11.369  12.140  67.300  1.00  0.00    -0.334 A  
HETATM    6  N   UNL     1     -10.951  11.338  66.261  1.00  0.00    -0.246 NA 
HETATM    7  C   UNL     1     -10.540  10.228  66.838  1.00  0.00    -0.217 A  
HETATM    8  N   UNL     1     -10.706  10.261  68.198  1.00  0.00    -0.227 NA 
HETATM    9  C   UNL     1     -11.235  11.484  68.513  1.00  0.00    -0.258 A  
HETATM   10  N   UNL     1     -12.249  13.965  68.533  1.00  0.00    -0.280 NA 
HETATM   11  N   UNL     1     -11.557  11.955  69.728  1.00  0.00    -0.300 NA 
HETATM   12 CL   UNL     1     -12.527  13.920  71.111  1.00  0.00    -0.434 Cl 
HETATM   13  C   UNL     1     -12.056  13.206  69.629  1.00  0.00    -0.255 A  
ENDROOT
BRANCH   8  14
HETATM   14  C1* UNL     1     -10.345   9.231  69.153  1.00  0.00    -0.211 C  
HETATM   15  C2* UNL     1      -9.385   9.697  70.238  1.00  0.00    -0.292 C  
HETATM   16  C4* UNL     1     -11.163   8.419  71.191  1.00  0.00    -0.263 C  
HETATM   17  C3* UNL     1      -9.668   8.710  71.341  1.00  0.00    -0.244 C  
HETATM   18  O3* UNL     1      -8.925   7.514  71.079  1.00  0.00    -0.145 OA 
HETATM   19  O4* UNL     1     -11.530   8.770  69.834  1.00  0.00    -0.057 OA 
HETATM   20  H3* UNL     1      -9.104   6.892  71.774  1.00  0.00     0.000 HD 
BRANCH  16  21
HETATM   21  C5* UNL     1     -12.037   9.237  72.144  1.00  0.00    -0.283 C  
HETATM   22  O5* UNL     1     -13.147   8.474  72.611  1.00  0.00    -0.603 OA 
HETATM   23  H5* UNL     1     -13.689   8.981  73.202  1.00  0.00     0.000 HD 
ENDBRANCH  16  21
ENDBRANCH   8  14
TORSDOF 2
ENDMDL
MODEL      116
REMARK 921   NORMALIZED FREE ENERGY PREDICTED BY IDOCK:   -4.67 KCAL/MOL
REMARK 922        TOTAL FREE ENERGY PREDICTED BY IDOCK:   -5.56 KCAL/MOL
REMARK 923 INTER-LIGAND FREE ENERGY PREDICTED BY IDOCK:   -5.22 KCAL/MOL
REMARK 924 INTRA-LIGAND FREE ENERGY PREDICTED BY IDOCK:   -0.34 KCAL/MOL
REMARK 927      BINDING AFFINITY PREDICTED BY RF-SCORE:    0.00 PKD
ROOT
HETATM    1  N   UNL     1      -8.532  14.984  66.649  1.00  0.00    -0.410 NA 
HETATM    2  C   UNL     1      -9.454  13.952  66.552  1.00  0.00    -0.274 A  
HETATM    3  H1  UNL     1      -8.713  15.924  66.297  1.00  0.00     0.000 HD 
HETATM    4  H2  UNL     1      -7.665  14.660  66.222  1.00  0.00     0.000 HD 
HETATM    5  C   UNL     1      -9.205  12.655  67.038  1.00  0.00    -0.212 A  
HETATM    6  N   UNL     1      -8.110  12.086  67.649  1.00  0.00    -0.144 NA 
HETATM    7  C   UNL     1      -8.473  10.845  67.901  1.00  0.00    -0.129 A  
HETATM    8  N   UNL     1      -9.737  10.575  67.449  1.00  0.00    -0.162 NA 
HETATM    9  C   UNL     1     -10.225  11.727  66.894  1.00  0.00    -0.209 A  
HETATM   10  N   UNL     1     -10.640  14.204  65.958  1.00  0.00    -0.290 NA 
HETATM   11  N   UNL     1     -11.427  11.927  66.331  1.00  0.00    -0.435 NA 
HETATM   12 CL   UNL     1     -13.020  13.584  65.135  1.00  0.00    -0.365 Cl 
HETATM   13  C   UNL     1     -11.535  13.200  65.895  1.00  0.00    -0.333 A  
ENDROOT
BRANCH   8  14
HETATM   14  C1* UNL     1     -10.468   9.328  67.573  1.00  0.00    -0.274 C  
HETATM   15  C2* UNL     1      -9.774   8.133  66.936  1.00  0.00    -0.291 C  
HETATM   16  C4* UNL     1     -10.597   7.561  69.105  1.00  0.00    -0.197 C  
HETATM   17  C3* UNL     1     -10.378   6.985  67.704  1.00  0.00    -0.211 C  
HETATM   18  O3* UNL     1     -11.646   6.668  67.120  1.00  0.00    -0.749 OA 
HETATM   19  O4* UNL     1     -10.630   9.003  68.970  1.00  0.00    -0.223 OA 
HETATM   20  H3* UNL     1     -12.026   5.944  67.604  1.00  0.00     0.000 HD 
BRANCH  16  21
HETATM   21  C5* UNL     1      -9.481   7.203  70.088  1.00  0.00    -0.161 C  
HETATM   22  O5* UNL     1      -9.228   5.801  70.095  1.00  0.00    -0.147 OA 
HETATM   23  H5* UNL     1      -8.536   5.579  70.705  1.00  0.00     0.000 HD 
ENDBRANCH  16  21
ENDBRANCH   8  14
TORSDOF 2
ENDMDL
MODEL      117
REMARK 921   NORMALIZED FREE ENERGY PREDICTED BY IDOCK:   -4.67 KCAL/MOL
REMARK 922        TOTAL FREE ENERGY PREDICTED BY IDOCK:   -5.56 KCAL/MOL
REMARK 923 INTER-LIGAND FREE ENERGY PREDICTED BY IDOCK:   -5.55 KCAL/MOL
REMARK 924 INTRA-LIGAND FREE ENERGY PREDICTED BY IDOCK:   -0.01 KCAL/MOL
REMARK 927      BINDING AFFINITY PREDICTED BY RF-SCORE:    0.00 PKD
ROOT
HETATM    1  N   UNL     1     -13.819  14.144  72.410  1.00  0.00    -0.530 NA 
HETATM    2  C   UNL     1     -13.267  13.083  71.707  1.00  0.00    -0.392 A  
HETATM    3  H1  UNL     1     -14.365  14.021  73.263  1.00  0.00     0.000 HD 
HETATM    4  H2  UNL     1     -14.392  14.677  71.756  1.00  0.00     0.000 HD 
HETATM    5  C   UNL     1     -12.515  13.252  70.529  1.00  0.00    -0.260 A  
HETATM    6  N   UNL     1     -12.169  14.369  69.801  1.00  0.00    -0.326 NA 
HETATM    7  C   UNL     1     -11.433  13.908  68.810  1.00  0.00    -0.292 A  
HETATM    8  N   UNL     1     -11.317  12.544  68.844  1.00  0.00    -0.277 NA 
HETATM    9  C   UNL     1     -12.003  12.105  69.944  1.00  0.00    -0.309 A  
HETATM   10  N   UNL     1     -13.467  11.831  72.173  1.00  0.00    -0.349 NA 
HETATM   11  N   UNL     1     -12.154  10.841  70.372  1.00  0.00    -0.323 NA 
HETATM   12 CL   UNL     1     -13.190   9.253  72.138  1.00  0.00    -0.493 Cl 
HETATM   13  C   UNL     1     -12.903  10.813  71.495  1.00  0.00    -0.462 A  
ENDROOT
BRANCH   8  14
HETATM   14  C1* UNL     1     -10.567  11.702  67.932  1.00  0.00    -0.193 C  
HETATM   15  C2* UNL     1      -9.199  11.285  68.451  1.00  0.00    -0.178 C  
HETATM   16  C4* UNL     1     -10.339   9.411  67.506  1.00  0.00    -0.255 C  
HETATM   17  C3* UNL     1      -8.945  10.024  67.666  1.00  0.00    -0.131 C  
HETATM   18  O3* UNL     1      -8.439  10.389  66.377  1.00  0.00    -0.131 OA 
HETATM   19  O4* UNL     1     -11.297  10.481  67.693  1.00  0.00    -0.394 OA 
HETATM   20  H3* UNL     1      -8.279   9.594  65.883  1.00  0.00     0.000 HD 
BRANCH  16  21
HETATM   21  C5* UNL     1     -10.641   8.320  68.535  1.00  0.00    -0.100 C  
HETATM   22  O5* UNL     1     -10.110   7.062  68.125  1.00  0.00    -0.157 OA 
HETATM   23  H5* UNL     1     -10.299   6.385  68.764  1.00  0.00     0.000 HD 
ENDBRANCH  16  21
ENDBRANCH   8  14
TORSDOF 2
ENDMDL
MODEL      118
REMARK 921   NORMALIZED FREE ENERGY PREDICTED BY IDOCK:   -4.64 KCAL/MOL
REMARK 922        TOTAL FREE ENERGY PREDICTED BY IDOCK:   -5.53 KCAL/MOL
REMARK 923 INTER-LIGAND FREE ENERGY PREDICTED BY IDOCK:   -5.18 KCAL/MOL
REMARK 924 INTRA-LIGAND FREE ENERGY PREDICTED BY IDOCK:   -0.35 KCAL/MOL
REMARK 927      BINDING AFFINITY PREDICTED BY RF-SCORE:    0.00 PKD
ROOT
HETATM    1  N   UNL     1      -9.261   5.733  64.969  1.00  0.00    -0.349 NA 
HETATM    2  C   UNL     1      -9.513   5.374  66.285  1.00  0.00    -0.157 A  
HETATM    3  H1  UNL     1      -8.942   5.069  64.264  1.00  0.00     0.000 HD 
HETATM    4  H2  UNL     1      -8.594   6.505  64.986  1.00  0.00     0.000 HD 
HETATM    5  C   UNL     1      -9.953   6.290  67.259  1.00  0.00    -0.146 A  
HETATM    6  N   UNL     1     -10.207   7.643  67.213  1.00  0.00    -0.243 NA 
HETATM    7  C   UNL     1     -10.620   7.948  68.426  1.00  0.00    -0.107 A  
HETATM    8  N   UNL     1     -10.610   6.863  69.263  1.00  0.00    -0.217 NA 
HETATM    9  C   UNL     1     -10.187   5.788  68.529  1.00  0.00    -0.192 A  
HETATM   10  N   UNL     1      -9.320   4.087  66.647  1.00  0.00    -0.170 NA 
HETATM   11  N   UNL     1     -10.031   4.519  68.939  1.00  0.00    -0.114 NA 
HETATM   12 CL   UNL     1      -9.332   2.103  68.317  1.00  0.00    -0.247 Cl 
HETATM   13  C   UNL     1      -9.593   3.747  67.922  1.00  0.00    -0.130 A  
ENDROOT
BRANCH   8  14
HETATM   14  C1* UNL     1     -11.020   6.821  70.654  1.00  0.00    -0.267 C  
HETATM   15  C2* UNL     1     -10.486   7.970  71.495  1.00  0.00    -0.265 C  
HETATM   16  C4* UNL     1     -12.807   7.620  71.940  1.00  0.00    -0.282 C  
HETATM   17  C3* UNL     1     -11.494   8.023  72.615  1.00  0.00    -0.402 C  
HETATM   18  O3* UNL     1     -11.140   7.034  73.588  1.00  0.00    -0.541 OA 
HETATM   19  O4* UNL     1     -12.458   6.898  70.733  1.00  0.00    -0.356 OA 
HETATM   20  H3* UNL     1     -11.775   7.067  74.293  1.00  0.00     0.000 HD 
BRANCH  16  21
HETATM   21  C5* UNL     1     -13.674   8.816  71.542  1.00  0.00    -0.338 C  
HETATM   22  O5* UNL     1     -13.584   9.863  72.505  1.00  0.00    -0.656 OA 
HETATM   23  H5* UNL     1     -14.122  10.605  72.258  1.00  0.00     0.000 HD 
ENDBRANCH  16  21
ENDBRANCH   8  14
TORSDOF 2
ENDMDL
MODEL      119
REMARK 921   NORMALIZED FREE ENERGY PREDICTED BY IDOCK:   -4.62 KCAL/MOL
REMARK 922        TOTAL FREE ENERGY PREDICTED BY IDOCK:   -5.50 KCAL/MOL
REMARK 923 INTER-LIGAND FREE ENERGY PREDICTED BY IDOCK:   -5.19 KCAL/MOL
REMARK 924 INTRA-LIGAND FREE ENERGY PREDICTED BY IDOCK:   -0.31 KCAL/MOL
REMARK 927      BINDING AFFINITY PREDICTED BY RF-SCORE:    0.00 PKD
ROOT
HETATM    1  N   UNL     1     -11.123  17.108  69.847  1.00  0.00    -0.187 NA 
HETATM    2  C   UNL     1     -11.396  15.751  69.940  1.00  0.00    -0.349 A  
HETATM    3  H1  UNL     1     -11.585  17.809  70.426  1.00  0.00     0.000 HD 
HETATM    4  H2  UNL     1     -11.258  17.380  68.873  1.00  0.00     0.000 HD 
HETATM    5  C   UNL     1     -10.759  14.784  69.141  1.00  0.00    -0.254 A  
HETATM    6  N   UNL     1      -9.818  14.880  68.139  1.00  0.00    -0.215 NA 
HETATM    7  C   UNL     1      -9.583  13.636  67.779  1.00  0.00    -0.224 A  
HETATM    8  N   UNL     1     -10.353  12.742  68.475  1.00  0.00    -0.236 NA 
HETATM    9  C   UNL     1     -11.114  13.462  69.357  1.00  0.00    -0.103 A  
HETATM   10  N   UNL     1     -12.321  15.343  70.836  1.00  0.00    -0.363 NA 
HETATM   11  N   UNL     1     -12.009  12.999  70.243  1.00  0.00    -0.324 NA 
HETATM   12 CL   UNL     1     -13.737  13.568  72.089  1.00  0.00    -0.615 Cl 
HETATM   13  C   UNL     1     -12.558  14.021  70.934  1.00  0.00    -0.361 A  
ENDROOT
BRANCH   8  14
HETATM   14  C1* UNL     1     -10.344  11.296  68.360  1.00  0.00    -0.192 C  
HETATM   15  C2* UNL     1     -10.995  10.768  67.090  1.00  0.00    -0.324 C  
HETATM   16  C4* UNL     1      -8.920   9.654  67.489  1.00  0.00    -0.128 C  
HETATM   17  C3* UNL     1     -10.331   9.423  66.944  1.00  0.00    -0.238 C  
HETATM   18  O3* UNL     1     -11.015   8.488  67.785  1.00  0.00    -0.495 OA 
HETATM   19  O4* UNL     1      -8.981  10.824  68.341  1.00  0.00    -0.140 OA 
HETATM   20  H3* UNL     1     -10.597   7.640  67.692  1.00  0.00     0.000 HD 
BRANCH  16  21
HETATM   21  C5* UNL     1      -7.884   9.919  66.394  1.00  0.00    -0.107 C  
HETATM   22  O5* UNL     1      -7.866  11.294  66.023  1.00  0.00    -0.336 OA 
HETATM   23  H5* UNL     1      -7.223  11.459  65.343  1.00  0.00     0.000 HD 
ENDBRANCH  16  21
ENDBRANCH   8  14
TORSDOF 2
ENDMDL
MODEL      120
REMARK 921   NORMALIZED FREE ENERGY PREDICTED BY IDOCK:   -4.61 KCAL/MOL
REMARK 922        TOTAL FREE ENERGY PREDICTED BY IDOCK:   -5.50 KCAL/MOL
REMARK 923 INTER-LIGAND FREE ENERGY PREDICTED BY IDOCK:   -5.11 KCAL/MOL
REMARK 924 INTRA-LIGAND FREE ENERGY PREDICTED BY IDOCK:   -0.39 KCAL/MOL
REMARK 927      BINDING AFFINITY PREDICTED BY RF-SCORE:    0.00 PKD
ROOT
HETATM    1  N   UNL     1      -6.284   6.740  69.557  1.00  0.00    -0.033 NA 
HETATM    2  C   UNL     1      -7.062   7.375  70.515  1.00  0.00    -0.057 A  
HETATM    3  H1  UNL     1      -5.365   6.347  69.759  1.00  0.00     0.000 HD 
HETATM    4  H2  UNL     1      -6.174   7.387  68.776  1.00  0.00     0.000 HD 
HETATM    5  C   UNL     1      -8.329   7.917  70.236  1.00  0.00    -0.126 A  
HETATM    6  N   UNL     1      -9.072   7.997  69.078  1.00  0.00    -0.145 NA 
HETATM    7  C   UNL     1     -10.191   8.590  69.437  1.00  0.00    -0.211 A  
HETATM    8  N   UNL     1     -10.192   8.931  70.764  1.00  0.00    -0.209 NA 
HETATM    9  C   UNL     1      -9.005   8.503  71.295  1.00  0.00    -0.192 A  
HETATM   10  N   UNL     1      -6.573   7.481  71.770  1.00  0.00    -0.042 NA 
HETATM   11  N   UNL     1      -8.578   8.619  72.562  1.00  0.00    -0.406 NA 
HETATM   12 CL   UNL     1      -6.677   8.176  74.266  1.00  0.00    -0.143 Cl 
HETATM   13  C   UNL     1      -7.350   8.076  72.695  1.00  0.00    -0.107 A  
ENDROOT
BRANCH   8  14
HETATM   14  C1* UNL     1     -11.261   9.572  71.507  1.00  0.00    -0.367 C  
HETATM   15  C2* UNL     1     -12.260  10.321  70.638  1.00  0.00    -0.422 C  
HETATM   16  C4* UNL     1     -13.400   9.002  72.271  1.00  0.00    -0.467 C  
HETATM   17  C3* UNL     1     -13.483  10.333  71.520  1.00  0.00    -0.246 C  
HETATM   18  O3* UNL     1     -13.356  11.411  72.453  1.00  0.00    -0.583 OA 
HETATM   19  O4* UNL     1     -12.017   8.572  72.221  1.00  0.00    -0.359 OA 
HETATM   20  H3* UNL     1     -14.127  11.418  73.009  1.00  0.00     0.000 HD 
BRANCH  16  21
HETATM   21  C5* UNL     1     -14.261   7.901  71.649  1.00  0.00    -0.459 C  
HETATM   22  O5* UNL     1     -13.512   7.123  70.719  1.00  0.00    -0.538 OA 
HETATM   23  H5* UNL     1     -14.047   6.440  70.333  1.00  0.00     0.000 HD 
ENDBRANCH  16  21
ENDBRANCH   8  14
TORSDOF 2
ENDMDL
MODEL      121
REMARK 921   NORMALIZED FREE ENERGY PREDICTED BY IDOCK:   -4.61 KCAL/MOL
REMARK 922        TOTAL FREE ENERGY PREDICTED BY IDOCK:   -5.50 KCAL/MOL
REMARK 923 INTER-LIGAND FREE ENERGY PREDICTED BY IDOCK:   -5.12 KCAL/MOL
REMARK 924 INTRA-LIGAND FREE ENERGY PREDICTED BY IDOCK:   -0.37 KCAL/MOL
REMARK 927      BINDING AFFINITY PREDICTED BY RF-SCORE:    0.00 PKD
ROOT
HETATM    1  N   UNL     1     -11.958  13.484  68.675  1.00  0.00    -0.358 NA 
HETATM    2  C   UNL     1     -11.374  14.252  67.678  1.00  0.00    -0.324 A  
HETATM    3  H1  UNL     1     -12.790  12.915  68.523  1.00  0.00     0.000 HD 
HETATM    4  H2  UNL     1     -12.152  14.103  69.463  1.00  0.00     0.000 HD 
HETATM    5  C   UNL     1     -10.226  15.038  67.889  1.00  0.00    -0.228 A  
HETATM    6  N   UNL     1      -9.453  15.272  69.005  1.00  0.00    -0.220 NA 
HETATM    7  C   UNL     1      -8.495  16.073  68.587  1.00  0.00    -0.208 A  
HETATM    8  N   UNL     1      -8.632  16.396  67.263  1.00  0.00    -0.176 NA 
HETATM    9  C   UNL     1      -9.738  15.737  66.797  1.00  0.00    -0.238 A  
HETATM   10  N   UNL     1     -11.941  14.249  66.452  1.00  0.00    -0.418 NA 
HETATM   11  N   UNL     1     -10.247  15.756  65.555  1.00  0.00    -0.368 NA 
HETATM   12 CL   UNL     1     -12.111  14.930  63.956  1.00  0.00    -0.282 Cl 
HETATM   13  C   UNL     1     -11.349  14.978  65.487  1.00  0.00    -0.312 A  
ENDROOT
BRANCH   8  14
HETATM   14  C1* UNL     1      -7.754  17.230  66.465  1.00  0.00    -0.290 C  
HETATM   15  C2* UNL     1      -8.188  18.685  66.377  1.00  0.00    -0.295 C  
HETATM   16  C4* UNL     1      -5.844  18.539  66.818  1.00  0.00    -0.150 C  
HETATM   17  C3* UNL     1      -6.883  19.374  66.066  1.00  0.00    -0.251 C  
HETATM   18  O3* UNL     1      -6.642  19.272  64.658  1.00  0.00    -0.440 OA 
HETATM   19  O4* UNL     1      -6.435  17.237  67.051  1.00  0.00    -0.143 OA 
HETATM   20  H3* UNL     1      -5.820  19.706  64.463  1.00  0.00     0.000 HD 
BRANCH  16  21
HETATM   21  C5* UNL     1      -5.458  19.132  68.174  1.00  0.00    -0.189 C  
HETATM   22  O5* UNL     1      -5.709  20.534  68.215  1.00  0.00    -0.235 OA 
HETATM   23  H5* UNL     1      -5.469  20.903  69.057  1.00  0.00     0.000 HD 
ENDBRANCH  16  21
ENDBRANCH   8  14
TORSDOF 2
ENDMDL
MODEL      122
REMARK 921   NORMALIZED FREE ENERGY PREDICTED BY IDOCK:   -4.60 KCAL/MOL
REMARK 922        TOTAL FREE ENERGY PREDICTED BY IDOCK:   -5.48 KCAL/MOL
REMARK 923 INTER-LIGAND FREE ENERGY PREDICTED BY IDOCK:   -5.48 KCAL/MOL
REMARK 924 INTRA-LIGAND FREE ENERGY PREDICTED BY IDOCK:   -0.00 KCAL/MOL
REMARK 927      BINDING AFFINITY PREDICTED BY RF-SCORE:    0.00 PKD
ROOT
HETATM    1  N   UNL     1     -11.889  15.896  70.888  1.00  0.00    -0.403 NA 
HETATM    2  C   UNL     1     -11.763  14.637  70.319  1.00  0.00    -0.297 A  
HETATM    3  H1  UNL     1     -12.317  16.053  71.801  1.00  0.00     0.000 HD 
HETATM    4  H2  UNL     1     -12.379  16.487  70.216  1.00  0.00     0.000 HD 
HETATM    5  C   UNL     1     -11.173  14.421  69.060  1.00  0.00    -0.264 A  
HETATM    6  N   UNL     1     -10.638  15.281  68.125  1.00  0.00    -0.249 NA 
HETATM    7  C   UNL     1     -10.212  14.498  67.155  1.00  0.00    -0.260 A  
HETATM    8  N   UNL     1     -10.478  13.177  67.403  1.00  0.00    -0.241 NA 
HETATM    9  C   UNL     1     -11.092  13.108  68.624  1.00  0.00    -0.269 A  
HETATM   10  N   UNL     1     -12.235  13.573  71.004  1.00  0.00    -0.328 NA 
HETATM   11  N   UNL     1     -11.526  12.014  69.269  1.00  0.00    -0.282 NA 
HETATM   12 CL   UNL     1     -12.696  11.048  71.369  1.00  0.00    -0.529 Cl 
HETATM   13  C   UNL     1     -12.082  12.355  70.451  1.00  0.00    -0.297 A  
ENDROOT
BRANCH   8  14
HETATM   14  C1* UNL     1     -10.133  12.040  66.571  1.00  0.00    -0.201 C  
HETATM   15  C2* UNL     1     -11.264  11.041  66.382  1.00  0.00    -0.041 C  
HETATM   16  C4* UNL     1     -10.196  11.497  64.294  1.00  0.00    -0.311 C  
HETATM   17  C3* UNL     1     -10.870  10.375  65.087  1.00  0.00     0.379 C  
HETATM   18  O3* UNL     1      -9.906   9.358  65.378  1.00  0.00    -0.424 OA 
HETATM   19  O4* UNL     1      -9.775  12.500  65.252  1.00  0.00    -0.185 OA 
HETATM   20  H3* UNL     1      -9.658   8.938  64.563  1.00  0.00     0.000 HD 
BRANCH  16  21
HETATM   21  C5* UNL     1     -11.129  12.169  63.285  1.00  0.00    -0.332 C  
HETATM   22  O5* UNL     1     -12.253  11.345  62.992  1.00  0.00    -0.946 OA 
HETATM   23  H5* UNL     1     -12.832  11.762  62.365  1.00  0.00     0.000 HD 
ENDBRANCH  16  21
ENDBRANCH   8  14
TORSDOF 2
ENDMDL
MODEL      123
REMARK 921   NORMALIZED FREE ENERGY PREDICTED BY IDOCK:   -4.59 KCAL/MOL
REMARK 922        TOTAL FREE ENERGY PREDICTED BY IDOCK:   -5.47 KCAL/MOL
REMARK 923 INTER-LIGAND FREE ENERGY PREDICTED BY IDOCK:   -5.38 KCAL/MOL
REMARK 924 INTRA-LIGAND FREE ENERGY PREDICTED BY IDOCK:   -0.09 KCAL/MOL
REMARK 927      BINDING AFFINITY PREDICTED BY RF-SCORE:    0.00 PKD
ROOT
HETATM    1  N   UNL     1     -11.471  16.491  63.844  1.00  0.00    -1.599 NA 
HETATM    2  C   UNL     1     -11.258  15.941  65.100  1.00  0.00    -0.224 A  
HETATM    3  H1  UNL     1     -11.189  17.440  63.598  1.00  0.00     0.000 HD 
HETATM    4  H2  UNL     1     -12.466  16.405  63.638  1.00  0.00     0.000 HD 
HETATM    5  C   UNL     1     -11.646  14.632  65.439  1.00  0.00    -0.345 A  
HETATM    6  N   UNL     1     -12.293  13.642  64.732  1.00  0.00    -0.515 NA 
HETATM    7  C   UNL     1     -12.357  12.623  65.564  1.00  0.00    -0.391 A  
HETATM    8  N   UNL     1     -11.816  12.919  66.787  1.00  0.00    -0.387 NA 
HETATM    9  C   UNL     1     -11.350  14.205  66.724  1.00  0.00    -0.343 A  
HETATM   10  N   UNL     1     -10.655  16.702  66.039  1.00  0.00    -0.277 NA 
HETATM   11  N   UNL     1     -10.739  14.909  67.690  1.00  0.00    -0.265 NA 
HETATM   12 CL   UNL     1      -9.662  17.160  68.391  1.00  0.00    -0.272 Cl 
HETATM   13  C   UNL     1     -10.432  16.147  67.246  1.00  0.00    -0.309 A  
ENDROOT
BRANCH   8  14
HETATM   14  C1* UNL     1     -11.692  12.037  67.931  1.00  0.00    -0.323 C  
HETATM   15  C2* UNL     1     -10.298  11.996  68.538  1.00  0.00    -0.228 C  
HETATM   16  C4* UNL     1     -11.949  12.193  70.254  1.00  0.00    -0.305 C  
HETATM   17  C3* UNL     1     -10.592  11.554  69.949  1.00  0.00     0.520 C  
HETATM   18  O3* UNL     1     -10.729  10.129  69.956  1.00  0.00    -0.268 OA 
HETATM   19  O4* UNL     1     -12.576  12.483  68.980  1.00  0.00     0.291 OA 
HETATM   20  H3* UNL     1     -10.915   9.850  70.845  1.00  0.00     0.000 HD 
BRANCH  16  21
HETATM   21  C5* UNL     1     -11.839  13.503  71.036  1.00  0.00     0.199 C  
HETATM   22  O5* UNL     1     -13.065  14.228  71.006  1.00  0.00    -0.345 OA 
HETATM   23  H5* UNL     1     -12.997  15.041  71.491  1.00  0.00     0.000 HD 
ENDBRANCH  16  21
ENDBRANCH   8  14
TORSDOF 2
ENDMDL
MODEL      124
REMARK 921   NORMALIZED FREE ENERGY PREDICTED BY IDOCK:   -4.59 KCAL/MOL
REMARK 922        TOTAL FREE ENERGY PREDICTED BY IDOCK:   -5.47 KCAL/MOL
REMARK 923 INTER-LIGAND FREE ENERGY PREDICTED BY IDOCK:   -5.16 KCAL/MOL
REMARK 924 INTRA-LIGAND FREE ENERGY PREDICTED BY IDOCK:   -0.31 KCAL/MOL
REMARK 927      BINDING AFFINITY PREDICTED BY RF-SCORE:    0.00 PKD
ROOT
HETATM    1  N   UNL     1     -12.294  13.234  63.317  1.00  0.00    -0.867 NA 
HETATM    2  C   UNL     1     -11.751  13.167  64.592  1.00  0.00    -0.361 A  
HETATM    3  H1  UNL     1     -12.894  13.999  63.008  1.00  0.00     0.000 HD 
HETATM    4  H2  UNL     1     -12.801  12.364  63.155  1.00  0.00     0.000 HD 
HETATM    5  C   UNL     1     -10.924  12.112  65.018  1.00  0.00    -0.309 A  
HETATM    6  N   UNL     1     -10.482  10.966  64.393  1.00  0.00    -0.361 NA 
HETATM    7  C   UNL     1      -9.712  10.374  65.281  1.00  0.00    -0.278 A  
HETATM    8  N   UNL     1      -9.663  11.064  66.464  1.00  0.00    -0.193 NA 
HETATM    9  C   UNL     1     -10.433  12.186  66.312  1.00  0.00    -0.239 A  
HETATM   10  N   UNL     1     -12.038  14.158  65.464  1.00  0.00    -0.395 NA 
HETATM   11  N   UNL     1     -10.669  13.152  67.213  1.00  0.00    -0.253 NA 
HETATM   12 CL   UNL     1     -11.882  15.379  67.746  1.00  0.00    -0.167 Cl 
HETATM   13  C   UNL     1     -11.484  14.093  66.690  1.00  0.00    -0.366 A  
ENDROOT
BRANCH   8  14
HETATM   14  C1* UNL     1      -8.901  10.724  67.650  1.00  0.00    -0.132 C  
HETATM   15  C2* UNL     1      -9.747  10.234  68.815  1.00  0.00    -0.178 C  
HETATM   16  C4* UNL     1      -7.839   8.826  68.521  1.00  0.00    -0.104 C  
HETATM   17  C3* UNL     1      -8.747   9.423  69.599  1.00  0.00    -0.167 C  
HETATM   18  O3* UNL     1      -7.984  10.316  70.418  1.00  0.00    -0.423 OA 
HETATM   19  O4* UNL     1      -7.982   9.654  67.341  1.00  0.00    -0.105 OA 
HETATM   20  H3* UNL     1      -7.354   9.805  70.912  1.00  0.00     0.000 HD 
BRANCH  16  21
HETATM   21  C5* UNL     1      -8.213   7.392  68.141  1.00  0.00    -0.124 C  
HETATM   22  O5* UNL     1      -8.972   6.766  69.172  1.00  0.00    -0.133 OA 
HETATM   23  H5* UNL     1      -9.204   5.876  68.936  1.00  0.00     0.000 HD 
ENDBRANCH  16  21
ENDBRANCH   8  14
TORSDOF 2
ENDMDL
MODEL      125
REMARK 921   NORMALIZED FREE ENERGY PREDICTED BY IDOCK:   -4.58 KCAL/MOL
REMARK 922        TOTAL FREE ENERGY PREDICTED BY IDOCK:   -5.46 KCAL/MOL
REMARK 923 INTER-LIGAND FREE ENERGY PREDICTED BY IDOCK:   -5.10 KCAL/MOL
REMARK 924 INTRA-LIGAND FREE ENERGY PREDICTED BY IDOCK:   -0.36 KCAL/MOL
REMARK 927      BINDING AFFINITY PREDICTED BY RF-SCORE:    0.00 PKD
ROOT
HETATM    1  N   UNL     1     -12.713  13.957  64.933  1.00  0.00    -0.693 NA 
HETATM    2  C   UNL     1     -11.849  12.876  65.030  1.00  0.00    -0.372 A  
HETATM    3  H1  UNL     1     -12.934  14.414  64.049  1.00  0.00     0.000 HD 
HETATM    4  H2  UNL     1     -12.373  14.677  65.572  1.00  0.00     0.000 HD 
HETATM    5  C   UNL     1     -11.544  12.246  66.251  1.00  0.00    -0.385 A  
HETATM    6  N   UNL     1     -11.936  12.494  67.548  1.00  0.00    -0.472 NA 
HETATM    7  C   UNL     1     -11.348  11.556  68.261  1.00  0.00    -0.286 A  
HETATM    8  N   UNL     1     -10.566  10.736  67.492  1.00  0.00    -0.220 NA 
HETATM    9  C   UNL     1     -10.683  11.161  66.196  1.00  0.00    -0.225 A  
HETATM   10  N   UNL     1     -11.271  12.414  63.900  1.00  0.00    -0.385 NA 
HETATM   11  N   UNL     1     -10.096  10.648  65.103  1.00  0.00    -0.294 NA 
HETATM   12 CL   UNL     1      -9.758  10.807  62.539  1.00  0.00    -0.231 Cl 
HETATM   13  C   UNL     1     -10.456  11.347  64.006  1.00  0.00    -0.378 A  
ENDROOT
BRANCH   8  14
HETATM   14  C1* UNL     1      -9.796   9.588  67.933  1.00  0.00    -0.156 C  
HETATM   15  C2* UNL     1     -10.425   8.247  67.589  1.00  0.00    -0.303 C  
HETATM   16  C4* UNL     1      -8.093   8.231  67.070  1.00  0.00    -0.104 C  
HETATM   17  C3* UNL     1      -9.223   7.337  67.587  1.00  0.00    -0.126 C  
HETATM   18  O3* UNL     1      -8.942   6.956  68.938  1.00  0.00    -0.132 OA 
HETATM   19  O4* UNL     1      -8.503   9.603  67.293  1.00  0.00    -0.129 OA 
HETATM   20  H3* UNL     1      -8.185   6.383  68.936  1.00  0.00     0.000 HD 
BRANCH  16  21
HETATM   21  C5* UNL     1      -7.820   8.057  65.574  1.00  0.00    -0.106 C  
HETATM   22  O5* UNL     1      -7.331   9.263  64.994  1.00  0.00    -0.098 OA 
HETATM   23  H5* UNL     1      -7.162   9.155  64.066  1.00  0.00     0.000 HD 
ENDBRANCH  16  21
ENDBRANCH   8  14
TORSDOF 2
ENDMDL
MODEL      126
REMARK 921   NORMALIZED FREE ENERGY PREDICTED BY IDOCK:   -4.58 KCAL/MOL
REMARK 922        TOTAL FREE ENERGY PREDICTED BY IDOCK:   -5.46 KCAL/MOL
REMARK 923 INTER-LIGAND FREE ENERGY PREDICTED BY IDOCK:   -5.14 KCAL/MOL
REMARK 924 INTRA-LIGAND FREE ENERGY PREDICTED BY IDOCK:   -0.31 KCAL/MOL
REMARK 927      BINDING AFFINITY PREDICTED BY RF-SCORE:    0.00 PKD
ROOT
HETATM    1  N   UNL     1     -11.587  15.646  70.430  1.00  0.00    -0.317 NA 
HETATM    2  C   UNL     1     -11.615  14.386  69.848  1.00  0.00    -0.284 A  
HETATM    3  H1  UNL     1     -11.926  15.829  71.375  1.00  0.00     0.000 HD 
HETATM    4  H2  UNL     1     -12.077  16.283  69.802  1.00  0.00     0.000 HD 
HETATM    5  C   UNL     1     -11.149  14.134  68.545  1.00  0.00    -0.255 A  
HETATM    6  N   UNL     1     -10.619  14.954  67.573  1.00  0.00    -0.262 NA 
HETATM    7  C   UNL     1     -10.341  14.147  66.569  1.00  0.00    -0.284 A  
HETATM    8  N   UNL     1     -10.698  12.852  66.833  1.00  0.00    -0.256 NA 
HETATM    9  C   UNL     1     -11.216  12.823  68.100  1.00  0.00    -0.272 A  
HETATM   10  N   UNL     1     -12.120  13.359  70.566  1.00  0.00    -0.347 NA 
HETATM   11  N   UNL     1     -11.689  11.763  68.774  1.00  0.00    -0.307 NA 
HETATM   12 CL   UNL     1     -12.766  10.879  70.959  1.00  0.00    -0.485 Cl 
HETATM   13  C   UNL     1     -12.117  12.138  69.998  1.00  0.00    -0.277 A  
ENDROOT
BRANCH   8  14
HETATM   14  C1* UNL     1     -10.520  11.698  65.973  1.00  0.00    -0.251 C  
HETATM   15  C2* UNL     1     -10.046  12.036  64.567  1.00  0.00    -0.293 C  
HETATM   16  C4* UNL     1      -8.798  10.199  65.449  1.00  0.00    -0.173 C  
HETATM   17  C3* UNL     1      -9.390  10.745  64.147  1.00  0.00    -0.252 C  
HETATM   18  O3* UNL     1     -10.408   9.852  63.681  1.00  0.00    -0.210 OA 
HETATM   19  O4* UNL     1      -9.517  10.827  66.538  1.00  0.00    -0.164 OA 
HETATM   20  H3* UNL     1      -9.995   9.039  63.416  1.00  0.00     0.000 HD 
BRANCH  16  21
HETATM   21  C5* UNL     1      -7.311  10.518  65.617  1.00  0.00    -0.126 C  
HETATM   22  O5* UNL     1      -6.709  10.849  64.369  1.00  0.00    -0.329 OA 
HETATM   23  H5* UNL     1      -5.786  11.047  64.473  1.00  0.00     0.000 HD 
ENDBRANCH  16  21
ENDBRANCH   8  14
TORSDOF 2
ENDMDL
MODEL      127
REMARK 921   NORMALIZED FREE ENERGY PREDICTED BY IDOCK:   -4.57 KCAL/MOL
REMARK 922        TOTAL FREE ENERGY PREDICTED BY IDOCK:   -5.45 KCAL/MOL
REMARK 923 INTER-LIGAND FREE ENERGY PREDICTED BY IDOCK:   -5.15 KCAL/MOL
REMARK 924 INTRA-LIGAND FREE ENERGY PREDICTED BY IDOCK:   -0.30 KCAL/MOL
REMARK 927      BINDING AFFINITY PREDICTED BY RF-SCORE:    0.00 PKD
ROOT
HETATM    1  N   UNL     1      -9.802  19.375  69.054  1.00  0.00    -0.439 NA 
HETATM    2  C   UNL     1      -9.341  18.157  68.575  1.00  0.00    -0.310 A  
HETATM    3  H1  UNL     1      -9.296  20.251  68.924  1.00  0.00     0.000 HD 
HETATM    4  H2  UNL     1      -9.970  19.265  70.054  1.00  0.00     0.000 HD 
HETATM    5  C   UNL     1     -10.040  16.949  68.755  1.00  0.00    -0.295 A  
HETATM    6  N   UNL     1     -11.220  16.645  69.397  1.00  0.00    -0.180 NA 
HETATM    7  C   UNL     1     -11.381  15.352  69.209  1.00  0.00    -0.315 A  
HETATM    8  N   UNL     1     -10.343  14.799  68.506  1.00  0.00    -0.231 NA 
HETATM    9  C   UNL     1      -9.473  15.811  68.203  1.00  0.00    -0.199 A  
HETATM   10  N   UNL     1      -8.165  18.133  67.912  1.00  0.00    -0.244 NA 
HETATM   11  N   UNL     1      -8.320  15.731  67.520  1.00  0.00    -0.159 NA 
HETATM   12 CL   UNL     1      -6.248  16.984  66.596  1.00  0.00    -0.240 Cl 
HETATM   13  C   UNL     1      -7.743  16.948  67.430  1.00  0.00    -0.171 A  
ENDROOT
BRANCH   8  14
HETATM   14  C1* UNL     1     -10.197  13.415  68.097  1.00  0.00    -0.246 C  
HETATM   15  C2* UNL     1     -11.294  12.495  68.609  1.00  0.00    -0.329 C  
HETATM   16  C4* UNL     1     -10.869  12.079  66.294  1.00  0.00    -0.279 C  
HETATM   17  C3* UNL     1     -11.249  11.375  67.600  1.00  0.00    -0.283 C  
HETATM   18  O3* UNL     1     -10.202  10.473  67.972  1.00  0.00    -0.157 OA 
HETATM   19  O4* UNL     1     -10.239  13.333  66.657  1.00  0.00    -0.256 OA 
HETATM   20  H3* UNL     1     -10.174   9.768  67.336  1.00  0.00     0.000 HD 
BRANCH  16  21
HETATM   21  C5* UNL     1     -12.073  12.394  65.404  1.00  0.00    -0.365 C  
HETATM   22  O5* UNL     1     -12.525  13.731  65.601  1.00  0.00    -0.455 OA 
HETATM   23  H5* UNL     1     -13.272  13.927  65.049  1.00  0.00     0.000 HD 
ENDBRANCH  16  21
ENDBRANCH   8  14
TORSDOF 2
ENDMDL
MODEL      128
REMARK 921   NORMALIZED FREE ENERGY PREDICTED BY IDOCK:   -4.56 KCAL/MOL
REMARK 922        TOTAL FREE ENERGY PREDICTED BY IDOCK:   -5.43 KCAL/MOL
REMARK 923 INTER-LIGAND FREE ENERGY PREDICTED BY IDOCK:   -5.56 KCAL/MOL
REMARK 924 INTRA-LIGAND FREE ENERGY PREDICTED BY IDOCK:    0.13 KCAL/MOL
REMARK 927      BINDING AFFINITY PREDICTED BY RF-SCORE:    0.00 PKD
ROOT
HETATM    1  N   UNL     1     -12.492  13.494  65.335  1.00  0.00    -0.474 NA 
HETATM    2  C   UNL     1     -11.716  12.389  65.656  1.00  0.00    -0.414 A  
HETATM    3  H1  UNL     1     -12.573  13.860  64.387  1.00  0.00     0.000 HD 
HETATM    4  H2  UNL     1     -12.191  14.263  65.934  1.00  0.00     0.000 HD 
HETATM    5  C   UNL     1     -11.604  11.885  66.964  1.00  0.00    -0.291 A  
HETATM    6  N   UNL     1     -12.138  12.295  68.167  1.00  0.00    -0.382 NA 
HETATM    7  C   UNL     1     -11.703  11.414  69.044  1.00  0.00    -0.343 A  
HETATM    8  N   UNL     1     -10.884  10.477  68.473  1.00  0.00    -0.217 NA 
HETATM    9  C   UNL     1     -10.812  10.761  67.136  1.00  0.00    -0.277 A  
HETATM   10  N   UNL     1     -11.032  11.777  64.665  1.00  0.00    -0.305 NA 
HETATM   11  N   UNL     1     -10.126  10.102  66.188  1.00  0.00    -0.249 NA 
HETATM   12 CL   UNL     1      -9.463   9.959  63.687  1.00  0.00    -0.256 Cl 
HETATM   13  C   UNL     1     -10.303  10.691  64.986  1.00  0.00    -0.271 A  
ENDROOT
BRANCH   8  14
HETATM   14  C1* UNL     1     -10.247   9.350  69.127  1.00  0.00    -0.202 C  
HETATM   15  C2* UNL     1     -11.120   8.653  70.159  1.00  0.00    -0.199 C  
HETATM   16  C4* UNL     1     -10.040   7.046  68.760  1.00  0.00    -0.170 C  
HETATM   17  C3* UNL     1     -10.507   7.277  70.200  1.00  0.00    -0.218 C  
HETATM   18  O3* UNL     1      -9.367   7.316  71.066  1.00  0.00    -0.158 OA 
HETATM   19  O4* UNL     1      -9.909   8.350  68.143  1.00  0.00    -0.158 OA 
HETATM   20  H3* UNL     1      -8.981   6.448  71.091  1.00  0.00     0.000 HD 
BRANCH  16  21
HETATM   21  C5* UNL     1     -11.026   6.225  67.928  1.00  0.00    -0.327 C  
HETATM   22  O5* UNL     1     -11.480   6.957  66.793  1.00  0.00    -0.648 OA 
HETATM   23  H5* UNL     1     -12.092   6.448  66.277  1.00  0.00     0.000 HD 
ENDBRANCH  16  21
ENDBRANCH   8  14
TORSDOF 2
ENDMDL
MODEL      129
REMARK 921   NORMALIZED FREE ENERGY PREDICTED BY IDOCK:   -4.56 KCAL/MOL
REMARK 922        TOTAL FREE ENERGY PREDICTED BY IDOCK:   -5.43 KCAL/MOL
REMARK 923 INTER-LIGAND FREE ENERGY PREDICTED BY IDOCK:   -5.05 KCAL/MOL
REMARK 924 INTRA-LIGAND FREE ENERGY PREDICTED BY IDOCK:   -0.39 KCAL/MOL
REMARK 927      BINDING AFFINITY PREDICTED BY RF-SCORE:    0.00 PKD
ROOT
HETATM    1  N   UNL     1     -11.507  11.808  66.131  1.00  0.00    -0.387 NA 
HETATM    2  C   UNL     1     -10.528  12.546  66.782  1.00  0.00    -0.225 A  
HETATM    3  H1  UNL     1     -11.466  10.794  66.035  1.00  0.00     0.000 HD 
HETATM    4  H2  UNL     1     -11.610  12.199  65.194  1.00  0.00     0.000 HD 
HETATM    5  C   UNL     1     -10.584  13.945  66.914  1.00  0.00    -0.280 A  
HETATM    6  N   UNL     1     -11.490  14.885  66.473  1.00  0.00    -0.324 NA 
HETATM    7  C   UNL     1     -11.028  16.033  66.922  1.00  0.00    -0.124 A  
HETATM    8  N   UNL     1      -9.848  15.885  67.602  1.00  0.00    -0.232 NA 
HETATM    9  C   UNL     1      -9.549  14.549  67.610  1.00  0.00    -0.214 A  
HETATM   10  N   UNL     1      -9.472  11.887  67.307  1.00  0.00    -0.174 NA 
HETATM   11  N   UNL     1      -8.487  13.945  68.167  1.00  0.00    -0.163 NA 
HETATM   12 CL   UNL     1      -7.233  11.720  68.604  1.00  0.00    -0.106 Cl 
HETATM   13  C   UNL     1      -8.543  12.612  67.959  1.00  0.00    -0.189 A  
ENDROOT
BRANCH   8  14
HETATM   14  C1* UNL     1      -9.071  16.923  68.251  1.00  0.00    -0.235 C  
HETATM   15  C2* UNL     1      -7.956  17.497  67.390  1.00  0.00    -0.217 C  
HETATM   16  C4* UNL     1      -9.164  19.253  68.469  1.00  0.00    -0.382 C  
HETATM   17  C3* UNL     1      -7.758  18.856  68.012  1.00  0.00    -0.271 C  
HETATM   18  O3* UNL     1      -6.913  18.709  69.158  1.00  0.00    -0.290 OA 
HETATM   19  O4* UNL     1      -9.933  18.031  68.586  1.00  0.00    -0.357 OA 
HETATM   20  H3* UNL     1      -6.788  19.566  69.550  1.00  0.00     0.000 HD 
BRANCH  16  21
HETATM   21  C5* UNL     1      -9.884  20.172  67.480  1.00  0.00    -0.435 C  
HETATM   22  O5* UNL     1     -10.761  19.434  66.634  1.00  0.00    -0.443 OA 
HETATM   23  H5* UNL     1     -11.208  20.004  66.020  1.00  0.00     0.000 HD 
ENDBRANCH  16  21
ENDBRANCH   8  14
TORSDOF 2
ENDMDL
MODEL      130
REMARK 921   NORMALIZED FREE ENERGY PREDICTED BY IDOCK:   -4.56 KCAL/MOL
REMARK 922        TOTAL FREE ENERGY PREDICTED BY IDOCK:   -5.43 KCAL/MOL
REMARK 923 INTER-LIGAND FREE ENERGY PREDICTED BY IDOCK:   -5.25 KCAL/MOL
REMARK 924 INTRA-LIGAND FREE ENERGY PREDICTED BY IDOCK:   -0.18 KCAL/MOL
REMARK 927      BINDING AFFINITY PREDICTED BY RF-SCORE:    0.00 PKD
ROOT
HETATM    1  N   UNL     1     -10.143  12.977  63.868  1.00  0.00    -0.757 NA 
HETATM    2  C   UNL     1     -10.407  12.783  65.216  1.00  0.00    -0.296 A  
HETATM    3  H1  UNL     1     -10.334  13.855  63.385  1.00  0.00     0.000 HD 
HETATM    4  H2  UNL     1     -10.621  12.236  63.354  1.00  0.00     0.000 HD 
HETATM    5  C   UNL     1     -10.145  11.572  65.882  1.00  0.00    -0.231 A  
HETATM    6  N   UNL     1      -9.640  10.365  65.451  1.00  0.00    -0.225 NA 
HETATM    7  C   UNL     1      -9.596   9.614  66.532  1.00  0.00    -0.196 A  
HETATM    8  N   UNL     1     -10.083  10.266  67.634  1.00  0.00    -0.182 NA 
HETATM    9  C   UNL     1     -10.437  11.527  67.236  1.00  0.00    -0.212 A  
HETATM   10  N   UNL     1     -10.947  13.804  65.916  1.00  0.00    -0.282 NA 
HETATM   11  N   UNL     1     -10.956  12.514  67.985  1.00  0.00    -0.221 NA 
HETATM   12 CL   UNL     1     -11.855  14.942  68.062  1.00  0.00    -0.339 Cl 
HETATM   13  C   UNL     1     -11.174  13.611  67.230  1.00  0.00    -0.309 A  
ENDROOT
BRANCH   8  14
HETATM   14  C1* UNL     1     -10.165   9.760  68.990  1.00  0.00    -0.203 C  
HETATM   15  C2* UNL     1     -11.584   9.652  69.530  1.00  0.00     0.092 C  
HETATM   16  C4* UNL     1     -10.346   7.671  70.034  1.00  0.00    -0.223 C  
HETATM   17  C3* UNL     1     -11.424   8.600  70.598  1.00  0.00    -0.228 C  
HETATM   18  O3* UNL     1     -10.930   9.231  71.784  1.00  0.00    -0.369 OA 
HETATM   19  O4* UNL     1      -9.612   8.429  69.041  1.00  0.00    -0.157 OA 
HETATM   20  H3* UNL     1     -10.830   8.568  72.457  1.00  0.00     0.000 HD 
BRANCH  16  21
HETATM   21  C5* UNL     1     -10.917   6.426  69.352  1.00  0.00    -0.359 C  
HETATM   22  O5* UNL     1     -11.366   6.719  68.032  1.00  0.00    -0.552 OA 
HETATM   23  H5* UNL     1     -11.721   5.947  67.609  1.00  0.00     0.000 HD 
ENDBRANCH  16  21
ENDBRANCH   8  14
TORSDOF 2
ENDMDL
MODEL      131
REMARK 921   NORMALIZED FREE ENERGY PREDICTED BY IDOCK:   -4.54 KCAL/MOL
REMARK 922        TOTAL FREE ENERGY PREDICTED BY IDOCK:   -5.41 KCAL/MOL
REMARK 923 INTER-LIGAND FREE ENERGY PREDICTED BY IDOCK:   -4.98 KCAL/MOL
REMARK 924 INTRA-LIGAND FREE ENERGY PREDICTED BY IDOCK:   -0.43 KCAL/MOL
REMARK 927      BINDING AFFINITY PREDICTED BY RF-SCORE:    0.00 PKD
ROOT
HETATM    1  N   UNL     1     -13.396  11.189  72.281  1.00  0.00    -0.552 NA 
HETATM    2  C   UNL     1     -12.651  11.715  71.236  1.00  0.00    -0.320 A  
HETATM    3  H1  UNL     1     -13.963  11.764  72.903  1.00  0.00     0.000 HD 
HETATM    4  H2  UNL     1     -12.762  10.643  72.864  1.00  0.00     0.000 HD 
HETATM    5  C   UNL     1     -11.868  10.921  70.377  1.00  0.00    -0.357 A  
HETATM    6  N   UNL     1     -11.617   9.567  70.335  1.00  0.00    -0.243 NA 
HETATM    7  C   UNL     1     -10.830   9.404  69.292  1.00  0.00    -0.172 A  
HETATM    8  N   UNL     1     -10.532  10.592  68.679  1.00  0.00    -0.180 NA 
HETATM    9  C   UNL     1     -11.193  11.578  69.361  1.00  0.00    -0.259 A  
HETATM   10  N   UNL     1     -12.674  13.051  71.041  1.00  0.00    -0.309 NA 
HETATM   11  N   UNL     1     -11.194  12.897  69.109  1.00  0.00    -0.254 NA 
HETATM   12 CL   UNL     1     -12.039  15.244  69.810  1.00  0.00    -0.357 Cl 
HETATM   13  C   UNL     1     -11.966  13.545  70.007  1.00  0.00    -0.340 A  
ENDROOT
BRANCH   8  14
HETATM   14  C1* UNL     1      -9.718  10.791  67.495  1.00  0.00    -0.166 C  
HETATM   15  C2* UNL     1      -8.244  10.470  67.691  1.00  0.00    -0.111 C  
HETATM   16  C4* UNL     1      -9.040   9.522  65.647  1.00  0.00    -0.201 C  
HETATM   17  C3* UNL     1      -7.806  10.172  66.279  1.00  0.00    -0.113 C  
HETATM   18  O3* UNL     1      -7.536  11.413  65.619  1.00  0.00    -0.336 OA 
HETATM   19  O4* UNL     1     -10.184   9.923  66.441  1.00  0.00    -0.242 OA 
HETATM   20  H3* UNL     1      -7.260  11.225  64.729  1.00  0.00     0.000 HD 
BRANCH  16  21
HETATM   21  C5* UNL     1      -8.982   7.993  65.639  1.00  0.00    -0.054 C  
HETATM   22  O5* UNL     1     -10.024   7.433  66.433  1.00  0.00    -0.416 OA 
HETATM   23  H5* UNL     1      -9.988   6.484  66.429  1.00  0.00     0.000 HD 
ENDBRANCH  16  21
ENDBRANCH   8  14
TORSDOF 2
ENDMDL
MODEL      132
REMARK 921   NORMALIZED FREE ENERGY PREDICTED BY IDOCK:   -4.54 KCAL/MOL
REMARK 922        TOTAL FREE ENERGY PREDICTED BY IDOCK:   -5.41 KCAL/MOL
REMARK 923 INTER-LIGAND FREE ENERGY PREDICTED BY IDOCK:   -5.10 KCAL/MOL
REMARK 924 INTRA-LIGAND FREE ENERGY PREDICTED BY IDOCK:   -0.32 KCAL/MOL
REMARK 927      BINDING AFFINITY PREDICTED BY RF-SCORE:    0.00 PKD
ROOT
HETATM    1  N   UNL     1      -6.627  18.326  69.609  1.00  0.00    -0.150 NA 
HETATM    2  C   UNL     1      -6.977  17.078  69.115  1.00  0.00    -0.228 A  
HETATM    3  H1  UNL     1      -5.696  18.541  69.966  1.00  0.00     0.000 HD 
HETATM    4  H2  UNL     1      -7.296  18.563  70.342  1.00  0.00     0.000 HD 
HETATM    5  C   UNL     1      -8.261  16.781  68.624  1.00  0.00    -0.252 A  
HETATM    6  N   UNL     1      -9.413  17.530  68.522  1.00  0.00    -0.288 NA 
HETATM    7  C   UNL     1     -10.288  16.724  67.956  1.00  0.00    -0.317 A  
HETATM    8  N   UNL     1      -9.767  15.479  67.720  1.00  0.00    -0.211 NA 
HETATM    9  C   UNL     1      -8.464  15.498  68.139  1.00  0.00    -0.147 A  
HETATM   10  N   UNL     1      -6.041  16.103  69.113  1.00  0.00    -0.132 NA 
HETATM   11  N   UNL     1      -7.569  14.499  68.095  1.00  0.00    -0.114 NA 
HETATM   12 CL   UNL     1      -5.157  13.714  68.629  1.00  0.00    -0.072 Cl 
HETATM   13  C   UNL     1      -6.387  14.904  68.607  1.00  0.00    -0.084 A  
ENDROOT
BRANCH   8  14
HETATM   14  C1* UNL     1     -10.430  14.353  67.091  1.00  0.00    -0.263 C  
HETATM   15  C2* UNL     1     -11.906  14.228  67.437  1.00  0.00    -0.441 C  
HETATM   16  C4* UNL     1     -11.572  13.933  65.090  1.00  0.00    -0.335 C  
HETATM   17  C3* UNL     1     -12.431  13.446  66.260  1.00  0.00    -0.276 C  
HETATM   18  O3* UNL     1     -12.171  12.057  66.489  1.00  0.00    -0.548 OA 
HETATM   19  O4* UNL     1     -10.362  14.494  65.657  1.00  0.00    -0.310 OA 
HETATM   20  H3* UNL     1     -12.502  11.564  65.747  1.00  0.00     0.000 HD 
BRANCH  16  21
HETATM   21  C5* UNL     1     -12.250  15.020  64.253  1.00  0.00    -0.293 C  
HETATM   22  O5* UNL     1     -12.607  14.531  62.963  1.00  0.00    -0.637 OA 
HETATM   23  H5* UNL     1     -13.027  15.205  62.443  1.00  0.00     0.000 HD 
ENDBRANCH  16  21
ENDBRANCH   8  14
TORSDOF 2
ENDMDL
MODEL      133
REMARK 921   NORMALIZED FREE ENERGY PREDICTED BY IDOCK:   -4.53 KCAL/MOL
REMARK 922        TOTAL FREE ENERGY PREDICTED BY IDOCK:   -5.40 KCAL/MOL
REMARK 923 INTER-LIGAND FREE ENERGY PREDICTED BY IDOCK:   -5.26 KCAL/MOL
REMARK 924 INTRA-LIGAND FREE ENERGY PREDICTED BY IDOCK:   -0.14 KCAL/MOL
REMARK 927      BINDING AFFINITY PREDICTED BY RF-SCORE:    0.00 PKD
ROOT
HETATM    1  N   UNL     1     -11.791  12.520  70.032  1.00  0.00    -0.478 NA 
HETATM    2  C   UNL     1     -11.837  11.189  70.421  1.00  0.00    -0.369 A  
HETATM    3  H1  UNL     1     -12.466  13.215  70.350  1.00  0.00     0.000 HD 
HETATM    4  H2  UNL     1     -11.790  12.540  69.012  1.00  0.00     0.000 HD 
HETATM    5  C   UNL     1     -10.905  10.230  69.982  1.00  0.00    -0.307 A  
HETATM    6  N   UNL     1      -9.827  10.305  69.128  1.00  0.00    -0.205 NA 
HETATM    7  C   UNL     1      -9.317   9.091  69.124  1.00  0.00    -0.148 A  
HETATM    8  N   UNL     1     -10.035   8.227  69.907  1.00  0.00    -0.187 NA 
HETATM    9  C   UNL     1     -11.058   8.942  70.469  1.00  0.00    -0.251 A  
HETATM   10  N   UNL     1     -12.825  10.798  71.253  1.00  0.00    -0.408 NA 
HETATM   11  N   UNL     1     -12.007   8.502  71.311  1.00  0.00    -0.291 NA 
HETATM   12 CL   UNL     1     -14.117   9.077  72.701  1.00  0.00    -0.451 Cl 
HETATM   13  C   UNL     1     -12.842   9.509  71.643  1.00  0.00    -0.393 A  
ENDROOT
BRANCH   8  14
HETATM   14  C1* UNL     1      -9.753   6.826  70.157  1.00  0.00    -0.167 C  
HETATM   15  C2* UNL     1      -8.728   6.583  71.255  1.00  0.00    -0.130 C  
HETATM   16  C4* UNL     1     -10.600   5.124  71.524  1.00  0.00    -0.147 C  
HETATM   17  C3* UNL     1      -9.081   5.186  71.698  1.00  0.00    -0.141 C  
HETATM   18  O3* UNL     1      -8.464   4.258  70.799  1.00  0.00    -0.076 OA 
HETATM   19  O4* UNL     1     -10.962   6.161  70.579  1.00  0.00    -0.274 OA 
HETATM   20  H3* UNL     1      -8.686   3.378  71.079  1.00  0.00     0.000 HD 
BRANCH  16  21
HETATM   21  C5* UNL     1     -11.369   5.378  72.823  1.00  0.00    -0.296 C  
HETATM   22  O5* UNL     1     -12.633   5.982  72.565  1.00  0.00    -0.540 OA 
HETATM   23  H5* UNL     1     -13.110   6.140  73.371  1.00  0.00     0.000 HD 
ENDBRANCH  16  21
ENDBRANCH   8  14
TORSDOF 2
ENDMDL
MODEL      134
REMARK 921   NORMALIZED FREE ENERGY PREDICTED BY IDOCK:   -4.53 KCAL/MOL
REMARK 922        TOTAL FREE ENERGY PREDICTED BY IDOCK:   -5.40 KCAL/MOL
REMARK 923 INTER-LIGAND FREE ENERGY PREDICTED BY IDOCK:   -5.28 KCAL/MOL
REMARK 924 INTRA-LIGAND FREE ENERGY PREDICTED BY IDOCK:   -0.12 KCAL/MOL
REMARK 927      BINDING AFFINITY PREDICTED BY RF-SCORE:    0.00 PKD
ROOT
HETATM    1  N   UNL     1      -9.813  20.297  65.342  1.00  0.00    -0.416 NA 
HETATM    2  C   UNL     1      -9.518  19.392  66.351  1.00  0.00    -0.373 A  
HETATM    3  H1  UNL     1      -9.486  21.263  65.348  1.00  0.00     0.000 HD 
HETATM    4  H2  UNL     1     -10.828  20.320  65.240  1.00  0.00     0.000 HD 
HETATM    5  C   UNL     1      -9.970  18.060  66.343  1.00  0.00    -0.362 A  
HETATM    6  N   UNL     1     -10.760  17.353  65.462  1.00  0.00    -0.522 NA 
HETATM    7  C   UNL     1     -10.818  16.138  65.967  1.00  0.00    -0.154 A  
HETATM    8  N   UNL     1     -10.134  16.035  67.149  1.00  0.00    -0.264 NA 
HETATM    9  C   UNL     1      -9.579  17.261  67.405  1.00  0.00    -0.252 A  
HETATM   10  N   UNL     1      -8.767  19.815  67.391  1.00  0.00    -0.315 NA 
HETATM   11  N   UNL     1      -8.821  17.620  68.453  1.00  0.00    -0.276 NA 
HETATM   12 CL   UNL     1      -7.509  19.514  69.639  1.00  0.00    -0.132 Cl 
HETATM   13  C   UNL     1      -8.466  18.919  68.351  1.00  0.00    -0.350 A  
ENDROOT
BRANCH   8  14
HETATM   14  C1* UNL     1      -9.964  14.850  67.967  1.00  0.00    -0.220 C  
HETATM   15  C2* UNL     1     -10.453  13.566  67.313  1.00  0.00    -0.248 C  
HETATM   16  C4* UNL     1      -8.311  13.228  68.315  1.00  0.00    -0.154 C  
HETATM   17  C3* UNL     1      -9.642  12.524  68.041  1.00  0.00    -0.212 C  
HETATM   18  O3* UNL     1     -10.289  12.237  69.285  1.00  0.00    -0.419 OA 
HETATM   19  O4* UNL     1      -8.562  14.653  68.243  1.00  0.00    -0.154 OA 
HETATM   20  H3* UNL     1      -9.778  11.580  69.744  1.00  0.00     0.000 HD 
BRANCH  16  21
HETATM   21  C5* UNL     1      -7.225  12.887  67.292  1.00  0.00    -0.067 C  
HETATM   22  O5* UNL     1      -6.241  13.915  67.221  1.00  0.00    -0.389 OA 
HETATM   23  H5* UNL     1      -5.567  13.704  66.587  1.00  0.00     0.000 HD 
ENDBRANCH  16  21
ENDBRANCH   8  14
TORSDOF 2
ENDMDL
MODEL      135
REMARK 921   NORMALIZED FREE ENERGY PREDICTED BY IDOCK:   -4.51 KCAL/MOL
REMARK 922        TOTAL FREE ENERGY PREDICTED BY IDOCK:   -5.38 KCAL/MOL
REMARK 923 INTER-LIGAND FREE ENERGY PREDICTED BY IDOCK:   -4.95 KCAL/MOL
REMARK 924 INTRA-LIGAND FREE ENERGY PREDICTED BY IDOCK:   -0.43 KCAL/MOL
REMARK 927      BINDING AFFINITY PREDICTED BY RF-SCORE:    0.00 PKD
ROOT
HETATM    1  N   UNL     1     -12.384  16.329  70.228  1.00  0.00    -0.320 NA 
HETATM    2  C   UNL     1     -11.711  15.512  69.331  1.00  0.00    -0.367 A  
HETATM    3  H1  UNL     1     -12.382  17.346  70.162  1.00  0.00     0.000 HD 
HETATM    4  H2  UNL     1     -12.061  16.083  71.165  1.00  0.00     0.000 HD 
HETATM    5  C   UNL     1     -11.712  14.108  69.422  1.00  0.00    -0.313 A  
HETATM    6  N   UNL     1     -12.282  13.237  70.324  1.00  0.00    -0.340 NA 
HETATM    7  C   UNL     1     -11.964  12.039  69.879  1.00  0.00    -0.318 A  
HETATM    8  N   UNL     1     -11.185  12.095  68.753  1.00  0.00    -0.245 NA 
HETATM    9  C   UNL     1     -11.016  13.418  68.443  1.00  0.00    -0.267 A  
HETATM   10  N   UNL     1     -11.018  16.096  68.328  1.00  0.00    -0.327 NA 
HETATM   11  N   UNL     1     -10.328  13.942  67.416  1.00  0.00    -0.251 NA 
HETATM   12 CL   UNL     1      -9.535  16.089  66.201  1.00  0.00    -0.341 Cl 
HETATM   13  C   UNL     1     -10.391  15.291  67.449  1.00  0.00    -0.256 A  
ENDROOT
BRANCH   8  14
HETATM   14  C1* UNL     1     -10.672  10.979  67.982  1.00  0.00    -0.217 C  
HETATM   15  C2* UNL     1     -11.015  11.036  66.501  1.00  0.00    -0.228 C  
HETATM   16  C4* UNL     1      -8.715  10.465  66.804  1.00  0.00    -0.127 C  
HETATM   17  C3* UNL     1      -9.920  10.189  65.902  1.00  0.00    -0.267 C  
HETATM   18  O3* UNL     1     -10.297   8.813  66.023  1.00  0.00    -0.341 OA 
HETATM   19  O4* UNL     1      -9.232  10.961  68.063  1.00  0.00    -0.148 OA 
HETATM   20  H3* UNL     1      -9.607   8.280  65.646  1.00  0.00     0.000 HD 
BRANCH  16  21
HETATM   21  C5* UNL     1      -7.762  11.518  66.235  1.00  0.00     0.070 C  
HETATM   22  O5* UNL     1      -7.832  12.732  66.977  1.00  0.00    -0.343 OA 
HETATM   23  H5* UNL     1      -7.241  13.386  66.624  1.00  0.00     0.000 HD 
ENDBRANCH  16  21
ENDBRANCH   8  14
TORSDOF 2
ENDMDL
MODEL      136
REMARK 921   NORMALIZED FREE ENERGY PREDICTED BY IDOCK:   -4.49 KCAL/MOL
REMARK 922        TOTAL FREE ENERGY PREDICTED BY IDOCK:   -5.36 KCAL/MOL
REMARK 923 INTER-LIGAND FREE ENERGY PREDICTED BY IDOCK:   -5.32 KCAL/MOL
REMARK 924 INTRA-LIGAND FREE ENERGY PREDICTED BY IDOCK:   -0.04 KCAL/MOL
REMARK 927      BINDING AFFINITY PREDICTED BY RF-SCORE:    0.00 PKD
ROOT
HETATM    1  N   UNL     1     -10.299  19.031  68.712  1.00  0.00    -0.488 NA 
HETATM    2  C   UNL     1     -10.518  17.662  68.653  1.00  0.00    -0.317 A  
HETATM    3  H1  UNL     1     -10.493  19.590  69.543  1.00  0.00     0.000 HD 
HETATM    4  H2  UNL     1     -10.806  19.455  67.935  1.00  0.00     0.000 HD 
HETATM    5  C   UNL     1     -10.251  16.892  67.506  1.00  0.00    -0.295 A  
HETATM    6  N   UNL     1      -9.780  17.222  66.254  1.00  0.00    -0.361 NA 
HETATM    7  C   UNL     1      -9.710  16.076  65.609  1.00  0.00    -0.238 A  
HETATM    8  N   UNL     1     -10.148  15.026  66.372  1.00  0.00    -0.265 NA 
HETATM    9  C   UNL     1     -10.497  15.531  67.596  1.00  0.00    -0.279 A  
HETATM   10  N   UNL     1     -11.018  17.046  69.746  1.00  0.00     0.002 NA 
HETATM   11  N   UNL     1     -10.973  14.863  68.659  1.00  0.00    -0.247 NA 
HETATM   12 CL   UNL     1     -11.832  14.990  71.100  1.00  0.00    -0.355 Cl 
HETATM   13  C   UNL     1     -11.201  15.713  69.683  1.00  0.00    -0.310 A  
ENDROOT
BRANCH   8  14
HETATM   14  C1* UNL     1     -10.190  13.625  65.999  1.00  0.00    -0.307 C  
HETATM   15  C2* UNL     1      -9.050  12.795  66.569  1.00  0.00    -0.150 C  
HETATM   16  C4* UNL     1     -11.132  11.653  66.842  1.00  0.00    -0.308 C  
HETATM   17  C3* UNL     1      -9.647  11.410  66.559  1.00  0.00    -0.198 C  
HETATM   18  O3* UNL     1      -9.500  10.865  65.244  1.00  0.00    -0.196 OA 
HETATM   19  O4* UNL     1     -11.409  13.032  66.495  1.00  0.00    -0.295 OA 
HETATM   20  H3* UNL     1      -9.876   9.992  65.238  1.00  0.00     0.000 HD 
BRANCH  16  21
HETATM   21  C5* UNL     1     -11.509  11.450  68.311  1.00  0.00    -0.299 C  
HETATM   22  O5* UNL     1     -11.300  10.100  68.716  1.00  0.00    -0.414 OA 
HETATM   23  H5* UNL     1     -11.534   9.974  69.627  1.00  0.00     0.000 HD 
ENDBRANCH  16  21
ENDBRANCH   8  14
TORSDOF 2
ENDMDL
MODEL      137
REMARK 921   NORMALIZED FREE ENERGY PREDICTED BY IDOCK:   -4.48 KCAL/MOL
REMARK 922        TOTAL FREE ENERGY PREDICTED BY IDOCK:   -5.34 KCAL/MOL
REMARK 923 INTER-LIGAND FREE ENERGY PREDICTED BY IDOCK:   -5.44 KCAL/MOL
REMARK 924 INTRA-LIGAND FREE ENERGY PREDICTED BY IDOCK:    0.10 KCAL/MOL
REMARK 927      BINDING AFFINITY PREDICTED BY RF-SCORE:    0.00 PKD
ROOT
HETATM    1  N   UNL     1     -13.485  15.631  71.011  1.00  0.00    -0.717 NA 
HETATM    2  C   UNL     1     -12.757  14.608  70.421  1.00  0.00    -0.316 A  
HETATM    3  H1  UNL     1     -13.478  16.590  70.664  1.00  0.00     0.000 HD 
HETATM    4  H2  UNL     1     -13.225  15.662  71.997  1.00  0.00     0.000 HD 
HETATM    5  C   UNL     1     -12.766  13.286  70.901  1.00  0.00    -0.254 A  
HETATM    6  N   UNL     1     -13.395  12.690  71.973  1.00  0.00    -0.504 NA 
HETATM    7  C   UNL     1     -13.050  11.421  71.901  1.00  0.00    -0.400 A  
HETATM    8  N   UNL     1     -12.200  11.175  70.856  1.00  0.00    -0.369 NA 
HETATM    9  C   UNL     1     -12.009  12.361  70.200  1.00  0.00    -0.298 A  
HETATM   10  N   UNL     1     -11.999  14.900  69.342  1.00  0.00    -0.308 NA 
HETATM   11  N   UNL     1     -11.254  12.590  69.113  1.00  0.00    -0.253 NA 
HETATM   12 CL   UNL     1     -10.381  14.326  67.399  1.00  0.00    -0.258 Cl 
HETATM   13  C   UNL     1     -11.318  13.893  68.764  1.00  0.00    -0.277 A  
ENDROOT
BRANCH   8  14
HETATM   14  C1* UNL     1     -11.639   9.897  70.461  1.00  0.00    -0.309 C  
HETATM   15  C2* UNL     1     -11.534   9.701  68.956  1.00  0.00     0.158 C  
HETATM   16  C4* UNL     1      -9.512   9.017  70.029  1.00  0.00    -0.187 C  
HETATM   17  C3* UNL     1     -10.435   8.673  68.858  1.00  0.00    -0.192 C  
HETATM   18  O3* UNL     1     -11.008   7.379  69.072  1.00  0.00    -0.400 OA 
HETATM   19  O4* UNL     1     -10.297   9.781  70.978  1.00  0.00    -0.273 OA 
HETATM   20  H3* UNL     1     -10.316   6.731  69.010  1.00  0.00     0.000 HD 
BRANCH  16  21
HETATM   21  C5* UNL     1      -8.307   9.866  69.620  1.00  0.00    -0.172 C  
HETATM   22  O5* UNL     1      -8.296  10.106  68.216  1.00  0.00    -0.111 OA 
HETATM   23  H5* UNL     1      -7.548  10.632  67.962  1.00  0.00     0.000 HD 
ENDBRANCH  16  21
ENDBRANCH   8  14
TORSDOF 2
ENDMDL
MODEL      138
REMARK 921   NORMALIZED FREE ENERGY PREDICTED BY IDOCK:   -4.47 KCAL/MOL
REMARK 922        TOTAL FREE ENERGY PREDICTED BY IDOCK:   -5.34 KCAL/MOL
REMARK 923 INTER-LIGAND FREE ENERGY PREDICTED BY IDOCK:   -5.31 KCAL/MOL
REMARK 924 INTRA-LIGAND FREE ENERGY PREDICTED BY IDOCK:   -0.02 KCAL/MOL
REMARK 927      BINDING AFFINITY PREDICTED BY RF-SCORE:    0.00 PKD
ROOT
HETATM    1  N   UNL     1     -12.047  12.478  67.032  1.00  0.00    -0.514 NA 
HETATM    2  C   UNL     1     -11.451  11.410  67.687  1.00  0.00    -0.273 A  
HETATM    3  H1  UNL     1     -11.893  12.680  66.044  1.00  0.00     0.000 HD 
HETATM    4  H2  UNL     1     -11.818  13.323  67.555  1.00  0.00     0.000 HD 
HETATM    5  C   UNL     1     -11.662  11.132  69.049  1.00  0.00    -0.339 A  
HETATM    6  N   UNL     1     -12.405  11.764  70.022  1.00  0.00    -0.204 NA 
HETATM    7  C   UNL     1     -12.240  11.028  71.102  1.00  0.00    -0.310 A  
HETATM    8  N   UNL     1     -11.398   9.970  70.882  1.00  0.00    -0.346 NA 
HETATM    9  C   UNL     1     -11.020  10.018  69.567  1.00  0.00    -0.253 A  
HETATM   10  N   UNL     1     -10.624  10.607  66.982  1.00  0.00    -0.254 NA 
HETATM   11  N   UNL     1     -10.205   9.177  68.912  1.00  0.00    -0.201 NA 
HETATM   12 CL   UNL     1      -9.038   8.578  66.677  1.00  0.00    -0.186 Cl 
HETATM   13  C   UNL     1     -10.072   9.559  67.624  1.00  0.00    -0.205 A  
ENDROOT
BRANCH   8  14
HETATM   14  C1* UNL     1     -11.010   8.943  71.830  1.00  0.00    -0.361 C  
HETATM   15  C2* UNL     1     -12.151   8.038  72.270  1.00  0.00    -0.392 C  
HETATM   16  C4* UNL     1     -10.213   6.742  71.745  1.00  0.00    -0.190 C  
HETATM   17  C3* UNL     1     -11.409   6.798  72.699  1.00  0.00    -0.222 C  
HETATM   18  O3* UNL     1     -10.937   6.995  74.036  1.00  0.00    -0.478 OA 
HETATM   19  O4* UNL     1     -10.021   8.082  71.228  1.00  0.00    -0.171 OA 
HETATM   20  H3* UNL     1     -10.469   6.214  74.307  1.00  0.00     0.000 HD 
BRANCH  16  21
HETATM   21  C5* UNL     1     -10.432   5.804  70.556  1.00  0.00    -0.263 C  
HETATM   22  O5* UNL     1      -9.859   6.337  69.365  1.00  0.00    -0.148 OA 
HETATM   23  H5* UNL     1      -9.995   5.755  68.628  1.00  0.00     0.000 HD 
ENDBRANCH  16  21
ENDBRANCH   8  14
TORSDOF 2
ENDMDL
MODEL      139
REMARK 921   NORMALIZED FREE ENERGY PREDICTED BY IDOCK:   -4.46 KCAL/MOL
REMARK 922        TOTAL FREE ENERGY PREDICTED BY IDOCK:   -5.32 KCAL/MOL
REMARK 923 INTER-LIGAND FREE ENERGY PREDICTED BY IDOCK:   -5.11 KCAL/MOL
REMARK 924 INTRA-LIGAND FREE ENERGY PREDICTED BY IDOCK:   -0.22 KCAL/MOL
REMARK 927      BINDING AFFINITY PREDICTED BY RF-SCORE:    0.00 PKD
ROOT
HETATM    1  N   UNL     1      -5.778   8.527  67.036  1.00  0.00    -0.041 NA 
HETATM    2  C   UNL     1      -6.565   9.627  67.343  1.00  0.00    -0.070 A  
HETATM    3  H1  UNL     1      -4.881   8.342  67.486  1.00  0.00     0.000 HD 
HETATM    4  H2  UNL     1      -5.616   8.539  66.029  1.00  0.00     0.000 HD 
HETATM    5  C   UNL     1      -7.801   9.882  66.722  1.00  0.00    -0.109 A  
HETATM    6  N   UNL     1      -8.499   9.221  65.735  1.00  0.00    -0.129 NA 
HETATM    7  C   UNL     1      -9.607   9.916  65.585  1.00  0.00    -0.256 A  
HETATM    8  N   UNL     1      -9.643  11.014  66.403  1.00  0.00    -0.193 NA 
HETATM    9  C   UNL     1      -8.492  11.007  67.144  1.00  0.00    -0.137 A  
HETATM   10  N   UNL     1      -6.118  10.495  68.277  1.00  0.00    -0.047 NA 
HETATM   11  N   UNL     1      -8.107  11.891  68.077  1.00  0.00    -0.141 NA 
HETATM   12 CL   UNL     1      -6.285  12.604  69.776  1.00  0.00    -0.129 Cl 
HETATM   13  C   UNL     1      -6.904  11.544  68.584  1.00  0.00    -0.077 A  
ENDROOT
BRANCH   8  14
HETATM   14  C1* UNL     1     -10.713  11.986  66.524  1.00  0.00    -0.258 C  
HETATM   15  C2* UNL     1     -10.320  13.399  66.119  1.00  0.00    -0.295 C  
HETATM   16  C4* UNL     1     -12.436  12.818  65.172  1.00  0.00    -0.501 C  
HETATM   17  C3* UNL     1     -11.657  13.997  65.762  1.00  0.00    -0.339 C  
HETATM   18  O3* UNL     1     -12.296  14.429  66.968  1.00  0.00    -0.579 OA 
HETATM   19  O4* UNL     1     -11.806  11.608  65.660  1.00  0.00    -0.278 OA 
HETATM   20  H3* UNL     1     -13.138  14.806  66.743  1.00  0.00     0.000 HD 
BRANCH  16  21
HETATM   21  C5* UNL     1     -12.411  12.781  63.643  1.00  0.00    -0.463 C  
HETATM   22  O5* UNL     1     -12.585  14.084  63.092  1.00  0.00    -1.062 OA 
HETATM   23  H5* UNL     1     -12.570  14.061  62.143  1.00  0.00     0.000 HD 
ENDBRANCH  16  21
ENDBRANCH   8  14
TORSDOF 2
ENDMDL
MODEL      140
REMARK 921   NORMALIZED FREE ENERGY PREDICTED BY IDOCK:   -4.41 KCAL/MOL
REMARK 922        TOTAL FREE ENERGY PREDICTED BY IDOCK:   -5.27 KCAL/MOL
REMARK 923 INTER-LIGAND FREE ENERGY PREDICTED BY IDOCK:   -5.26 KCAL/MOL
REMARK 924 INTRA-LIGAND FREE ENERGY PREDICTED BY IDOCK:   -0.00 KCAL/MOL
REMARK 927      BINDING AFFINITY PREDICTED BY RF-SCORE:    0.00 PKD
ROOT
HETATM    1  N   UNL     1     -10.606  11.793  63.139  1.00  0.00    -0.673 NA 
HETATM    2  C   UNL     1     -10.443  11.212  64.389  1.00  0.00    -0.353 A  
HETATM    3  H1  UNL     1     -10.234  11.382  62.283  1.00  0.00     0.000 HD 
HETATM    4  H2  UNL     1     -10.251  12.748  63.199  1.00  0.00     0.000 HD 
HETATM    5  C   UNL     1     -10.955  11.778  65.570  1.00  0.00    -0.290 A  
HETATM    6  N   UNL     1     -11.656  12.939  65.816  1.00  0.00    -0.348 NA 
HETATM    7  C   UNL     1     -11.886  12.924  67.113  1.00  0.00    -0.362 A  
HETATM    8  N   UNL     1     -11.337  11.826  67.722  1.00  0.00    -0.267 NA 
HETATM    9  C   UNL     1     -10.737  11.077  66.745  1.00  0.00    -0.266 A  
HETATM   10  N   UNL     1      -9.755  10.052  64.472  1.00  0.00    -0.295 NA 
HETATM   11  N   UNL     1     -10.079   9.915  66.885  1.00  0.00    -0.213 NA 
HETATM   12 CL   UNL     1      -8.749   8.018  65.726  1.00  0.00    -0.178 Cl 
HETATM   13  C   UNL     1      -9.627   9.486  65.687  1.00  0.00    -0.277 A  
ENDROOT
BRANCH   8  14
HETATM   14  C1* UNL     1     -11.412  11.471  69.126  1.00  0.00    -0.297 C  
HETATM   15  C2* UNL     1     -12.515  10.478  69.459  1.00  0.00     0.035 C  
HETATM   16  C4* UNL     1     -10.477   9.852  70.538  1.00  0.00    -0.264 C  
HETATM   17  C3* UNL     1     -11.996   9.860  70.732  1.00  0.00    -0.323 C  
HETATM   18  O3* UNL     1     -12.328  10.726  71.823  1.00  0.00    -0.269 OA 
HETATM   19  O4* UNL     1     -10.174  10.849  69.531  1.00  0.00    -0.178 OA 
HETATM   20  H3* UNL     1     -12.000  10.336  72.625  1.00  0.00     0.000 HD 
BRANCH  16  21
HETATM   21  C5* UNL     1      -9.937   8.507  70.049  1.00  0.00    -0.188 C  
HETATM   22  O5* UNL     1     -10.953   7.508  70.059  1.00  0.00    -0.257 OA 
HETATM   23  H5* UNL     1     -10.617   6.673  69.757  1.00  0.00     0.000 HD 
ENDBRANCH  16  21
ENDBRANCH   8  14
TORSDOF 2
ENDMDL
MODEL      141
REMARK 921   NORMALIZED FREE ENERGY PREDICTED BY IDOCK:   -4.38 KCAL/MOL
REMARK 922        TOTAL FREE ENERGY PREDICTED BY IDOCK:   -5.23 KCAL/MOL
REMARK 923 INTER-LIGAND FREE ENERGY PREDICTED BY IDOCK:   -5.06 KCAL/MOL
REMARK 924 INTRA-LIGAND FREE ENERGY PREDICTED BY IDOCK:   -0.17 KCAL/MOL
REMARK 927      BINDING AFFINITY PREDICTED BY RF-SCORE:    0.00 PKD
ROOT
HETATM    1  N   UNL     1      -9.284   5.688  65.533  1.00  0.00    -0.334 NA 
HETATM    2  C   UNL     1      -9.725   6.409  66.634  1.00  0.00    -0.153 A  
HETATM    3  H1  UNL     1      -9.129   6.111  64.618  1.00  0.00     0.000 HD 
HETATM    4  H2  UNL     1      -9.927   4.907  65.403  1.00  0.00     0.000 HD 
HETATM    5  C   UNL     1      -9.939   5.826  67.896  1.00  0.00    -0.137 A  
HETATM    6  N   UNL     1      -9.819   4.532  68.354  1.00  0.00    -0.121 NA 
HETATM    7  C   UNL     1     -10.127   4.599  69.632  1.00  0.00    -0.162 A  
HETATM    8  N   UNL     1     -10.476   5.867  70.014  1.00  0.00    -0.240 NA 
HETATM    9  C   UNL     1     -10.357   6.670  68.912  1.00  0.00    -0.193 A  
HETATM   10  N   UNL     1      -9.964   7.730  66.481  1.00  0.00    -0.212 NA 
HETATM   11  N   UNL     1     -10.592   7.989  68.823  1.00  0.00    -0.165 NA 
HETATM   12 CL   UNL     1     -10.648  10.091  67.308  1.00  0.00    -0.317 Cl 
HETATM   13  C   UNL     1     -10.366   8.422  67.565  1.00  0.00    -0.265 A  
ENDROOT
BRANCH   8  14
HETATM   14  C1* UNL     1     -10.849   6.314  71.343  1.00  0.00    -0.261 C  
HETATM   15  C2* UNL     1      -9.844   7.259  71.986  1.00  0.00    -0.183 C  
HETATM   16  C4* UNL     1     -12.068   8.081  72.279  1.00  0.00    -0.341 C  
HETATM   17  C3* UNL     1     -10.709   7.995  72.978  1.00  0.00    -0.254 C  
HETATM   18  O3* UNL     1     -10.833   7.189  74.154  1.00  0.00    -0.532 OA 
HETATM   19  O4* UNL     1     -12.096   7.037  71.275  1.00  0.00    -0.322 OA 
HETATM   20  H3* UNL     1     -11.378   7.653  74.779  1.00  0.00     0.000 HD 
BRANCH  16  21
HETATM   21  C5* UNL     1     -12.303   9.420  71.576  1.00  0.00    -0.370 C  
HETATM   22  O5* UNL     1     -13.338   9.317  70.601  1.00  0.00    -0.499 OA 
HETATM   23  H5* UNL     1     -13.483  10.147  70.165  1.00  0.00     0.000 HD 
ENDBRANCH  16  21
ENDBRANCH   8  14
TORSDOF 2
ENDMDL
MODEL      142
REMARK 921   NORMALIZED FREE ENERGY PREDICTED BY IDOCK:   -4.35 KCAL/MOL
REMARK 922        TOTAL FREE ENERGY PREDICTED BY IDOCK:   -5.21 KCAL/MOL
REMARK 923 INTER-LIGAND FREE ENERGY PREDICTED BY IDOCK:   -4.86 KCAL/MOL
REMARK 924 INTRA-LIGAND FREE ENERGY PREDICTED BY IDOCK:   -0.35 KCAL/MOL
REMARK 927      BINDING AFFINITY PREDICTED BY RF-SCORE:    0.00 PKD
ROOT
HETATM    1  N   UNL     1     -11.183   4.489  65.039  1.00  0.00    -1.039 NA 
HETATM    2  C   UNL     1     -10.398   4.597  66.178  1.00  0.00    -0.275 A  
HETATM    3  H1  UNL     1     -11.170   3.671  64.431  1.00  0.00     0.000 HD 
HETATM    4  H2  UNL     1     -10.990   5.305  64.458  1.00  0.00     0.000 HD 
HETATM    5  C   UNL     1     -10.415   5.726  67.017  1.00  0.00    -0.280 A  
HETATM    6  N   UNL     1     -11.105   6.918  66.957  1.00  0.00    -0.357 NA 
HETATM    7  C   UNL     1     -10.733   7.575  68.035  1.00  0.00    -0.106 A  
HETATM    8  N   UNL     1      -9.809   6.881  68.771  1.00  0.00    -0.147 NA 
HETATM    9  C   UNL     1      -9.596   5.688  68.134  1.00  0.00    -0.114 A  
HETATM   10  N   UNL     1      -9.575   3.572  66.488  1.00  0.00    -0.150 NA 
HETATM   11  N   UNL     1      -8.774   4.692  68.501  1.00  0.00    -0.097 NA 
HETATM   12 CL   UNL     1      -7.819   2.347  67.951  1.00  0.00    -0.059 Cl 
HETATM   13  C   UNL     1      -8.837   3.679  67.610  1.00  0.00    -0.121 A  
ENDROOT
BRANCH   8  14
HETATM   14  C1* UNL     1      -9.200   7.284  70.024  1.00  0.00    -0.148 C  
HETATM   15  C2* UNL     1      -9.354   8.763  70.344  1.00  0.00    -0.205 C  
HETATM   16  C4* UNL     1      -9.839   7.438  72.272  1.00  0.00    -0.167 C  
HETATM   17  C3* UNL     1      -9.212   8.767  71.845  1.00  0.00    -0.250 C  
HETATM   18  O3* UNL     1      -7.817   8.756  72.167  1.00  0.00    -0.325 OA 
HETATM   19  O4* UNL     1      -9.820   6.568  71.113  1.00  0.00    -0.181 OA 
HETATM   20  H3* UNL     1      -7.728   8.758  73.112  1.00  0.00     0.000 HD 
BRANCH  16  21
HETATM   21  C5* UNL     1     -11.291   7.575  72.736  1.00  0.00    -0.336 C  
HETATM   22  O5* UNL     1     -11.998   6.346  72.592  1.00  0.00    -0.500 OA 
HETATM   23  H5* UNL     1     -12.899   6.432  72.879  1.00  0.00     0.000 HD 
ENDBRANCH  16  21
ENDBRANCH   8  14
TORSDOF 2
ENDMDL
MODEL      143
REMARK 921   NORMALIZED FREE ENERGY PREDICTED BY IDOCK:   -4.34 KCAL/MOL
REMARK 922        TOTAL FREE ENERGY PREDICTED BY IDOCK:   -5.20 KCAL/MOL
REMARK 923 INTER-LIGAND FREE ENERGY PREDICTED BY IDOCK:   -5.20 KCAL/MOL
REMARK 924 INTRA-LIGAND FREE ENERGY PREDICTED BY IDOCK:    0.01 KCAL/MOL
REMARK 927      BINDING AFFINITY PREDICTED BY RF-SCORE:    0.00 PKD
ROOT
HETATM    1  N   UNL     1      -6.744  11.318  69.690  1.00  0.00    -0.187 NA 
HETATM    2  C   UNL     1      -7.352  12.256  68.869  1.00  0.00    -0.041 A  
HETATM    3  H1  UNL     1      -5.870  11.496  70.186  1.00  0.00     0.000 HD 
HETATM    4  H2  UNL     1      -6.614  10.469  69.139  1.00  0.00     0.000 HD 
HETATM    5  C   UNL     1      -8.556  12.010  68.185  1.00  0.00    -0.173 A  
HETATM    6  N   UNL     1      -9.373  10.903  68.111  1.00  0.00    -0.160 NA 
HETATM    7  C   UNL     1     -10.373  11.275  67.338  1.00  0.00    -0.200 A  
HETATM    8  N   UNL     1     -10.222  12.557  66.880  1.00  0.00    -0.225 NA 
HETATM    9  C   UNL     1      -9.062  13.047  67.417  1.00  0.00    -0.201 A  
HETATM   10  N   UNL     1      -6.754  13.458  68.716  1.00  0.00    -0.100 NA 
HETATM   11  N   UNL     1      -8.522  14.264  67.244  1.00  0.00    -0.202 NA 
HETATM   12 CL   UNL     1      -6.563  15.871  67.786  1.00  0.00    -0.163 Cl 
HETATM   13  C   UNL     1      -7.368  14.368  67.936  1.00  0.00    -0.154 A  
ENDROOT
BRANCH   8  14
HETATM   14  C1* UNL     1     -11.134  13.301  66.032  1.00  0.00    -0.283 C  
HETATM   15  C2* UNL     1     -10.507  13.817  64.745  1.00  0.00    -0.448 C  
HETATM   16  C4* UNL     1     -12.636  12.828  64.298  1.00  0.00    -0.324 C  
HETATM   17  C3* UNL     1     -11.716  13.970  63.857  1.00  0.00    -0.150 C  
HETATM   18  O3* UNL     1     -12.341  15.222  64.156  1.00  0.00    -0.758 OA 
HETATM   19  O4* UNL     1     -12.226  12.446  65.634  1.00  0.00    -0.599 OA 
HETATM   20  H3* UNL     1     -13.102  15.318  63.596  1.00  0.00     0.000 HD 
BRANCH  16  21
HETATM   21  C5* UNL     1     -12.539  11.592  63.401  1.00  0.00    -0.186 C  
HETATM   22  O5* UNL     1     -11.207  11.088  63.359  1.00  0.00    -0.649 OA 
HETATM   23  H5* UNL     1     -11.146  10.321  62.803  1.00  0.00     0.000 HD 
ENDBRANCH  16  21
ENDBRANCH   8  14
TORSDOF 2
ENDMDL
MODEL      144
REMARK 921   NORMALIZED FREE ENERGY PREDICTED BY IDOCK:   -4.34 KCAL/MOL
REMARK 922        TOTAL FREE ENERGY PREDICTED BY IDOCK:   -5.19 KCAL/MOL
REMARK 923 INTER-LIGAND FREE ENERGY PREDICTED BY IDOCK:   -5.28 KCAL/MOL
REMARK 924 INTRA-LIGAND FREE ENERGY PREDICTED BY IDOCK:    0.09 KCAL/MOL
REMARK 927      BINDING AFFINITY PREDICTED BY RF-SCORE:    0.00 PKD
ROOT
HETATM    1  N   UNL     1      -9.990  10.151  63.499  1.00  0.00    -0.496 NA 
HETATM    2  C   UNL     1      -9.742  10.702  64.748  1.00  0.00    -0.292 A  
HETATM    3  H1  UNL     1      -9.807   9.172  63.278  1.00  0.00     0.000 HD 
HETATM    4  H2  UNL     1      -9.494  10.717  62.812  1.00  0.00     0.000 HD 
HETATM    5  C   UNL     1      -9.995  12.052  65.054  1.00  0.00    -0.233 A  
HETATM    6  N   UNL     1     -10.475  13.101  64.300  1.00  0.00    -0.424 NA 
HETATM    7  C   UNL     1     -10.521  14.119  65.134  1.00  0.00    -0.402 A  
HETATM    8  N   UNL     1     -10.060  13.787  66.381  1.00  0.00    -0.287 NA 
HETATM    9  C   UNL     1      -9.721  12.461  66.349  1.00  0.00    -0.240 A  
HETATM   10  N   UNL     1      -9.229   9.905  65.710  1.00  0.00    -0.166 NA 
HETATM   11  N   UNL     1      -9.229  11.711  67.348  1.00  0.00    -0.166 NA 
HETATM   12 CL   UNL     1      -8.369   9.386  68.101  1.00  0.00    -0.119 Cl 
HETATM   13  C   UNL     1      -9.017  10.447  66.925  1.00  0.00    -0.139 A  
ENDROOT
BRANCH   8  14
HETATM   14  C1* UNL     1      -9.989  14.644  67.549  1.00  0.00    -0.223 C  
HETATM   15  C2* UNL     1     -10.954  15.820  67.518  1.00  0.00    -0.293 C  
HETATM   16  C4* UNL     1     -11.003  14.757  69.657  1.00  0.00    -0.261 C  
HETATM   17  C3* UNL     1     -11.106  16.129  68.986  1.00  0.00    -0.336 C  
HETATM   18  O3* UNL     1      -9.998  16.939  69.394  1.00  0.00    -0.214 OA 
HETATM   19  O4* UNL     1     -10.322  13.880  68.727  1.00  0.00    -0.237 OA 
HETATM   20  H3* UNL     1     -10.093  17.133  70.319  1.00  0.00     0.000 HD 
BRANCH  16  21
HETATM   21  C5* UNL     1     -12.364  14.139  69.981  1.00  0.00    -0.344 C  
HETATM   22  O5* UNL     1     -12.253  13.148  71.000  1.00  0.00    -0.407 OA 
HETATM   23  H5* UNL     1     -13.097  12.764  71.200  1.00  0.00     0.000 HD 
ENDBRANCH  16  21
ENDBRANCH   8  14
TORSDOF 2
ENDMDL
MODEL      145
REMARK 921   NORMALIZED FREE ENERGY PREDICTED BY IDOCK:   -4.32 KCAL/MOL
REMARK 922        TOTAL FREE ENERGY PREDICTED BY IDOCK:   -5.17 KCAL/MOL
REMARK 923 INTER-LIGAND FREE ENERGY PREDICTED BY IDOCK:   -4.91 KCAL/MOL
REMARK 924 INTRA-LIGAND FREE ENERGY PREDICTED BY IDOCK:   -0.26 KCAL/MOL
REMARK 927      BINDING AFFINITY PREDICTED BY RF-SCORE:    0.00 PKD
ROOT
HETATM    1  N   UNL     1     -10.328   6.953  72.635  1.00  0.00    -0.194 NA 
HETATM    2  C   UNL     1     -10.582   8.037  71.808  1.00  0.00    -0.238 A  
HETATM    3  H1  UNL     1     -10.910   6.720  73.440  1.00  0.00     0.000 HD 
HETATM    4  H2  UNL     1      -9.368   7.042  72.968  1.00  0.00     0.000 HD 
HETATM    5  C   UNL     1      -9.780   8.358  70.698  1.00  0.00    -0.178 A  
HETATM    6  N   UNL     1      -8.637   7.787  70.181  1.00  0.00    -0.137 NA 
HETATM    7  C   UNL     1      -8.355   8.507  69.115  1.00  0.00    -0.120 A  
HETATM    8  N   UNL     1      -9.240   9.538  68.939  1.00  0.00    -0.142 NA 
HETATM    9  C   UNL     1     -10.165   9.456  69.945  1.00  0.00    -0.222 A  
HETATM   10  N   UNL     1     -11.646   8.821  72.087  1.00  0.00    -0.372 NA 
HETATM   11  N   UNL     1     -11.219  10.258  70.164  1.00  0.00    -0.296 NA 
HETATM   12 CL   UNL     1     -13.258  10.808  71.665  1.00  0.00    -0.508 Cl 
HETATM   13  C   UNL     1     -11.895   9.855  71.260  1.00  0.00    -0.395 A  
ENDROOT
BRANCH   8  14
HETATM   14  C1* UNL     1      -9.252  10.513  67.865  1.00  0.00    -0.140 C  
HETATM   15  C2* UNL     1     -10.145  10.137  66.693  1.00  0.00    -0.283 C  
HETATM   16  C4* UNL     1     -10.481  12.424  67.296  1.00  0.00    -0.222 C  
HETATM   17  C3* UNL     1     -10.439  11.486  66.087  1.00  0.00    -0.251 C  
HETATM   18  O3* UNL     1      -9.342  11.851  65.244  1.00  0.00    -0.410 OA 
HETATM   19  O4* UNL     1      -9.749  11.772  68.364  1.00  0.00    -0.194 OA 
HETATM   20  H3* UNL     1      -9.527  12.701  64.863  1.00  0.00     0.000 HD 
BRANCH  16  21
HETATM   21  C5* UNL     1     -11.899  12.703  67.797  1.00  0.00    -0.323 C  
HETATM   22  O5* UNL     1     -11.931  12.829  69.216  1.00  0.00    -0.289 OA 
HETATM   23  H5* UNL     1     -12.812  13.002  69.526  1.00  0.00     0.000 HD 
ENDBRANCH  16  21
ENDBRANCH   8  14
TORSDOF 2
ENDMDL
MODEL      146
REMARK 921   NORMALIZED FREE ENERGY PREDICTED BY IDOCK:   -4.32 KCAL/MOL
REMARK 922        TOTAL FREE ENERGY PREDICTED BY IDOCK:   -5.16 KCAL/MOL
REMARK 923 INTER-LIGAND FREE ENERGY PREDICTED BY IDOCK:   -4.69 KCAL/MOL
REMARK 924 INTRA-LIGAND FREE ENERGY PREDICTED BY IDOCK:   -0.48 KCAL/MOL
REMARK 927      BINDING AFFINITY PREDICTED BY RF-SCORE:    0.00 PKD
ROOT
HETATM    1  N   UNL     1      -9.329   2.797  66.674  1.00  0.00    -0.363 NA 
HETATM    2  C   UNL     1      -9.650   3.829  67.544  1.00  0.00    -0.155 A  
HETATM    3  H1  UNL     1      -9.354   2.898  65.660  1.00  0.00     0.000 HD 
HETATM    4  H2  UNL     1      -9.918   2.000  66.916  1.00  0.00     0.000 HD 
HETATM    5  C   UNL     1      -9.617   3.690  68.944  1.00  0.00    -0.087 A  
HETATM    6  N   UNL     1      -9.321   2.623  69.765  1.00  0.00    -0.132 NA 
HETATM    7  C   UNL     1      -9.432   3.100  70.987  1.00  0.00    -0.158 A  
HETATM    8  N   UNL     1      -9.820   4.414  70.996  1.00  0.00    -0.189 NA 
HETATM    9  C   UNL     1      -9.940   4.811  69.692  1.00  0.00    -0.227 A  
HETATM   10  N   UNL     1     -10.018   5.019  67.021  1.00  0.00    -0.183 NA 
HETATM   11  N   UNL     1     -10.294   6.020  69.227  1.00  0.00    -0.208 NA 
HETATM   12 CL   UNL     1     -10.757   7.501  67.152  1.00  0.00    -0.404 Cl 
HETATM   13  C   UNL     1     -10.302   6.019  67.877  1.00  0.00    -0.206 A  
ENDROOT
BRANCH   8  14
HETATM   14  C1* UNL     1     -10.016   5.265  72.154  1.00  0.00    -0.184 C  
HETATM   15  C2* UNL     1      -9.067   6.451  72.224  1.00  0.00    -0.139 C  
HETATM   16  C4* UNL     1     -11.303   7.143  72.705  1.00  0.00    -0.268 C  
HETATM   17  C3* UNL     1      -9.845   7.415  73.084  1.00  0.00    -0.254 C  
HETATM   18  O3* UNL     1      -9.640   7.062  74.456  1.00  0.00    -0.407 OA 
HETATM   19  O4* UNL     1     -11.350   5.815  72.126  1.00  0.00    -0.280 OA 
HETATM   20  H3* UNL     1     -10.130   7.669  74.998  1.00  0.00     0.000 HD 
BRANCH  16  21
HETATM   21  C5* UNL     1     -11.854   8.129  71.673  1.00  0.00    -0.292 C  
HETATM   22  O5* UNL     1     -12.493   7.448  70.597  1.00  0.00    -0.552 OA 
HETATM   23  H5* UNL     1     -12.835   8.059  69.956  1.00  0.00     0.000 HD 
ENDBRANCH  16  21
ENDBRANCH   8  14
TORSDOF 2
ENDMDL
MODEL      147
REMARK 921   NORMALIZED FREE ENERGY PREDICTED BY IDOCK:   -4.32 KCAL/MOL
REMARK 922        TOTAL FREE ENERGY PREDICTED BY IDOCK:   -5.16 KCAL/MOL
REMARK 923 INTER-LIGAND FREE ENERGY PREDICTED BY IDOCK:   -5.47 KCAL/MOL
REMARK 924 INTRA-LIGAND FREE ENERGY PREDICTED BY IDOCK:    0.31 KCAL/MOL
REMARK 927      BINDING AFFINITY PREDICTED BY RF-SCORE:    0.00 PKD
ROOT
HETATM    1  N   UNL     1     -10.437   7.310  71.132  1.00  0.00    -0.210 NA 
HETATM    2  C   UNL     1     -10.563   8.560  70.543  1.00  0.00    -0.213 A  
HETATM    3  H1  UNL     1      -9.737   6.627  70.841  1.00  0.00     0.000 HD 
HETATM    4  H2  UNL     1     -11.348   6.855  71.077  1.00  0.00     0.000 HD 
HETATM    5  C   UNL     1     -11.528   9.502  70.944  1.00  0.00    -0.334 A  
HETATM    6  N   UNL     1     -12.525   9.464  71.895  1.00  0.00    -0.381 NA 
HETATM    7  C   UNL     1     -13.093  10.650  71.834  1.00  0.00    -0.458 A  
HETATM    8  N   UNL     1     -12.534  11.441  70.864  1.00  0.00    -0.390 NA 
HETATM    9  C   UNL     1     -11.525  10.720  70.284  1.00  0.00    -0.319 A  
HETATM   10  N   UNL     1      -9.723   8.883  69.536  1.00  0.00    -0.170 NA 
HETATM   11  N   UNL     1     -10.704  11.101  69.292  1.00  0.00    -0.217 NA 
HETATM   12 CL   UNL     1      -8.744  10.458  67.724  1.00  0.00    -0.122 Cl 
HETATM   13  C   UNL     1      -9.839  10.109  68.992  1.00  0.00    -0.205 A  
ENDROOT
BRANCH   8  14
HETATM   14  C1* UNL     1     -12.888  12.808  70.532  1.00  0.00     0.129 C  
HETATM   15  C2* UNL     1     -12.563  13.817  71.623  1.00  0.00    -0.370 C  
HETATM   16  C4* UNL     1     -11.865  14.640  69.491  1.00  0.00    -0.330 C  
HETATM   17  C3* UNL     1     -12.447  15.095  70.832  1.00  0.00    -0.365 C  
HETATM   18  O3* UNL     1     -13.763  15.617  70.623  1.00  0.00    -0.847 OA 
HETATM   19  O4* UNL     1     -12.151  13.225  69.364  1.00  0.00    -0.300 OA 
HETATM   20  H3* UNL     1     -13.690  16.423  70.124  1.00  0.00     0.000 HD 
BRANCH  16  21
HETATM   21  C5* UNL     1     -10.350  14.827  69.394  1.00  0.00    -0.160 C  
HETATM   22  O5* UNL     1     -10.020  15.986  68.633  1.00  0.00    -0.209 OA 
HETATM   23  H5* UNL     1      -9.080  16.102  68.573  1.00  0.00     0.000 HD 
ENDBRANCH  16  21
ENDBRANCH   8  14
TORSDOF 2
ENDMDL
MODEL      148
REMARK 921   NORMALIZED FREE ENERGY PREDICTED BY IDOCK:   -4.30 KCAL/MOL
REMARK 922        TOTAL FREE ENERGY PREDICTED BY IDOCK:   -5.15 KCAL/MOL
REMARK 923 INTER-LIGAND FREE ENERGY PREDICTED BY IDOCK:   -5.31 KCAL/MOL
REMARK 924 INTRA-LIGAND FREE ENERGY PREDICTED BY IDOCK:    0.16 KCAL/MOL
REMARK 927      BINDING AFFINITY PREDICTED BY RF-SCORE:    0.00 PKD
ROOT
HETATM    1  N   UNL     1      -7.924   8.705  71.493  1.00  0.00    -0.151 NA 
HETATM    2  C   UNL     1      -9.005   9.246  70.813  1.00  0.00    -0.232 A  
HETATM    3  H1  UNL     1      -8.012   8.243  72.398  1.00  0.00     0.000 HD 
HETATM    4  H2  UNL     1      -7.227   9.443  71.594  1.00  0.00     0.000 HD 
HETATM    5  C   UNL     1      -8.884   9.884  69.565  1.00  0.00    -0.197 A  
HETATM    6  N   UNL     1      -7.798  10.152  68.760  1.00  0.00    -0.092 NA 
HETATM    7  C   UNL     1      -8.304  10.749  67.701  1.00  0.00    -0.119 A  
HETATM    8  N   UNL     1      -9.661  10.911  67.799  1.00  0.00    -0.162 NA 
HETATM    9  C   UNL     1     -10.051  10.358  68.988  1.00  0.00    -0.213 A  
HETATM   10  N   UNL     1     -10.228   9.161  71.380  1.00  0.00    -0.327 NA 
HETATM   11  N   UNL     1     -11.292  10.285  69.496  1.00  0.00    -0.249 NA 
HETATM   12 CL   UNL     1     -12.794   9.525  71.466  1.00  0.00    -0.429 Cl 
HETATM   13  C   UNL     1     -11.272   9.667  70.697  1.00  0.00    -0.320 A  
ENDROOT
BRANCH   8  14
HETATM   14  C1* UNL     1     -10.549  11.502  66.816  1.00  0.00    -0.250 C  
HETATM   15  C2* UNL     1     -11.644  12.374  67.410  1.00  0.00    -0.433 C  
HETATM   16  C4* UNL     1     -10.634  13.464  65.540  1.00  0.00    -0.290 C  
HETATM   17  C3* UNL     1     -11.976  13.280  66.252  1.00  0.00    -0.417 C  
HETATM   18  O3* UNL     1     -12.880  12.589  65.383  1.00  0.00    -0.554 OA 
HETATM   19  O4* UNL     1      -9.790  12.353  65.932  1.00  0.00    -0.253 OA 
HETATM   20  H3* UNL     1     -13.089  13.159  64.653  1.00  0.00     0.000 HD 
BRANCH  16  21
HETATM   21  C5* UNL     1      -9.918  14.761  65.924  1.00  0.00    -0.326 C  
HETATM   22  O5* UNL     1     -10.645  15.476  66.919  1.00  0.00    -0.298 OA 
HETATM   23  H5* UNL     1     -10.201  16.281  67.158  1.00  0.00     0.000 HD 
ENDBRANCH  16  21
ENDBRANCH   8  14
TORSDOF 2
ENDMDL
MODEL      149
REMARK 921   NORMALIZED FREE ENERGY PREDICTED BY IDOCK:   -4.30 KCAL/MOL
REMARK 922        TOTAL FREE ENERGY PREDICTED BY IDOCK:   -5.14 KCAL/MOL
REMARK 923 INTER-LIGAND FREE ENERGY PREDICTED BY IDOCK:   -4.99 KCAL/MOL
REMARK 924 INTRA-LIGAND FREE ENERGY PREDICTED BY IDOCK:   -0.16 KCAL/MOL
REMARK 927      BINDING AFFINITY PREDICTED BY RF-SCORE:    0.00 PKD
ROOT
HETATM    1  N   UNL     1     -12.402  10.758  68.369  1.00  0.00    -0.633 NA 
HETATM    2  C   UNL     1     -11.388  11.403  67.674  1.00  0.00    -0.290 A  
HETATM    3  H1  UNL     1     -12.548   9.750  68.329  1.00  0.00     0.000 HD 
HETATM    4  H2  UNL     1     -13.281  11.205  68.110  1.00  0.00     0.000 HD 
HETATM    5  C   UNL     1     -11.186  12.794  67.730  1.00  0.00    -0.275 A  
HETATM    6  N   UNL     1     -11.858  13.805  68.381  1.00  0.00    -0.361 NA 
HETATM    7  C   UNL     1     -11.190  14.900  68.079  1.00  0.00    -0.308 A  
HETATM    8  N   UNL     1     -10.141  14.649  67.235  1.00  0.00    -0.236 NA 
HETATM    9  C   UNL     1     -10.120  13.300  67.003  1.00  0.00    -0.242 A  
HETATM   10  N   UNL     1     -10.564  10.658  66.905  1.00  0.00    -0.257 NA 
HETATM   11  N   UNL     1      -9.260  12.608  66.239  1.00  0.00    -0.166 NA 
HETATM   12 CL   UNL     1      -8.558  10.296  65.303  1.00  0.00    -0.165 Cl 
HETATM   13  C   UNL     1      -9.569  11.294  66.257  1.00  0.00    -0.209 A  
ENDROOT
BRANCH   8  14
HETATM   14  C1* UNL     1      -9.181  15.605  66.718  1.00  0.00    -0.251 C  
HETATM   15  C2* UNL     1      -9.343  17.013  67.271  1.00  0.00    -0.238 C  
HETATM   16  C4* UNL     1      -7.042  16.370  67.289  1.00  0.00    -0.181 C  
HETATM   17  C3* UNL     1      -7.959  17.578  67.079  1.00  0.00    -0.216 C  
HETATM   18  O3* UNL     1      -7.840  18.032  65.727  1.00  0.00    -0.534 OA 
HETATM   19  O4* UNL     1      -7.846  15.184  67.068  1.00  0.00    -0.211 OA 
HETATM   20  H3* UNL     1      -6.968  18.388  65.606  1.00  0.00     0.000 HD 
BRANCH  16  21
HETATM   21  C5* UNL     1      -6.459  16.290  68.701  1.00  0.00    -0.126 C  
HETATM   22  O5* UNL     1      -5.497  15.244  68.804  1.00  0.00    -0.088 OA 
HETATM   23  H5* UNL     1      -5.135  15.195  69.681  1.00  0.00     0.000 HD 
ENDBRANCH  16  21
ENDBRANCH   8  14
TORSDOF 2
ENDMDL
MODEL      150
REMARK 921   NORMALIZED FREE ENERGY PREDICTED BY IDOCK:   -4.26 KCAL/MOL
REMARK 922        TOTAL FREE ENERGY PREDICTED BY IDOCK:   -5.10 KCAL/MOL
REMARK 923 INTER-LIGAND FREE ENERGY PREDICTED BY IDOCK:   -5.04 KCAL/MOL
REMARK 924 INTRA-LIGAND FREE ENERGY PREDICTED BY IDOCK:   -0.07 KCAL/MOL
REMARK 927      BINDING AFFINITY PREDICTED BY RF-SCORE:    0.00 PKD
ROOT
HETATM    1  N   UNL     1      -9.936  10.755  68.223  1.00  0.00    -0.163 NA 
HETATM    2  C   UNL     1     -10.317  11.912  67.559  1.00  0.00    -0.200 A  
HETATM    3  H1  UNL     1     -10.396   9.856  68.080  1.00  0.00     0.000 HD 
HETATM    4  H2  UNL     1      -9.962  10.955  69.223  1.00  0.00     0.000 HD 
HETATM    5  C   UNL     1      -9.683  13.153  67.757  1.00  0.00    -0.218 A  
HETATM    6  N   UNL     1      -8.650  13.548  68.579  1.00  0.00    -0.133 NA 
HETATM    7  C   UNL     1      -8.476  14.825  68.309  1.00  0.00    -0.151 A  
HETATM    8  N   UNL     1      -9.371  15.283  67.378  1.00  0.00    -0.196 NA 
HETATM    9  C   UNL     1     -10.153  14.221  67.009  1.00  0.00    -0.260 A  
HETATM   10  N   UNL     1     -11.347  11.843  66.689  1.00  0.00    -0.350 NA 
HETATM   11  N   UNL     1     -11.157  14.206  66.118  1.00  0.00    -0.308 NA 
HETATM   12 CL   UNL     1     -12.998  12.813  64.940  1.00  0.00    -0.374 Cl 
HETATM   13  C   UNL     1     -11.689  12.968  66.032  1.00  0.00    -0.393 A  
ENDROOT
BRANCH   8  14
HETATM   14  C1* UNL     1      -9.459  16.621  66.825  1.00  0.00    -0.244 C  
HETATM   15  C2* UNL     1     -10.856  17.222  66.867  1.00  0.00    -0.004 C  
HETATM   16  C4* UNL     1      -9.239  18.817  67.608  1.00  0.00    -0.285 C  
HETATM   17  C3* UNL     1     -10.554  18.699  66.833  1.00  0.00    -0.385 C  
HETATM   18  O3* UNL     1     -10.336  19.084  65.472  1.00  0.00    -0.485 OA 
HETATM   19  O4* UNL     1      -8.614  17.511  67.584  1.00  0.00    -0.216 OA 
HETATM   20  H3* UNL     1     -10.146  20.014  65.450  1.00  0.00     0.000 HD 
BRANCH  16  21
HETATM   21  C5* UNL     1      -9.432  19.223  69.070  1.00  0.00    -0.330 C  
HETATM   22  O5* UNL     1     -10.722  19.790  69.282  1.00  0.00    -0.343 OA 
HETATM   23  H5* UNL     1     -10.842  20.043  70.190  1.00  0.00     0.000 HD 
ENDBRANCH  16  21
ENDBRANCH   8  14
TORSDOF 2
ENDMDL
MODEL      151
REMARK 921   NORMALIZED FREE ENERGY PREDICTED BY IDOCK:   -4.24 KCAL/MOL
REMARK 922        TOTAL FREE ENERGY PREDICTED BY IDOCK:   -5.08 KCAL/MOL
REMARK 923 INTER-LIGAND FREE ENERGY PREDICTED BY IDOCK:   -5.03 KCAL/MOL
REMARK 924 INTRA-LIGAND FREE ENERGY PREDICTED BY IDOCK:   -0.05 KCAL/MOL
REMARK 927      BINDING AFFINITY PREDICTED BY RF-SCORE:    0.00 PKD
ROOT
HETATM    1  N   UNL     1     -10.224  19.143  69.395  1.00  0.00    -0.445 NA 
HETATM    2  C   UNL     1      -9.789  18.033  68.686  1.00  0.00    -0.378 A  
HETATM    3  H1  UNL     1      -9.789  20.062  69.312  1.00  0.00     0.000 HD 
HETATM    4  H2  UNL     1     -10.221  18.893  70.384  1.00  0.00     0.000 HD 
HETATM    5  C   UNL     1     -10.389  16.766  68.801  1.00  0.00    -0.318 A  
HETATM    6  N   UNL     1     -11.433  16.299  69.570  1.00  0.00    -0.281 NA 
HETATM    7  C   UNL     1     -11.560  15.033  69.231  1.00  0.00    -0.315 A  
HETATM    8  N   UNL     1     -10.624  14.650  68.306  1.00  0.00    -0.231 NA 
HETATM    9  C   UNL     1      -9.865  15.752  68.015  1.00  0.00    -0.217 A  
HETATM   10  N   UNL     1      -8.736  18.178  67.852  1.00  0.00    -0.256 NA 
HETATM   11  N   UNL     1      -8.836  15.843  67.158  1.00  0.00    -0.197 NA 
HETATM   12 CL   UNL     1      -7.006  17.347  66.108  1.00  0.00    -0.311 Cl 
HETATM   13  C   UNL     1      -8.341  17.098  67.150  1.00  0.00    -0.196 A  
ENDROOT
BRANCH   8  14
HETATM   14  C1* UNL     1     -10.480  13.345  67.690  1.00  0.00    -0.241 C  
HETATM   15  C2* UNL     1     -10.113  13.391  66.214  1.00  0.00    -0.299 C  
HETATM   16  C4* UNL     1      -8.765  11.785  67.359  1.00  0.00    -0.162 C  
HETATM   17  C3* UNL     1      -9.459  12.046  66.020  1.00  0.00    -0.219 C  
HETATM   18  O3* UNL     1     -10.486  11.069  65.823  1.00  0.00    -0.249 OA 
HETATM   19  O4* UNL     1      -9.420  12.618  68.346  1.00  0.00    -0.214 OA 
HETATM   20  H3* UNL     1     -10.074  10.222  65.701  1.00  0.00     0.000 HD 
BRANCH  16  21
HETATM   21  C5* UNL     1      -7.277  12.144  67.349  1.00  0.00    -0.147 C  
HETATM   22  O5* UNL     1      -7.069  13.466  66.859  1.00  0.00    -0.359 OA 
HETATM   23  H5* UNL     1      -6.146  13.689  66.852  1.00  0.00     0.000 HD 
ENDBRANCH  16  21
ENDBRANCH   8  14
TORSDOF 2
ENDMDL
MODEL      152
REMARK 921   NORMALIZED FREE ENERGY PREDICTED BY IDOCK:   -4.22 KCAL/MOL
REMARK 922        TOTAL FREE ENERGY PREDICTED BY IDOCK:   -5.05 KCAL/MOL
REMARK 923 INTER-LIGAND FREE ENERGY PREDICTED BY IDOCK:   -4.84 KCAL/MOL
REMARK 924 INTRA-LIGAND FREE ENERGY PREDICTED BY IDOCK:   -0.22 KCAL/MOL
REMARK 927      BINDING AFFINITY PREDICTED BY RF-SCORE:    0.00 PKD
ROOT
HETATM    1  N   UNL     1      -5.456  11.690  68.851  1.00  0.00    -0.049 NA 
HETATM    2  C   UNL     1      -6.787  11.455  68.538  1.00  0.00    -0.073 A  
HETATM    3  H1  UNL     1      -4.859  10.993  69.295  1.00  0.00     0.000 HD 
HETATM    4  H2  UNL     1      -5.422  12.532  69.427  1.00  0.00     0.000 HD 
HETATM    5  C   UNL     1      -7.612  12.417  67.926  1.00  0.00    -0.130 A  
HETATM    6  N   UNL     1      -7.386  13.718  67.530  1.00  0.00    -0.174 NA 
HETATM    7  C   UNL     1      -8.524  14.107  66.994  1.00  0.00    -0.156 A  
HETATM    8  N   UNL     1      -9.485  13.133  67.056  1.00  0.00    -0.234 NA 
HETATM    9  C   UNL     1      -8.915  12.038  67.649  1.00  0.00    -0.172 A  
HETATM   10  N   UNL     1      -7.314  10.249  68.842  1.00  0.00    -0.083 NA 
HETATM   11  N   UNL     1      -9.486  10.851  67.911  1.00  0.00    -0.157 NA 
HETATM   12 CL   UNL     1      -9.208   8.479  68.915  1.00  0.00    -0.146 Cl 
HETATM   13  C   UNL     1      -8.600  10.027  68.508  1.00  0.00    -0.119 A  
ENDROOT
BRANCH   8  14
HETATM   14  C1* UNL     1     -10.841  13.201  66.546  1.00  0.00    -0.280 C  
HETATM   15  C2* UNL     1     -11.162  14.488  65.801  1.00  0.00    -0.334 C  
HETATM   16  C4* UNL     1     -11.967  12.596  64.584  1.00  0.00    -0.402 C  
HETATM   17  C3* UNL     1     -12.303  14.052  64.917  1.00  0.00    -0.427 C  
HETATM   18  O3* UNL     1     -13.510  14.095  65.684  1.00  0.00    -0.725 OA 
HETATM   19  O4* UNL     1     -11.055  12.127  65.607  1.00  0.00    -0.295 OA 
HETATM   20  H3* UNL     1     -14.229  13.821  65.127  1.00  0.00     0.000 HD 
BRANCH  16  21
HETATM   21  C5* UNL     1     -11.282  12.429  63.226  1.00  0.00    -0.309 C  
HETATM   22  O5* UNL     1      -9.868  12.330  63.370  1.00  0.00    -0.572 OA 
HETATM   23  H5* UNL     1      -9.442  12.227  62.527  1.00  0.00     0.000 HD 
ENDBRANCH  16  21
ENDBRANCH   8  14
TORSDOF 2
ENDMDL
MODEL      153
REMARK 921   NORMALIZED FREE ENERGY PREDICTED BY IDOCK:   -4.22 KCAL/MOL
REMARK 922        TOTAL FREE ENERGY PREDICTED BY IDOCK:   -5.05 KCAL/MOL
REMARK 923 INTER-LIGAND FREE ENERGY PREDICTED BY IDOCK:   -5.05 KCAL/MOL
REMARK 924 INTRA-LIGAND FREE ENERGY PREDICTED BY IDOCK:    0.00 KCAL/MOL
REMARK 927      BINDING AFFINITY PREDICTED BY RF-SCORE:    0.00 PKD
ROOT
HETATM    1  N   UNL     1      -9.100   7.053  65.622  1.00  0.00    -0.378 NA 
HETATM    2  C   UNL     1      -9.565   7.254  66.914  1.00  0.00    -0.174 A  
HETATM    3  H1  UNL     1      -8.818   6.139  65.269  1.00  0.00     0.000 HD 
HETATM    4  H2  UNL     1      -8.316   7.690  65.479  1.00  0.00     0.000 HD 
HETATM    5  C   UNL     1      -9.953   8.515  67.401  1.00  0.00    -0.214 A  
HETATM    6  N   UNL     1      -9.962   9.769  66.831  1.00  0.00    -0.199 NA 
HETATM    7  C   UNL     1     -10.457  10.558  67.762  1.00  0.00    -0.224 A  
HETATM    8  N   UNL     1     -10.735   9.880  68.919  1.00  0.00    -0.216 NA 
HETATM    9  C   UNL     1     -10.421   8.565  68.705  1.00  0.00    -0.169 A  
HETATM   10  N   UNL     1      -9.642   6.188  67.740  1.00  0.00    -0.114 NA 
HETATM   11  N   UNL     1     -10.537   7.539  69.563  1.00  0.00    -0.237 NA 
HETATM   12 CL   UNL     1     -10.198   5.004  69.979  1.00  0.00    -0.344 Cl 
HETATM   13  C   UNL     1     -10.121   6.393  68.982  1.00  0.00    -0.165 A  
ENDROOT
BRANCH   8  14
HETATM   14  C1* UNL     1     -11.310  10.418  70.137  1.00  0.00    -0.323 C  
HETATM   15  C2* UNL     1     -12.716  10.974  69.970  1.00  0.00    -0.157 C  
HETATM   16  C4* UNL     1     -12.583   9.618  71.933  1.00  0.00    -0.396 C  
HETATM   17  C3* UNL     1     -13.252  10.877  71.376  1.00  0.00    -0.258 C  
HETATM   18  O3* UNL     1     -12.796  12.018  72.112  1.00  0.00    -0.253 OA 
HETATM   19  O4* UNL     1     -11.404   9.373  71.127  1.00  0.00    -0.291 OA 
HETATM   20  H3* UNL     1     -13.134  11.957  72.998  1.00  0.00     0.000 HD 
BRANCH  16  21
HETATM   21  C5* UNL     1     -13.474   8.376  71.858  1.00  0.00    -0.363 C  
HETATM   22  O5* UNL     1     -13.042   7.492  70.827  1.00  0.00    -0.579 OA 
HETATM   23  H5* UNL     1     -13.596   6.722  70.780  1.00  0.00     0.000 HD 
ENDBRANCH  16  21
ENDBRANCH   8  14
TORSDOF 2
ENDMDL
MODEL      154
REMARK 921   NORMALIZED FREE ENERGY PREDICTED BY IDOCK:   -4.20 KCAL/MOL
REMARK 922        TOTAL FREE ENERGY PREDICTED BY IDOCK:   -5.04 KCAL/MOL
REMARK 923 INTER-LIGAND FREE ENERGY PREDICTED BY IDOCK:   -4.69 KCAL/MOL
REMARK 924 INTRA-LIGAND FREE ENERGY PREDICTED BY IDOCK:   -0.34 KCAL/MOL
REMARK 927      BINDING AFFINITY PREDICTED BY RF-SCORE:    0.00 PKD
ROOT
HETATM    1  N   UNL     1     -11.991  13.055  70.297  1.00  0.00    -0.490 NA 
HETATM    2  C   UNL     1     -11.978  11.690  70.547  1.00  0.00    -0.319 A  
HETATM    3  H1  UNL     1     -12.646  13.695  70.746  1.00  0.00     0.000 HD 
HETATM    4  H2  UNL     1     -12.086  13.179  69.289  1.00  0.00     0.000 HD 
HETATM    5  C   UNL     1     -11.075  10.807  69.927  1.00  0.00    -0.271 A  
HETATM    6  N   UNL     1     -10.083  10.998  68.991  1.00  0.00    -0.202 NA 
HETATM    7  C   UNL     1      -9.554   9.805  68.813  1.00  0.00    -0.154 A  
HETATM    8  N   UNL     1     -10.182   8.845  69.563  1.00  0.00    -0.199 NA 
HETATM    9  C   UNL     1     -11.160   9.472  70.289  1.00  0.00    -0.271 A  
HETATM   10  N   UNL     1     -12.878  11.189  71.420  1.00  0.00    -0.438 NA 
HETATM   11  N   UNL     1     -12.019   8.922  71.162  1.00  0.00    -0.294 NA 
HETATM   12 CL   UNL     1     -13.999   9.295  72.791  1.00  0.00    -0.348 Cl 
HETATM   13  C   UNL     1     -12.836   9.867  71.673  1.00  0.00    -0.436 A  
ENDROOT
BRANCH   8  14
HETATM   14  C1* UNL     1      -9.854   7.434  69.639  1.00  0.00    -0.175 C  
HETATM   15  C2* UNL     1     -10.661   6.556  68.695  1.00  0.00    -0.323 C  
HETATM   16  C4* UNL     1      -8.348   5.966  68.610  1.00  0.00    -0.109 C  
HETATM   17  C3* UNL     1      -9.753   5.363  68.536  1.00  0.00    -0.137 C  
HETATM   18  O3* UNL     1      -9.953   4.492  69.654  1.00  0.00    -0.219 OA 
HETATM   19  O4* UNL     1      -8.469   7.243  69.284  1.00  0.00    -0.131 OA 
HETATM   20  H3* UNL     1      -9.381   3.740  69.554  1.00  0.00     0.000 HD 
BRANCH  16  21
HETATM   21  C5* UNL     1      -7.722   6.213  67.236  1.00  0.00    -0.094 C  
HETATM   22  O5* UNL     1      -7.587   4.998  66.504  1.00  0.00    -0.086 OA 
HETATM   23  H5* UNL     1      -7.198   5.151  65.651  1.00  0.00     0.000 HD 
ENDBRANCH  16  21
ENDBRANCH   8  14
TORSDOF 2
ENDMDL
MODEL      155
REMARK 921   NORMALIZED FREE ENERGY PREDICTED BY IDOCK:   -4.12 KCAL/MOL
REMARK 922        TOTAL FREE ENERGY PREDICTED BY IDOCK:   -4.95 KCAL/MOL
REMARK 923 INTER-LIGAND FREE ENERGY PREDICTED BY IDOCK:   -4.84 KCAL/MOL
REMARK 924 INTRA-LIGAND FREE ENERGY PREDICTED BY IDOCK:   -0.11 KCAL/MOL
REMARK 927      BINDING AFFINITY PREDICTED BY RF-SCORE:    0.00 PKD
ROOT
HETATM    1  N   UNL     1      -9.020   6.148  67.906  1.00  0.00    -0.114 NA 
HETATM    2  C   UNL     1      -9.436   7.424  67.553  1.00  0.00    -0.138 A  
HETATM    3  H1  UNL     1      -8.572   5.509  67.250  1.00  0.00     0.000 HD 
HETATM    4  H2  UNL     1      -9.826   5.664  68.301  1.00  0.00     0.000 HD 
HETATM    5  C   UNL     1     -10.055   8.306  68.457  1.00  0.00    -0.197 A  
HETATM    6  N   UNL     1     -10.413   8.178  69.782  1.00  0.00    -0.224 NA 
HETATM    7  C   UNL     1     -10.933   9.345  70.103  1.00  0.00    -0.246 A  
HETATM    8  N   UNL     1     -10.961  10.208  69.039  1.00  0.00    -0.226 NA 
HETATM    9  C   UNL     1     -10.397   9.559  67.974  1.00  0.00    -0.214 A  
HETATM   10  N   UNL     1      -9.242   7.833  66.280  1.00  0.00    -0.180 NA 
HETATM   11  N   UNL     1     -10.212  10.024  66.728  1.00  0.00    -0.227 NA 
HETATM   12 CL   UNL     1      -9.350   9.542  64.333  1.00  0.00    -0.214 Cl 
HETATM   13  C   UNL     1      -9.626   9.083  65.958  1.00  0.00    -0.272 A  
ENDROOT
BRANCH   8  14
HETATM   14  C1* UNL     1     -11.438  11.578  69.031  1.00  0.00    -0.291 C  
HETATM   15  C2* UNL     1     -10.335  12.621  68.930  1.00  0.00    -0.055 C  
HETATM   16  C4* UNL     1     -12.120  13.147  67.431  1.00  0.00    -0.263 C  
HETATM   17  C3* UNL     1     -11.078  13.796  68.346  1.00  0.00    -0.263 C  
HETATM   18  O3* UNL     1     -11.746  14.481  69.411  1.00  0.00    -0.281 OA 
HETATM   19  O4* UNL     1     -12.293  11.782  67.887  1.00  0.00    -0.399 OA 
HETATM   20  H3* UNL     1     -12.215  15.221  69.043  1.00  0.00     0.000 HD 
BRANCH  16  21
HETATM   21  C5* UNL     1     -11.694  13.106  65.963  1.00  0.00    -0.379 C  
HETATM   22  O5* UNL     1     -12.710  12.531  65.146  1.00  0.00    -0.659 OA 
HETATM   23  H5* UNL     1     -12.445  12.505  64.234  1.00  0.00     0.000 HD 
ENDBRANCH  16  21
ENDBRANCH   8  14
TORSDOF 2
ENDMDL
MODEL      156
REMARK 921   NORMALIZED FREE ENERGY PREDICTED BY IDOCK:   -4.12 KCAL/MOL
REMARK 922        TOTAL FREE ENERGY PREDICTED BY IDOCK:   -4.95 KCAL/MOL
REMARK 923 INTER-LIGAND FREE ENERGY PREDICTED BY IDOCK:   -4.61 KCAL/MOL
REMARK 924 INTRA-LIGAND FREE ENERGY PREDICTED BY IDOCK:   -0.33 KCAL/MOL
REMARK 927      BINDING AFFINITY PREDICTED BY RF-SCORE:    0.00 PKD
ROOT
HETATM    1  N   UNL     1     -12.263  15.730  64.317  1.00  0.00    -0.646 NA 
HETATM    2  C   UNL     1     -11.145  15.196  64.942  1.00  0.00    -0.414 A  
HETATM    3  H1  UNL     1     -12.423  16.734  64.228  1.00  0.00     0.000 HD 
HETATM    4  H2  UNL     1     -13.086  15.329  64.769  1.00  0.00     0.000 HD 
HETATM    5  C   UNL     1     -10.925  13.813  65.066  1.00  0.00    -0.357 A  
HETATM    6  N   UNL     1     -11.664  12.716  64.681  1.00  0.00    -0.339 NA 
HETATM    7  C   UNL     1     -10.937  11.678  65.040  1.00  0.00    -0.273 A  
HETATM    8  N   UNL     1      -9.780  12.052  65.671  1.00  0.00    -0.240 NA 
HETATM    9  C   UNL     1      -9.753  13.420  65.694  1.00  0.00    -0.082 A  
HETATM   10  N   UNL     1     -10.233  16.047  65.459  1.00  0.00    -0.458 NA 
HETATM   11  N   UNL     1      -8.804  14.218  66.209  1.00  0.00     0.027 NA 
HETATM   12 CL   UNL     1      -8.019  16.644  66.672  1.00  0.00    -0.283 Cl 
HETATM   13  C   UNL     1      -9.140  15.515  66.040  1.00  0.00    -0.281 A  
ENDROOT
BRANCH   8  14
HETATM   14  C1* UNL     1      -8.734  11.183  66.177  1.00  0.00    -0.186 C  
HETATM   15  C2* UNL     1      -9.248   9.952  66.909  1.00  0.00    -0.171 C  
HETATM   16  C4* UNL     1      -7.496   9.354  65.398  1.00  0.00    -0.099 C  
HETATM   17  C3* UNL     1      -8.083   9.005  66.768  1.00  0.00    -0.111 C  
HETATM   18  O3* UNL     1      -7.124   9.315  67.785  1.00  0.00    -0.080 OA 
HETATM   19  O4* UNL     1      -7.939  10.696  65.077  1.00  0.00    -0.119 OA 
HETATM   20  H3* UNL     1      -6.390   8.718  67.696  1.00  0.00     0.000 HD 
BRANCH  16  21
HETATM   21  C5* UNL     1      -7.969   8.420  64.282  1.00  0.00    -0.149 C  
HETATM   22  O5* UNL     1      -8.693   7.311  64.809  1.00  0.00    -0.349 OA 
HETATM   23  H5* UNL     1      -8.985   6.731  64.116  1.00  0.00     0.000 HD 
ENDBRANCH  16  21
ENDBRANCH   8  14
TORSDOF 2
ENDMDL
MODEL      157
REMARK 921   NORMALIZED FREE ENERGY PREDICTED BY IDOCK:   -4.11 KCAL/MOL
REMARK 922        TOTAL FREE ENERGY PREDICTED BY IDOCK:   -4.93 KCAL/MOL
REMARK 923 INTER-LIGAND FREE ENERGY PREDICTED BY IDOCK:   -4.66 KCAL/MOL
REMARK 924 INTRA-LIGAND FREE ENERGY PREDICTED BY IDOCK:   -0.28 KCAL/MOL
REMARK 927      BINDING AFFINITY PREDICTED BY RF-SCORE:    0.00 PKD
ROOT
HETATM    1  N   UNL     1     -11.803   7.039  72.207  1.00  0.00    -0.401 NA 
HETATM    2  C   UNL     1     -11.383   7.343  70.920  1.00  0.00    -0.276 A  
HETATM    3  H1  UNL     1     -11.830   6.087  72.572  1.00  0.00     0.000 HD 
HETATM    4  H2  UNL     1     -12.734   7.438  72.326  1.00  0.00     0.000 HD 
HETATM    5  C   UNL     1     -11.346   8.656  70.416  1.00  0.00    -0.187 A  
HETATM    6  N   UNL     1     -11.693   9.871  70.964  1.00  0.00    -0.351 NA 
HETATM    7  C   UNL     1     -11.414  10.754  70.027  1.00  0.00    -0.331 A  
HETATM    8  N   UNL     1     -10.936  10.163  68.887  1.00  0.00    -0.227 NA 
HETATM    9  C   UNL     1     -10.882   8.815  69.120  1.00  0.00    -0.053 A  
HETATM   10  N   UNL     1     -10.999   6.329  70.115  1.00  0.00    -0.314 NA 
HETATM   11  N   UNL     1     -10.471   7.849  68.283  1.00  0.00    -0.192 NA 
HETATM   12 CL   UNL     1     -10.094   5.314  67.907  1.00  0.00    -0.209 Cl 
HETATM   13  C   UNL     1     -10.569   6.641  68.877  1.00  0.00    -0.230 A  
ENDROOT
BRANCH   8  14
HETATM   14  C1* UNL     1     -10.506  10.823  67.669  1.00  0.00    -0.214 C  
HETATM   15  C2* UNL     1     -11.413  11.960  67.223  1.00  0.00    -0.385 C  
HETATM   16  C4* UNL     1      -9.120  12.619  67.089  1.00  0.00    -0.210 C  
HETATM   17  C3* UNL     1     -10.471  12.792  66.390  1.00  0.00    -0.250 C  
HETATM   18  O3* UNL     1     -10.402  12.219  65.079  1.00  0.00    -0.278 OA 
HETATM   19  O4* UNL     1      -9.201  11.403  67.872  1.00  0.00    -0.155 OA 
HETATM   20  H3* UNL     1      -9.809  12.744  64.555  1.00  0.00     0.000 HD 
BRANCH  16  21
HETATM   21  C5* UNL     1      -8.778  13.771  68.036  1.00  0.00    -0.181 C  
HETATM   22  O5* UNL     1      -9.845  14.712  68.111  1.00  0.00    -0.214 OA 
HETATM   23  H5* UNL     1      -9.632  15.427  68.699  1.00  0.00     0.000 HD 
ENDBRANCH  16  21
ENDBRANCH   8  14
TORSDOF 2
ENDMDL
MODEL      158
REMARK 921   NORMALIZED FREE ENERGY PREDICTED BY IDOCK:   -4.11 KCAL/MOL
REMARK 922        TOTAL FREE ENERGY PREDICTED BY IDOCK:   -4.93 KCAL/MOL
REMARK 923 INTER-LIGAND FREE ENERGY PREDICTED BY IDOCK:   -4.54 KCAL/MOL
REMARK 924 INTRA-LIGAND FREE ENERGY PREDICTED BY IDOCK:   -0.39 KCAL/MOL
REMARK 927      BINDING AFFINITY PREDICTED BY RF-SCORE:    0.00 PKD
ROOT
HETATM    1  N   UNL     1      -6.580   6.512  67.405  1.00  0.00    -0.058 NA 
HETATM    2  C   UNL     1      -7.780   7.194  67.546  1.00  0.00    -0.111 A  
HETATM    3  H1  UNL     1      -6.445   5.552  67.724  1.00  0.00     0.000 HD 
HETATM    4  H2  UNL     1      -5.853   7.082  67.838  1.00  0.00     0.000 HD 
HETATM    5  C   UNL     1      -7.966   8.517  67.107  1.00  0.00    -0.101 A  
HETATM    6  N   UNL     1      -7.119   9.425  66.509  1.00  0.00    -0.084 NA 
HETATM    7  C   UNL     1      -7.862  10.493  66.305  1.00  0.00    -0.141 A  
HETATM    8  N   UNL     1      -9.138  10.332  66.775  1.00  0.00    -0.142 NA 
HETATM    9  C   UNL     1      -9.224   9.066  67.291  1.00  0.00    -0.134 A  
HETATM   10  N   UNL     1      -8.814   6.557  68.138  1.00  0.00    -0.116 NA 
HETATM   11  N   UNL     1     -10.291   8.476  67.854  1.00  0.00    -0.222 NA 
HETATM   12 CL   UNL     1     -11.251   6.360  68.999  1.00  0.00    -0.416 Cl 
HETATM   13  C   UNL     1      -9.980   7.221  68.244  1.00  0.00    -0.160 A  
ENDROOT
BRANCH   8  14
HETATM   14  C1* UNL     1     -10.230  11.284  66.701  1.00  0.00    -0.229 C  
HETATM   15  C2* UNL     1      -9.784  12.735  66.593  1.00  0.00    -0.252 C  
HETATM   16  C4* UNL     1     -11.528  12.279  65.025  1.00  0.00    -0.336 C  
HETATM   17  C3* UNL     1     -10.985  13.375  65.944  1.00  0.00    -0.274 C  
HETATM   18  O3* UNL     1     -11.951  13.659  66.963  1.00  0.00    -0.388 OA 
HETATM   19  O4* UNL     1     -11.022  11.017  65.526  1.00  0.00    -0.150 OA 
HETATM   20  H3* UNL     1     -12.707  14.063  66.554  1.00  0.00     0.000 HD 
BRANCH  16  21
HETATM   21  C5* UNL     1     -11.073  12.428  63.572  1.00  0.00    -0.458 C  
HETATM   22  O5* UNL     1     -10.676  11.173  63.024  1.00  0.00    -0.771 OA 
HETATM   23  H5* UNL     1     -10.393  11.266  62.122  1.00  0.00     0.000 HD 
ENDBRANCH  16  21
ENDBRANCH   8  14
TORSDOF 2
ENDMDL
MODEL      159
REMARK 921   NORMALIZED FREE ENERGY PREDICTED BY IDOCK:   -4.11 KCAL/MOL
REMARK 922        TOTAL FREE ENERGY PREDICTED BY IDOCK:   -4.93 KCAL/MOL
REMARK 923 INTER-LIGAND FREE ENERGY PREDICTED BY IDOCK:   -4.47 KCAL/MOL
REMARK 924 INTRA-LIGAND FREE ENERGY PREDICTED BY IDOCK:   -0.46 KCAL/MOL
REMARK 927      BINDING AFFINITY PREDICTED BY RF-SCORE:    0.00 PKD
ROOT
HETATM    1  N   UNL     1     -11.892   5.647  72.973  1.00  0.00    -0.532 NA 
HETATM    2  C   UNL     1     -11.343   6.416  71.956  1.00  0.00    -0.294 A  
HETATM    3  H1  UNL     1     -11.622   4.678  73.144  1.00  0.00     0.000 HD 
HETATM    4  H2  UNL     1     -12.905   5.665  72.856  1.00  0.00     0.000 HD 
HETATM    5  C   UNL     1     -11.716   7.752  71.720  1.00  0.00    -0.284 A  
HETATM    6  N   UNL     1     -12.633   8.582  72.327  1.00  0.00    -0.377 NA 
HETATM    7  C   UNL     1     -12.519   9.729  71.690  1.00  0.00    -0.410 A  
HETATM    8  N   UNL     1     -11.599   9.669  70.678  1.00  0.00    -0.284 NA 
HETATM    9  C   UNL     1     -11.069   8.407  70.684  1.00  0.00    -0.256 A  
HETATM   10  N   UNL     1     -10.415   5.850  71.155  1.00  0.00    -0.223 NA 
HETATM   11  N   UNL     1     -10.128   7.903  69.870  1.00  0.00    -0.193 NA 
HETATM   12 CL   UNL     1      -8.700   5.844  69.210  1.00  0.00    -0.118 Cl 
HETATM   13  C   UNL     1      -9.872   6.616  70.189  1.00  0.00    -0.166 A  
ENDROOT
BRANCH   8  14
HETATM   14  C1* UNL     1     -11.198  10.743  69.789  1.00  0.00    -0.297 C  
HETATM   15  C2* UNL     1      -9.698  10.992  69.750  1.00  0.00     0.518 C  
HETATM   16  C4* UNL     1     -10.598  10.972  67.537  1.00  0.00    -0.227 C  
HETATM   17  C3* UNL     1      -9.532  11.649  68.403  1.00  0.00    -0.193 C  
HETATM   18  O3* UNL     1      -9.845  13.039  68.537  1.00  0.00    -0.299 OA 
HETATM   19  O4* UNL     1     -11.589  10.420  68.438  1.00  0.00    -0.277 OA 
HETATM   20  H3* UNL     1      -9.741  13.453  67.688  1.00  0.00     0.000 HD 
BRANCH  16  21
HETATM   21  C5* UNL     1     -10.046   9.829  66.683  1.00  0.00    -0.237 C  
HETATM   22  O5* UNL     1     -10.676   8.592  67.006  1.00  0.00    -0.324 OA 
HETATM   23  H5* UNL     1     -10.334   7.883  66.476  1.00  0.00     0.000 HD 
ENDBRANCH  16  21
ENDBRANCH   8  14
TORSDOF 2
ENDMDL
MODEL      160
REMARK 921   NORMALIZED FREE ENERGY PREDICTED BY IDOCK:   -4.09 KCAL/MOL
REMARK 922        TOTAL FREE ENERGY PREDICTED BY IDOCK:   -4.92 KCAL/MOL
REMARK 923 INTER-LIGAND FREE ENERGY PREDICTED BY IDOCK:   -4.60 KCAL/MOL
REMARK 924 INTRA-LIGAND FREE ENERGY PREDICTED BY IDOCK:   -0.32 KCAL/MOL
REMARK 927      BINDING AFFINITY PREDICTED BY RF-SCORE:    0.00 PKD
ROOT
HETATM    1  N   UNL     1      -8.865  18.279  66.154  1.00  0.00    -0.494 NA 
HETATM    2  C   UNL     1      -9.446  17.046  65.898  1.00  0.00    -0.082 A  
HETATM    3  H1  UNL     1      -9.258  19.159  65.819  1.00  0.00     0.000 HD 
HETATM    4  H2  UNL     1      -7.899  18.234  65.830  1.00  0.00     0.000 HD 
HETATM    5  C   UNL     1      -8.904  15.832  66.360  1.00  0.00    -0.336 A  
HETATM    6  N   UNL     1      -7.770  15.538  67.085  1.00  0.00    -0.211 NA 
HETATM    7  C   UNL     1      -7.800  14.230  67.239  1.00  0.00    -0.147 A  
HETATM    8  N   UNL     1      -8.880  13.662  66.617  1.00  0.00    -0.131 NA 
HETATM    9  C   UNL     1      -9.603  14.677  66.050  1.00  0.00    -0.290 A  
HETATM   10  N   UNL     1     -10.581  17.011  65.167  1.00  0.00    -0.687 NA 
HETATM   11  N   UNL     1     -10.741  14.584  65.345  1.00  0.00    -0.336 NA 
HETATM   12 CL   UNL     1     -12.585  15.832  64.019  1.00  0.00     0.269 Cl 
HETATM   13  C   UNL     1     -11.148  15.809  64.948  1.00  0.00    -0.399 A  
ENDROOT
BRANCH   8  14
HETATM   14  C1* UNL     1      -9.245  12.258  66.597  1.00  0.00    -0.208 C  
HETATM   15  C2* UNL     1     -10.588  11.955  67.243  1.00  0.00    -0.261 C  
HETATM   16  C4* UNL     1     -10.386  10.803  65.160  1.00  0.00    -0.271 C  
HETATM   17  C3* UNL     1     -10.966  10.660  66.569  1.00  0.00    -0.028 C  
HETATM   18  O3* UNL     1     -10.301   9.588  67.247  1.00  0.00    -0.223 OA 
HETATM   19  O4* UNL     1      -9.343  11.807  65.230  1.00  0.00    -0.168 OA 
HETATM   20  H3* UNL     1     -10.539   8.772  66.822  1.00  0.00     0.000 HD 
BRANCH  16  21
HETATM   21  C5* UNL     1     -11.415  11.262  64.126  1.00  0.00     0.052 C  
HETATM   22  O5* UNL     1     -10.812  12.071  63.120  1.00  0.00    -0.649 OA 
HETATM   23  H5* UNL     1     -11.451  12.356  62.478  1.00  0.00     0.000 HD 
ENDBRANCH  16  21
ENDBRANCH   8  14
TORSDOF 2
ENDMDL
MODEL      161
REMARK 921   NORMALIZED FREE ENERGY PREDICTED BY IDOCK:   -4.09 KCAL/MOL
REMARK 922        TOTAL FREE ENERGY PREDICTED BY IDOCK:   -4.92 KCAL/MOL
REMARK 923 INTER-LIGAND FREE ENERGY PREDICTED BY IDOCK:   -4.86 KCAL/MOL
REMARK 924 INTRA-LIGAND FREE ENERGY PREDICTED BY IDOCK:   -0.05 KCAL/MOL
REMARK 927      BINDING AFFINITY PREDICTED BY RF-SCORE:    0.00 PKD
ROOT
HETATM    1  N   UNL     1      -9.753   9.706  64.826  1.00  0.00    -0.431 NA 
HETATM    2  C   UNL     1      -9.774   9.144  66.095  1.00  0.00    -0.287 A  
HETATM    3  H1  UNL     1      -9.226   9.306  64.050  1.00  0.00     0.000 HD 
HETATM    4  H2  UNL     1      -9.457  10.677  64.928  1.00  0.00     0.000 HD 
HETATM    5  C   UNL     1     -10.500   9.697  67.166  1.00  0.00    -0.249 A  
HETATM    6  N   UNL     1     -11.284  10.825  67.273  1.00  0.00    -0.374 NA 
HETATM    7  C   UNL     1     -11.726  10.810  68.513  1.00  0.00    -0.189 A  
HETATM    8  N   UNL     1     -11.235   9.746  69.224  1.00  0.00    -0.146 NA 
HETATM    9  C   UNL     1     -10.449   9.017  68.372  1.00  0.00    -0.192 A  
HETATM   10  N   UNL     1      -9.057   8.020  66.310  1.00  0.00    -0.180 NA 
HETATM   11  N   UNL     1      -9.771   7.889  68.638  1.00  0.00    -0.155 NA 
HETATM   12 CL   UNL     1      -8.181   6.047  67.747  1.00  0.00    -0.112 Cl 
HETATM   13  C   UNL     1      -9.107   7.472  67.539  1.00  0.00    -0.125 A  
ENDROOT
BRANCH   8  14
HETATM   14  C1* UNL     1     -11.526   9.400  70.602  1.00  0.00    -0.284 C  
HETATM   15  C2* UNL     1     -11.905   7.941  70.811  1.00  0.00    -0.190 C  
HETATM   16  C4* UNL     1     -10.332   8.640  72.468  1.00  0.00    -0.159 C  
HETATM   17  C3* UNL     1     -11.552   7.740  72.263  1.00  0.00    -0.338 C  
HETATM   18  O3* UNL     1     -12.636   8.225  73.062  1.00  0.00    -0.680 OA 
HETATM   19  O4* UNL     1     -10.356   9.633  71.413  1.00  0.00    -0.242 OA 
HETATM   20  H3* UNL     1     -12.414   8.097  73.977  1.00  0.00     0.000 HD 
BRANCH  16  21
HETATM   21  C5* UNL     1      -9.003   7.887  72.379  1.00  0.00    -0.163 C  
HETATM   22  O5* UNL     1      -7.917   8.703  72.809  1.00  0.00    -0.370 OA 
HETATM   23  H5* UNL     1      -7.092   8.236  72.754  1.00  0.00     0.000 HD 
ENDBRANCH  16  21
ENDBRANCH   8  14
TORSDOF 2
ENDMDL
MODEL      162
REMARK 921   NORMALIZED FREE ENERGY PREDICTED BY IDOCK:   -4.09 KCAL/MOL
REMARK 922        TOTAL FREE ENERGY PREDICTED BY IDOCK:   -4.91 KCAL/MOL
REMARK 923 INTER-LIGAND FREE ENERGY PREDICTED BY IDOCK:   -4.55 KCAL/MOL
REMARK 924 INTRA-LIGAND FREE ENERGY PREDICTED BY IDOCK:   -0.36 KCAL/MOL
REMARK 927      BINDING AFFINITY PREDICTED BY RF-SCORE:    0.00 PKD
ROOT
HETATM    1  N   UNL     1     -13.452  10.363  72.576  1.00  0.00    -0.474 NA 
HETATM    2  C   UNL     1     -12.639  10.555  71.469  1.00  0.00    -0.424 A  
HETATM    3  H1  UNL     1     -13.955  11.123  73.035  1.00  0.00     0.000 HD 
HETATM    4  H2  UNL     1     -12.891   9.895  73.289  1.00  0.00     0.000 HD 
HETATM    5  C   UNL     1     -11.945   9.507  70.837  1.00  0.00    -0.295 A  
HETATM    6  N   UNL     1     -11.852   8.159  71.106  1.00  0.00    -0.284 NA 
HETATM    7  C   UNL     1     -11.078   7.680  70.154  1.00  0.00    -0.218 A  
HETATM    8  N   UNL     1     -10.637   8.659  69.304  1.00  0.00    -0.218 NA 
HETATM    9  C   UNL     1     -11.187   9.840  69.725  1.00  0.00    -0.202 A  
HETATM   10  N   UNL     1     -12.505  11.807  70.981  1.00  0.00    -0.359 NA 
HETATM   11  N   UNL     1     -11.033  11.060  69.187  1.00  0.00    -0.221 NA 
HETATM   12 CL   UNL     1     -11.607  13.584  69.319  1.00  0.00    -0.346 Cl 
HETATM   13  C   UNL     1     -11.734  11.975  69.890  1.00  0.00    -0.299 A  
ENDROOT
BRANCH   8  14
HETATM   14  C1* UNL     1      -9.794   8.496  68.136  1.00  0.00    -0.165 C  
HETATM   15  C2* UNL     1      -8.461   7.819  68.420  1.00  0.00    -0.125 C  
HETATM   16  C4* UNL     1      -9.470   6.886  66.465  1.00  0.00    -0.153 C  
HETATM   17  C3* UNL     1      -8.111   7.253  67.067  1.00  0.00    -0.117 C  
HETATM   18  O3* UNL     1      -7.514   8.292  66.284  1.00  0.00    -0.077 OA 
HETATM   19  O4* UNL     1     -10.469   7.667  67.167  1.00  0.00    -0.287 OA 
HETATM   20  H3* UNL     1      -7.293   7.936  65.431  1.00  0.00     0.000 HD 
BRANCH  16  21
HETATM   21  C5* UNL     1      -9.825   5.407  66.628  1.00  0.00    -0.174 C  
HETATM   22  O5* UNL     1      -8.652   4.603  66.724  1.00  0.00    -0.109 OA 
HETATM   23  H5* UNL     1      -8.872   3.685  66.825  1.00  0.00     0.000 HD 
ENDBRANCH  16  21
ENDBRANCH   8  14
TORSDOF 2
ENDMDL
MODEL      163
REMARK 921   NORMALIZED FREE ENERGY PREDICTED BY IDOCK:   -4.07 KCAL/MOL
REMARK 922        TOTAL FREE ENERGY PREDICTED BY IDOCK:   -4.89 KCAL/MOL
REMARK 923 INTER-LIGAND FREE ENERGY PREDICTED BY IDOCK:   -4.67 KCAL/MOL
REMARK 924 INTRA-LIGAND FREE ENERGY PREDICTED BY IDOCK:   -0.22 KCAL/MOL
REMARK 927      BINDING AFFINITY PREDICTED BY RF-SCORE:    0.00 PKD
ROOT
HETATM    1  N   UNL     1     -10.096  10.982  62.514  1.00  0.00    -0.669 NA 
HETATM    2  C   UNL     1      -9.524  10.224  63.525  1.00  0.00    -0.298 A  
HETATM    3  H1  UNL     1      -9.855  10.868  61.530  1.00  0.00     0.000 HD 
HETATM    4  H2  UNL     1      -9.953  11.964  62.751  1.00  0.00     0.000 HD 
HETATM    5  C   UNL     1      -9.856  10.382  64.883  1.00  0.00    -0.334 A  
HETATM    6  N   UNL     1     -10.715  11.239  65.536  1.00  0.00    -0.250 NA 
HETATM    7  C   UNL     1     -10.627  10.900  66.805  1.00  0.00    -0.259 A  
HETATM    8  N   UNL     1      -9.726   9.888  67.009  1.00  0.00    -0.174 NA 
HETATM    9  C   UNL     1      -9.223   9.540  65.784  1.00  0.00    -0.211 A  
HETATM   10  N   UNL     1      -8.601   9.297  63.188  1.00  0.00    -0.211 NA 
HETATM   11  N   UNL     1      -8.315   8.591  65.504  1.00  0.00    -0.147 NA 
HETATM   12 CL   UNL     1      -6.913   7.392  63.685  1.00  0.00    -0.056 Cl 
HETATM   13  C   UNL     1      -8.073   8.551  64.177  1.00  0.00    -0.154 A  
ENDROOT
BRANCH   8  14
HETATM   14  C1* UNL     1      -9.392   9.248  68.266  1.00  0.00    -0.134 C  
HETATM   15  C2* UNL     1      -8.629  10.139  69.235  1.00  0.00    -0.180 C  
HETATM   16  C4* UNL     1     -10.382   8.980  70.372  1.00  0.00    -0.212 C  
HETATM   17  C3* UNL     1      -8.954   9.497  70.560  1.00  0.00    -0.211 C  
HETATM   18  O3* UNL     1      -8.071   8.387  70.753  1.00  0.00    -0.096 OA 
HETATM   19  O4* UNL     1     -10.604   8.858  68.945  1.00  0.00    -0.217 OA 
HETATM   20  H3* UNL     1      -8.276   7.983  71.588  1.00  0.00     0.000 HD 
BRANCH  16  21
HETATM   21  C5* UNL     1     -11.447   9.922  70.937  1.00  0.00    -0.376 C  
HETATM   22  O5* UNL     1     -11.345  11.221  70.361  1.00  0.00    -0.482 OA 
HETATM   23  H5* UNL     1     -12.006  11.806  70.713  1.00  0.00     0.000 HD 
ENDBRANCH  16  21
ENDBRANCH   8  14
TORSDOF 2
ENDMDL
MODEL      164
REMARK 921   NORMALIZED FREE ENERGY PREDICTED BY IDOCK:   -4.07 KCAL/MOL
REMARK 922        TOTAL FREE ENERGY PREDICTED BY IDOCK:   -4.89 KCAL/MOL
REMARK 923 INTER-LIGAND FREE ENERGY PREDICTED BY IDOCK:   -4.55 KCAL/MOL
REMARK 924 INTRA-LIGAND FREE ENERGY PREDICTED BY IDOCK:   -0.34 KCAL/MOL
REMARK 927      BINDING AFFINITY PREDICTED BY RF-SCORE:    0.00 PKD
ROOT
HETATM    1  N   UNL     1      -9.909  10.631  68.012  1.00  0.00    -0.157 NA 
HETATM    2  C   UNL     1      -9.121  11.742  67.746  1.00  0.00    -0.178 A  
HETATM    3  H1  UNL     1      -9.522   9.699  68.160  1.00  0.00     0.000 HD 
HETATM    4  H2  UNL     1     -10.599  10.560  67.265  1.00  0.00     0.000 HD 
HETATM    5  C   UNL     1      -9.654  13.028  67.542  1.00  0.00    -0.204 A  
HETATM    6  N   UNL     1     -10.946  13.505  67.521  1.00  0.00    -0.264 NA 
HETATM    7  C   UNL     1     -10.823  14.799  67.311  1.00  0.00    -0.309 A  
HETATM    8  N   UNL     1      -9.514  15.175  67.158  1.00  0.00    -0.212 NA 
HETATM    9  C   UNL     1      -8.748  14.050  67.307  1.00  0.00    -0.218 A  
HETATM   10  N   UNL     1      -7.783  11.576  67.673  1.00  0.00    -0.117 NA 
HETATM   11  N   UNL     1      -7.411  13.948  67.243  1.00  0.00    -0.111 NA 
HETATM   12 CL   UNL     1      -5.341  12.393  67.362  1.00  0.00    -0.118 Cl 
HETATM   13  C   UNL     1      -7.029  12.668  67.439  1.00  0.00    -0.142 A  
ENDROOT
BRANCH   8  14
HETATM   14  C1* UNL     1      -9.003  16.515  66.938  1.00  0.00    -0.219 C  
HETATM   15  C2* UNL     1      -9.945  17.420  66.158  1.00  0.00    -0.281 C  
HETATM   16  C4* UNL     1      -9.056  18.575  68.050  1.00  0.00    -0.301 C  
HETATM   17  C3* UNL     1      -9.489  18.787  66.597  1.00  0.00    -0.330 C  
HETATM   18  O3* UNL     1      -8.348  19.156  65.814  1.00  0.00    -0.431 OA 
HETATM   19  O4* UNL     1      -8.784  17.161  68.209  1.00  0.00    -0.225 OA 
HETATM   20  H3* UNL     1      -8.061  20.018  66.092  1.00  0.00     0.000 HD 
BRANCH  16  21
HETATM   21  C5* UNL     1     -10.132  18.967  69.065  1.00  0.00    -0.271 C  
HETATM   22  O5* UNL     1     -10.535  20.323  68.893  1.00  0.00    -0.460 OA 
HETATM   23  H5* UNL     1     -11.202  20.566  69.523  1.00  0.00     0.000 HD 
ENDBRANCH  16  21
ENDBRANCH   8  14
TORSDOF 2
ENDMDL
MODEL      165
REMARK 921   NORMALIZED FREE ENERGY PREDICTED BY IDOCK:   -4.06 KCAL/MOL
REMARK 922        TOTAL FREE ENERGY PREDICTED BY IDOCK:   -4.88 KCAL/MOL
REMARK 923 INTER-LIGAND FREE ENERGY PREDICTED BY IDOCK:   -4.54 KCAL/MOL
REMARK 924 INTRA-LIGAND FREE ENERGY PREDICTED BY IDOCK:   -0.34 KCAL/MOL
REMARK 927      BINDING AFFINITY PREDICTED BY RF-SCORE:    0.00 PKD
ROOT
HETATM    1  N   UNL     1     -11.692  13.305  66.157  1.00  0.00    -0.356 NA 
HETATM    2  C   UNL     1     -11.594  12.381  67.187  1.00  0.00    -0.365 A  
HETATM    3  H1  UNL     1     -12.076  14.241  66.284  1.00  0.00     0.000 HD 
HETATM    4  H2  UNL     1     -12.212  12.862  65.399  1.00  0.00     0.000 HD 
HETATM    5  C   UNL     1     -11.064  11.090  67.011  1.00  0.00    -0.244 A  
HETATM    6  N   UNL     1     -10.573  10.430  65.906  1.00  0.00    -0.108 NA 
HETATM    7  C   UNL     1     -10.193   9.253  66.359  1.00  0.00    -0.228 A  
HETATM    8  N   UNL     1     -10.449   9.108  67.697  1.00  0.00    -0.255 NA 
HETATM    9  C   UNL     1     -11.005  10.280  68.134  1.00  0.00    -0.274 A  
HETATM   10  N   UNL     1     -12.034  12.739  68.413  1.00  0.00    -0.293 NA 
HETATM   11  N   UNL     1     -11.410  10.588  69.377  1.00  0.00    -0.254 NA 
HETATM   12 CL   UNL     1     -12.481  12.356  70.938  1.00  0.00    -0.431 Cl 
HETATM   13  C   UNL     1     -11.909  11.842  69.410  1.00  0.00    -0.334 A  
ENDROOT
BRANCH   8  14
HETATM   14  C1* UNL     1     -10.145   7.961  68.531  1.00  0.00    -0.197 C  
HETATM   15  C2* UNL     1     -10.949   6.714  68.193  1.00  0.00    -0.323 C  
HETATM   16  C4* UNL     1      -8.643   6.163  68.495  1.00  0.00    -0.113 C  
HETATM   17  C3* UNL     1     -10.056   5.622  68.726  1.00  0.00    -0.186 C  
HETATM   18  O3* UNL     1     -10.289   5.494  70.133  1.00  0.00    -0.237 OA 
HETATM   19  O4* UNL     1      -8.757   7.602  68.368  1.00  0.00    -0.128 OA 
HETATM   20  H3* UNL     1      -9.727   4.806  70.468  1.00  0.00     0.000 HD 
BRANCH  16  21
HETATM   21  C5* UNL     1      -7.990   5.626  67.220  1.00  0.00    -0.102 C  
HETATM   22  O5* UNL     1      -8.767   4.579  66.643  1.00  0.00    -0.111 OA 
HETATM   23  H5* UNL     1      -8.362   4.245  65.853  1.00  0.00     0.000 HD 
ENDBRANCH  16  21
ENDBRANCH   8  14
TORSDOF 2
ENDMDL
MODEL      166
REMARK 921   NORMALIZED FREE ENERGY PREDICTED BY IDOCK:   -4.04 KCAL/MOL
REMARK 922        TOTAL FREE ENERGY PREDICTED BY IDOCK:   -4.86 KCAL/MOL
REMARK 923 INTER-LIGAND FREE ENERGY PREDICTED BY IDOCK:   -5.29 KCAL/MOL
REMARK 924 INTRA-LIGAND FREE ENERGY PREDICTED BY IDOCK:    0.44 KCAL/MOL
REMARK 927      BINDING AFFINITY PREDICTED BY RF-SCORE:    0.00 PKD
ROOT
HETATM    1  N   UNL     1      -5.641  17.223  67.174  1.00  0.00    -0.139 NA 
HETATM    2  C   UNL     1      -6.896  16.655  67.009  1.00  0.00    -0.209 A  
HETATM    3  H1  UNL     1      -5.457  18.216  67.032  1.00  0.00     0.000 HD 
HETATM    4  H2  UNL     1      -4.992  16.704  66.582  1.00  0.00     0.000 HD 
HETATM    5  C   UNL     1      -7.150  15.285  67.205  1.00  0.00    -0.152 A  
HETATM    6  N   UNL     1      -6.334  14.229  67.548  1.00  0.00    -0.328 NA 
HETATM    7  C   UNL     1      -7.139  13.189  67.608  1.00  0.00    -0.160 A  
HETATM    8  N   UNL     1      -8.430  13.515  67.286  1.00  0.00    -0.196 NA 
HETATM    9  C   UNL     1      -8.456  14.860  67.027  1.00  0.00    -0.231 A  
HETATM   10  N   UNL     1      -7.918  17.456  66.637  1.00  0.00    -0.236 NA 
HETATM   11  N   UNL     1      -9.512  15.612  66.677  1.00  0.00    -0.242 NA 
HETATM   12 CL   UNL     1     -10.389  17.964  66.036  1.00  0.00    -0.368 Cl 
HETATM   13  C   UNL     1      -9.136  16.897  66.506  1.00  0.00    -0.273 A  
ENDROOT
BRANCH   8  14
HETATM   14  C1* UNL     1      -9.582  12.635  67.271  1.00  0.00    -0.203 C  
HETATM   15  C2* UNL     1     -10.908  13.348  67.054  1.00  0.00    -0.280 C  
HETATM   16  C4* UNL     1     -10.775  11.398  65.680  1.00  0.00    -0.242 C  
HETATM   17  C3* UNL     1     -11.762  12.240  66.492  1.00  0.00    -0.352 C  
HETATM   18  O3* UNL     1     -12.264  11.459  67.582  1.00  0.00    -0.485 OA 
HETATM   19  O4* UNL     1      -9.451  11.689  66.189  1.00  0.00    -0.213 OA 
HETATM   20  H3* UNL     1     -12.802  10.761  67.228  1.00  0.00     0.000 HD 
BRANCH  16  21
HETATM   21  C5* UNL     1     -10.789  11.723  64.185  1.00  0.00    -0.360 C  
HETATM   22  O5* UNL     1      -9.806  12.702  63.860  1.00  0.00    -0.624 OA 
HETATM   23  H5* UNL     1      -9.815  12.904  62.932  1.00  0.00     0.000 HD 
ENDBRANCH  16  21
ENDBRANCH   8  14
TORSDOF 2
ENDMDL
MODEL      167
REMARK 921   NORMALIZED FREE ENERGY PREDICTED BY IDOCK:   -4.01 KCAL/MOL
REMARK 922        TOTAL FREE ENERGY PREDICTED BY IDOCK:   -4.82 KCAL/MOL
REMARK 923 INTER-LIGAND FREE ENERGY PREDICTED BY IDOCK:   -4.53 KCAL/MOL
REMARK 924 INTRA-LIGAND FREE ENERGY PREDICTED BY IDOCK:   -0.29 KCAL/MOL
REMARK 927      BINDING AFFINITY PREDICTED BY RF-SCORE:    0.00 PKD
ROOT
HETATM    1  N   UNL     1      -6.272   8.746  67.678  1.00  0.00    -0.052 NA 
HETATM    2  C   UNL     1      -6.950   9.942  67.492  1.00  0.00    -0.083 A  
HETATM    3  H1  UNL     1      -5.479   8.649  68.312  1.00  0.00     0.000 HD 
HETATM    4  H2  UNL     1      -5.970   8.421  66.759  1.00  0.00     0.000 HD 
HETATM    5  C   UNL     1      -8.044  10.076  66.618  1.00  0.00    -0.118 A  
HETATM    6  N   UNL     1      -8.673   9.186  65.775  1.00  0.00    -0.154 NA 
HETATM    7  C   UNL     1      -9.653   9.877  65.230  1.00  0.00    -0.295 A  
HETATM    8  N   UNL     1      -9.665  11.179  65.653  1.00  0.00    -0.215 NA 
HETATM    9  C   UNL     1      -8.640  11.325  66.549  1.00  0.00    -0.170 A  
HETATM   10  N   UNL     1      -6.533  11.028  68.179  1.00  0.00    -0.057 NA 
HETATM   11  N   UNL     1      -8.281  12.431  67.219  1.00  0.00    -0.177 NA 
HETATM   12 CL   UNL     1      -6.642  13.514  68.908  1.00  0.00    -0.101 Cl 
HETATM   13  C   UNL     1      -7.216  12.177  68.008  1.00  0.00    -0.099 A  
ENDROOT
BRANCH   8  14
HETATM   14  C1* UNL     1     -10.610  12.215  65.283  1.00  0.00    -0.281 C  
HETATM   15  C2* UNL     1     -11.760  12.388  66.264  1.00  0.00    -0.457 C  
HETATM   16  C4* UNL     1     -10.863  14.515  65.647  1.00  0.00    -0.326 C  
HETATM   17  C3* UNL     1     -12.177  13.812  65.997  1.00  0.00    -0.457 C  
HETATM   18  O3* UNL     1     -13.039  13.824  64.854  1.00  0.00    -0.716 OA 
HETATM   19  O4* UNL     1      -9.932  13.488  65.228  1.00  0.00    -0.265 OA 
HETATM   20  H3* UNL     1     -13.302  14.721  64.686  1.00  0.00     0.000 HD 
BRANCH  16  21
HETATM   21  C5* UNL     1     -10.244  15.263  66.829  1.00  0.00    -0.272 C  
HETATM   22  O5* UNL     1      -8.820  15.248  66.761  1.00  0.00    -0.232 OA 
HETATM   23  H5* UNL     1      -8.436  15.712  67.494  1.00  0.00     0.000 HD 
ENDBRANCH  16  21
ENDBRANCH   8  14
TORSDOF 2
ENDMDL
MODEL      168
REMARK 921   NORMALIZED FREE ENERGY PREDICTED BY IDOCK:   -3.98 KCAL/MOL
REMARK 922        TOTAL FREE ENERGY PREDICTED BY IDOCK:   -4.78 KCAL/MOL
REMARK 923 INTER-LIGAND FREE ENERGY PREDICTED BY IDOCK:   -4.37 KCAL/MOL
REMARK 924 INTRA-LIGAND FREE ENERGY PREDICTED BY IDOCK:   -0.41 KCAL/MOL
REMARK 927      BINDING AFFINITY PREDICTED BY RF-SCORE:    0.00 PKD
ROOT
HETATM    1  N   UNL     1      -9.304   5.430  64.677  1.00  0.00    -0.335 NA 
HETATM    2  C   UNL     1      -9.507   5.254  66.039  1.00  0.00    -0.156 A  
HETATM    3  H1  UNL     1      -9.076   4.662  64.046  1.00  0.00     0.000 HD 
HETATM    4  H2  UNL     1      -8.582   6.142  64.566  1.00  0.00     0.000 HD 
HETATM    5  C   UNL     1      -9.821   6.313  66.910  1.00  0.00    -0.156 A  
HETATM    6  N   UNL     1      -9.976   7.667  66.708  1.00  0.00    -0.243 NA 
HETATM    7  C   UNL     1     -10.295   8.148  67.892  1.00  0.00    -0.220 A  
HETATM    8  N   UNL     1     -10.319   7.175  68.856  1.00  0.00    -0.191 NA 
HETATM    9  C   UNL     1     -10.020   5.988  68.242  1.00  0.00    -0.147 A  
HETATM   10  N   UNL     1      -9.389   4.009  66.548  1.00  0.00    -0.168 NA 
HETATM   11  N   UNL     1      -9.935   4.770  68.800  1.00  0.00    -0.145 NA 
HETATM   12 CL   UNL     1      -9.454   2.248  68.451  1.00  0.00    -0.260 Cl 
HETATM   13  C   UNL     1      -9.614   3.849  67.867  1.00  0.00    -0.136 A  
ENDROOT
BRANCH   8  14
HETATM   14  C1* UNL     1     -10.651   7.335  70.258  1.00  0.00    -0.229 C  
HETATM   15  C2* UNL     1     -12.007   6.764  70.646  1.00  0.00    -0.418 C  
HETATM   16  C4* UNL     1     -10.347   6.126  72.242  1.00  0.00    -0.192 C  
HETATM   17  C3* UNL     1     -11.823   6.514  72.121  1.00  0.00    -0.305 C  
HETATM   18  O3* UNL     1     -12.046   7.745  72.819  1.00  0.00    -0.586 OA 
HETATM   19  O4* UNL     1      -9.676   6.642  71.065  1.00  0.00    -0.174 OA 
HETATM   20  H3* UNL     1     -11.930   7.587  73.748  1.00  0.00     0.000 HD 
BRANCH  16  21
HETATM   21  C5* UNL     1     -10.122   4.614  72.291  1.00  0.00    -0.189 C  
HETATM   22  O5* UNL     1      -9.046   4.224  71.441  1.00  0.00    -0.117 OA 
HETATM   23  H5* UNL     1      -8.906   3.286  71.471  1.00  0.00     0.000 HD 
ENDBRANCH  16  21
ENDBRANCH   8  14
TORSDOF 2
ENDMDL
MODEL      169
REMARK 921   NORMALIZED FREE ENERGY PREDICTED BY IDOCK:   -3.98 KCAL/MOL
REMARK 922        TOTAL FREE ENERGY PREDICTED BY IDOCK:   -4.78 KCAL/MOL
REMARK 923 INTER-LIGAND FREE ENERGY PREDICTED BY IDOCK:   -4.48 KCAL/MOL
REMARK 924 INTRA-LIGAND FREE ENERGY PREDICTED BY IDOCK:   -0.31 KCAL/MOL
REMARK 927      BINDING AFFINITY PREDICTED BY RF-SCORE:    0.00 PKD
ROOT
HETATM    1  N   UNL     1     -11.365   6.334  72.834  1.00  0.00    -0.441 NA 
HETATM    2  C   UNL     1     -10.948   6.339  71.511  1.00  0.00    -0.271 A  
HETATM    3  H1  UNL     1     -11.346   5.499  73.420  1.00  0.00     0.000 HD 
HETATM    4  H2  UNL     1     -12.318   6.700  72.855  1.00  0.00     0.000 HD 
HETATM    5  C   UNL     1     -10.975   7.490  70.703  1.00  0.00    -0.249 A  
HETATM    6  N   UNL     1     -11.392   8.782  70.940  1.00  0.00    -0.268 NA 
HETATM    7  C   UNL     1     -11.150   9.424  69.816  1.00  0.00    -0.172 A  
HETATM    8  N   UNL     1     -10.629   8.601  68.852  1.00  0.00    -0.185 NA 
HETATM    9  C   UNL     1     -10.507   7.354  69.406  1.00  0.00    -0.217 A  
HETATM   10  N   UNL     1     -10.503   5.182  70.975  1.00  0.00    -0.204 NA 
HETATM   11  N   UNL     1     -10.037   6.238  68.828  1.00  0.00    -0.151 NA 
HETATM   12 CL   UNL     1      -9.522   3.711  69.078  1.00  0.00    -0.241 Cl 
HETATM   13  C   UNL     1     -10.077   5.206  69.698  1.00  0.00    -0.261 A  
ENDROOT
BRANCH   8  14
HETATM   14  C1* UNL     1     -10.221   8.967  67.510  1.00  0.00    -0.248 C  
HETATM   15  C2* UNL     1     -10.763  10.308  67.038  1.00  0.00    -0.281 C  
HETATM   16  C4* UNL     1      -8.441  10.113  66.510  1.00  0.00    -0.127 C  
HETATM   17  C3* UNL     1      -9.757  10.689  65.981  1.00  0.00    -0.208 C  
HETATM   18  O3* UNL     1     -10.108  10.023  64.764  1.00  0.00    -0.359 OA 
HETATM   19  O4* UNL     1      -8.783   9.070  67.455  1.00  0.00    -0.120 OA 
HETATM   20  H3* UNL     1      -9.474  10.263  64.098  1.00  0.00     0.000 HD 
BRANCH  16  21
HETATM   21  C5* UNL     1      -7.578  11.146  67.238  1.00  0.00    -0.126 C  
HETATM   22  O5* UNL     1      -6.504  11.595  66.415  1.00  0.00    -0.346 OA 
HETATM   23  H5* UNL     1      -5.969  12.235  66.867  1.00  0.00     0.000 HD 
ENDBRANCH  16  21
ENDBRANCH   8  14
TORSDOF 2
ENDMDL
MODEL      170
REMARK 921   NORMALIZED FREE ENERGY PREDICTED BY IDOCK:   -3.97 KCAL/MOL
REMARK 922        TOTAL FREE ENERGY PREDICTED BY IDOCK:   -4.78 KCAL/MOL
REMARK 923 INTER-LIGAND FREE ENERGY PREDICTED BY IDOCK:   -4.42 KCAL/MOL
REMARK 924 INTRA-LIGAND FREE ENERGY PREDICTED BY IDOCK:   -0.36 KCAL/MOL
REMARK 927      BINDING AFFINITY PREDICTED BY RF-SCORE:    0.00 PKD
ROOT
HETATM    1  N   UNL     1      -8.957   6.345  65.952  1.00  0.00    -0.271 NA 
HETATM    2  C   UNL     1      -9.512   7.430  66.616  1.00  0.00    -0.187 A  
HETATM    3  H1  UNL     1      -8.992   5.394  66.317  1.00  0.00     0.000 HD 
HETATM    4  H2  UNL     1      -7.977   6.567  65.772  1.00  0.00     0.000 HD 
HETATM    5  C   UNL     1      -9.463   8.743  66.113  1.00  0.00    -0.247 A  
HETATM    6  N   UNL     1      -8.902   9.282  64.976  1.00  0.00    -0.193 NA 
HETATM    7  C   UNL     1      -9.203  10.563  65.029  1.00  0.00    -0.206 A  
HETATM    8  N   UNL     1      -9.900  10.884  66.164  1.00  0.00    -0.214 NA 
HETATM    9  C   UNL     1     -10.080   9.726  66.871  1.00  0.00    -0.226 A  
HETATM   10  N   UNL     1     -10.121   7.212  67.802  1.00  0.00    -0.162 NA 
HETATM   11  N   UNL     1     -10.714   9.565  68.044  1.00  0.00    -0.234 NA 
HETATM   12 CL   UNL     1     -11.437   7.929  69.918  1.00  0.00     0.035 Cl 
HETATM   13  C   UNL     1     -10.678   8.270  68.423  1.00  0.00    -0.019 A  
ENDROOT
BRANCH   8  14
HETATM   14  C1* UNL     1     -10.414  12.187  66.542  1.00  0.00    -0.225 C  
HETATM   15  C2* UNL     1     -11.909  12.356  66.314  1.00  0.00    -0.431 C  
HETATM   16  C4* UNL     1     -11.293  13.192  68.466  1.00  0.00    -0.286 C  
HETATM   17  C3* UNL     1     -12.245  13.450  67.295  1.00  0.00    -0.233 C  
HETATM   18  O3* UNL     1     -11.924  14.710  66.695  1.00  0.00    -0.368 OA 
HETATM   19  O4* UNL     1     -10.194  12.400  67.951  1.00  0.00    -0.202 OA 
HETATM   20  H3* UNL     1     -12.136  15.399  67.313  1.00  0.00     0.000 HD 
BRANCH  16  21
HETATM   21  C5* UNL     1     -11.942  12.413  69.612  1.00  0.00    -0.274 C  
HETATM   22  O5* UNL     1     -11.057  11.423  70.130  1.00  0.00    -0.478 OA 
HETATM   23  H5* UNL     1     -11.460  10.940  70.841  1.00  0.00     0.000 HD 
ENDBRANCH  16  21
ENDBRANCH   8  14
TORSDOF 2
ENDMDL
MODEL      171
REMARK 921   NORMALIZED FREE ENERGY PREDICTED BY IDOCK:   -3.96 KCAL/MOL
REMARK 922        TOTAL FREE ENERGY PREDICTED BY IDOCK:   -4.77 KCAL/MOL
REMARK 923 INTER-LIGAND FREE ENERGY PREDICTED BY IDOCK:   -4.96 KCAL/MOL
REMARK 924 INTRA-LIGAND FREE ENERGY PREDICTED BY IDOCK:    0.19 KCAL/MOL
REMARK 927      BINDING AFFINITY PREDICTED BY RF-SCORE:    0.00 PKD
ROOT
HETATM    1  N   UNL     1     -10.091  11.037  62.556  1.00  0.00    -0.669 NA 
HETATM    2  C   UNL     1      -9.673  10.414  63.723  1.00  0.00    -0.290 A  
HETATM    3  H1  UNL     1      -9.740  10.782  61.633  1.00  0.00     0.000 HD 
HETATM    4  H2  UNL     1      -9.940  12.039  62.674  1.00  0.00     0.000 HD 
HETATM    5  C   UNL     1     -10.157  10.766  64.996  1.00  0.00    -0.313 A  
HETATM    6  N   UNL     1     -11.053  11.725  65.416  1.00  0.00    -0.300 NA 
HETATM    7  C   UNL     1     -11.130  11.563  66.721  1.00  0.00    -0.302 A  
HETATM    8  N   UNL     1     -10.299  10.570  67.168  1.00  0.00    -0.222 NA 
HETATM    9  C   UNL     1      -9.668  10.044  66.072  1.00  0.00    -0.240 A  
HETATM   10  N   UNL     1      -8.753   9.429  63.629  1.00  0.00    -0.217 NA 
HETATM   11  N   UNL     1      -8.771   9.046  66.037  1.00  0.00    -0.150 NA 
HETATM   12 CL   UNL     1      -7.211   7.575  64.583  1.00  0.00    -0.064 Cl 
HETATM   13  C   UNL     1      -8.375   8.816  64.767  1.00  0.00    -0.168 A  
ENDROOT
BRANCH   8  14
HETATM   14  C1* UNL     1     -10.141  10.103  68.532  1.00  0.00    -0.169 C  
HETATM   15  C2* UNL     1     -11.425  10.116  69.348  1.00  0.00    -0.202 C  
HETATM   16  C4* UNL     1     -10.253   8.060  69.670  1.00  0.00    -0.208 C  
HETATM   17  C3* UNL     1     -11.128   9.081  70.402  1.00  0.00    -0.244 C  
HETATM   18  O3* UNL     1     -10.362   9.701  71.440  1.00  0.00    -0.242 OA 
HETATM   19  O4* UNL     1      -9.683   8.735  68.522  1.00  0.00    -0.156 OA 
HETATM   20  H3* UNL     1     -10.174   9.048  72.105  1.00  0.00     0.000 HD 
BRANCH  16  21
HETATM   21  C5* UNL     1     -11.035   6.846  69.164  1.00  0.00    -0.199 C  
HETATM   22  O5* UNL     1     -12.189   6.605  69.964  1.00  0.00    -0.605 OA 
HETATM   23  H5* UNL     1     -12.674   5.851  69.650  1.00  0.00     0.000 HD 
ENDBRANCH  16  21
ENDBRANCH   8  14
TORSDOF 2
ENDMDL
MODEL      172
REMARK 921   NORMALIZED FREE ENERGY PREDICTED BY IDOCK:   -3.95 KCAL/MOL
REMARK 922        TOTAL FREE ENERGY PREDICTED BY IDOCK:   -4.76 KCAL/MOL
REMARK 923 INTER-LIGAND FREE ENERGY PREDICTED BY IDOCK:   -4.50 KCAL/MOL
REMARK 924 INTRA-LIGAND FREE ENERGY PREDICTED BY IDOCK:   -0.26 KCAL/MOL
REMARK 927      BINDING AFFINITY PREDICTED BY RF-SCORE:    0.00 PKD
ROOT
HETATM    1  N   UNL     1     -10.794   4.669  73.841  1.00  0.00    -0.293 NA 
HETATM    2  C   UNL     1     -11.050   5.480  72.745  1.00  0.00    -0.291 A  
HETATM    3  H1  UNL     1     -11.501   4.439  74.539  1.00  0.00     0.000 HD 
HETATM    4  H2  UNL     1      -9.996   5.068  74.336  1.00  0.00     0.000 HD 
HETATM    5  C   UNL     1     -10.074   5.799  71.783  1.00  0.00    -0.187 A  
HETATM    6  N   UNL     1      -8.741   5.469  71.667  1.00  0.00    -0.135 NA 
HETATM    7  C   UNL     1      -8.352   6.035  70.543  1.00  0.00    -0.128 A  
HETATM    8  N   UNL     1      -9.360   6.745  69.946  1.00  0.00    -0.157 NA 
HETATM    9  C   UNL     1     -10.476   6.602  70.727  1.00  0.00    -0.216 A  
HETATM   10  N   UNL     1     -12.292   5.991  72.602  1.00  0.00     0.033 NA 
HETATM   11  N   UNL     1     -11.697   7.121  70.524  1.00  0.00    -0.296 NA 
HETATM   12 CL   UNL     1     -14.126   7.369  71.392  1.00  0.00    -0.526 Cl 
HETATM   13  C   UNL     1     -12.533   6.756  71.519  1.00  0.00    -0.341 A  
ENDROOT
BRANCH   8  14
HETATM   14  C1* UNL     1      -9.301   7.473  68.693  1.00  0.00    -0.143 C  
HETATM   15  C2* UNL     1     -10.535   7.309  67.819  1.00  0.00    -0.292 C  
HETATM   16  C4* UNL     1      -9.881   9.605  67.918  1.00  0.00    -0.154 C  
HETATM   17  C3* UNL     1     -10.479   8.558  66.976  1.00  0.00    -0.292 C  
HETATM   18  O3* UNL     1      -9.575   8.329  65.889  1.00  0.00    -0.425 OA 
HETATM   19  O4* UNL     1      -9.181   8.885  68.962  1.00  0.00    -0.140 OA 
HETATM   20  H3* UNL     1      -9.540   9.115  65.358  1.00  0.00     0.000 HD 
BRANCH  16  21
HETATM   21  C5* UNL     1     -10.935  10.494  68.581  1.00  0.00    -0.248 C  
HETATM   22  O5* UNL     1     -11.036  10.222  69.977  1.00  0.00    -0.267 OA 
HETATM   23  H5* UNL     1     -11.690  10.774  70.388  1.00  0.00     0.000 HD 
ENDBRANCH  16  21
ENDBRANCH   8  14
TORSDOF 2
ENDMDL
MODEL      173
REMARK 921   NORMALIZED FREE ENERGY PREDICTED BY IDOCK:   -3.94 KCAL/MOL
REMARK 922        TOTAL FREE ENERGY PREDICTED BY IDOCK:   -4.74 KCAL/MOL
REMARK 923 INTER-LIGAND FREE ENERGY PREDICTED BY IDOCK:   -4.41 KCAL/MOL
REMARK 924 INTRA-LIGAND FREE ENERGY PREDICTED BY IDOCK:   -0.34 KCAL/MOL
REMARK 927      BINDING AFFINITY PREDICTED BY RF-SCORE:    0.00 PKD
ROOT
HETATM    1  N   UNL     1     -10.001   9.789  65.418  1.00  0.00    -0.355 NA 
HETATM    2  C   UNL     1     -10.306   9.811  66.772  1.00  0.00    -0.218 A  
HETATM    3  H1  UNL     1     -10.225  10.557  64.786  1.00  0.00     0.000 HD 
HETATM    4  H2  UNL     1     -10.414   8.942  65.027  1.00  0.00     0.000 HD 
HETATM    5  C   UNL     1      -9.999   8.752  67.644  1.00  0.00    -0.193 A  
HETATM    6  N   UNL     1      -9.405   7.525  67.442  1.00  0.00    -0.137 NA 
HETATM    7  C   UNL     1      -9.360   6.973  68.638  1.00  0.00    -0.136 A  
HETATM    8  N   UNL     1      -9.928   7.771  69.596  1.00  0.00    -0.186 NA 
HETATM    9  C   UNL     1     -10.341   8.919  68.976  1.00  0.00    -0.212 A  
HETATM   10  N   UNL     1     -10.934  10.899  67.269  1.00  0.00    -0.291 NA 
HETATM   11  N   UNL     1     -10.946   9.983  69.529  1.00  0.00    -0.242 NA 
HETATM   12 CL   UNL     1     -11.992  12.325  69.160  1.00  0.00    -0.329 Cl 
HETATM   13  C   UNL     1     -11.200  10.918  68.589  1.00  0.00    -0.267 A  
ENDROOT
BRANCH   8  14
HETATM   14  C1* UNL     1     -10.033   7.499  71.017  1.00  0.00    -0.186 C  
HETATM   15  C2* UNL     1     -11.366   6.899  71.440  1.00  0.00    -0.308 C  
HETATM   16  C4* UNL     1      -9.558   5.719  72.463  1.00  0.00    -0.154 C  
HETATM   17  C3* UNL     1     -10.991   6.193  72.718  1.00  0.00    -0.260 C  
HETATM   18  O3* UNL     1     -10.989   7.152  73.780  1.00  0.00    -0.525 OA 
HETATM   19  O4* UNL     1      -9.021   6.544  71.400  1.00  0.00    -0.140 OA 
HETATM   20  H3* UNL     1     -10.753   6.707  74.585  1.00  0.00     0.000 HD 
BRANCH  16  21
HETATM   21  C5* UNL     1      -9.475   4.258  72.015  1.00  0.00    -0.135 C  
HETATM   22  O5* UNL     1     -10.005   3.383  73.007  1.00  0.00    -0.129 OA 
HETATM   23  H5* UNL     1      -9.953   2.476  72.730  1.00  0.00     0.000 HD 
ENDBRANCH  16  21
ENDBRANCH   8  14
TORSDOF 2
ENDMDL
MODEL      174
REMARK 921   NORMALIZED FREE ENERGY PREDICTED BY IDOCK:   -3.89 KCAL/MOL
REMARK 922        TOTAL FREE ENERGY PREDICTED BY IDOCK:   -4.69 KCAL/MOL
REMARK 923 INTER-LIGAND FREE ENERGY PREDICTED BY IDOCK:   -4.37 KCAL/MOL
REMARK 924 INTRA-LIGAND FREE ENERGY PREDICTED BY IDOCK:   -0.32 KCAL/MOL
REMARK 927      BINDING AFFINITY PREDICTED BY RF-SCORE:    0.00 PKD
ROOT
HETATM    1  N   UNL     1      -5.613   8.904  67.254  1.00  0.00    -0.038 NA 
HETATM    2  C   UNL     1      -6.940   9.292  67.135  1.00  0.00    -0.085 A  
HETATM    3  H1  UNL     1      -5.321   7.928  67.286  1.00  0.00     0.000 HD 
HETATM    4  H2  UNL     1      -5.234   9.363  68.082  1.00  0.00     0.000 HD 
HETATM    5  C   UNL     1      -7.343  10.639  67.092  1.00  0.00    -0.098 A  
HETATM    6  N   UNL     1      -6.642  11.822  67.170  1.00  0.00    -0.131 NA 
HETATM    7  C   UNL     1      -7.554  12.763  67.043  1.00  0.00     0.042 A  
HETATM    8  N   UNL     1      -8.817  12.245  66.922  1.00  0.00    -0.204 NA 
HETATM    9  C   UNL     1      -8.700  10.881  66.948  1.00  0.00    -0.144 A  
HETATM   10  N   UNL     1      -7.885   8.330  67.065  1.00  0.00    -0.096 NA 
HETATM   11  N   UNL     1      -9.680   9.968  66.855  1.00  0.00    -0.181 NA 
HETATM   12 CL   UNL     1     -10.316   7.456  66.837  1.00  0.00    -0.365 Cl 
HETATM   13  C   UNL     1      -9.167   8.721  66.924  1.00  0.00    -0.156 A  
ENDROOT
BRANCH   8  14
HETATM   14  C1* UNL     1     -10.055  12.978  66.741  1.00  0.00    -0.247 C  
HETATM   15  C2* UNL     1     -10.442  13.850  67.926  1.00  0.00    -0.242 C  
HETATM   16  C4* UNL     1     -10.707  15.057  65.882  1.00  0.00    -0.331 C  
HETATM   17  C3* UNL     1     -11.324  14.882  67.271  1.00  0.00    -0.349 C  
HETATM   18  O3* UNL     1     -12.639  14.332  67.138  1.00  0.00    -0.546 OA 
HETATM   19  O4* UNL     1      -9.926  13.867  65.611  1.00  0.00    -0.309 OA 
HETATM   20  H3* UNL     1     -13.196  14.982  66.725  1.00  0.00     0.000 HD 
BRANCH  16  21
HETATM   21  C5* UNL     1      -9.776  16.267  65.782  1.00  0.00    -0.264 C  
HETATM   22  O5* UNL     1     -10.511  17.469  65.571  1.00  0.00    -0.628 OA 
HETATM   23  H5* UNL     1      -9.934  18.220  65.509  1.00  0.00     0.000 HD 
ENDBRANCH  16  21
ENDBRANCH   8  14
TORSDOF 2
ENDMDL
MODEL      175
REMARK 921   NORMALIZED FREE ENERGY PREDICTED BY IDOCK:   -3.87 KCAL/MOL
REMARK 922        TOTAL FREE ENERGY PREDICTED BY IDOCK:   -4.67 KCAL/MOL
REMARK 923 INTER-LIGAND FREE ENERGY PREDICTED BY IDOCK:   -4.31 KCAL/MOL
REMARK 924 INTRA-LIGAND FREE ENERGY PREDICTED BY IDOCK:   -0.36 KCAL/MOL
REMARK 927      BINDING AFFINITY PREDICTED BY RF-SCORE:    0.00 PKD
ROOT
HETATM    1  N   UNL     1     -10.610  19.218  68.209  1.00  0.00    -0.417 NA 
HETATM    2  C   UNL     1      -9.708  18.277  67.731  1.00  0.00    -0.297 A  
HETATM    3  H1  UNL     1     -10.463  20.223  68.121  1.00  0.00     0.000 HD 
HETATM    4  H2  UNL     1     -10.763  19.018  69.198  1.00  0.00     0.000 HD 
HETATM    5  C   UNL     1      -9.911  16.891  67.854  1.00  0.00    -0.263 A  
HETATM    6  N   UNL     1     -10.916  16.146  68.431  1.00  0.00    -0.326 NA 
HETATM    7  C   UNL     1     -10.574  14.893  68.211  1.00  0.00    -0.240 A  
HETATM    8  N   UNL     1      -9.378  14.792  67.551  1.00  0.00    -0.191 NA 
HETATM    9  C   UNL     1      -8.938  16.066  67.310  1.00  0.00    -0.197 A  
HETATM   10  N   UNL     1      -8.583  18.717  67.127  1.00  0.00    -0.265 NA 
HETATM   11  N   UNL     1      -7.813  16.446  66.684  1.00  0.00    -0.258 NA 
HETATM   12 CL   UNL     1      -6.326  18.413  65.888  1.00  0.00    -0.257 Cl 
HETATM   13  C   UNL     1      -7.730  17.793  66.645  1.00  0.00    -0.240 A  
ENDROOT
BRANCH   8  14
HETATM   14  C1* UNL     1      -8.709  13.579  67.124  1.00  0.00    -0.215 C  
HETATM   15  C2* UNL     1      -7.628  13.094  68.079  1.00  0.00    -0.144 C  
HETATM   16  C4* UNL     1      -9.009  11.271  67.387  1.00  0.00    -0.144 C  
HETATM   17  C3* UNL     1      -7.563  11.625  67.747  1.00  0.00    -0.121 C  
HETATM   18  O3* UNL     1      -6.735  11.460  66.591  1.00  0.00    -0.170 OA 
HETATM   19  O4* UNL     1      -9.671  12.508  67.026  1.00  0.00    -0.205 OA 
HETATM   20  H3* UNL     1      -6.694  10.534  66.381  1.00  0.00     0.000 HD 
BRANCH  16  21
HETATM   21  C5* UNL     1      -9.783  10.640  68.545  1.00  0.00    -0.174 C  
HETATM   22  O5* UNL     1      -8.903  10.198  69.575  1.00  0.00    -0.185 OA 
HETATM   23  H5* UNL     1      -9.384   9.806  70.294  1.00  0.00     0.000 HD 
ENDBRANCH  16  21
ENDBRANCH   8  14
TORSDOF 2
ENDMDL
MODEL      176
REMARK 921   NORMALIZED FREE ENERGY PREDICTED BY IDOCK:   -3.86 KCAL/MOL
REMARK 922        TOTAL FREE ENERGY PREDICTED BY IDOCK:   -4.66 KCAL/MOL
REMARK 923 INTER-LIGAND FREE ENERGY PREDICTED BY IDOCK:   -4.48 KCAL/MOL
REMARK 924 INTRA-LIGAND FREE ENERGY PREDICTED BY IDOCK:   -0.18 KCAL/MOL
REMARK 927      BINDING AFFINITY PREDICTED BY RF-SCORE:    0.00 PKD
ROOT
HETATM    1  N   UNL     1     -13.614  12.849  73.102  1.00  0.00    -0.120 NA 
HETATM    2  C   UNL     1     -12.915  13.370  72.022  1.00  0.00    -0.310 A  
HETATM    3  H1  UNL     1     -13.826  13.391  73.939  1.00  0.00     0.000 HD 
HETATM    4  H2  UNL     1     -13.128  12.003  73.400  1.00  0.00     0.000 HD 
HETATM    5  C   UNL     1     -12.622  12.622  70.867  1.00  0.00    -0.249 A  
HETATM    6  N   UNL     1     -12.881  11.316  70.515  1.00  0.00    -0.149 NA 
HETATM    7  C   UNL     1     -12.390  11.192  69.299  1.00  0.00    -0.101 A  
HETATM    8  N   UNL     1     -11.794  12.346  68.863  1.00  0.00    -0.313 NA 
HETATM    9  C   UNL     1     -11.936  13.277  69.856  1.00  0.00    -0.330 A  
HETATM   10  N   UNL     1     -12.492  14.651  72.089  1.00  0.00    -0.328 NA 
HETATM   11  N   UNL     1     -11.509  14.550  69.860  1.00  0.00    -0.267 NA 
HETATM   12 CL   UNL     1     -11.332  16.779  71.169  1.00  0.00     0.044 Cl 
HETATM   13  C   UNL     1     -11.837  15.151  71.024  1.00  0.00    -0.333 A  
ENDROOT
BRANCH   8  14
HETATM   14  C1* UNL     1     -11.173  12.581  67.574  1.00  0.00    -0.291 C  
HETATM   15  C2* UNL     1      -9.726  13.045  67.655  1.00  0.00    -0.212 C  
HETATM   16  C4* UNL     1      -9.963  11.339  65.999  1.00  0.00    -0.231 C  
HETATM   17  C3* UNL     1      -9.195  12.627  66.307  1.00  0.00    -0.110 C  
HETATM   18  O3* UNL     1      -9.553  13.630  65.350  1.00  0.00    -0.520 OA 
HETATM   19  O4* UNL     1     -11.161  11.355  66.814  1.00  0.00    -0.305 OA 
HETATM   20  H3* UNL     1      -9.218  13.366  64.501  1.00  0.00     0.000 HD 
BRANCH  16  21
HETATM   21  C5* UNL     1      -9.177  10.071  66.338  1.00  0.00    -0.156 C  
HETATM   22  O5* UNL     1      -9.987   9.134  67.043  1.00  0.00    -0.194 OA 
HETATM   23  H5* UNL     1      -9.500   8.347  67.253  1.00  0.00     0.000 HD 
ENDBRANCH  16  21
ENDBRANCH   8  14
TORSDOF 2
ENDMDL
MODEL      177
REMARK 921   NORMALIZED FREE ENERGY PREDICTED BY IDOCK:   -3.86 KCAL/MOL
REMARK 922        TOTAL FREE ENERGY PREDICTED BY IDOCK:   -4.65 KCAL/MOL
REMARK 923 INTER-LIGAND FREE ENERGY PREDICTED BY IDOCK:   -4.81 KCAL/MOL
REMARK 924 INTRA-LIGAND FREE ENERGY PREDICTED BY IDOCK:    0.16 KCAL/MOL
REMARK 927      BINDING AFFINITY PREDICTED BY RF-SCORE:    0.00 PKD
ROOT
HETATM    1  N   UNL     1     -12.876  12.851  63.775  1.00  0.00    -0.659 NA 
HETATM    2  C   UNL     1     -12.105  12.860  64.928  1.00  0.00    -0.432 A  
HETATM    3  H1  UNL     1     -13.633  13.514  63.607  1.00  0.00     0.000 HD 
HETATM    4  H2  UNL     1     -13.265  11.913  63.676  1.00  0.00     0.000 HD 
HETATM    5  C   UNL     1     -11.062  11.945  65.160  1.00  0.00    -0.305 A  
HETATM    6  N   UNL     1     -10.573  10.888  64.424  1.00  0.00    -0.339 NA 
HETATM    7  C   UNL     1      -9.571  10.418  65.137  1.00  0.00    -0.271 A  
HETATM    8  N   UNL     1      -9.411  11.098  66.316  1.00  0.00    -0.190 NA 
HETATM    9  C   UNL     1     -10.359  12.086  66.346  1.00  0.00    -0.216 A  
HETATM   10  N   UNL     1     -12.375  13.787  65.873  1.00  0.00    -0.462 NA 
HETATM   11  N   UNL     1     -10.570  12.997  67.309  1.00  0.00    -0.241 NA 
HETATM   12 CL   UNL     1     -11.991  15.001  68.132  1.00  0.00    -0.275 Cl 
HETATM   13  C   UNL     1     -11.602  13.801  66.975  1.00  0.00    -0.365 A  
ENDROOT
BRANCH   8  14
HETATM   14  C1* UNL     1      -8.401  10.873  67.331  1.00  0.00    -0.117 C  
HETATM   15  C2* UNL     1      -7.026  10.531  66.777  1.00  0.00    -0.104 C  
HETATM   16  C4* UNL     1      -6.843  12.159  68.516  1.00  0.00    -0.086 C  
HETATM   17  C3* UNL     1      -6.126  10.948  67.912  1.00  0.00    -0.050 C  
HETATM   18  O3* UNL     1      -6.095   9.890  68.876  1.00  0.00    -0.041 OA 
HETATM   19  O4* UNL     1      -8.233  12.071  68.117  1.00  0.00    -0.147 OA 
HETATM   20  H3* UNL     1      -5.528  10.153  69.591  1.00  0.00     0.000 HD 
BRANCH  16  21
HETATM   21  C5* UNL     1      -6.292  13.497  68.021  1.00  0.00    -0.136 C  
HETATM   22  O5* UNL     1      -7.114  14.047  66.995  1.00  0.00    -0.374 OA 
HETATM   23  H5* UNL     1      -6.772  14.877  66.687  1.00  0.00     0.000 HD 
ENDBRANCH  16  21
ENDBRANCH   8  14
TORSDOF 2
ENDMDL
MODEL      178
REMARK 921   NORMALIZED FREE ENERGY PREDICTED BY IDOCK:   -3.85 KCAL/MOL
REMARK 922        TOTAL FREE ENERGY PREDICTED BY IDOCK:   -4.64 KCAL/MOL
REMARK 923 INTER-LIGAND FREE ENERGY PREDICTED BY IDOCK:   -4.32 KCAL/MOL
REMARK 924 INTRA-LIGAND FREE ENERGY PREDICTED BY IDOCK:   -0.32 KCAL/MOL
REMARK 927      BINDING AFFINITY PREDICTED BY RF-SCORE:    0.00 PKD
ROOT
HETATM    1  N   UNL     1     -12.094  12.854  66.657  1.00  0.00    -0.458 NA 
HETATM    2  C   UNL     1     -11.292  11.727  66.773  1.00  0.00    -0.320 A  
HETATM    3  H1  UNL     1     -12.149  13.411  65.805  1.00  0.00     0.000 HD 
HETATM    4  H2  UNL     1     -11.845  13.485  67.419  1.00  0.00     0.000 HD 
HETATM    5  C   UNL     1     -11.216  10.958  67.949  1.00  0.00    -0.321 A  
HETATM    6  N   UNL     1     -11.813  11.088  69.184  1.00  0.00    -0.325 NA 
HETATM    7  C   UNL     1     -11.382  10.052  69.875  1.00  0.00    -0.250 A  
HETATM    8  N   UNL     1     -10.507   9.280  69.157  1.00  0.00    -0.215 NA 
HETATM    9  C   UNL     1     -10.391   9.845  67.915  1.00  0.00    -0.212 A  
HETATM   10  N   UNL     1     -10.547  11.358  65.708  1.00  0.00    -0.261 NA 
HETATM   11  N   UNL     1      -9.645   9.422  66.883  1.00  0.00    -0.155 NA 
HETATM   12 CL   UNL     1      -8.877   9.832  64.442  1.00  0.00    -0.235 Cl 
HETATM   13  C   UNL     1      -9.794  10.248  65.826  1.00  0.00    -0.257 A  
ENDROOT
BRANCH   8  14
HETATM   14  C1* UNL     1      -9.857   8.057  69.586  1.00  0.00    -0.184 C  
HETATM   15  C2* UNL     1      -8.461   8.260  70.156  1.00  0.00    -0.126 C  
HETATM   16  C4* UNL     1      -9.723   6.783  71.547  1.00  0.00    -0.163 C  
HETATM   17  C3* UNL     1      -8.306   7.039  71.027  1.00  0.00    -0.125 C  
HETATM   18  O3* UNL     1      -7.901   5.943  70.200  1.00  0.00    -0.096 OA 
HETATM   19  O4* UNL     1     -10.635   7.442  70.634  1.00  0.00    -0.217 OA 
HETATM   20  H3* UNL     1      -7.804   5.174  70.749  1.00  0.00     0.000 HD 
BRANCH  16  21
HETATM   21  C5* UNL     1      -9.964   7.349  72.948  1.00  0.00    -0.232 C  
HETATM   22  O5* UNL     1      -9.897   6.326  73.937  1.00  0.00    -0.174 OA 
HETATM   23  H5* UNL     1     -10.048   6.677  74.806  1.00  0.00     0.000 HD 
ENDBRANCH  16  21
ENDBRANCH   8  14
TORSDOF 2
ENDMDL
MODEL      179
REMARK 921   NORMALIZED FREE ENERGY PREDICTED BY IDOCK:   -3.85 KCAL/MOL
REMARK 922        TOTAL FREE ENERGY PREDICTED BY IDOCK:   -4.64 KCAL/MOL
REMARK 923 INTER-LIGAND FREE ENERGY PREDICTED BY IDOCK:   -4.48 KCAL/MOL
REMARK 924 INTRA-LIGAND FREE ENERGY PREDICTED BY IDOCK:   -0.16 KCAL/MOL
REMARK 927      BINDING AFFINITY PREDICTED BY RF-SCORE:    0.00 PKD
ROOT
HETATM    1  N   UNL     1     -11.660  16.345  64.091  1.00  0.00    -1.400 NA 
HETATM    2  C   UNL     1     -10.929  15.557  64.968  1.00  0.00    -0.440 A  
HETATM    3  H1  UNL     1     -12.381  15.969  63.475  1.00  0.00     0.000 HD 
HETATM    4  H2  UNL     1     -10.994  16.851  63.507  1.00  0.00     0.000 HD 
HETATM    5  C   UNL     1      -9.934  16.076  65.817  1.00  0.00    -0.351 A  
HETATM    6  N   UNL     1      -9.433  17.348  65.992  1.00  0.00    -0.509 NA 
HETATM    7  C   UNL     1      -8.534  17.225  66.946  1.00  0.00    -0.226 A  
HETATM    8  N   UNL     1      -8.404  15.929  67.370  1.00  0.00    -0.162 NA 
HETATM    9  C   UNL     1      -9.299  15.177  66.658  1.00  0.00    -0.267 A  
HETATM   10  N   UNL     1     -11.181  14.231  65.001  1.00  0.00    -0.345 NA 
HETATM   11  N   UNL     1      -9.521  13.856  66.747  1.00  0.00    -0.270 NA 
HETATM   12 CL   UNL     1     -10.850  11.811  65.872  1.00  0.00    -0.327 Cl 
HETATM   13  C   UNL     1     -10.482  13.482  65.875  1.00  0.00    -0.292 A  
ENDROOT
BRANCH   8  14
HETATM   14  C1* UNL     1      -7.532  15.429  68.416  1.00  0.00    -0.115 C  
HETATM   15  C2* UNL     1      -8.265  14.788  69.585  1.00  0.00     0.124 C  
HETATM   16  C4* UNL     1      -6.419  13.429  68.912  1.00  0.00    -0.103 C  
HETATM   17  C3* UNL     1      -7.205  13.876  70.147  1.00  0.00     0.654 C  
HETATM   18  O3* UNL     1      -6.350  14.648  70.997  1.00  0.00    -0.131 OA 
HETATM   19  O4* UNL     1      -6.666  14.410  67.874  1.00  0.00    -0.133 OA 
HETATM   20  H3* UNL     1      -5.682  14.073  71.351  1.00  0.00     0.000 HD 
BRANCH  16  21
HETATM   21  C5* UNL     1      -6.852  12.061  68.382  1.00  0.00    -0.072 C  
HETATM   22  O5* UNL     1      -7.039  11.130  69.445  1.00  0.00    -0.117 OA 
HETATM   23  H5* UNL     1      -7.307  10.281  69.116  1.00  0.00     0.000 HD 
ENDBRANCH  16  21
ENDBRANCH   8  14
TORSDOF 2
ENDMDL
MODEL      180
REMARK 921   NORMALIZED FREE ENERGY PREDICTED BY IDOCK:   -3.84 KCAL/MOL
REMARK 922        TOTAL FREE ENERGY PREDICTED BY IDOCK:   -4.63 KCAL/MOL
REMARK 923 INTER-LIGAND FREE ENERGY PREDICTED BY IDOCK:   -4.28 KCAL/MOL
REMARK 924 INTRA-LIGAND FREE ENERGY PREDICTED BY IDOCK:   -0.35 KCAL/MOL
REMARK 927      BINDING AFFINITY PREDICTED BY RF-SCORE:    0.00 PKD
ROOT
HETATM    1  N   UNL     1      -9.828  11.371  64.297  1.00  0.00    -0.250 NA 
HETATM    2  C   UNL     1      -9.454  11.333  65.632  1.00  0.00    -0.229 A  
HETATM    3  H1  UNL     1      -9.677  12.185  63.701  1.00  0.00     0.000 HD 
HETATM    4  H2  UNL     1     -10.821  11.140  64.252  1.00  0.00     0.000 HD 
HETATM    5  C   UNL     1      -9.662  10.211  66.455  1.00  0.00    -0.200 A  
HETATM    6  N   UNL     1     -10.247   8.985  66.223  1.00  0.00    -0.248 NA 
HETATM    7  C   UNL     1     -10.127   8.336  67.363  1.00  0.00    -0.233 A  
HETATM    8  N   UNL     1      -9.527   9.097  68.331  1.00  0.00    -0.142 NA 
HETATM    9  C   UNL     1      -9.217  10.305  67.764  1.00  0.00    -0.141 A  
HETATM   10  N   UNL     1      -8.869  12.428  66.166  1.00  0.00     0.022 NA 
HETATM   11  N   UNL     1      -8.615  11.357  68.341  1.00  0.00    -0.152 NA 
HETATM   12 CL   UNL     1      -7.750  13.784  68.071  1.00  0.00    -0.136 Cl 
HETATM   13  C   UNL     1      -8.488  12.368  67.456  1.00  0.00    -0.175 A  
ENDROOT
BRANCH   8  14
HETATM   14  C1* UNL     1      -9.212   8.703  69.691  1.00  0.00    -0.157 C  
HETATM   15  C2* UNL     1     -10.028   9.424  70.753  1.00  0.00    -0.358 C  
HETATM   16  C4* UNL     1      -9.936   7.082  71.218  1.00  0.00    -0.189 C  
HETATM   17  C3* UNL     1      -9.960   8.451  71.903  1.00  0.00    -0.261 C  
HETATM   18  O3* UNL     1      -8.723   8.655  72.594  1.00  0.00    -0.380 OA 
HETATM   19  O4* UNL     1      -9.483   7.296  69.859  1.00  0.00    -0.158 OA 
HETATM   20  H3* UNL     1      -8.680   8.042  73.318  1.00  0.00     0.000 HD 
BRANCH  16  21
HETATM   21  C5* UNL     1     -11.310   6.411  71.159  1.00  0.00    -0.319 C  
HETATM   22  O5* UNL     1     -11.796   6.345  69.822  1.00  0.00    -0.578 OA 
HETATM   23  H5* UNL     1     -12.648   5.929  69.785  1.00  0.00     0.000 HD 
ENDBRANCH  16  21
ENDBRANCH   8  14
TORSDOF 2
ENDMDL
MODEL      181
REMARK 921   NORMALIZED FREE ENERGY PREDICTED BY IDOCK:   -3.83 KCAL/MOL
REMARK 922        TOTAL FREE ENERGY PREDICTED BY IDOCK:   -4.62 KCAL/MOL
REMARK 923 INTER-LIGAND FREE ENERGY PREDICTED BY IDOCK:   -4.62 KCAL/MOL
REMARK 924 INTRA-LIGAND FREE ENERGY PREDICTED BY IDOCK:    0.00 KCAL/MOL
REMARK 927      BINDING AFFINITY PREDICTED BY RF-SCORE:    0.00 PKD
ROOT
HETATM    1  N   UNL     1     -10.933   8.362  67.230  1.00  0.00    -0.418 NA 
HETATM    2  C   UNL     1     -10.928   9.750  67.251  1.00  0.00    -0.072 A  
HETATM    3  H1  UNL     1     -10.720   7.818  66.394  1.00  0.00     0.000 HD 
HETATM    4  H2  UNL     1     -11.845   8.056  67.569  1.00  0.00     0.000 HD 
HETATM    5  C   UNL     1     -11.222  10.500  68.404  1.00  0.00    -0.279 A  
HETATM    6  N   UNL     1     -11.583  10.135  69.683  1.00  0.00    -0.195 NA 
HETATM    7  C   UNL     1     -11.701  11.273  70.335  1.00  0.00    -0.304 A  
HETATM    8  N   UNL     1     -11.470  12.357  69.530  1.00  0.00    -0.264 NA 
HETATM    9  C   UNL     1     -11.157  11.879  68.286  1.00  0.00    -0.239 A  
HETATM   10  N   UNL     1     -10.632  10.407  66.108  1.00  0.00    -0.144 NA 
HETATM   11  N   UNL     1     -10.851  12.584  67.185  1.00  0.00    -0.244 NA 
HETATM   12 CL   UNL     1     -10.221  12.526  64.672  1.00  0.00    -0.321 Cl 
HETATM   13  C   UNL     1     -10.606  11.753  66.149  1.00  0.00    -0.260 A  
ENDROOT
BRANCH   8  14
HETATM   14  C1* UNL     1     -11.488  13.756  69.912  1.00  0.00    -0.160 C  
HETATM   15  C2* UNL     1     -12.312  14.642  68.990  1.00  0.00    -0.102 C  
HETATM   16  C4* UNL     1     -12.790  15.145  71.276  1.00  0.00    -0.391 C  
HETATM   17  C3* UNL     1     -12.651  15.797  69.898  1.00  0.00     0.019 C  
HETATM   18  O3* UNL     1     -11.540  16.700  69.914  1.00  0.00    -0.271 OA 
HETATM   19  O4* UNL     1     -12.070  13.888  71.225  1.00  0.00    -0.319 OA 
HETATM   20  H3* UNL     1     -11.753  17.427  70.486  1.00  0.00     0.000 HD 
BRANCH  16  21
HETATM   21  C5* UNL     1     -14.241  14.844  71.659  1.00  0.00    -0.542 C  
HETATM   22  O5* UNL     1     -14.327  14.310  72.978  1.00  0.00    -0.114 OA 
HETATM   23  H5* UNL     1     -15.227  14.123  73.215  1.00  0.00     0.000 HD 
ENDBRANCH  16  21
ENDBRANCH   8  14
TORSDOF 2
ENDMDL
MODEL      182
REMARK 921   NORMALIZED FREE ENERGY PREDICTED BY IDOCK:   -3.82 KCAL/MOL
REMARK 922        TOTAL FREE ENERGY PREDICTED BY IDOCK:   -4.62 KCAL/MOL
REMARK 923 INTER-LIGAND FREE ENERGY PREDICTED BY IDOCK:   -4.37 KCAL/MOL
REMARK 924 INTRA-LIGAND FREE ENERGY PREDICTED BY IDOCK:   -0.24 KCAL/MOL
REMARK 927      BINDING AFFINITY PREDICTED BY RF-SCORE:    0.00 PKD
ROOT
HETATM    1  N   UNL     1     -12.097  12.492  66.578  1.00  0.00    -0.585 NA 
HETATM    2  C   UNL     1     -11.156  11.588  66.107  1.00  0.00    -0.244 A  
HETATM    3  H1  UNL     1     -12.438  13.278  66.023  1.00  0.00     0.000 HD 
HETATM    4  H2  UNL     1     -11.744  12.870  67.457  1.00  0.00     0.000 HD 
HETATM    5  C   UNL     1     -10.685  10.505  66.872  1.00  0.00    -0.219 A  
HETATM    6  N   UNL     1     -10.958  10.086  68.156  1.00  0.00    -0.254 NA 
HETATM    7  C   UNL     1     -10.237   8.995  68.313  1.00  0.00    -0.204 A  
HETATM    8  N   UNL     1      -9.484   8.709  67.205  1.00  0.00    -0.152 NA 
HETATM    9  C   UNL     1      -9.761   9.667  66.267  1.00  0.00    -0.240 A  
HETATM   10  N   UNL     1     -10.666  11.762  64.861  1.00  0.00    -0.284 NA 
HETATM   11  N   UNL     1      -9.255   9.781  65.029  1.00  0.00    -0.233 NA 
HETATM   12 CL   UNL     1      -9.193  11.135  62.820  1.00  0.00    -0.361 Cl 
HETATM   13  C   UNL     1      -9.773  10.862  64.408  1.00  0.00    -0.290 A  
ENDROOT
BRANCH   8  14
HETATM   14  C1* UNL     1      -8.596   7.579  67.013  1.00  0.00    -0.122 C  
HETATM   15  C2* UNL     1      -8.470   6.672  68.228  1.00  0.00    -0.120 C  
HETATM   16  C4* UNL     1      -8.768   5.373  66.245  1.00  0.00    -0.125 C  
HETATM   17  C3* UNL     1      -8.047   5.371  67.595  1.00  0.00    -0.100 C  
HETATM   18  O3* UNL     1      -6.633   5.415  67.375  1.00  0.00    -0.050 OA 
HETATM   19  O4* UNL     1      -9.095   6.752  65.941  1.00  0.00    -0.122 OA 
HETATM   20  H3* UNL     1      -6.366   4.595  66.976  1.00  0.00     0.000 HD 
BRANCH  16  21
HETATM   21  C5* UNL     1     -10.069   4.568  66.252  1.00  0.00    -0.254 C  
HETATM   22  O5* UNL     1      -9.846   3.231  66.690  1.00  0.00    -0.412 OA 
HETATM   23  H5* UNL     1     -10.654   2.731  66.695  1.00  0.00     0.000 HD 
ENDBRANCH  16  21
ENDBRANCH   8  14
TORSDOF 2
ENDMDL
MODEL      183
REMARK 921   NORMALIZED FREE ENERGY PREDICTED BY IDOCK:   -3.81 KCAL/MOL
REMARK 922        TOTAL FREE ENERGY PREDICTED BY IDOCK:   -4.60 KCAL/MOL
REMARK 923 INTER-LIGAND FREE ENERGY PREDICTED BY IDOCK:   -4.28 KCAL/MOL
REMARK 924 INTRA-LIGAND FREE ENERGY PREDICTED BY IDOCK:   -0.32 KCAL/MOL
REMARK 927      BINDING AFFINITY PREDICTED BY RF-SCORE:    0.00 PKD
ROOT
HETATM    1  N   UNL     1     -10.511   7.444  71.686  1.00  0.00    -0.198 NA 
HETATM    2  C   UNL     1     -10.191   8.249  70.602  1.00  0.00    -0.193 A  
HETATM    3  H1  UNL     1     -10.031   6.567  71.886  1.00  0.00     0.000 HD 
HETATM    4  H2  UNL     1     -11.509   7.240  71.630  1.00  0.00     0.000 HD 
HETATM    5  C   UNL     1     -10.854   9.459  70.324  1.00  0.00    -0.258 A  
HETATM    6  N   UNL     1     -11.897  10.110  70.945  1.00  0.00    -0.345 NA 
HETATM    7  C   UNL     1     -12.065  11.215  70.248  1.00  0.00    -0.377 A  
HETATM    8  N   UNL     1     -11.204  11.292  69.186  1.00  0.00    -0.250 NA 
HETATM    9  C   UNL     1     -10.415  10.173  69.221  1.00  0.00    -0.225 A  
HETATM   10  N   UNL     1      -9.204   7.847  69.773  1.00  0.00    -0.150 NA 
HETATM   11  N   UNL     1      -9.429   9.832  68.376  1.00  0.00    -0.139 NA 
HETATM   12 CL   UNL     1      -7.625   8.088  67.730  1.00  0.00    -0.100 Cl 
HETATM   13  C   UNL     1      -8.887   8.651  68.740  1.00  0.00    -0.139 A  
ENDROOT
BRANCH   8  14
HETATM   14  C1* UNL     1     -11.088  12.371  68.223  1.00  0.00    -0.243 C  
HETATM   15  C2* UNL     1     -12.395  13.095  67.940  1.00  0.00     0.098 C  
HETATM   16  C4* UNL     1     -10.625  14.666  68.267  1.00  0.00    -0.235 C  
HETATM   17  C3* UNL     1     -11.903  14.436  67.456  1.00  0.00    -0.386 C  
HETATM   18  O3* UNL     1     -11.567  14.320  66.069  1.00  0.00    -0.342 OA 
HETATM   19  O4* UNL     1     -10.174  13.368  68.726  1.00  0.00    -0.211 OA 
HETATM   20  H3* UNL     1     -11.257  15.164  65.764  1.00  0.00     0.000 HD 
BRANCH  16  21
HETATM   21  C5* UNL     1     -10.839  15.554  69.494  1.00  0.00    -0.267 C  
HETATM   22  O5* UNL     1     -10.521  16.914  69.209  1.00  0.00    -0.319 OA 
HETATM   23  H5* UNL     1     -10.654  17.465  69.971  1.00  0.00     0.000 HD 
ENDBRANCH  16  21
ENDBRANCH   8  14
TORSDOF 2
ENDMDL
MODEL      184
REMARK 921   NORMALIZED FREE ENERGY PREDICTED BY IDOCK:   -3.77 KCAL/MOL
REMARK 922        TOTAL FREE ENERGY PREDICTED BY IDOCK:   -4.55 KCAL/MOL
REMARK 923 INTER-LIGAND FREE ENERGY PREDICTED BY IDOCK:   -4.22 KCAL/MOL
REMARK 924 INTRA-LIGAND FREE ENERGY PREDICTED BY IDOCK:   -0.34 KCAL/MOL
REMARK 927      BINDING AFFINITY PREDICTED BY RF-SCORE:    0.00 PKD
ROOT
HETATM    1  N   UNL     1      -8.938   7.354  70.820  1.00  0.00    -0.150 NA 
HETATM    2  C   UNL     1      -9.096   7.808  69.518  1.00  0.00    -0.146 A  
HETATM    3  H1  UNL     1      -8.434   6.498  71.053  1.00  0.00     0.000 HD 
HETATM    4  H2  UNL     1      -9.867   7.283  71.233  1.00  0.00     0.000 HD 
HETATM    5  C   UNL     1      -9.791   8.988  69.197  1.00  0.00    -0.175 A  
HETATM    6  N   UNL     1     -10.457   9.913  69.970  1.00  0.00    -0.265 NA 
HETATM    7  C   UNL     1     -10.886  10.819  69.115  1.00  0.00    -0.237 A  
HETATM    8  N   UNL     1     -10.558  10.505  67.823  1.00  0.00    -0.223 NA 
HETATM    9  C   UNL     1      -9.851   9.333  67.856  1.00  0.00    -0.167 A  
HETATM   10  N   UNL     1      -8.563   7.077  68.515  1.00  0.00    -0.124 NA 
HETATM   11  N   UNL     1      -9.326   8.657  66.822  1.00  0.00    -0.166 NA 
HETATM   12 CL   UNL     1      -8.003   6.573  66.034  1.00  0.00    -0.107 Cl 
HETATM   13  C   UNL     1      -8.702   7.542  67.259  1.00  0.00    -0.121 A  
ENDROOT
BRANCH   8  14
HETATM   14  C1* UNL     1     -10.844  11.279  66.630  1.00  0.00    -0.273 C  
HETATM   15  C2* UNL     1     -12.014  12.240  66.777  1.00  0.00    -0.230 C  
HETATM   16  C4* UNL     1     -10.172  13.327  65.713  1.00  0.00    -0.292 C  
HETATM   17  C3* UNL     1     -11.701  13.266  65.718  1.00  0.00    -0.359 C  
HETATM   18  O3* UNL     1     -12.159  12.767  64.456  1.00  0.00    -0.368 OA 
HETATM   19  O4* UNL     1      -9.697  12.088  66.297  1.00  0.00    -0.224 OA 
HETATM   20  H3* UNL     1     -11.961  13.414  63.789  1.00  0.00     0.000 HD 
BRANCH  16  21
HETATM   21  C5* UNL     1      -9.609  14.485  66.538  1.00  0.00    -0.293 C  
HETATM   22  O5* UNL     1     -10.645  15.365  66.968  1.00  0.00    -0.296 OA 
HETATM   23  H5* UNL     1     -10.296  16.084  67.480  1.00  0.00     0.000 HD 
ENDBRANCH  16  21
ENDBRANCH   8  14
TORSDOF 2
ENDMDL
MODEL      185
REMARK 921   NORMALIZED FREE ENERGY PREDICTED BY IDOCK:   -3.74 KCAL/MOL
REMARK 922        TOTAL FREE ENERGY PREDICTED BY IDOCK:   -4.52 KCAL/MOL
REMARK 923 INTER-LIGAND FREE ENERGY PREDICTED BY IDOCK:   -4.05 KCAL/MOL
REMARK 924 INTRA-LIGAND FREE ENERGY PREDICTED BY IDOCK:   -0.47 KCAL/MOL
REMARK 927      BINDING AFFINITY PREDICTED BY RF-SCORE:    0.00 PKD
ROOT
HETATM    1  N   UNL     1      -9.734  11.152  62.500  1.00  0.00    -0.595 NA 
HETATM    2  C   UNL     1      -9.446  10.359  63.602  1.00  0.00    -0.306 A  
HETATM    3  H1  UNL     1      -9.338  10.984  61.576  1.00  0.00     0.000 HD 
HETATM    4  H2  UNL     1      -9.517  12.116  62.754  1.00  0.00     0.000 HD 
HETATM    5  C   UNL     1      -9.992  10.592  64.877  1.00  0.00    -0.334 A  
HETATM    6  N   UNL     1     -10.841  11.562  65.361  1.00  0.00    -0.280 NA 
HETATM    7  C   UNL     1     -11.021  11.249  66.628  1.00  0.00    -0.268 A  
HETATM    8  N   UNL     1     -10.300  10.144  66.994  1.00  0.00    -0.233 NA 
HETATM    9  C   UNL     1      -9.635   9.705  65.881  1.00  0.00    -0.257 A  
HETATM   10  N   UNL     1      -8.598   9.320  63.440  1.00  0.00    -0.208 NA 
HETATM   11  N   UNL     1      -8.814   8.648  65.774  1.00  0.00    -0.183 NA 
HETATM   12 CL   UNL     1      -7.270   7.242  64.241  1.00  0.00    -0.070 Cl 
HETATM   13  C   UNL     1      -8.348   8.543  64.511  1.00  0.00    -0.128 A  
ENDROOT
BRANCH   8  14
HETATM   14  C1* UNL     1     -10.274   9.502  68.295  1.00  0.00    -0.193 C  
HETATM   15  C2* UNL     1     -10.657   8.030  68.271  1.00  0.00    -0.155 C  
HETATM   16  C4* UNL     1      -8.710   8.364  69.615  1.00  0.00    -0.133 C  
HETATM   17  C3* UNL     1      -9.983   7.519  69.519  1.00  0.00    -0.180 C  
HETATM   18  O3* UNL     1     -10.827   7.808  70.639  1.00  0.00    -0.229 OA 
HETATM   19  O4* UNL     1      -8.937   9.563  68.834  1.00  0.00    -0.135 OA 
HETATM   20  H3* UNL     1     -10.402   7.486  71.425  1.00  0.00     0.000 HD 
BRANCH  16  21
HETATM   21  C5* UNL     1      -7.473   7.661  69.053  1.00  0.00    -0.095 C  
HETATM   22  O5* UNL     1      -6.909   8.395  67.970  1.00  0.00    -0.067 OA 
HETATM   23  H5* UNL     1      -6.141   7.958  67.621  1.00  0.00     0.000 HD 
ENDBRANCH  16  21
ENDBRANCH   8  14
TORSDOF 2
ENDMDL
MODEL      186
REMARK 921   NORMALIZED FREE ENERGY PREDICTED BY IDOCK:   -3.74 KCAL/MOL
REMARK 922        TOTAL FREE ENERGY PREDICTED BY IDOCK:   -4.52 KCAL/MOL
REMARK 923 INTER-LIGAND FREE ENERGY PREDICTED BY IDOCK:   -4.20 KCAL/MOL
REMARK 924 INTRA-LIGAND FREE ENERGY PREDICTED BY IDOCK:   -0.32 KCAL/MOL
REMARK 927      BINDING AFFINITY PREDICTED BY RF-SCORE:    0.00 PKD
ROOT
HETATM    1  N   UNL     1     -11.687  10.660  71.276  1.00  0.00    -0.186 NA 
HETATM    2  C   UNL     1     -11.347  10.225  70.003  1.00  0.00    -0.301 A  
HETATM    3  H1  UNL     1     -11.912  11.632  71.488  1.00  0.00     0.000 HD 
HETATM    4  H2  UNL     1     -10.936  10.376  71.905  1.00  0.00     0.000 HD 
HETATM    5  C   UNL     1     -11.035   8.884  69.709  1.00  0.00    -0.156 A  
HETATM    6  N   UNL     1     -10.957   7.755  70.495  1.00  0.00    -0.243 NA 
HETATM    7  C   UNL     1     -10.648   6.786  69.659  1.00  0.00    -0.233 A  
HETATM    8  N   UNL     1     -10.487   7.241  68.377  1.00  0.00    -0.199 NA 
HETATM    9  C   UNL     1     -10.736   8.587  68.389  1.00  0.00    -0.032 A  
HETATM   10  N   UNL     1     -11.308  11.132  69.004  1.00  0.00    -0.248 NA 
HETATM   11  N   UNL     1     -10.700   9.442  67.355  1.00  0.00    -0.262 NA 
HETATM   12 CL   UNL     1     -10.973  11.888  66.546  1.00  0.00    -0.317 Cl 
HETATM   13  C   UNL     1     -11.002  10.691  67.768  1.00  0.00    -0.306 A  
ENDROOT
BRANCH   8  14
HETATM   14  C1* UNL     1     -10.171   6.456  67.198  1.00  0.00    -0.199 C  
HETATM   15  C2* UNL     1      -8.683   6.349  66.902  1.00  0.00    -0.115 C  
HETATM   16  C4* UNL     1      -9.731   4.211  66.700  1.00  0.00    -0.211 C  
HETATM   17  C3* UNL     1      -8.624   5.077  66.094  1.00  0.00    -0.118 C  
HETATM   18  O3* UNL     1      -8.958   5.389  64.737  1.00  0.00    -0.320 OA 
HETATM   19  O4* UNL     1     -10.646   5.106  67.378  1.00  0.00    -0.153 OA 
HETATM   20  H3* UNL     1      -8.920   4.589  64.228  1.00  0.00     0.000 HD 
BRANCH  16  21
HETATM   21  C5* UNL     1      -9.214   3.197  67.723  1.00  0.00    -0.196 C  
HETATM   22  O5* UNL     1      -9.689   1.885  67.435  1.00  0.00    -0.405 OA 
HETATM   23  H5* UNL     1      -9.369   1.256  68.071  1.00  0.00     0.000 HD 
ENDBRANCH  16  21
ENDBRANCH   8  14
TORSDOF 2
ENDMDL
MODEL      187
REMARK 921   NORMALIZED FREE ENERGY PREDICTED BY IDOCK:   -3.73 KCAL/MOL
REMARK 922        TOTAL FREE ENERGY PREDICTED BY IDOCK:   -4.51 KCAL/MOL
REMARK 923 INTER-LIGAND FREE ENERGY PREDICTED BY IDOCK:   -4.12 KCAL/MOL
REMARK 924 INTRA-LIGAND FREE ENERGY PREDICTED BY IDOCK:   -0.40 KCAL/MOL
REMARK 927      BINDING AFFINITY PREDICTED BY RF-SCORE:    0.00 PKD
ROOT
HETATM    1  N   UNL     1     -10.207  10.019  66.448  1.00  0.00    -0.236 NA 
HETATM    2  C   UNL     1     -10.100   8.723  66.932  1.00  0.00    -0.278 A  
HETATM    3  H1  UNL     1      -9.993  10.271  65.483  1.00  0.00     0.000 HD 
HETATM    4  H2  UNL     1      -9.642  10.618  67.051  1.00  0.00     0.000 HD 
HETATM    5  C   UNL     1     -10.393   8.376  68.263  1.00  0.00    -0.199 A  
HETATM    6  N   UNL     1     -10.796   9.121  69.351  1.00  0.00    -0.194 NA 
HETATM    7  C   UNL     1     -10.940   8.244  70.323  1.00  0.00    -0.232 A  
HETATM    8  N   UNL     1     -10.616   6.974  69.925  1.00  0.00    -0.221 NA 
HETATM    9  C   UNL     1     -10.265   7.039  68.603  1.00  0.00    -0.176 A  
HETATM   10  N   UNL     1      -9.689   7.755  66.085  1.00  0.00    -0.066 NA 
HETATM   11  N   UNL     1      -9.880   6.033  67.802  1.00  0.00    -0.114 NA 
HETATM   12 CL   UNL     1      -9.092   5.315  65.440  1.00  0.00    -0.152 Cl 
HETATM   13  C   UNL     1      -9.615   6.497  66.562  1.00  0.00    -0.140 A  
ENDROOT
BRANCH   8  14
HETATM   14  C1* UNL     1     -10.679   5.761  70.718  1.00  0.00    -0.271 C  
HETATM   15  C2* UNL     1      -9.322   5.239  71.166  1.00  0.00    -0.192 C  
HETATM   16  C4* UNL     1     -10.872   5.201  72.984  1.00  0.00    -0.279 C  
HETATM   17  C3* UNL     1      -9.692   4.431  72.384  1.00  0.00    -0.157 C  
HETATM   18  O3* UNL     1     -10.141   3.142  71.952  1.00  0.00    -0.160 OA 
HETATM   19  O4* UNL     1     -11.432   6.013  71.923  1.00  0.00    -0.287 OA 
HETATM   20  H3* UNL     1     -10.374   2.634  72.720  1.00  0.00     0.000 HD 
BRANCH  16  21
HETATM   21  C5* UNL     1     -10.467   6.133  74.128  1.00  0.00    -0.231 C  
HETATM   22  O5* UNL     1     -10.865   7.476  73.867  1.00  0.00    -0.534 OA 
HETATM   23  H5* UNL     1     -10.614   8.054  74.577  1.00  0.00     0.000 HD 
ENDBRANCH  16  21
ENDBRANCH   8  14
TORSDOF 2
ENDMDL
MODEL      188
REMARK 921   NORMALIZED FREE ENERGY PREDICTED BY IDOCK:   -3.71 KCAL/MOL
REMARK 922        TOTAL FREE ENERGY PREDICTED BY IDOCK:   -4.48 KCAL/MOL
REMARK 923 INTER-LIGAND FREE ENERGY PREDICTED BY IDOCK:   -4.12 KCAL/MOL
REMARK 924 INTRA-LIGAND FREE ENERGY PREDICTED BY IDOCK:   -0.37 KCAL/MOL
REMARK 927      BINDING AFFINITY PREDICTED BY RF-SCORE:    0.00 PKD
ROOT
HETATM    1  N   UNL     1     -12.060  13.345  68.111  1.00  0.00    -0.302 NA 
HETATM    2  C   UNL     1     -11.319  14.414  67.629  1.00  0.00    -0.329 A  
HETATM    3  H1  UNL     1     -12.820  12.914  67.586  1.00  0.00     0.000 HD 
HETATM    4  H2  UNL     1     -12.434  13.619  69.020  1.00  0.00     0.000 HD 
HETATM    5  C   UNL     1     -10.270  15.009  68.354  1.00  0.00    -0.228 A  
HETATM    6  N   UNL     1      -9.748  14.762  69.605  1.00  0.00     0.037 NA 
HETATM    7  C   UNL     1      -8.759  15.622  69.731  1.00  0.00     0.043 A  
HETATM    8  N   UNL     1      -8.639  16.437  68.637  1.00  0.00    -0.225 NA 
HETATM    9  C   UNL     1      -9.600  16.055  67.739  1.00  0.00    -0.219 A  
HETATM   10  N   UNL     1     -11.625  14.908  66.410  1.00  0.00    -0.292 NA 
HETATM   11  N   UNL     1      -9.848  16.574  66.526  1.00  0.00    -0.263 NA 
HETATM   12 CL   UNL     1     -11.316  16.508  64.392  1.00  0.00    -0.196 Cl 
HETATM   13  C   UNL     1     -10.881  15.929  65.943  1.00  0.00    -0.233 A  
ENDROOT
BRANCH   8  14
HETATM   14  C1* UNL     1      -7.653  17.477  68.419  1.00  0.00    -0.254 C  
HETATM   15  C2* UNL     1      -7.943  18.776  69.156  1.00  0.00    -0.086 C  
HETATM   16  C4* UNL     1      -5.645  18.171  69.405  1.00  0.00    -0.216 C  
HETATM   17  C3* UNL     1      -6.567  19.384  69.257  1.00  0.00    -0.326 C  
HETATM   18  O3* UNL     1      -6.277  20.050  68.023  1.00  0.00    -0.222 OA 
HETATM   19  O4* UNL     1      -6.366  17.025  68.888  1.00  0.00    -0.163 OA 
HETATM   20  H3* UNL     1      -5.410  20.434  68.086  1.00  0.00     0.000 HD 
BRANCH  16  21
HETATM   21  C5* UNL     1      -5.263  17.876  70.856  1.00  0.00    -0.269 C  
HETATM   22  O5* UNL     1      -5.260  19.064  71.642  1.00  0.00    -0.372 OA 
HETATM   23  H5* UNL     1      -5.023  18.881  72.543  1.00  0.00     0.000 HD 
ENDBRANCH  16  21
ENDBRANCH   8  14
TORSDOF 2
ENDMDL
MODEL      189
REMARK 921   NORMALIZED FREE ENERGY PREDICTED BY IDOCK:   -3.68 KCAL/MOL
REMARK 922        TOTAL FREE ENERGY PREDICTED BY IDOCK:   -4.46 KCAL/MOL
REMARK 923 INTER-LIGAND FREE ENERGY PREDICTED BY IDOCK:   -4.31 KCAL/MOL
REMARK 924 INTRA-LIGAND FREE ENERGY PREDICTED BY IDOCK:   -0.15 KCAL/MOL
REMARK 927      BINDING AFFINITY PREDICTED BY RF-SCORE:    0.00 PKD
ROOT
HETATM    1  N   UNL     1      -5.346  11.772  70.260  1.00  0.00    -0.096 NA 
HETATM    2  C   UNL     1      -6.403  12.189  69.464  1.00  0.00    -0.122 A  
HETATM    3  H1  UNL     1      -5.084  10.792  70.368  1.00  0.00     0.000 HD 
HETATM    4  H2  UNL     1      -5.500  12.151  71.195  1.00  0.00     0.000 HD 
HETATM    5  C   UNL     1      -6.764  13.540  69.316  1.00  0.00    -0.080 A  
HETATM    6  N   UNL     1      -6.263  14.701  69.864  1.00  0.00    -0.139 NA 
HETATM    7  C   UNL     1      -6.989  15.663  69.333  1.00  0.00    -0.196 A  
HETATM    8  N   UNL     1      -7.960  15.177  68.497  1.00  0.00    -0.135 NA 
HETATM    9  C   UNL     1      -7.828  13.814  68.471  1.00  0.00    -0.132 A  
HETATM   10  N   UNL     1      -7.120  11.251  68.808  1.00  0.00    -0.088 NA 
HETATM   11  N   UNL     1      -8.563  12.927  67.781  1.00  0.00    -0.172 NA 
HETATM   12 CL   UNL     1      -8.995  10.437  67.212  1.00  0.00    -0.139 Cl 
HETATM   13  C   UNL     1      -8.127  11.672  68.019  1.00  0.00    -0.139 A  
ENDROOT
BRANCH   8  14
HETATM   14  C1* UNL     1      -8.921  15.942  67.726  1.00  0.00    -0.176 C  
HETATM   15  C2* UNL     1      -8.876  15.671  66.229  1.00  0.00    -0.364 C  
HETATM   16  C4* UNL     1     -11.135  15.688  67.007  1.00  0.00    -0.200 C  
HETATM   17  C3* UNL     1     -10.267  16.069  65.805  1.00  0.00    -0.377 C  
HETATM   18  O3* UNL     1     -10.297  17.490  65.633  1.00  0.00    -0.601 OA 
HETATM   19  O4* UNL     1     -10.257  15.609  68.157  1.00  0.00    -0.224 OA 
HETATM   20  H3* UNL     1     -11.173  17.741  65.366  1.00  0.00     0.000 HD 
BRANCH  16  21
HETATM   21  C5* UNL     1     -11.828  14.333  66.847  1.00  0.00    -0.433 C  
HETATM   22  O5* UNL     1     -12.346  13.868  68.090  1.00  0.00    -0.491 OA 
HETATM   23  H5* UNL     1     -12.775  13.027  67.991  1.00  0.00     0.000 HD 
ENDBRANCH  16  21
ENDBRANCH   8  14
TORSDOF 2
ENDMDL
MODEL      190
REMARK 921   NORMALIZED FREE ENERGY PREDICTED BY IDOCK:   -3.66 KCAL/MOL
REMARK 922        TOTAL FREE ENERGY PREDICTED BY IDOCK:   -4.43 KCAL/MOL
REMARK 923 INTER-LIGAND FREE ENERGY PREDICTED BY IDOCK:   -4.04 KCAL/MOL
REMARK 924 INTRA-LIGAND FREE ENERGY PREDICTED BY IDOCK:   -0.39 KCAL/MOL
REMARK 927      BINDING AFFINITY PREDICTED BY RF-SCORE:    0.00 PKD
ROOT
HETATM    1  N   UNL     1      -8.395   4.392  65.879  1.00  0.00    -0.113 NA 
HETATM    2  C   UNL     1      -8.889   5.528  66.504  1.00  0.00    -0.121 A  
HETATM    3  H1  UNL     1      -7.982   4.406  64.947  1.00  0.00     0.000 HD 
HETATM    4  H2  UNL     1      -9.144   3.699  65.871  1.00  0.00     0.000 HD 
HETATM    5  C   UNL     1      -9.459   5.509  67.790  1.00  0.00    -0.116 A  
HETATM    6  N   UNL     1      -9.694   4.490  68.687  1.00  0.00    -0.153 NA 
HETATM    7  C   UNL     1     -10.227   5.083  69.735  1.00  0.00    -0.266 A  
HETATM    8  N   UNL     1     -10.382   6.430  69.544  1.00  0.00    -0.193 NA 
HETATM    9  C   UNL     1      -9.890   6.723  68.300  1.00  0.00    -0.142 A  
HETATM   10  N   UNL     1      -8.823   6.703  65.841  1.00  0.00    -0.142 NA 
HETATM   11  N   UNL     1      -9.833   7.921  67.697  1.00  0.00    -0.156 NA 
HETATM   12 CL   UNL     1      -9.168   9.260  65.581  1.00  0.00    -0.269 Cl 
HETATM   13  C   UNL     1      -9.282   7.802  66.470  1.00  0.00    -0.184 A  
ENDROOT
BRANCH   8  14
HETATM   14  C1* UNL     1     -10.910   7.398  70.487  1.00  0.00    -0.243 C  
HETATM   15  C2* UNL     1     -11.625   6.779  71.679  1.00  0.00    -0.336 C  
HETATM   16  C4* UNL     1     -10.154   8.519  72.399  1.00  0.00    -0.295 C  
HETATM   17  C3* UNL     1     -11.509   7.875  72.707  1.00  0.00    -0.368 C  
HETATM   18  O3* UNL     1     -12.550   8.829  72.470  1.00  0.00    -0.391 OA 
HETATM   19  O4* UNL     1      -9.827   8.182  71.028  1.00  0.00    -0.175 OA 
HETATM   20  H3* UNL     1     -12.476   9.520  73.118  1.00  0.00     0.000 HD 
BRANCH  16  21
HETATM   21  C5* UNL     1      -9.024   8.007  73.294  1.00  0.00    -0.272 C  
HETATM   22  O5* UNL     1      -8.114   7.191  72.562  1.00  0.00    -0.102 OA 
HETATM   23  H5* UNL     1      -7.413   6.873  73.118  1.00  0.00     0.000 HD 
ENDBRANCH  16  21
ENDBRANCH   8  14
TORSDOF 2
ENDMDL
MODEL      191
REMARK 921   NORMALIZED FREE ENERGY PREDICTED BY IDOCK:   -3.65 KCAL/MOL
REMARK 922        TOTAL FREE ENERGY PREDICTED BY IDOCK:   -4.42 KCAL/MOL
REMARK 923 INTER-LIGAND FREE ENERGY PREDICTED BY IDOCK:   -4.71 KCAL/MOL
REMARK 924 INTRA-LIGAND FREE ENERGY PREDICTED BY IDOCK:    0.29 KCAL/MOL
REMARK 927      BINDING AFFINITY PREDICTED BY RF-SCORE:    0.00 PKD
ROOT
HETATM    1  N   UNL     1      -6.144   8.865  68.486  1.00  0.00    -0.045 NA 
HETATM    2  C   UNL     1      -7.396   9.218  68.001  1.00  0.00    -0.080 A  
HETATM    3  H1  UNL     1      -5.848   7.896  68.605  1.00  0.00     0.000 HD 
HETATM    4  H2  UNL     1      -6.022   9.334  69.383  1.00  0.00     0.000 HD 
HETATM    5  C   UNL     1      -7.805  10.554  67.837  1.00  0.00    -0.105 A  
HETATM    6  N   UNL     1      -7.182  11.755  68.098  1.00  0.00    -0.080 NA 
HETATM    7  C   UNL     1      -8.048  12.671  67.715  1.00  0.00    -0.166 A  
HETATM    8  N   UNL     1      -9.213  12.120  67.253  1.00  0.00    -0.180 NA 
HETATM    9  C   UNL     1      -9.074  10.760  67.321  1.00  0.00    -0.144 A  
HETATM   10  N   UNL     1      -8.260   8.231  67.679  1.00  0.00    -0.125 NA 
HETATM   11  N   UNL     1      -9.966   9.821  66.966  1.00  0.00    -0.191 NA 
HETATM   12 CL   UNL     1     -10.509   7.293  66.792  1.00  0.00    -0.345 Cl 
HETATM   13  C   UNL     1      -9.461   8.588  67.185  1.00  0.00    -0.162 A  
ENDROOT
BRANCH   8  14
HETATM   14  C1* UNL     1     -10.371  12.820  66.730  1.00  0.00    -0.240 C  
HETATM   15  C2* UNL     1     -10.031  13.991  65.819  1.00  0.00    -0.319 C  
HETATM   16  C4* UNL     1     -11.770  12.663  64.859  1.00  0.00    -0.353 C  
HETATM   17  C3* UNL     1     -11.287  14.109  64.994  1.00  0.00    -0.350 C  
HETATM   18  O3* UNL     1     -12.249  14.861  65.742  1.00  0.00    -0.112 OA 
HETATM   19  O4* UNL     1     -11.167  11.912  65.941  1.00  0.00    -0.323 OA 
HETATM   20  H3* UNL     1     -13.041  14.936  65.222  1.00  0.00     0.000 HD 
BRANCH  16  21
HETATM   21  C5* UNL     1     -11.357  12.008  63.540  1.00  0.00    -0.442 C  
HETATM   22  O5* UNL     1     -12.479  11.436  62.873  1.00  0.00    -0.949 OA 
HETATM   23  H5* UNL     1     -12.222  11.029  62.054  1.00  0.00     0.000 HD 
ENDBRANCH  16  21
ENDBRANCH   8  14
TORSDOF 2
ENDMDL
MODEL      192
REMARK 921   NORMALIZED FREE ENERGY PREDICTED BY IDOCK:   -3.62 KCAL/MOL
REMARK 922        TOTAL FREE ENERGY PREDICTED BY IDOCK:   -4.38 KCAL/MOL
REMARK 923 INTER-LIGAND FREE ENERGY PREDICTED BY IDOCK:   -4.95 KCAL/MOL
REMARK 924 INTRA-LIGAND FREE ENERGY PREDICTED BY IDOCK:    0.57 KCAL/MOL
REMARK 927      BINDING AFFINITY PREDICTED BY RF-SCORE:    0.00 PKD
ROOT
HETATM    1  N   UNL     1      -9.883  17.344  65.735  1.00  0.00    -0.555 NA 
HETATM    2  C   UNL     1     -10.055  15.969  65.653  1.00  0.00    -0.354 A  
HETATM    3  H1  UNL     1     -10.441  18.006  65.197  1.00  0.00     0.000 HD 
HETATM    4  H2  UNL     1      -8.901  17.541  65.537  1.00  0.00     0.000 HD 
HETATM    5  C   UNL     1      -9.284  15.055  66.395  1.00  0.00    -0.295 A  
HETATM    6  N   UNL     1      -8.247  15.223  67.286  1.00  0.00    -0.187 NA 
HETATM    7  C   UNL     1      -7.943  14.004  67.680  1.00  0.00    -0.178 A  
HETATM    8  N   UNL     1      -8.710  13.054  67.059  1.00  0.00    -0.210 NA 
HETATM    9  C   UNL     1      -9.580  13.711  66.232  1.00  0.00    -0.239 A  
HETATM   10  N   UNL     1     -11.001  15.490  64.818  1.00  0.00    -0.428 NA 
HETATM   11  N   UNL     1     -10.519  13.181  65.432  1.00  0.00    -0.290 NA 
HETATM   12 CL   UNL     1     -12.392  13.612  63.694  1.00  0.00    -0.428 Cl 
HETATM   13  C   UNL     1     -11.175  14.156  64.768  1.00  0.00    -0.378 A  
ENDROOT
BRANCH   8  14
HETATM   14  C1* UNL     1      -8.669  11.618  67.264  1.00  0.00    -0.159 C  
HETATM   15  C2* UNL     1      -9.768  10.854  66.541  1.00  0.00    -0.235 C  
HETATM   16  C4* UNL     1      -7.662   9.768  66.241  1.00  0.00    -0.103 C  
HETATM   17  C3* UNL     1      -9.155   9.483  66.417  1.00  0.00    -0.159 C  
HETATM   18  O3* UNL     1      -9.361   8.783  67.648  1.00  0.00    -0.136 OA 
HETATM   19  O4* UNL     1      -7.420  11.097  66.764  1.00  0.00    -0.133 OA 
HETATM   20  H3* UNL     1      -8.975   7.918  67.570  1.00  0.00     0.000 HD 
BRANCH  16  21
HETATM   21  C5* UNL     1      -7.209   9.745  64.780  1.00  0.00    -0.130 C  
HETATM   22  O5* UNL     1      -7.795  10.812  64.041  1.00  0.00    -0.353 OA 
HETATM   23  H5* UNL     1      -7.514  10.798  63.134  1.00  0.00     0.000 HD 
ENDBRANCH  16  21
ENDBRANCH   8  14
TORSDOF 2
ENDMDL
MODEL      193
REMARK 921   NORMALIZED FREE ENERGY PREDICTED BY IDOCK:   -3.61 KCAL/MOL
REMARK 922        TOTAL FREE ENERGY PREDICTED BY IDOCK:   -4.38 KCAL/MOL
REMARK 923 INTER-LIGAND FREE ENERGY PREDICTED BY IDOCK:   -4.04 KCAL/MOL
REMARK 924 INTRA-LIGAND FREE ENERGY PREDICTED BY IDOCK:   -0.34 KCAL/MOL
REMARK 927      BINDING AFFINITY PREDICTED BY RF-SCORE:    0.00 PKD
ROOT
HETATM    1  N   UNL     1      -6.802   7.722  65.981  1.00  0.00    -0.056 NA 
HETATM    2  C   UNL     1      -7.162   7.201  67.215  1.00  0.00    -0.086 A  
HETATM    3  H1  UNL     1      -5.982   7.408  65.462  1.00  0.00     0.000 HD 
HETATM    4  H2  UNL     1      -6.726   8.734  66.087  1.00  0.00     0.000 HD 
HETATM    5  C   UNL     1      -8.293   7.635  67.930  1.00  0.00    -0.123 A  
HETATM    6  N   UNL     1      -9.243   8.598  67.670  1.00  0.00    -0.134 NA 
HETATM    7  C   UNL     1     -10.074   8.534  68.690  1.00  0.00    -0.190 A  
HETATM    8  N   UNL     1      -9.686   7.600  69.614  1.00  0.00    -0.170 NA 
HETATM    9  C   UNL     1      -8.545   7.010  69.141  1.00  0.00    -0.133 A  
HETATM   10  N   UNL     1      -6.385   6.237  67.755  1.00  0.00    -0.035 NA 
HETATM   11  N   UNL     1      -7.820   6.037  69.716  1.00  0.00    -0.099 NA 
HETATM   12 CL   UNL     1      -5.737   4.503  69.571  1.00  0.00    -0.016 Cl 
HETATM   13  C   UNL     1      -6.760   5.722  68.942  1.00  0.00    -0.060 A  
ENDROOT
BRANCH   8  14
HETATM   14  C1* UNL     1     -10.369   7.243  70.843  1.00  0.00    -0.201 C  
HETATM   15  C2* UNL     1     -10.173   8.239  71.977  1.00  0.00    -0.339 C  
HETATM   16  C4* UNL     1     -12.472   7.609  71.806  1.00  0.00    -0.329 C  
HETATM   17  C3* UNL     1     -11.391   7.977  72.826  1.00  0.00    -0.374 C  
HETATM   18  O3* UNL     1     -11.124   6.845  73.661  1.00  0.00    -0.518 OA 
HETATM   19  O4* UNL     1     -11.790   7.179  70.603  1.00  0.00    -0.321 OA 
HETATM   20  H3* UNL     1     -11.891   6.680  74.196  1.00  0.00     0.000 HD 
BRANCH  16  21
HETATM   21  C5* UNL     1     -13.383   8.782  71.440  1.00  0.00    -0.248 C  
HETATM   22  O5* UNL     1     -14.138   9.221  72.566  1.00  0.00    -0.613 OA 
HETATM   23  H5* UNL     1     -14.704   9.949  72.339  1.00  0.00     0.000 HD 
ENDBRANCH  16  21
ENDBRANCH   8  14
TORSDOF 2
ENDMDL
MODEL      194
REMARK 921   NORMALIZED FREE ENERGY PREDICTED BY IDOCK:   -3.60 KCAL/MOL
REMARK 922        TOTAL FREE ENERGY PREDICTED BY IDOCK:   -4.37 KCAL/MOL
REMARK 923 INTER-LIGAND FREE ENERGY PREDICTED BY IDOCK:   -4.87 KCAL/MOL
REMARK 924 INTRA-LIGAND FREE ENERGY PREDICTED BY IDOCK:    0.50 KCAL/MOL
REMARK 927      BINDING AFFINITY PREDICTED BY RF-SCORE:    0.00 PKD
ROOT
HETATM    1  N   UNL     1     -13.069   9.628  72.138  1.00  0.00    -0.430 NA 
HETATM    2  C   UNL     1     -12.112   9.472  71.146  1.00  0.00    -0.347 A  
HETATM    3  H1  UNL     1     -13.350   8.872  72.763  1.00  0.00     0.000 HD 
HETATM    4  H2  UNL     1     -13.914   9.985  71.693  1.00  0.00     0.000 HD 
HETATM    5  C   UNL     1     -11.725  10.514  70.284  1.00  0.00    -0.332 A  
HETATM    6  N   UNL     1     -12.141  11.821  70.161  1.00  0.00    -0.328 NA 
HETATM    7  C   UNL     1     -11.398  12.321  69.196  1.00  0.00    -0.272 A  
HETATM    8  N   UNL     1     -10.546  11.389  68.664  1.00  0.00    -0.192 NA 
HETATM    9  C   UNL     1     -10.740  10.222  69.354  1.00  0.00    -0.241 A  
HETATM   10  N   UNL     1     -11.532   8.261  71.000  1.00  0.00    -0.273 NA 
HETATM   11  N   UNL     1     -10.117   9.046  69.176  1.00  0.00    -0.190 NA 
HETATM   12 CL   UNL     1      -9.887   6.574  69.917  1.00  0.00    -0.178 Cl 
HETATM   13  C   UNL     1     -10.586   8.130  70.050  1.00  0.00    -0.239 A  
ENDROOT
BRANCH   8  14
HETATM   14  C1* UNL     1      -9.571  11.589  67.609  1.00  0.00    -0.171 C  
HETATM   15  C2* UNL     1      -8.845  10.321  67.184  1.00  0.00    -0.141 C  
HETATM   16  C4* UNL     1      -9.548  11.563  65.267  1.00  0.00    -0.218 C  
HETATM   17  C3* UNL     1      -8.415  10.672  65.782  1.00  0.00    -0.178 C  
HETATM   18  O3* UNL     1      -7.209  11.439  65.859  1.00  0.00    -0.366 OA 
HETATM   19  O4* UNL     1     -10.235  12.089  66.430  1.00  0.00    -0.210 OA 
HETATM   20  H3* UNL     1      -6.938  11.660  64.975  1.00  0.00     0.000 HD 
BRANCH  16  21
HETATM   21  C5* UNL     1     -10.571  10.809  64.414  1.00  0.00    -0.176 C  
HETATM   22  O5* UNL     1     -11.532  11.699  63.854  1.00  0.00    -0.385 OA 
HETATM   23  H5* UNL     1     -12.167  11.231  63.325  1.00  0.00     0.000 HD 
ENDBRANCH  16  21
ENDBRANCH   8  14
TORSDOF 2
ENDMDL
MODEL      195
REMARK 921   NORMALIZED FREE ENERGY PREDICTED BY IDOCK:   -3.58 KCAL/MOL
REMARK 922        TOTAL FREE ENERGY PREDICTED BY IDOCK:   -4.34 KCAL/MOL
REMARK 923 INTER-LIGAND FREE ENERGY PREDICTED BY IDOCK:   -4.39 KCAL/MOL
REMARK 924 INTRA-LIGAND FREE ENERGY PREDICTED BY IDOCK:    0.05 KCAL/MOL
REMARK 927      BINDING AFFINITY PREDICTED BY RF-SCORE:    0.00 PKD
ROOT
HETATM    1  N   UNL     1     -11.682  11.941  70.238  1.00  0.00    -0.519 NA 
HETATM    2  C   UNL     1     -11.402  10.588  70.116  1.00  0.00    -0.323 A  
HETATM    3  H1  UNL     1     -11.947  12.376  71.122  1.00  0.00     0.000 HD 
HETATM    4  H2  UNL     1     -12.408  12.165  69.557  1.00  0.00     0.000 HD 
HETATM    5  C   UNL     1     -11.036   9.988  68.897  1.00  0.00    -0.207 A  
HETATM    6  N   UNL     1     -10.889  10.489  67.622  1.00  0.00    -0.279 NA 
HETATM    7  C   UNL     1     -10.502   9.459  66.899  1.00  0.00    -0.211 A  
HETATM    8  N   UNL     1     -10.426   8.308  67.639  1.00  0.00    -0.245 NA 
HETATM    9  C   UNL     1     -10.762   8.630  68.926  1.00  0.00    -0.082 A  
HETATM   10  N   UNL     1     -11.493   9.812  71.218  1.00  0.00    -0.379 NA 
HETATM   11  N   UNL     1     -10.818   7.816  69.992  1.00  0.00    -0.248 NA 
HETATM   12 CL   UNL     1     -11.323   7.578  72.523  1.00  0.00    -0.355 Cl 
HETATM   13  C   UNL     1     -11.193   8.506  71.090  1.00  0.00    -0.267 A  
ENDROOT
BRANCH   8  14
HETATM   14  C1* UNL     1     -10.014   6.995  67.182  1.00  0.00    -0.189 C  
HETATM   15  C2* UNL     1      -8.538   6.696  67.397  1.00  0.00    -0.119 C  
HETATM   16  C4* UNL     1      -9.873   4.834  68.074  1.00  0.00    -0.126 C  
HETATM   17  C3* UNL     1      -8.533   5.188  67.426  1.00  0.00    -0.105 C  
HETATM   18  O3* UNL     1      -8.520   4.711  66.076  1.00  0.00    -0.113 OA 
HETATM   19  O4* UNL     1     -10.741   5.982  67.909  1.00  0.00    -0.246 OA 
HETATM   20  H3* UNL     1      -8.517   3.761  66.095  1.00  0.00     0.000 HD 
BRANCH  16  21
HETATM   21  C5* UNL     1      -9.761   4.537  69.571  1.00  0.00    -0.212 C  
HETATM   22  O5* UNL     1      -9.444   3.167  69.804  1.00  0.00    -0.162 OA 
HETATM   23  H5* UNL     1      -9.375   2.983  70.733  1.00  0.00     0.000 HD 
ENDBRANCH  16  21
ENDBRANCH   8  14
TORSDOF 2
ENDMDL
MODEL      196
REMARK 921   NORMALIZED FREE ENERGY PREDICTED BY IDOCK:   -3.57 KCAL/MOL
REMARK 922        TOTAL FREE ENERGY PREDICTED BY IDOCK:   -4.33 KCAL/MOL
REMARK 923 INTER-LIGAND FREE ENERGY PREDICTED BY IDOCK:   -3.89 KCAL/MOL
REMARK 924 INTRA-LIGAND FREE ENERGY PREDICTED BY IDOCK:   -0.43 KCAL/MOL
REMARK 927      BINDING AFFINITY PREDICTED BY RF-SCORE:    0.00 PKD
ROOT
HETATM    1  N   UNL     1      -6.463   5.946  66.220  1.00  0.00    -0.045 NA 
HETATM    2  C   UNL     1      -7.511   6.856  66.202  1.00  0.00    -0.080 A  
HETATM    3  H1  UNL     1      -6.555   5.001  66.591  1.00  0.00     0.000 HD 
HETATM    4  H2  UNL     1      -5.683   6.390  66.704  1.00  0.00     0.000 HD 
HETATM    5  C   UNL     1      -7.385   8.160  65.690  1.00  0.00    -0.076 A  
HETATM    6  N   UNL     1      -6.321   8.847  65.149  1.00  0.00    -0.060 NA 
HETATM    7  C   UNL     1      -6.812  10.025  64.823  1.00  0.00    -0.133 A  
HETATM    8  N   UNL     1      -8.135  10.144  65.160  1.00  0.00    -0.144 NA 
HETATM    9  C   UNL     1      -8.521   8.954  65.715  1.00  0.00    -0.145 A  
HETATM   10  N   UNL     1      -8.704   6.470  66.706  1.00  0.00    -0.119 NA 
HETATM   11  N   UNL     1      -9.733   8.618  66.185  1.00  0.00    -0.248 NA 
HETATM   12 CL   UNL     1     -11.203   6.804  67.309  1.00  0.00    -0.384 Cl 
HETATM   13  C   UNL     1      -9.719   7.354  66.659  1.00  0.00    -0.194 A  
ENDROOT
BRANCH   8  14
HETATM   14  C1* UNL     1      -9.001  11.284  64.929  1.00  0.00     0.032 C  
HETATM   15  C2* UNL     1     -10.304  10.942  64.221  1.00  0.00    -0.436 C  
HETATM   16  C4* UNL     1     -10.717  12.393  66.074  1.00  0.00    -0.261 C  
HETATM   17  C3* UNL     1     -11.193  12.080  64.653  1.00  0.00    -0.326 C  
HETATM   18  O3* UNL     1     -10.930  13.205  63.808  1.00  0.00    -0.544 OA 
HETATM   19  O4* UNL     1      -9.372  11.870  66.194  1.00  0.00    -0.224 OA 
HETATM   20  H3* UNL     1     -11.490  13.922  64.080  1.00  0.00     0.000 HD 
BRANCH  16  21
HETATM   21  C5* UNL     1     -11.578  11.740  67.157  1.00  0.00    -0.266 C  
HETATM   22  O5* UNL     1     -10.869  10.699  67.823  1.00  0.00    -0.240 OA 
HETATM   23  H5* UNL     1     -11.403  10.294  68.495  1.00  0.00     0.000 HD 
ENDBRANCH  16  21
ENDBRANCH   8  14
TORSDOF 2
ENDMDL
MODEL      197
REMARK 921   NORMALIZED FREE ENERGY PREDICTED BY IDOCK:   -3.55 KCAL/MOL
REMARK 922        TOTAL FREE ENERGY PREDICTED BY IDOCK:   -4.31 KCAL/MOL
REMARK 923 INTER-LIGAND FREE ENERGY PREDICTED BY IDOCK:   -4.02 KCAL/MOL
REMARK 924 INTRA-LIGAND FREE ENERGY PREDICTED BY IDOCK:   -0.29 KCAL/MOL
REMARK 927      BINDING AFFINITY PREDICTED BY RF-SCORE:    0.00 PKD
ROOT
HETATM    1  N   UNL     1      -6.008  16.740  67.056  1.00  0.00    -0.172 NA 
HETATM    2  C   UNL     1      -7.189  16.012  67.042  1.00  0.00    -0.213 A  
HETATM    3  H1  UNL     1      -5.929  17.677  66.661  1.00  0.00     0.000 HD 
HETATM    4  H2  UNL     1      -5.289  16.163  66.619  1.00  0.00     0.000 HD 
HETATM    5  C   UNL     1      -7.299  14.719  67.587  1.00  0.00    -0.186 A  
HETATM    6  N   UNL     1      -6.384  13.886  68.193  1.00  0.00    -0.111 NA 
HETATM    7  C   UNL     1      -7.073  12.813  68.521  1.00  0.00    -0.101 A  
HETATM    8  N   UNL     1      -8.382  12.898  68.123  1.00  0.00    -0.162 NA 
HETATM    9  C   UNL     1      -8.546  14.118  67.524  1.00  0.00    -0.191 A  
HETATM   10  N   UNL     1      -8.280  16.569  66.474  1.00  0.00    -0.270 NA 
HETATM   11  N   UNL     1      -9.666  14.630  66.990  1.00  0.00    -0.237 NA 
HETATM   12 CL   UNL     1     -10.772  16.624  65.759  1.00  0.00    -0.264 Cl 
HETATM   13  C   UNL     1      -9.426  15.862  66.491  1.00  0.00    -0.273 A  
ENDROOT
BRANCH   8  14
HETATM   14  C1* UNL     1      -9.431  11.919  68.336  1.00  0.00    -0.189 C  
HETATM   15  C2* UNL     1      -9.929  11.253  67.062  1.00  0.00    -0.226 C  
HETATM   16  C4* UNL     1      -9.572   9.622  68.771  1.00  0.00    -0.152 C  
HETATM   17  C3* UNL     1     -10.490   9.959  67.594  1.00  0.00    -0.244 C  
HETATM   18  O3* UNL     1     -11.813  10.207  68.082  1.00  0.00    -0.686 OA 
HETATM   19  O4* UNL     1      -8.935  10.858  69.179  1.00  0.00    -0.137 OA 
HETATM   20  H3* UNL     1     -12.166   9.391  68.417  1.00  0.00     0.000 HD 
BRANCH  16  21
HETATM   21  C5* UNL     1      -8.473   8.619  68.413  1.00  0.00    -0.131 C  
HETATM   22  O5* UNL     1      -7.293   9.283  67.969  1.00  0.00    -0.079 OA 
HETATM   23  H5* UNL     1      -6.611   8.661  67.747  1.00  0.00     0.000 HD 
ENDBRANCH  16  21
ENDBRANCH   8  14
TORSDOF 2
ENDMDL
MODEL      198
REMARK 921   NORMALIZED FREE ENERGY PREDICTED BY IDOCK:   -3.55 KCAL/MOL
REMARK 922        TOTAL FREE ENERGY PREDICTED BY IDOCK:   -4.31 KCAL/MOL
REMARK 923 INTER-LIGAND FREE ENERGY PREDICTED BY IDOCK:   -3.95 KCAL/MOL
REMARK 924 INTRA-LIGAND FREE ENERGY PREDICTED BY IDOCK:   -0.36 KCAL/MOL
REMARK 927      BINDING AFFINITY PREDICTED BY RF-SCORE:    0.00 PKD
ROOT
HETATM    1  N   UNL     1      -6.363   8.047  66.988  1.00  0.00    -0.054 NA 
HETATM    2  C   UNL     1      -7.122   7.709  68.099  1.00  0.00    -0.081 A  
HETATM    3  H1  UNL     1      -5.411   7.711  66.843  1.00  0.00     0.000 HD 
HETATM    4  H2  UNL     1      -6.338   9.066  66.934  1.00  0.00     0.000 HD 
HETATM    5  C   UNL     1      -8.435   8.173  68.300  1.00  0.00    -0.130 A  
HETATM    6  N   UNL     1      -9.246   9.012  67.567  1.00  0.00    -0.135 NA 
HETATM    7  C   UNL     1     -10.378   9.056  68.239  1.00  0.00    -0.209 A  
HETATM    8  N   UNL     1     -10.324   8.314  69.389  1.00  0.00    -0.219 NA 
HETATM    9  C   UNL     1      -9.084   7.736  69.443  1.00  0.00    -0.146 A  
HETATM   10  N   UNL     1      -6.571   6.902  69.031  1.00  0.00    -0.046 NA 
HETATM   11  N   UNL     1      -8.594   6.923  70.392  1.00  0.00    -0.141 NA 
HETATM   12 CL   UNL     1      -6.574   5.535  71.235  1.00  0.00    -0.039 Cl 
HETATM   13  C   UNL     1      -7.328   6.562  70.091  1.00  0.00    -0.089 A  
ENDROOT
BRANCH   8  14
HETATM   14  C1* UNL     1     -11.387   8.113  70.356  1.00  0.00    -0.181 C  
HETATM   15  C2* UNL     1     -11.760   6.655  70.578  1.00  0.00    -0.453 C  
HETATM   16  C4* UNL     1     -11.562   7.792  72.670  1.00  0.00    -0.344 C  
HETATM   17  C3* UNL     1     -12.366   6.701  71.957  1.00  0.00    -0.272 C  
HETATM   18  O3* UNL     1     -13.730   7.121  71.838  1.00  0.00    -0.508 OA 
HETATM   19  O4* UNL     1     -10.970   8.622  71.641  1.00  0.00    -0.261 OA 
HETATM   20  H3* UNL     1     -14.111   7.150  72.708  1.00  0.00     0.000 HD 
BRANCH  16  21
HETATM   21  C5* UNL     1     -10.432   7.239  73.540  1.00  0.00    -0.374 C  
HETATM   22  O5* UNL     1      -9.255   8.034  73.424  1.00  0.00    -0.266 OA 
HETATM   23  H5* UNL     1      -8.554   7.691  73.964  1.00  0.00     0.000 HD 
ENDBRANCH  16  21
ENDBRANCH   8  14
TORSDOF 2
ENDMDL
MODEL      199
REMARK 921   NORMALIZED FREE ENERGY PREDICTED BY IDOCK:   -3.54 KCAL/MOL
REMARK 922        TOTAL FREE ENERGY PREDICTED BY IDOCK:   -4.30 KCAL/MOL
REMARK 923 INTER-LIGAND FREE ENERGY PREDICTED BY IDOCK:   -3.87 KCAL/MOL
REMARK 924 INTRA-LIGAND FREE ENERGY PREDICTED BY IDOCK:   -0.43 KCAL/MOL
REMARK 927      BINDING AFFINITY PREDICTED BY RF-SCORE:    0.00 PKD
ROOT
HETATM    1  N   UNL     1      -9.964  10.074  65.955  1.00  0.00    -0.265 NA 
HETATM    2  C   UNL     1     -10.041   9.001  66.832  1.00  0.00    -0.267 A  
HETATM    3  H1  UNL     1      -9.843   9.961  64.949  1.00  0.00     0.000 HD 
HETATM    4  H2  UNL     1      -9.216  10.684  66.285  1.00  0.00     0.000 HD 
HETATM    5  C   UNL     1     -10.208   9.157  68.220  1.00  0.00    -0.206 A  
HETATM    6  N   UNL     1     -10.303  10.271  69.025  1.00  0.00    -0.198 NA 
HETATM    7  C   UNL     1     -10.477   9.793  70.240  1.00  0.00    -0.288 A  
HETATM    8  N   UNL     1     -10.461   8.423  70.263  1.00  0.00    -0.213 NA 
HETATM    9  C   UNL     1     -10.293   7.997  68.973  1.00  0.00    -0.218 A  
HETATM   10  N   UNL     1      -9.946   7.752  66.327  1.00  0.00    -0.074 NA 
HETATM   11  N   UNL     1     -10.224   6.733  68.524  1.00  0.00    -0.166 NA 
HETATM   12 CL   UNL     1      -9.925   5.164  66.484  1.00  0.00    -0.206 Cl 
HETATM   13  C   UNL     1     -10.049   6.720  67.186  1.00  0.00    -0.190 A  
ENDROOT
BRANCH   8  14
HETATM   14  C1* UNL     1     -10.644   7.561  71.415  1.00  0.00    -0.210 C  
HETATM   15  C2* UNL     1     -11.693   6.476  71.220  1.00  0.00    -0.386 C  
HETATM   16  C4* UNL     1      -9.727   5.564  72.227  1.00  0.00    -0.156 C  
HETATM   17  C3* UNL     1     -11.253   5.442  72.226  1.00  0.00    -0.171 C  
HETATM   18  O3* UNL     1     -11.758   5.819  73.511  1.00  0.00    -0.283 OA 
HETATM   19  O4* UNL     1      -9.407   6.878  71.707  1.00  0.00    -0.147 OA 
HETATM   20  H3* UNL     1     -11.481   5.167  74.144  1.00  0.00     0.000 HD 
BRANCH  16  21
HETATM   21  C5* UNL     1      -9.036   4.524  71.343  1.00  0.00    -0.131 C  
HETATM   22  O5* UNL     1      -8.412   5.135  70.218  1.00  0.00    -0.098 OA 
HETATM   23  H5* UNL     1      -7.984   4.489  69.669  1.00  0.00     0.000 HD 
ENDBRANCH  16  21
ENDBRANCH   8  14
TORSDOF 2
ENDMDL
MODEL      200
REMARK 921   NORMALIZED FREE ENERGY PREDICTED BY IDOCK:   -3.51 KCAL/MOL
REMARK 922        TOTAL FREE ENERGY PREDICTED BY IDOCK:   -4.27 KCAL/MOL
REMARK 923 INTER-LIGAND FREE ENERGY PREDICTED BY IDOCK:   -4.00 KCAL/MOL
REMARK 924 INTRA-LIGAND FREE ENERGY PREDICTED BY IDOCK:   -0.27 KCAL/MOL
REMARK 927      BINDING AFFINITY PREDICTED BY RF-SCORE:    0.00 PKD
ROOT
HETATM    1  N   UNL     1     -10.642  15.914  65.329  1.00  0.00    -0.447 NA 
HETATM    2  C   UNL     1      -9.704  15.184  66.045  1.00  0.00    -0.330 A  
HETATM    3  H1  UNL     1     -10.534  16.907  65.124  1.00  0.00     0.000 HD 
HETATM    4  H2  UNL     1     -11.542  15.794  65.795  1.00  0.00     0.000 HD 
HETATM    5  C   UNL     1      -9.852  13.814  66.329  1.00  0.00    -0.303 A  
HETATM    6  N   UNL     1     -10.851  12.910  66.043  1.00  0.00    -0.276 NA 
HETATM    7  C   UNL     1     -10.421  11.768  66.539  1.00  0.00    -0.230 A  
HETATM    8  N   UNL     1      -9.209  11.899  67.163  1.00  0.00    -0.178 NA 
HETATM    9  C   UNL     1      -8.826  13.207  67.034  1.00  0.00    -0.210 A  
HETATM   10  N   UNL     1      -8.602  15.823  66.495  1.00  0.00    -0.286 NA 
HETATM   11  N   UNL     1      -7.703  13.786  67.489  1.00  0.00    -0.174 NA 
HETATM   12 CL   UNL     1      -6.314  15.962  67.707  1.00  0.00    -0.156 Cl 
HETATM   13  C   UNL     1      -7.688  15.097  67.167  1.00  0.00    -0.188 A  
ENDROOT
BRANCH   8  14
HETATM   14  C1* UNL     1      -8.428  10.854  67.796  1.00  0.00    -0.124 C  
HETATM   15  C2* UNL     1      -8.176  11.077  69.280  1.00  0.00     0.010 C  
HETATM   16  C4* UNL     1      -8.843   8.818  68.877  1.00  0.00    -0.137 C  
HETATM   17  C3* UNL     1      -7.930   9.670  69.763  1.00  0.00    -0.151 C  
HETATM   18  O3* UNL     1      -6.565   9.333  69.495  1.00  0.00    -0.042 OA 
HETATM   19  O4* UNL     1      -9.130   9.598  67.690  1.00  0.00    -0.131 OA 
HETATM   20  H3* UNL     1      -6.410   8.447  69.799  1.00  0.00     0.000 HD 
BRANCH  16  21
HETATM   21  C5* UNL     1     -10.174   8.465  69.544  1.00  0.00    -0.207 C  
HETATM   22  O5* UNL     1     -11.268   9.086  68.875  1.00  0.00    -0.439 OA 
HETATM   23  H5* UNL     1     -12.094   8.867  69.289  1.00  0.00     0.000 HD 
ENDBRANCH  16  21
ENDBRANCH   8  14
TORSDOF 2
ENDMDL
MODEL      201
REMARK 921   NORMALIZED FREE ENERGY PREDICTED BY IDOCK:   -3.51 KCAL/MOL
REMARK 922        TOTAL FREE ENERGY PREDICTED BY IDOCK:   -4.26 KCAL/MOL
REMARK 923 INTER-LIGAND FREE ENERGY PREDICTED BY IDOCK:   -3.94 KCAL/MOL
REMARK 924 INTRA-LIGAND FREE ENERGY PREDICTED BY IDOCK:   -0.32 KCAL/MOL
REMARK 927      BINDING AFFINITY PREDICTED BY RF-SCORE:    0.00 PKD
ROOT
HETATM    1  N   UNL     1      -6.191  15.421  70.129  1.00  0.00    -0.142 NA 
HETATM    2  C   UNL     1      -7.116  15.091  69.149  1.00  0.00    -0.149 A  
HETATM    3  H1  UNL     1      -6.083  16.367  70.495  1.00  0.00     0.000 HD 
HETATM    4  H2  UNL     1      -5.275  15.116  69.799  1.00  0.00     0.000 HD 
HETATM    5  C   UNL     1      -7.265  13.787  68.643  1.00  0.00    -0.109 A  
HETATM    6  N   UNL     1      -6.607  12.606  68.912  1.00  0.00    -0.090 NA 
HETATM    7  C   UNL     1      -7.202  11.711  68.151  1.00  0.00    -0.085 A  
HETATM    8  N   UNL     1      -8.188  12.263  67.377  1.00  0.00    -0.169 NA 
HETATM    9  C   UNL     1      -8.245  13.597  67.683  1.00  0.00    -0.178 A  
HETATM   10  N   UNL     1      -7.904  16.071  68.655  1.00  0.00    -0.167 NA 
HETATM   11  N   UNL     1      -9.067  14.526  67.170  1.00  0.00    -0.214 NA 
HETATM   12 CL   UNL     1      -9.786  17.015  67.141  1.00  0.00    -0.252 Cl 
HETATM   13  C   UNL     1      -8.816  15.731  67.724  1.00  0.00    -0.171 A  
ENDROOT
BRANCH   8  14
HETATM   14  C1* UNL     1      -9.061  11.578  66.444  1.00  0.00    -0.200 C  
HETATM   15  C2* UNL     1      -8.379  10.475  65.648  1.00  0.00    -0.167 C  
HETATM   16  C4* UNL     1     -10.490   9.722  66.477  1.00  0.00    -0.142 C  
HETATM   17  C3* UNL     1      -9.549   9.599  65.276  1.00  0.00    -0.277 C  
HETATM   18  O3* UNL     1     -10.183  10.158  64.121  1.00  0.00    -0.450 OA 
HETATM   19  O4* UNL     1     -10.138  10.947  67.168  1.00  0.00    -0.187 OA 
HETATM   20  H3* UNL     1     -10.920   9.606  63.887  1.00  0.00     0.000 HD 
BRANCH  16  21
HETATM   21  C5* UNL     1     -10.358   8.565  67.470  1.00  0.00    -0.267 C  
HETATM   22  O5* UNL     1     -11.078   7.419  67.025  1.00  0.00    -0.522 OA 
HETATM   23  H5* UNL     1     -10.997   6.701  67.641  1.00  0.00     0.000 HD 
ENDBRANCH  16  21
ENDBRANCH   8  14
TORSDOF 2
ENDMDL
MODEL      202
REMARK 921   NORMALIZED FREE ENERGY PREDICTED BY IDOCK:   -3.50 KCAL/MOL
REMARK 922        TOTAL FREE ENERGY PREDICTED BY IDOCK:   -4.26 KCAL/MOL
REMARK 923 INTER-LIGAND FREE ENERGY PREDICTED BY IDOCK:   -3.89 KCAL/MOL
REMARK 924 INTRA-LIGAND FREE ENERGY PREDICTED BY IDOCK:   -0.36 KCAL/MOL
REMARK 927      BINDING AFFINITY PREDICTED BY RF-SCORE:    0.00 PKD
ROOT
HETATM    1  N   UNL     1     -10.511   3.957  74.031  1.00  0.00    -0.181 NA 
HETATM    2  C   UNL     1     -10.686   4.844  72.978  1.00  0.00    -0.244 A  
HETATM    3  H1  UNL     1     -10.815   4.159  74.983  1.00  0.00     0.000 HD 
HETATM    4  H2  UNL     1      -9.519   3.722  74.071  1.00  0.00     0.000 HD 
HETATM    5  C   UNL     1     -10.266   4.565  71.664  1.00  0.00    -0.144 A  
HETATM    6  N   UNL     1      -9.618   3.485  71.105  1.00  0.00    -0.163 NA 
HETATM    7  C   UNL     1      -9.516   3.781  69.826  1.00  0.00    -0.185 A  
HETATM    8  N   UNL     1     -10.035   5.015  69.538  1.00  0.00    -0.215 NA 
HETATM    9  C   UNL     1     -10.525   5.533  70.707  1.00  0.00    -0.260 A  
HETATM   10  N   UNL     1     -11.280   6.030  73.230  1.00  0.00    -0.153 NA 
HETATM   11  N   UNL     1     -11.127   6.718  70.896  1.00  0.00    -0.262 NA 
HETATM   12 CL   UNL     1     -12.227   8.354  72.577  1.00  0.00    -0.431 Cl 
HETATM   13  C   UNL     1     -11.466   6.870  72.194  1.00  0.00    -0.279 A  
ENDROOT
BRANCH   8  14
HETATM   14  C1* UNL     1     -10.117   5.654  68.238  1.00  0.00    -0.169 C  
HETATM   15  C2* UNL     1      -8.978   6.619  67.946  1.00  0.00    -0.112 C  
HETATM   16  C4* UNL     1      -9.381   5.209  66.060  1.00  0.00    -0.158 C  
HETATM   17  C3* UNL     1      -8.970   6.634  66.438  1.00  0.00    -0.148 C  
HETATM   18  O3* UNL     1      -9.975   7.550  65.991  1.00  0.00    -0.429 OA 
HETATM   19  O4* UNL     1     -10.068   4.648  67.205  1.00  0.00    -0.192 OA 
HETATM   20  H3* UNL     1      -9.970   7.560  65.041  1.00  0.00     0.000 HD 
BRANCH  16  21
HETATM   21  C5* UNL     1      -8.192   4.304  65.731  1.00  0.00    -0.109 C  
HETATM   22  O5* UNL     1      -7.140   5.038  65.110  1.00  0.00    -0.060 OA 
HETATM   23  H5* UNL     1      -6.402   4.477  64.906  1.00  0.00     0.000 HD 
ENDBRANCH  16  21
ENDBRANCH   8  14
TORSDOF 2
ENDMDL
MODEL      203
REMARK 921   NORMALIZED FREE ENERGY PREDICTED BY IDOCK:   -3.50 KCAL/MOL
REMARK 922        TOTAL FREE ENERGY PREDICTED BY IDOCK:   -4.26 KCAL/MOL
REMARK 923 INTER-LIGAND FREE ENERGY PREDICTED BY IDOCK:   -3.93 KCAL/MOL
REMARK 924 INTRA-LIGAND FREE ENERGY PREDICTED BY IDOCK:   -0.33 KCAL/MOL
REMARK 927      BINDING AFFINITY PREDICTED BY RF-SCORE:    0.00 PKD
ROOT
HETATM    1  N   UNL     1      -5.932   5.085  66.709  1.00  0.00    -0.026 NA 
HETATM    2  C   UNL     1      -7.225   5.588  66.697  1.00  0.00    -0.074 A  
HETATM    3  H1  UNL     1      -5.687   4.173  66.325  1.00  0.00     0.000 HD 
HETATM    4  H2  UNL     1      -5.606   5.106  67.676  1.00  0.00     0.000 HD 
HETATM    5  C   UNL     1      -7.562   6.847  67.227  1.00  0.00    -0.108 A  
HETATM    6  N   UNL     1      -6.818   7.818  67.860  1.00  0.00    -0.067 NA 
HETATM    7  C   UNL     1      -7.673   8.789  68.107  1.00  0.00    -0.101 A  
HETATM    8  N   UNL     1      -8.942   8.476  67.697  1.00  0.00    -0.135 NA 
HETATM    9  C   UNL     1      -8.890   7.232  67.126  1.00  0.00    -0.125 A  
HETATM   10  N   UNL     1      -8.203   4.830  66.155  1.00  0.00    -0.107 NA 
HETATM   11  N   UNL     1      -9.897   6.531  66.583  1.00  0.00    -0.165 NA 
HETATM   12 CL   UNL     1     -10.641   4.336  65.424  1.00  0.00    -0.221 Cl 
HETATM   13  C   UNL     1      -9.448   5.342  66.126  1.00  0.00    -0.157 A  
ENDROOT
BRANCH   8  14
HETATM   14  C1* UNL     1     -10.126   9.309  67.786  1.00  0.00    -0.204 C  
HETATM   15  C2* UNL     1     -10.127  10.265  68.969  1.00  0.00    -0.225 C  
HETATM   16  C4* UNL     1     -10.818  11.397  66.981  1.00  0.00    -0.282 C  
HETATM   17  C3* UNL     1     -11.068  11.342  68.490  1.00  0.00    -0.235 C  
HETATM   18  O3* UNL     1     -12.411  10.908  68.731  1.00  0.00    -0.783 OA 
HETATM   19  O4* UNL     1     -10.226  10.130  66.603  1.00  0.00    -0.215 OA 
HETATM   20  H3* UNL     1     -13.003  11.586  68.430  1.00  0.00     0.000 HD 
BRANCH  16  21
HETATM   21  C5* UNL     1      -9.855  12.512  66.568  1.00  0.00    -0.246 C  
HETATM   22  O5* UNL     1      -9.883  12.722  65.159  1.00  0.00    -0.449 OA 
HETATM   23  H5* UNL     1      -9.285  13.413  64.902  1.00  0.00     0.000 HD 
ENDBRANCH  16  21
ENDBRANCH   8  14
TORSDOF 2
ENDMDL
MODEL      204
REMARK 921   NORMALIZED FREE ENERGY PREDICTED BY IDOCK:   -3.45 KCAL/MOL
REMARK 922        TOTAL FREE ENERGY PREDICTED BY IDOCK:   -4.20 KCAL/MOL
REMARK 923 INTER-LIGAND FREE ENERGY PREDICTED BY IDOCK:   -3.77 KCAL/MOL
REMARK 924 INTRA-LIGAND FREE ENERGY PREDICTED BY IDOCK:   -0.43 KCAL/MOL
REMARK 927      BINDING AFFINITY PREDICTED BY RF-SCORE:    0.00 PKD
ROOT
HETATM    1  N   UNL     1      -9.069   3.927  64.153  1.00  0.00    -0.130 NA 
HETATM    2  C   UNL     1      -8.806   5.142  64.769  1.00  0.00    -0.100 A  
HETATM    3  H1  UNL     1      -8.624   3.638  63.282  1.00  0.00     0.000 HD 
HETATM    4  H2  UNL     1     -10.078   3.867  64.014  1.00  0.00     0.000 HD 
HETATM    5  C   UNL     1      -9.421   5.541  65.970  1.00  0.00    -0.130 A  
HETATM    6  N   UNL     1     -10.362   4.940  66.776  1.00  0.00    -0.237 NA 
HETATM    7  C   UNL     1     -10.530   5.778  67.778  1.00  0.00    -0.226 A  
HETATM    8  N   UNL     1      -9.769   6.908  67.639  1.00  0.00    -0.125 NA 
HETATM    9  C   UNL     1      -9.047   6.772  66.484  1.00  0.00    -0.151 A  
HETATM   10  N   UNL     1      -7.925   5.981  64.182  1.00  0.00    -0.120 NA 
HETATM   11  N   UNL     1      -8.165   7.636  65.956  1.00  0.00    -0.121 NA 
HETATM   12 CL   UNL     1      -6.533   8.162  64.014  1.00  0.00    -0.066 Cl 
HETATM   13  C   UNL     1      -7.660   7.146  64.804  1.00  0.00    -0.105 A  
ENDROOT
BRANCH   8  14
HETATM   14  C1* UNL     1      -9.682   8.028  68.557  1.00  0.00    -0.159 C  
HETATM   15  C2* UNL     1     -10.633   9.171  68.237  1.00  0.00    -0.223 C  
HETATM   16  C4* UNL     1     -10.682   8.674  70.574  1.00  0.00    -0.221 C  
HETATM   17  C3* UNL     1     -10.772   9.837  69.583  1.00  0.00    -0.242 C  
HETATM   18  O3* UNL     1      -9.653  10.709  69.773  1.00  0.00    -0.427 OA 
HETATM   19  O4* UNL     1     -10.016   7.585  69.889  1.00  0.00    -0.185 OA 
HETATM   20  H3* UNL     1      -9.741  11.129  70.621  1.00  0.00     0.000 HD 
BRANCH  16  21
HETATM   21  C5* UNL     1     -12.048   8.173  71.045  1.00  0.00    -0.207 C  
HETATM   22  O5* UNL     1     -12.304   6.853  70.576  1.00  0.00    -0.593 OA 
HETATM   23  H5* UNL     1     -13.152   6.542  70.868  1.00  0.00     0.000 HD 
ENDBRANCH  16  21
ENDBRANCH   8  14
TORSDOF 2
ENDMDL
MODEL      205
REMARK 921   NORMALIZED FREE ENERGY PREDICTED BY IDOCK:   -3.41 KCAL/MOL
REMARK 922        TOTAL FREE ENERGY PREDICTED BY IDOCK:   -4.15 KCAL/MOL
REMARK 923 INTER-LIGAND FREE ENERGY PREDICTED BY IDOCK:   -4.13 KCAL/MOL
REMARK 924 INTRA-LIGAND FREE ENERGY PREDICTED BY IDOCK:   -0.02 KCAL/MOL
REMARK 927      BINDING AFFINITY PREDICTED BY RF-SCORE:    0.00 PKD
ROOT
HETATM    1  N   UNL     1      -6.710  11.573  69.191  1.00  0.00    -0.099 NA 
HETATM    2  C   UNL     1      -6.930  12.936  69.050  1.00  0.00    -0.058 A  
HETATM    3  H1  UNL     1      -5.984  11.187  69.793  1.00  0.00     0.000 HD 
HETATM    4  H2  UNL     1      -6.568  11.189  68.256  1.00  0.00     0.000 HD 
HETATM    5  C   UNL     1      -7.931  13.469  68.219  1.00  0.00    -0.147 A  
HETATM    6  N   UNL     1      -8.856  12.881  67.384  1.00  0.00    -0.189 NA 
HETATM    7  C   UNL     1      -9.546  13.886  66.887  1.00  0.00    -0.269 A  
HETATM    8  N   UNL     1      -9.089  15.098  67.332  1.00  0.00    -0.186 NA 
HETATM    9  C   UNL     1      -8.053  14.849  68.192  1.00  0.00    -0.137 A  
HETATM   10  N   UNL     1      -6.139  13.787  69.739  1.00  0.00    -0.121 NA 
HETATM   11  N   UNL     1      -7.310  15.740  68.868  1.00  0.00    -0.149 NA 
HETATM   12 CL   UNL     1      -5.348  16.132  70.515  1.00  0.00    -0.175 Cl 
HETATM   13  C   UNL     1      -6.380  15.106  69.614  1.00  0.00    -0.146 A  
ENDROOT
BRANCH   8  14
HETATM   14  C1* UNL     1      -9.620  16.409  67.015  1.00  0.00    -0.237 C  
HETATM   15  C2* UNL     1      -9.739  17.340  68.213  1.00  0.00    -0.294 C  
HETATM   16  C4* UNL     1      -8.771  18.490  66.355  1.00  0.00    -0.260 C  
HETATM   17  C3* UNL     1      -9.705  18.694  67.552  1.00  0.00    -0.310 C  
HETATM   18  O3* UNL     1     -11.021  18.998  67.077  1.00  0.00    -0.399 OA 
HETATM   19  O4* UNL     1      -8.744  17.069  66.077  1.00  0.00    -0.477 OA 
HETATM   20  H3* UNL     1     -10.999  19.852  66.661  1.00  0.00     0.000 HD 
BRANCH  16  21
HETATM   21  C5* UNL     1      -7.336  18.948  66.623  1.00  0.00    -0.224 C  
HETATM   22  O5* UNL     1      -7.300  20.301  67.067  1.00  0.00    -0.256 OA 
HETATM   23  H5* UNL     1      -6.409  20.585  67.232  1.00  0.00     0.000 HD 
ENDBRANCH  16  21
ENDBRANCH   8  14
TORSDOF 2
ENDMDL
MODEL      206
REMARK 921   NORMALIZED FREE ENERGY PREDICTED BY IDOCK:   -3.38 KCAL/MOL
REMARK 922        TOTAL FREE ENERGY PREDICTED BY IDOCK:   -4.12 KCAL/MOL
REMARK 923 INTER-LIGAND FREE ENERGY PREDICTED BY IDOCK:   -4.22 KCAL/MOL
REMARK 924 INTRA-LIGAND FREE ENERGY PREDICTED BY IDOCK:    0.11 KCAL/MOL
REMARK 927      BINDING AFFINITY PREDICTED BY RF-SCORE:    0.00 PKD
ROOT
HETATM    1  N   UNL     1      -8.288   9.514  63.973  1.00  0.00    -0.158 NA 
HETATM    2  C   UNL     1      -8.778   9.655  65.263  1.00  0.00    -0.160 A  
HETATM    3  H1  UNL     1      -7.622   8.788  63.708  1.00  0.00     0.000 HD 
HETATM    4  H2  UNL     1      -7.887  10.411  63.699  1.00  0.00     0.000 HD 
HETATM    5  C   UNL     1      -9.696  10.657  65.629  1.00  0.00    -0.230 A  
HETATM    6  N   UNL     1     -10.287  11.679  64.919  1.00  0.00    -0.269 NA 
HETATM    7  C   UNL     1     -11.078  12.276  65.787  1.00  0.00    -0.323 A  
HETATM    8  N   UNL     1     -10.999  11.711  67.032  1.00  0.00    -0.273 NA 
HETATM    9  C   UNL     1     -10.118  10.666  66.949  1.00  0.00    -0.214 A  
HETATM   10  N   UNL     1      -8.347   8.795  66.210  1.00  0.00    -0.114 NA 
HETATM   11  N   UNL     1      -9.739   9.827  67.926  1.00  0.00    -0.143 NA 
HETATM   12 CL   UNL     1      -8.268   7.806  68.606  1.00  0.00    -0.127 Cl 
HETATM   13  C   UNL     1      -8.850   8.928  67.453  1.00  0.00    -0.129 A  
ENDROOT
BRANCH   8  14
HETATM   14  C1* UNL     1     -11.742  12.090  68.219  1.00  0.00    -0.334 C  
HETATM   15  C2* UNL     1     -10.918  12.083  69.498  1.00  0.00    -0.056 C  
HETATM   16  C4* UNL     1     -12.243  14.067  69.370  1.00  0.00    -0.292 C  
HETATM   17  C3* UNL     1     -11.693  13.042  70.365  1.00  0.00    -0.035 C  
HETATM   18  O3* UNL     1     -12.782  12.332  70.962  1.00  0.00    -0.328 OA 
HETATM   19  O4* UNL     1     -12.238  13.436  68.066  1.00  0.00    -0.289 OA 
HETATM   20  H3* UNL     1     -13.270  12.936  71.509  1.00  0.00     0.000 HD 
BRANCH  16  21
HETATM   21  C5* UNL     1     -11.398  15.340  69.283  1.00  0.00    -0.298 C  
HETATM   22  O5* UNL     1     -10.334  15.320  70.230  1.00  0.00    -0.454 OA 
HETATM   23  H5* UNL     1      -9.811  16.110  70.177  1.00  0.00     0.000 HD 
ENDBRANCH  16  21
ENDBRANCH   8  14
TORSDOF 2
ENDMDL
MODEL      207
REMARK 921   NORMALIZED FREE ENERGY PREDICTED BY IDOCK:   -3.35 KCAL/MOL
REMARK 922        TOTAL FREE ENERGY PREDICTED BY IDOCK:   -4.09 KCAL/MOL
REMARK 923 INTER-LIGAND FREE ENERGY PREDICTED BY IDOCK:   -3.72 KCAL/MOL
REMARK 924 INTRA-LIGAND FREE ENERGY PREDICTED BY IDOCK:   -0.36 KCAL/MOL
REMARK 927      BINDING AFFINITY PREDICTED BY RF-SCORE:    0.00 PKD
ROOT
HETATM    1  N   UNL     1      -5.636   6.112  69.036  1.00  0.00    -0.014 NA 
HETATM    2  C   UNL     1      -6.939   6.424  69.397  1.00  0.00    -0.071 A  
HETATM    3  H1  UNL     1      -5.144   5.291  69.389  1.00  0.00     0.000 HD 
HETATM    4  H2  UNL     1      -5.058   6.926  69.243  1.00  0.00     0.000 HD 
HETATM    5  C   UNL     1      -7.618   7.557  68.911  1.00  0.00    -0.105 A  
HETATM    6  N   UNL     1      -7.238   8.575  68.064  1.00  0.00    -0.086 NA 
HETATM    7  C   UNL     1      -8.307   9.337  67.955  1.00  0.00    -0.120 A  
HETATM    8  N   UNL     1      -9.347   8.879  68.719  1.00  0.00    -0.137 NA 
HETATM    9  C   UNL     1      -8.924   7.734  69.338  1.00  0.00    -0.142 A  
HETATM   10  N   UNL     1      -7.579   5.606  70.260  1.00  0.00    -0.080 NA 
HETATM   11  N   UNL     1      -9.615   6.945  70.177  1.00  0.00    -0.162 NA 
HETATM   12 CL   UNL     1      -9.609   4.831  71.675  1.00  0.00    -0.205 Cl 
HETATM   13  C   UNL     1      -8.852   5.908  70.581  1.00  0.00    -0.141 A  
ENDROOT
BRANCH   8  14
HETATM   14  C1* UNL     1     -10.677   9.448  68.826  1.00  0.00    -0.171 C  
HETATM   15  C2* UNL     1     -10.883  10.326  70.052  1.00  0.00    -0.364 C  
HETATM   16  C4* UNL     1     -11.776  11.388  68.107  1.00  0.00    -0.284 C  
HETATM   17  C3* UNL     1     -12.020  11.210  69.607  1.00  0.00    -0.359 C  
HETATM   18  O3* UNL     1     -13.248  10.499  69.805  1.00  0.00    -0.497 OA 
HETATM   19  O4* UNL     1     -10.934  10.288  67.681  1.00  0.00    -0.287 OA 
HETATM   20  H3* UNL     1     -13.964  11.056  69.525  1.00  0.00     0.000 HD 
BRANCH  16  21
HETATM   21  C5* UNL     1     -11.058  12.694  67.762  1.00  0.00    -0.247 C  
HETATM   22  O5* UNL     1     -11.238  13.668  68.786  1.00  0.00    -0.252 OA 
HETATM   23  H5* UNL     1     -10.792  14.479  68.572  1.00  0.00     0.000 HD 
ENDBRANCH  16  21
ENDBRANCH   8  14
TORSDOF 2
ENDMDL
MODEL      208
REMARK 921   NORMALIZED FREE ENERGY PREDICTED BY IDOCK:   -3.27 KCAL/MOL
REMARK 922        TOTAL FREE ENERGY PREDICTED BY IDOCK:   -4.00 KCAL/MOL
REMARK 923 INTER-LIGAND FREE ENERGY PREDICTED BY IDOCK:   -4.17 KCAL/MOL
REMARK 924 INTRA-LIGAND FREE ENERGY PREDICTED BY IDOCK:    0.17 KCAL/MOL
REMARK 927      BINDING AFFINITY PREDICTED BY RF-SCORE:    0.00 PKD
ROOT
HETATM    1  N   UNL     1     -10.414  10.480  66.900  1.00  0.00    -0.242 NA 
HETATM    2  C   UNL     1     -10.679   9.817  68.090  1.00  0.00    -0.233 A  
HETATM    3  H1  UNL     1     -10.568  11.481  66.776  1.00  0.00     0.000 HD 
HETATM    4  H2  UNL     1     -10.927   9.999  66.162  1.00  0.00     0.000 HD 
HETATM    5  C   UNL     1     -10.467   8.437  68.261  1.00  0.00    -0.163 A  
HETATM    6  N   UNL     1     -10.017   7.453  67.407  1.00  0.00    -0.166 NA 
HETATM    7  C   UNL     1     -10.001   6.357  68.138  1.00  0.00    -0.136 A  
HETATM    8  N   UNL     1     -10.453   6.578  69.412  1.00  0.00    -0.203 NA 
HETATM    9  C   UNL     1     -10.753   7.910  69.511  1.00  0.00    -0.192 A  
HETATM   10  N   UNL     1     -11.169  10.530  69.127  1.00  0.00    -0.242 NA 
HETATM   11  N   UNL     1     -11.223   8.573  70.580  1.00  0.00    -0.257 NA 
HETATM   12 CL   UNL     1     -12.014  10.838  71.559  1.00  0.00    -0.211 Cl 
HETATM   13  C   UNL     1     -11.398   9.878  70.283  1.00  0.00    -0.291 A  
ENDROOT
BRANCH   8  14
HETATM   14  C1* UNL     1     -10.550   5.614  70.491  1.00  0.00    -0.284 C  
HETATM   15  C2* UNL     1      -9.227   5.318  71.182  1.00  0.00    -0.179 C  
HETATM   16  C4* UNL     1     -10.956   5.654  72.797  1.00  0.00    -0.276 C  
HETATM   17  C3* UNL     1      -9.691   4.834  72.533  1.00  0.00    -0.148 C  
HETATM   18  O3* UNL     1     -10.039   3.450  72.422  1.00  0.00    -0.157 OA 
HETATM   19  O4* UNL     1     -11.434   6.121  71.511  1.00  0.00    -0.291 OA 
HETATM   20  H3* UNL     1     -10.331   3.146  73.273  1.00  0.00     0.000 HD 
BRANCH  16  21
HETATM   21  C5* UNL     1     -10.711   6.877  73.683  1.00  0.00    -0.274 C  
HETATM   22  O5* UNL     1      -9.506   6.739  74.432  1.00  0.00    -0.222 OA 
HETATM   23  H5* UNL     1      -9.354   7.498  74.982  1.00  0.00     0.000 HD 
ENDBRANCH  16  21
ENDBRANCH   8  14
TORSDOF 2
ENDMDL
MODEL      209
REMARK 921   NORMALIZED FREE ENERGY PREDICTED BY IDOCK:   -3.20 KCAL/MOL
REMARK 922        TOTAL FREE ENERGY PREDICTED BY IDOCK:   -3.92 KCAL/MOL
REMARK 923 INTER-LIGAND FREE ENERGY PREDICTED BY IDOCK:   -3.73 KCAL/MOL
REMARK 924 INTRA-LIGAND FREE ENERGY PREDICTED BY IDOCK:   -0.19 KCAL/MOL
REMARK 927      BINDING AFFINITY PREDICTED BY RF-SCORE:    0.00 PKD
ROOT
HETATM    1  N   UNL     1     -12.155  12.206  70.600  1.00  0.00    -0.473 NA 
HETATM    2  C   UNL     1     -11.612  10.943  70.410  1.00  0.00    -0.323 A  
HETATM    3  H1  UNL     1     -12.834  12.414  71.333  1.00  0.00     0.000 HD 
HETATM    4  H2  UNL     1     -12.565  12.498  69.713  1.00  0.00     0.000 HD 
HETATM    5  C   UNL     1     -10.676  10.656  69.400  1.00  0.00    -0.244 A  
HETATM    6  N   UNL     1     -10.112  11.430  68.409  1.00  0.00    -0.195 NA 
HETATM    7  C   UNL     1      -9.284  10.620  67.782  1.00  0.00    -0.146 A  
HETATM    8  N   UNL     1      -9.313   9.351  68.297  1.00  0.00    -0.134 NA 
HETATM    9  C   UNL     1     -10.199   9.356  69.340  1.00  0.00    -0.207 A  
HETATM   10  N   UNL     1     -12.006   9.946  71.231  1.00  0.00    -0.374 NA 
HETATM   11  N   UNL     1     -10.540   8.332  70.138  1.00  0.00    -0.230 NA 
HETATM   12 CL   UNL     1     -11.989   7.511  72.124  1.00  0.00    -0.323 Cl 
HETATM   13  C   UNL     1     -11.451   8.732  71.051  1.00  0.00    -0.285 A  
ENDROOT
BRANCH   8  14
HETATM   14  C1* UNL     1      -8.520   8.212  67.875  1.00  0.00    -0.132 C  
HETATM   15  C2* UNL     1      -9.031   7.532  66.614  1.00  0.00    -0.177 C  
HETATM   16  C4* UNL     1      -6.663   7.829  66.501  1.00  0.00    -0.062 C  
HETATM   17  C3* UNL     1      -7.781   6.863  66.100  1.00  0.00    -0.091 C  
HETATM   18  O3* UNL     1      -7.610   5.626  66.800  1.00  0.00    -0.090 OA 
HETATM   19  O4* UNL     1      -7.175   8.643  67.584  1.00  0.00    -0.082 OA 
HETATM   20  H3* UNL     1      -6.823   5.205  66.476  1.00  0.00     0.000 HD 
BRANCH  16  21
HETATM   21  C5* UNL     1      -6.236   8.764  65.367  1.00  0.00    -0.059 C  
HETATM   22  O5* UNL     1      -7.366   9.349  64.727  1.00  0.00    -0.101 OA 
HETATM   23  H5* UNL     1      -7.101   9.929  64.023  1.00  0.00     0.000 HD 
ENDBRANCH  16  21
ENDBRANCH   8  14
TORSDOF 2
ENDMDL
MODEL      210
REMARK 921   NORMALIZED FREE ENERGY PREDICTED BY IDOCK:   -3.19 KCAL/MOL
REMARK 922        TOTAL FREE ENERGY PREDICTED BY IDOCK:   -3.91 KCAL/MOL
REMARK 923 INTER-LIGAND FREE ENERGY PREDICTED BY IDOCK:   -3.60 KCAL/MOL
REMARK 924 INTRA-LIGAND FREE ENERGY PREDICTED BY IDOCK:   -0.31 KCAL/MOL
REMARK 927      BINDING AFFINITY PREDICTED BY RF-SCORE:    0.00 PKD
ROOT
HETATM    1  N   UNL     1     -11.455   5.376  72.921  1.00  0.00    -0.418 NA 
HETATM    2  C   UNL     1     -11.486   6.647  72.365  1.00  0.00    -0.262 A  
HETATM    3  H1  UNL     1     -12.167   5.036  73.567  1.00  0.00     0.000 HD 
HETATM    4  H2  UNL     1     -10.550   5.265  73.379  1.00  0.00     0.000 HD 
HETATM    5  C   UNL     1     -10.503   7.118  71.475  1.00  0.00    -0.203 A  
HETATM    6  N   UNL     1      -9.354   6.547  70.973  1.00  0.00    -0.160 NA 
HETATM    7  C   UNL     1      -8.854   7.456  70.162  1.00  0.00    -0.147 A  
HETATM    8  N   UNL     1      -9.606   8.601  70.143  1.00  0.00    -0.168 NA 
HETATM    9  C   UNL     1     -10.672   8.401  70.979  1.00  0.00    -0.223 A  
HETATM   10  N   UNL     1     -12.502   7.470  72.702  1.00  0.00     0.085 NA 
HETATM   11  N   UNL     1     -11.670   9.253  71.262  1.00  0.00    -0.319 NA 
HETATM   12 CL   UNL     1     -13.848   9.684  72.598  1.00  0.00    -0.263 Cl 
HETATM   13  C   UNL     1     -12.533   8.691  72.135  1.00  0.00    -0.389 A  
ENDROOT
BRANCH   8  14
HETATM   14  C1* UNL     1      -9.372   9.794  69.352  1.00  0.00    -0.202 C  
HETATM   15  C2* UNL     1      -7.993  10.407  69.543  1.00  0.00    -0.152 C  
HETATM   16  C4* UNL     1      -8.547  10.305  67.221  1.00  0.00    -0.125 C  
HETATM   17  C3* UNL     1      -7.816  11.167  68.253  1.00  0.00    -0.123 C  
HETATM   18  O3* UNL     1      -8.486  12.426  68.375  1.00  0.00    -0.186 OA 
HETATM   19  O4* UNL     1      -9.480   9.470  67.950  1.00  0.00    -0.132 OA 
HETATM   20  H3* UNL     1      -8.375  12.905  67.563  1.00  0.00     0.000 HD 
BRANCH  16  21
HETATM   21  C5* UNL     1      -7.613   9.388  66.428  1.00  0.00    -0.097 C  
HETATM   22  O5* UNL     1      -7.826   9.522  65.025  1.00  0.00    -0.110 OA 
HETATM   23  H5* UNL     1      -7.247   8.953  64.533  1.00  0.00     0.000 HD 
ENDBRANCH  16  21
ENDBRANCH   8  14
TORSDOF 2
ENDMDL
MODEL      211
REMARK 921   NORMALIZED FREE ENERGY PREDICTED BY IDOCK:   -3.18 KCAL/MOL
REMARK 922        TOTAL FREE ENERGY PREDICTED BY IDOCK:   -3.90 KCAL/MOL
REMARK 923 INTER-LIGAND FREE ENERGY PREDICTED BY IDOCK:   -4.15 KCAL/MOL
REMARK 924 INTRA-LIGAND FREE ENERGY PREDICTED BY IDOCK:    0.25 KCAL/MOL
REMARK 927      BINDING AFFINITY PREDICTED BY RF-SCORE:    0.00 PKD
ROOT
HETATM    1  N   UNL     1     -11.649  12.400  66.820  1.00  0.00    -0.390 NA 
HETATM    2  C   UNL     1     -10.420  13.024  66.975  1.00  0.00    -0.247 A  
HETATM    3  H1  UNL     1     -11.791  11.403  66.983  1.00  0.00     0.000 HD 
HETATM    4  H2  UNL     1     -11.978  12.604  65.876  1.00  0.00     0.000 HD 
HETATM    5  C   UNL     1     -10.224  14.399  66.750  1.00  0.00    -0.270 A  
HETATM    6  N   UNL     1     -11.073  15.402  66.336  1.00  0.00    -0.281 NA 
HETATM    7  C   UNL     1     -10.330  16.490  66.334  1.00  0.00    -0.311 A  
HETATM    8  N   UNL     1      -9.033  16.231  66.692  1.00  0.00    -0.227 NA 
HETATM    9  C   UNL     1      -8.947  14.892  66.966  1.00  0.00    -0.236 A  
HETATM   10  N   UNL     1      -9.363  12.273  67.354  1.00  0.00    -0.178 NA 
HETATM   11  N   UNL     1      -7.867  14.199  67.359  1.00  0.00    -0.186 NA 
HETATM   12 CL   UNL     1      -6.883  11.892  68.010  1.00  0.00    -0.067 Cl 
HETATM   13  C   UNL     1      -8.182  12.896  67.526  1.00  0.00    -0.184 A  
ENDROOT
BRANCH   8  14
HETATM   14  C1* UNL     1      -7.949  17.185  66.820  1.00  0.00    -0.235 C  
HETATM   15  C2* UNL     1      -8.120  18.171  67.967  1.00  0.00    -0.264 C  
HETATM   16  C4* UNL     1      -5.893  17.306  67.935  1.00  0.00    -0.123 C  
HETATM   17  C3* UNL     1      -6.693  18.576  68.236  1.00  0.00    -0.224 C  
HETATM   18  O3* UNL     1      -6.329  19.596  67.301  1.00  0.00    -0.190 OA 
HETATM   19  O4* UNL     1      -6.716  16.481  67.074  1.00  0.00    -0.175 OA 
HETATM   20  H3* UNL     1      -5.430  19.851  67.471  1.00  0.00     0.000 HD 
BRANCH  16  21
HETATM   21  C5* UNL     1      -5.555  16.494  69.187  1.00  0.00    -0.133 C  
HETATM   22  O5* UNL     1      -5.456  17.331  70.335  1.00  0.00    -0.232 OA 
HETATM   23  H5* UNL     1      -5.245  16.827  71.112  1.00  0.00     0.000 HD 
ENDBRANCH  16  21
ENDBRANCH   8  14
TORSDOF 2
ENDMDL
MODEL      212
REMARK 921   NORMALIZED FREE ENERGY PREDICTED BY IDOCK:   -3.17 KCAL/MOL
REMARK 922        TOTAL FREE ENERGY PREDICTED BY IDOCK:   -3.89 KCAL/MOL
REMARK 923 INTER-LIGAND FREE ENERGY PREDICTED BY IDOCK:   -3.75 KCAL/MOL
REMARK 924 INTRA-LIGAND FREE ENERGY PREDICTED BY IDOCK:   -0.14 KCAL/MOL
REMARK 927      BINDING AFFINITY PREDICTED BY RF-SCORE:    0.00 PKD
ROOT
HETATM    1  N   UNL     1      -5.908   6.436  67.908  1.00  0.00    -0.015 NA 
HETATM    2  C   UNL     1      -7.068   7.179  68.069  1.00  0.00    -0.085 A  
HETATM    3  H1  UNL     1      -5.818   5.471  68.225  1.00  0.00     0.000 HD 
HETATM    4  H2  UNL     1      -5.145   6.968  68.328  1.00  0.00     0.000 HD 
HETATM    5  C   UNL     1      -7.193   8.511  67.633  1.00  0.00    -0.084 A  
HETATM    6  N   UNL     1      -6.310   9.374  67.020  1.00  0.00    -0.065 NA 
HETATM    7  C   UNL     1      -7.000  10.479  66.828  1.00  0.00    -0.104 A  
HETATM    8  N   UNL     1      -8.275  10.384  67.321  1.00  0.00    -0.121 NA 
HETATM    9  C   UNL     1      -8.418   9.124  67.838  1.00  0.00    -0.117 A  
HETATM   10  N   UNL     1      -8.123   6.597  68.680  1.00  0.00    -0.118 NA 
HETATM   11  N   UNL     1      -9.503   8.590  68.420  1.00  0.00    -0.135 NA 
HETATM   12 CL   UNL     1     -10.553   6.526  69.584  1.00  0.00    -0.263 Cl 
HETATM   13  C   UNL     1      -9.252   7.321  68.806  1.00  0.00    -0.137 A  
ENDROOT
BRANCH   8  14
HETATM   14  C1* UNL     1      -9.317  11.392  67.265  1.00  0.00    -0.167 C  
HETATM   15  C2* UNL     1     -10.617  10.910  66.638  1.00  0.00    -0.305 C  
HETATM   16  C4* UNL     1     -11.061  12.134  68.641  1.00  0.00    -0.251 C  
HETATM   17  C3* UNL     1     -11.618  11.862  67.242  1.00  0.00    -0.293 C  
HETATM   18  O3* UNL     1     -11.602  13.075  66.482  1.00  0.00    -0.321 OA 
HETATM   19  O4* UNL     1      -9.648  11.816  68.604  1.00  0.00    -0.186 OA 
HETATM   20  H3* UNL     1     -12.233  13.675  66.863  1.00  0.00     0.000 HD 
BRANCH  16  21
HETATM   21  C5* UNL     1     -11.711  11.277  69.729  1.00  0.00    -0.349 C  
HETATM   22  O5* UNL     1     -12.859  10.595  69.231  1.00  0.00    -0.630 OA 
HETATM   23  H5* UNL     1     -13.263  10.063  69.906  1.00  0.00     0.000 HD 
ENDBRANCH  16  21
ENDBRANCH   8  14
TORSDOF 2
ENDMDL
MODEL      213
REMARK 921   NORMALIZED FREE ENERGY PREDICTED BY IDOCK:   -3.13 KCAL/MOL
REMARK 922        TOTAL FREE ENERGY PREDICTED BY IDOCK:   -3.84 KCAL/MOL
REMARK 923 INTER-LIGAND FREE ENERGY PREDICTED BY IDOCK:   -3.41 KCAL/MOL
REMARK 924 INTRA-LIGAND FREE ENERGY PREDICTED BY IDOCK:   -0.43 KCAL/MOL
REMARK 927      BINDING AFFINITY PREDICTED BY RF-SCORE:    0.00 PKD
ROOT
HETATM    1  N   UNL     1     -13.741  13.438  71.051  1.00  0.00     0.268 NA 
HETATM    2  C   UNL     1     -12.993  12.271  70.992  1.00  0.00    -0.064 A  
HETATM    3  H1  UNL     1     -14.567  13.539  71.641  1.00  0.00     0.000 HD 
HETATM    4  H2  UNL     1     -14.018  13.671  70.097  1.00  0.00     0.000 HD 
HETATM    5  C   UNL     1     -11.854  12.131  70.178  1.00  0.00    -0.287 A  
HETATM    6  N   UNL     1     -11.235  12.986  69.291  1.00  0.00    -0.232 NA 
HETATM    7  C   UNL     1     -10.195  12.311  68.846  1.00  0.00    -0.020 A  
HETATM    8  N   UNL     1     -10.133  11.049  69.375  1.00  0.00    -0.102 NA 
HETATM    9  C   UNL     1     -11.189  10.917  70.236  1.00  0.00    -0.188 A  
HETATM   10  N   UNL     1     -13.382  11.221  71.747  1.00  0.00    -0.349 NA 
HETATM   11  N   UNL     1     -11.518   9.849  70.980  1.00  0.00    -0.363 NA 
HETATM   12 CL   UNL     1     -13.174   8.811  72.682  1.00  0.00    -0.400 Cl 
HETATM   13  C   UNL     1     -12.631  10.104  71.700  1.00  0.00    -0.434 A  
ENDROOT
BRANCH   8  14
HETATM   14  C1* UNL     1      -9.118  10.042  69.131  1.00  0.00    -0.184 C  
HETATM   15  C2* UNL     1      -8.198   9.786  70.315  1.00  0.00    -0.178 C  
HETATM   16  C4* UNL     1      -8.916   7.720  69.355  1.00  0.00    -0.142 C  
HETATM   17  C3* UNL     1      -7.715   8.387  70.029  1.00  0.00    -0.090 C  
HETATM   18  O3* UNL     1      -6.632   8.465  69.096  1.00  0.00    -0.045 OA 
HETATM   19  O4* UNL     1      -9.753   8.782  68.833  1.00  0.00    -0.166 OA 
HETATM   20  H3* UNL     1      -6.328   7.583  68.916  1.00  0.00     0.000 HD 
BRANCH  16  21
HETATM   21  C5* UNL     1      -9.761   6.881  70.315  1.00  0.00    -0.172 C  
HETATM   22  O5* UNL     1     -11.148   7.178  70.178  1.00  0.00    -0.263 OA 
HETATM   23  H5* UNL     1     -11.672   6.657  70.774  1.00  0.00     0.000 HD 
ENDBRANCH  16  21
ENDBRANCH   8  14
TORSDOF 2
ENDMDL
MODEL      214
REMARK 921   NORMALIZED FREE ENERGY PREDICTED BY IDOCK:   -3.11 KCAL/MOL
REMARK 922        TOTAL FREE ENERGY PREDICTED BY IDOCK:   -3.81 KCAL/MOL
REMARK 923 INTER-LIGAND FREE ENERGY PREDICTED BY IDOCK:   -3.46 KCAL/MOL
REMARK 924 INTRA-LIGAND FREE ENERGY PREDICTED BY IDOCK:   -0.36 KCAL/MOL
REMARK 927      BINDING AFFINITY PREDICTED BY RF-SCORE:    0.00 PKD
ROOT
HETATM    1  N   UNL     1     -10.906   5.097  70.656  1.00  0.00    -0.063 NA 
HETATM    2  C   UNL     1     -10.224   6.298  70.521  1.00  0.00    -0.193 A  
HETATM    3  H1  UNL     1     -10.954   4.581  71.534  1.00  0.00     0.000 HD 
HETATM    4  H2  UNL     1     -10.544   4.460  69.946  1.00  0.00     0.000 HD 
HETATM    5  C   UNL     1     -10.158   7.010  69.310  1.00  0.00    -0.173 A  
HETATM    6  N   UNL     1     -10.659   6.753  68.052  1.00  0.00    -0.210 NA 
HETATM    7  C   UNL     1     -10.300   7.793  67.329  1.00  0.00    -0.301 A  
HETATM    8  N   UNL     1      -9.559   8.693  68.049  1.00  0.00    -0.147 NA 
HETATM    9  C   UNL     1      -9.461   8.208  69.326  1.00  0.00    -0.159 A  
HETATM   10  N   UNL     1      -9.590   6.800  71.603  1.00  0.00    -0.162 NA 
HETATM   11  N   UNL     1      -8.829   8.763  70.372  1.00  0.00    -0.154 NA 
HETATM   12 CL   UNL     1      -8.174   8.564  72.872  1.00  0.00    -0.165 Cl 
HETATM   13  C   UNL     1      -8.954   7.979  71.465  1.00  0.00    -0.143 A  
ENDROOT
BRANCH   8  14
HETATM   14  C1* UNL     1      -9.019   9.957  67.588  1.00  0.00    -0.128 C  
HETATM   15  C2* UNL     1      -8.037   9.830  66.433  1.00  0.00    -0.116 C  
HETATM   16  C4* UNL     1      -9.591  11.595  66.015  1.00  0.00    -0.228 C  
HETATM   17  C3* UNL     1      -8.129  11.196  65.802  1.00  0.00     0.029 C  
HETATM   18  O3* UNL     1      -7.284  12.090  66.534  1.00  0.00    -0.373 OA 
HETATM   19  O4* UNL     1     -10.093  10.795  67.113  1.00  0.00    -0.190 OA 
HETATM   20  H3* UNL     1      -7.342  12.950  66.136  1.00  0.00     0.000 HD 
BRANCH  16  21
HETATM   21  C5* UNL     1     -10.475  11.331  64.794  1.00  0.00    -0.323 C  
HETATM   22  O5* UNL     1      -9.692  11.187  63.612  1.00  0.00    -0.256 OA 
HETATM   23  H5* UNL     1     -10.241  11.024  62.854  1.00  0.00     0.000 HD 
ENDBRANCH  16  21
ENDBRANCH   8  14
TORSDOF 2
ENDMDL
MODEL      215
REMARK 921   NORMALIZED FREE ENERGY PREDICTED BY IDOCK:   -3.04 KCAL/MOL
REMARK 922        TOTAL FREE ENERGY PREDICTED BY IDOCK:   -3.74 KCAL/MOL
REMARK 923 INTER-LIGAND FREE ENERGY PREDICTED BY IDOCK:   -3.39 KCAL/MOL
REMARK 924 INTRA-LIGAND FREE ENERGY PREDICTED BY IDOCK:   -0.36 KCAL/MOL
REMARK 927      BINDING AFFINITY PREDICTED BY RF-SCORE:    0.00 PKD
ROOT
HETATM    1  N   UNL     1      -7.374   4.012  71.926  1.00  0.00    -0.058 NA 
HETATM    2  C   UNL     1      -7.606   5.165  71.189  1.00  0.00    -0.095 A  
HETATM    3  H1  UNL     1      -6.442   3.716  72.215  1.00  0.00     0.000 HD 
HETATM    4  H2  UNL     1      -7.798   3.235  71.418  1.00  0.00     0.000 HD 
HETATM    5  C   UNL     1      -8.892   5.574  70.790  1.00  0.00    -0.134 A  
HETATM    6  N   UNL     1     -10.139   5.016  70.963  1.00  0.00    -0.220 NA 
HETATM    7  C   UNL     1     -10.969   5.866  70.394  1.00  0.00    -0.306 A  
HETATM    8  N   UNL     1     -10.313   6.928  69.830  1.00  0.00    -0.199 NA 
HETATM    9  C   UNL     1      -8.978   6.759  70.078  1.00  0.00    -0.141 A  
HETATM   10  N   UNL     1      -6.546   5.923  70.835  1.00  0.00    -0.043 NA 
HETATM   11  N   UNL     1      -7.963   7.561  69.715  1.00  0.00    -0.121 NA 
HETATM   12 CL   UNL     1      -5.405   7.972  69.727  1.00  0.00    -0.023 Cl 
HETATM   13  C   UNL     1      -6.788   7.053  70.142  1.00  0.00    -0.060 A  
ENDROOT
BRANCH   8  14
HETATM   14  C1* UNL     1     -10.903   8.062  69.144  1.00  0.00    -0.021 C  
HETATM   15  C2* UNL     1     -10.374   9.412  69.604  1.00  0.00    -0.229 C  
HETATM   16  C4* UNL     1     -10.464   9.320  67.218  1.00  0.00    -0.264 C  
HETATM   17  C3* UNL     1     -10.652  10.275  68.400  1.00  0.00    -0.216 C  
HETATM   18  O3* UNL     1     -12.018  10.698  68.453  1.00  0.00    -0.775 OA 
HETATM   19  O4* UNL     1     -10.614   7.974  67.733  1.00  0.00    -0.223 OA 
HETATM   20  H3* UNL     1     -12.194  11.242  67.694  1.00  0.00     0.000 HD 
BRANCH  16  21
HETATM   21  C5* UNL     1      -9.083   9.427  66.568  1.00  0.00    -0.153 C  
HETATM   22  O5* UNL     1      -8.210   8.404  67.039  1.00  0.00    -0.106 OA 
HETATM   23  H5* UNL     1      -7.353   8.470  66.636  1.00  0.00     0.000 HD 
ENDBRANCH  16  21
ENDBRANCH   8  14
TORSDOF 2
ENDMDL
MODEL      216
REMARK 921   NORMALIZED FREE ENERGY PREDICTED BY IDOCK:   -3.04 KCAL/MOL
REMARK 922        TOTAL FREE ENERGY PREDICTED BY IDOCK:   -3.74 KCAL/MOL
REMARK 923 INTER-LIGAND FREE ENERGY PREDICTED BY IDOCK:   -3.60 KCAL/MOL
REMARK 924 INTRA-LIGAND FREE ENERGY PREDICTED BY IDOCK:   -0.14 KCAL/MOL
REMARK 927      BINDING AFFINITY PREDICTED BY RF-SCORE:    0.00 PKD
ROOT
HETATM    1  N   UNL     1      -9.632   9.778  64.437  1.00  0.00    -0.424 NA 
HETATM    2  C   UNL     1      -9.066   9.184  65.556  1.00  0.00    -0.219 A  
HETATM    3  H1  UNL     1      -9.254   9.663  63.497  1.00  0.00     0.000 HD 
HETATM    4  H2  UNL     1      -9.694  10.779  64.621  1.00  0.00     0.000 HD 
HETATM    5  C   UNL     1      -9.587   9.342  66.854  1.00  0.00    -0.174 A  
HETATM    6  N   UNL     1     -10.656  10.058  67.344  1.00  0.00    -0.261 NA 
HETATM    7  C   UNL     1     -10.669   9.800  68.636  1.00  0.00    -0.216 A  
HETATM    8  N   UNL     1      -9.637   8.980  69.009  1.00  0.00    -0.158 NA 
HETATM    9  C   UNL     1      -8.933   8.672  67.876  1.00  0.00    -0.140 A  
HETATM   10  N   UNL     1      -7.960   8.426  65.390  1.00  0.00    -0.114 NA 
HETATM   11  N   UNL     1      -7.845   7.893  67.767  1.00  0.00    -0.121 NA 
HETATM   12 CL   UNL     1      -6.040   6.886  66.205  1.00  0.00    -0.034 Cl 
HETATM   13  C   UNL     1      -7.437   7.835  66.481  1.00  0.00    -0.088 A  
ENDROOT
BRANCH   8  14
HETATM   14  C1* UNL     1      -9.354   8.471  70.337  1.00  0.00    -0.164 C  
HETATM   15  C2* UNL     1     -10.425   8.794  71.368  1.00  0.00    -0.354 C  
HETATM   16  C4* UNL     1      -9.761   6.505  71.543  1.00  0.00    -0.168 C  
HETATM   17  C3* UNL     1     -10.207   7.703  72.386  1.00  0.00    -0.228 C  
HETATM   18  O3* UNL     1      -9.136   8.098  73.249  1.00  0.00    -0.261 OA 
HETATM   19  O4* UNL     1      -9.260   7.032  70.290  1.00  0.00    -0.155 OA 
HETATM   20  H3* UNL     1      -8.999   7.410  73.890  1.00  0.00     0.000 HD 
BRANCH  16  21
HETATM   21  C5* UNL     1     -10.899   5.532  71.226  1.00  0.00    -0.180 C  
HETATM   22  O5* UNL     1     -10.513   4.598  70.221  1.00  0.00    -0.137 OA 
HETATM   23  H5* UNL     1     -11.219   3.994  70.024  1.00  0.00     0.000 HD 
ENDBRANCH  16  21
ENDBRANCH   8  14
TORSDOF 2
ENDMDL
MODEL      217
REMARK 921   NORMALIZED FREE ENERGY PREDICTED BY IDOCK:   -3.00 KCAL/MOL
REMARK 922        TOTAL FREE ENERGY PREDICTED BY IDOCK:   -3.69 KCAL/MOL
REMARK 923 INTER-LIGAND FREE ENERGY PREDICTED BY IDOCK:   -3.64 KCAL/MOL
REMARK 924 INTRA-LIGAND FREE ENERGY PREDICTED BY IDOCK:   -0.05 KCAL/MOL
REMARK 927      BINDING AFFINITY PREDICTED BY RF-SCORE:    0.00 PKD
ROOT
HETATM    1  N   UNL     1     -11.457   4.296  65.100  1.00  0.00    -0.943 NA 
HETATM    2  C   UNL     1     -10.358   4.626  65.882  1.00  0.00    -0.283 A  
HETATM    3  H1  UNL     1     -11.497   3.455  64.525  1.00  0.00     0.000 HD 
HETATM    4  H2  UNL     1     -11.647   5.092  64.490  1.00  0.00     0.000 HD 
HETATM    5  C   UNL     1     -10.302   5.786  66.674  1.00  0.00    -0.243 A  
HETATM    6  N   UNL     1     -11.190   6.822  66.869  1.00  0.00    -0.264 NA 
HETATM    7  C   UNL     1     -10.600   7.609  67.745  1.00  0.00    -0.196 A  
HETATM    8  N   UNL     1      -9.358   7.150  68.098  1.00  0.00    -0.130 NA 
HETATM    9  C   UNL     1      -9.152   5.978  67.422  1.00  0.00    -0.106 A  
HETATM   10  N   UNL     1      -9.293   3.795  65.873  1.00  0.00    -0.159 NA 
HETATM   11  N   UNL     1      -8.073   5.179  67.467  1.00  0.00    -0.100 NA 
HETATM   12 CL   UNL     1      -6.929   3.020  66.604  1.00  0.00    -0.052 Cl 
HETATM   13  C   UNL     1      -8.245   4.114  66.656  1.00  0.00    -0.101 A  
ENDROOT
BRANCH   8  14
HETATM   14  C1* UNL     1      -8.439   7.744  69.050  1.00  0.00    -0.132 C  
HETATM   15  C2* UNL     1      -7.042   7.987  68.499  1.00  0.00    -0.080 C  
HETATM   16  C4* UNL     1      -7.806   9.901  69.707  1.00  0.00    -0.163 C  
HETATM   17  C3* UNL     1      -6.546   9.089  69.400  1.00  0.00    -0.044 C  
HETATM   18  O3* UNL     1      -6.058   8.498  70.609  1.00  0.00    -0.031 OA 
HETATM   19  O4* UNL     1      -8.940   9.033  69.462  1.00  0.00    -0.139 OA 
HETATM   20  H3* UNL     1      -5.745   9.192  71.177  1.00  0.00     0.000 HD 
BRANCH  16  21
HETATM   21  C5* UNL     1      -7.958  11.139  68.821  1.00  0.00    -0.144 C  
HETATM   22  O5* UNL     1      -7.300  12.267  69.392  1.00  0.00    -0.326 OA 
HETATM   23  H5* UNL     1      -7.395  13.036  68.843  1.00  0.00     0.000 HD 
ENDBRANCH  16  21
ENDBRANCH   8  14
TORSDOF 2
ENDMDL
MODEL      218
REMARK 921   NORMALIZED FREE ENERGY PREDICTED BY IDOCK:   -2.99 KCAL/MOL
REMARK 922        TOTAL FREE ENERGY PREDICTED BY IDOCK:   -3.68 KCAL/MOL
REMARK 923 INTER-LIGAND FREE ENERGY PREDICTED BY IDOCK:   -3.76 KCAL/MOL
REMARK 924 INTRA-LIGAND FREE ENERGY PREDICTED BY IDOCK:    0.08 KCAL/MOL
REMARK 927      BINDING AFFINITY PREDICTED BY RF-SCORE:    0.00 PKD
ROOT
HETATM    1  N   UNL     1      -7.298   7.151  63.836  1.00  0.00    -0.081 NA 
HETATM    2  C   UNL     1      -8.040   7.749  64.845  1.00  0.00    -0.136 A  
HETATM    3  H1  UNL     1      -6.724   7.681  63.181  1.00  0.00     0.000 HD 
HETATM    4  H2  UNL     1      -7.939   6.578  63.286  1.00  0.00     0.000 HD 
HETATM    5  C   UNL     1      -8.833   7.018  65.749  1.00  0.00    -0.064 A  
HETATM    6  N   UNL     1      -9.100   5.672  65.873  1.00  0.00    -0.158 NA 
HETATM    7  C   UNL     1      -9.890   5.582  66.922  1.00  0.00    -0.163 A  
HETATM    8  N   UNL     1     -10.176   6.809  67.460  1.00  0.00    -0.170 NA 
HETATM    9  C   UNL     1      -9.502   7.744  66.721  1.00  0.00    -0.197 A  
HETATM   10  N   UNL     1      -8.001   9.094  64.958  1.00  0.00    -0.115 NA 
HETATM   11  N   UNL     1      -9.486   9.076  66.892  1.00  0.00    -0.156 NA 
HETATM   12 CL   UNL     1      -8.612  11.365  66.051  1.00  0.00    -0.140 Cl 
HETATM   13  C   UNL     1      -8.705   9.659  65.958  1.00  0.00    -0.138 A  
ENDROOT
BRANCH   8  14
HETATM   14  C1* UNL     1     -10.989   7.089  68.628  1.00  0.00    -0.090 C  
HETATM   15  C2* UNL     1     -11.126   5.917  69.588  1.00  0.00    -0.414 C  
HETATM   16  C4* UNL     1     -10.656   7.927  70.790  1.00  0.00    -0.214 C  
HETATM   17  C3* UNL     1     -11.443   6.618  70.884  1.00  0.00    -0.347 C  
HETATM   18  O3* UNL     1     -12.845   6.911  70.907  1.00  0.00    -0.488 OA 
HETATM   19  O4* UNL     1     -10.391   8.162  69.385  1.00  0.00    -0.211 OA 
HETATM   20  H3* UNL     1     -13.045   7.353  71.724  1.00  0.00     0.000 HD 
BRANCH  16  21
HETATM   21  C5* UNL     1      -9.314   7.880  71.523  1.00  0.00    -0.143 C  
HETATM   22  O5* UNL     1      -9.220   8.917  72.496  1.00  0.00    -0.334 OA 
HETATM   23  H5* UNL     1      -8.387   8.888  72.951  1.00  0.00     0.000 HD 
ENDBRANCH  16  21
ENDBRANCH   8  14
TORSDOF 2
ENDMDL
MODEL      219
REMARK 921   NORMALIZED FREE ENERGY PREDICTED BY IDOCK:   -2.90 KCAL/MOL
REMARK 922        TOTAL FREE ENERGY PREDICTED BY IDOCK:   -3.58 KCAL/MOL
REMARK 923 INTER-LIGAND FREE ENERGY PREDICTED BY IDOCK:   -3.43 KCAL/MOL
REMARK 924 INTRA-LIGAND FREE ENERGY PREDICTED BY IDOCK:   -0.15 KCAL/MOL
REMARK 927      BINDING AFFINITY PREDICTED BY RF-SCORE:    0.00 PKD
ROOT
HETATM    1  N   UNL     1     -10.452   9.313  66.082  1.00  0.00    -0.128 NA 
HETATM    2  C   UNL     1      -9.768   8.510  66.982  1.00  0.00    -0.204 A  
HETATM    3  H1  UNL     1     -10.471   9.131  65.078  1.00  0.00     0.000 HD 
HETATM    4  H2  UNL     1     -10.120  10.269  66.212  1.00  0.00     0.000 HD 
HETATM    5  C   UNL     1      -9.741   8.761  68.366  1.00  0.00    -0.162 A  
HETATM    6  N   UNL     1     -10.290   9.761  69.140  1.00  0.00    -0.200 NA 
HETATM    7  C   UNL     1      -9.950   9.453  70.375  1.00  0.00    -0.252 A  
HETATM    8  N   UNL     1      -9.178   8.323  70.433  1.00  0.00    -0.150 NA 
HETATM    9  C   UNL     1      -9.037   7.862  69.151  1.00  0.00    -0.145 A  
HETATM   10  N   UNL     1      -9.092   7.442  66.505  1.00  0.00    -0.157 NA 
HETATM   11  N   UNL     1      -8.364   6.777  68.735  1.00  0.00    -0.120 NA 
HETATM   12 CL   UNL     1      -7.621   5.319  66.726  1.00  0.00    -0.088 Cl 
HETATM   13  C   UNL     1      -8.454   6.657  67.393  1.00  0.00    -0.120 A  
ENDROOT
BRANCH   8  14
HETATM   14  C1* UNL     1      -8.647   7.681  71.619  1.00  0.00    -0.116 C  
HETATM   15  C2* UNL     1      -8.865   8.467  72.904  1.00  0.00    -0.258 C  
HETATM   16  C4* UNL     1      -9.406   6.163  73.234  1.00  0.00    -0.134 C  
HETATM   17  C3* UNL     1      -8.800   7.377  73.943  1.00  0.00    -0.226 C  
HETATM   18  O3* UNL     1      -7.424   7.115  74.237  1.00  0.00    -0.104 OA 
HETATM   19  O4* UNL     1      -9.299   6.408  71.810  1.00  0.00    -0.151 OA 
HETATM   20  H3* UNL     1      -7.383   6.428  74.892  1.00  0.00     0.000 HD 
BRANCH  16  21
HETATM   21  C5* UNL     1     -10.883   5.943  73.567  1.00  0.00    -0.216 C  
HETATM   22  O5* UNL     1     -11.673   7.061  73.175  1.00  0.00    -0.501 OA 
HETATM   23  H5* UNL     1     -12.590   6.925  73.382  1.00  0.00     0.000 HD 
ENDBRANCH  16  21
ENDBRANCH   8  14
TORSDOF 2
ENDMDL
MODEL      220
REMARK 921   NORMALIZED FREE ENERGY PREDICTED BY IDOCK:   -2.83 KCAL/MOL
REMARK 922        TOTAL FREE ENERGY PREDICTED BY IDOCK:   -3.50 KCAL/MOL
REMARK 923 INTER-LIGAND FREE ENERGY PREDICTED BY IDOCK:   -3.47 KCAL/MOL
REMARK 924 INTRA-LIGAND FREE ENERGY PREDICTED BY IDOCK:   -0.03 KCAL/MOL
REMARK 927      BINDING AFFINITY PREDICTED BY RF-SCORE:    0.00 PKD
ROOT
HETATM    1  N   UNL     1     -10.346  10.291  62.351  1.00  0.00    -0.368 NA 
HETATM    2  C   UNL     1      -9.439  10.385  63.398  1.00  0.00    -0.315 A  
HETATM    3  H1  UNL     1     -10.192   9.701  61.534  1.00  0.00     0.000 HD 
HETATM    4  H2  UNL     1     -10.522  11.238  62.015  1.00  0.00     0.000 HD 
HETATM    5  C   UNL     1      -9.651  11.200  64.525  1.00  0.00    -0.250 A  
HETATM    6  N   UNL     1     -10.672  12.057  64.872  1.00  0.00    -0.289 NA 
HETATM    7  C   UNL     1     -10.332  12.521  66.057  1.00  0.00    -0.256 A  
HETATM    8  N   UNL     1      -9.122  12.032  66.475  1.00  0.00    -0.205 NA 
HETATM    9  C   UNL     1      -8.672  11.179  65.504  1.00  0.00    -0.094 A  
HETATM   10  N   UNL     1      -8.299   9.665  63.324  1.00  0.00    -0.158 NA 
HETATM   11  N   UNL     1      -7.531  10.471  65.494  1.00  0.00    -0.139 NA 
HETATM   12 CL   UNL     1      -6.017   8.807  64.208  1.00  0.00    -0.066 Cl 
HETATM   13  C   UNL     1      -7.440   9.746  64.358  1.00  0.00    -0.132 A  
ENDROOT
BRANCH   8  14
HETATM   14  C1* UNL     1      -8.450  12.305  67.731  1.00  0.00    -0.163 C  
HETATM   15  C2* UNL     1      -7.005  12.754  67.579  1.00  0.00    -0.149 C  
HETATM   16  C4* UNL     1      -8.148  14.143  69.151  1.00  0.00     0.132 C  
HETATM   17  C3* UNL     1      -6.783  13.512  68.863  1.00  0.00    -0.109 C  
HETATM   18  O3* UNL     1      -6.472  12.570  69.896  1.00  0.00    -0.310 OA 
HETATM   19  O4* UNL     1      -9.134  13.373  68.420  1.00  0.00    -0.189 OA 
HETATM   20  H3* UNL     1      -6.333  13.048  70.705  1.00  0.00     0.000 HD 
BRANCH  16  21
HETATM   21  C5* UNL     1      -8.250  15.599  68.692  1.00  0.00    -0.168 C  
HETATM   22  O5* UNL     1      -9.429  16.219  69.197  1.00  0.00    -0.247 OA 
HETATM   23  H5* UNL     1      -9.493  17.122  68.912  1.00  0.00     0.000 HD 
ENDBRANCH  16  21
ENDBRANCH   8  14
TORSDOF 2
ENDMDL
MODEL      221
REMARK 921   NORMALIZED FREE ENERGY PREDICTED BY IDOCK:   -2.76 KCAL/MOL
REMARK 922        TOTAL FREE ENERGY PREDICTED BY IDOCK:   -3.43 KCAL/MOL
REMARK 923 INTER-LIGAND FREE ENERGY PREDICTED BY IDOCK:   -3.07 KCAL/MOL
REMARK 924 INTRA-LIGAND FREE ENERGY PREDICTED BY IDOCK:   -0.36 KCAL/MOL
REMARK 927      BINDING AFFINITY PREDICTED BY RF-SCORE:    0.00 PKD
ROOT
HETATM    1  N   UNL     1      -6.116   4.739  73.034  1.00  0.00    -0.021 NA 
HETATM    2  C   UNL     1      -7.065   5.350  72.226  1.00  0.00    -0.086 A  
HETATM    3  H1  UNL     1      -5.993   4.972  74.019  1.00  0.00     0.000 HD 
HETATM    4  H2  UNL     1      -5.210   4.852  72.578  1.00  0.00     0.000 HD 
HETATM    5  C   UNL     1      -7.235   5.029  70.867  1.00  0.00    -0.060 A  
HETATM    6  N   UNL     1      -6.581   4.150  70.031  1.00  0.00    -0.032 NA 
HETATM    7  C   UNL     1      -7.199   4.265  68.874  1.00  0.00    -0.055 A  
HETATM    8  N   UNL     1      -8.197   5.203  68.912  1.00  0.00    -0.088 NA 
HETATM    9  C   UNL     1      -8.237   5.702  70.186  1.00  0.00    -0.114 A  
HETATM   10  N   UNL     1      -7.855   6.300  72.771  1.00  0.00    -0.104 NA 
HETATM   11  N   UNL     1      -9.062   6.638  70.680  1.00  0.00    -0.155 NA 
HETATM   12 CL   UNL     1      -9.761   8.058  72.732  1.00  0.00    -0.320 Cl 
HETATM   13  C   UNL     1      -8.789   6.865  71.982  1.00  0.00    -0.132 A  
ENDROOT
BRANCH   8  14
HETATM   14  C1* UNL     1      -9.096   5.575  67.836  1.00  0.00    -0.107 C  
HETATM   15  C2* UNL     1     -10.571   5.469  68.193  1.00  0.00    -0.207 C  
HETATM   16  C4* UNL     1     -10.131   7.528  67.064  1.00  0.00    -0.261 C  
HETATM   17  C3* UNL     1     -11.191   6.435  67.215  1.00  0.00    -0.206 C  
HETATM   18  O3* UNL     1     -11.359   5.763  65.962  1.00  0.00    -0.639 OA 
HETATM   19  O4* UNL     1      -8.866   6.952  67.472  1.00  0.00    -0.119 OA 
HETATM   20  H3* UNL     1     -11.749   6.371  65.346  1.00  0.00     0.000 HD 
BRANCH  16  21
HETATM   21  C5* UNL     1     -10.397   8.754  67.940  1.00  0.00    -0.224 C  
HETATM   22  O5* UNL     1      -9.212   9.178  68.608  1.00  0.00    -0.136 OA 
HETATM   23  H5* UNL     1      -9.377   9.939  69.152  1.00  0.00     0.000 HD 
ENDBRANCH  16  21
ENDBRANCH   8  14
TORSDOF 2
ENDMDL
MODEL      222
REMARK 921   NORMALIZED FREE ENERGY PREDICTED BY IDOCK:   -2.75 KCAL/MOL
REMARK 922        TOTAL FREE ENERGY PREDICTED BY IDOCK:   -3.41 KCAL/MOL
REMARK 923 INTER-LIGAND FREE ENERGY PREDICTED BY IDOCK:   -3.09 KCAL/MOL
REMARK 924 INTRA-LIGAND FREE ENERGY PREDICTED BY IDOCK:   -0.32 KCAL/MOL
REMARK 927      BINDING AFFINITY PREDICTED BY RF-SCORE:    0.00 PKD
ROOT
HETATM    1  N   UNL     1     -12.506  10.043  71.691  1.00  0.00    -0.402 NA 
HETATM    2  C   UNL     1     -11.636  10.107  70.611  1.00  0.00    -0.343 A  
HETATM    3  H1  UNL     1     -13.171  10.784  71.912  1.00  0.00     0.000 HD 
HETATM    4  H2  UNL     1     -11.944   9.878  72.526  1.00  0.00     0.000 HD 
HETATM    5  C   UNL     1     -10.718   9.086  70.306  1.00  0.00    -0.230 A  
HETATM    6  N   UNL     1     -10.424   7.887  70.918  1.00  0.00    -0.202 NA 
HETATM    7  C   UNL     1      -9.494   7.343  70.160  1.00  0.00    -0.165 A  
HETATM    8  N   UNL     1      -9.147   8.150  69.109  1.00  0.00    -0.148 NA 
HETATM    9  C   UNL     1      -9.926   9.273  69.184  1.00  0.00    -0.179 A  
HETATM   10  N   UNL     1     -11.671  11.204  69.824  1.00  0.00    -0.312 NA 
HETATM   11  N   UNL     1      -9.931  10.331  68.357  1.00  0.00    -0.153 NA 
HETATM   12 CL   UNL     1     -10.934  12.655  67.805  1.00  0.00    -0.251 Cl 
HETATM   13  C   UNL     1     -10.840  11.241  68.765  1.00  0.00    -0.208 A  
ENDROOT
BRANCH   8  14
HETATM   14  C1* UNL     1      -8.181   7.866  68.064  1.00  0.00    -0.127 C  
HETATM   15  C2* UNL     1      -6.782   8.391  68.350  1.00  0.00    -0.064 C  
HETATM   16  C4* UNL     1      -6.681   6.148  67.536  1.00  0.00    -0.058 C  
HETATM   17  C3* UNL     1      -5.935   7.484  67.495  1.00  0.00    -0.043 C  
HETATM   18  O3* UNL     1      -5.943   7.989  66.156  1.00  0.00    -0.040 OA 
HETATM   19  O4* UNL     1      -8.052   6.439  67.904  1.00  0.00    -0.113 OA 
HETATM   20  H3* UNL     1      -5.409   7.417  65.617  1.00  0.00     0.000 HD 
BRANCH  16  21
HETATM   21  C5* UNL     1      -6.112   5.168  68.564  1.00  0.00    -0.030 C  
HETATM   22  O5* UNL     1      -5.835   3.901  67.974  1.00  0.00    -0.024 OA 
HETATM   23  H5* UNL     1      -5.483   3.294  68.612  1.00  0.00     0.000 HD 
ENDBRANCH  16  21
ENDBRANCH   8  14
TORSDOF 2
ENDMDL
MODEL      223
REMARK 921   NORMALIZED FREE ENERGY PREDICTED BY IDOCK:   -2.73 KCAL/MOL
REMARK 922        TOTAL FREE ENERGY PREDICTED BY IDOCK:   -3.39 KCAL/MOL
REMARK 923 INTER-LIGAND FREE ENERGY PREDICTED BY IDOCK:   -3.42 KCAL/MOL
REMARK 924 INTRA-LIGAND FREE ENERGY PREDICTED BY IDOCK:    0.03 KCAL/MOL
REMARK 927      BINDING AFFINITY PREDICTED BY RF-SCORE:    0.00 PKD
ROOT
HETATM    1  N   UNL     1     -11.021   7.968  67.486  1.00  0.00    -0.506 NA 
HETATM    2  C   UNL     1     -10.527   6.994  68.342  1.00  0.00    -0.201 A  
HETATM    3  H1  UNL     1     -10.715   8.063  66.518  1.00  0.00     0.000 HD 
HETATM    4  H2  UNL     1     -10.885   8.871  67.939  1.00  0.00     0.000 HD 
HETATM    5  C   UNL     1     -10.949   6.863  69.678  1.00  0.00    -0.259 A  
HETATM    6  N   UNL     1     -11.841   7.580  70.445  1.00  0.00    -0.111 NA 
HETATM    7  C   UNL     1     -11.844   6.971  71.613  1.00  0.00    -0.313 A  
HETATM    8  N   UNL     1     -10.969   5.918  71.649  1.00  0.00    -0.267 NA 
HETATM    9  C   UNL     1     -10.387   5.831  70.412  1.00  0.00    -0.244 A  
HETATM   10  N   UNL     1      -9.593   6.140  67.871  1.00  0.00    -0.118 NA 
HETATM   11  N   UNL     1      -9.472   4.943  69.992  1.00  0.00    -0.150 NA 
HETATM   12 CL   UNL     1      -7.962   4.132  68.049  1.00  0.00    -0.085 Cl 
HETATM   13  C   UNL     1      -9.141   5.185  68.706  1.00  0.00    -0.114 A  
ENDROOT
BRANCH   8  14
HETATM   14  C1* UNL     1     -10.727   5.013  72.756  1.00  0.00    -0.236 C  
HETATM   15  C2* UNL     1     -10.375   3.594  72.334  1.00  0.00    -0.170 C  
HETATM   16  C4* UNL     1      -8.898   4.343  74.057  1.00  0.00    -0.103 C  
HETATM   17  C3* UNL     1      -9.619   3.096  73.540  1.00  0.00    -0.099 C  
HETATM   18  O3* UNL     1     -10.569   2.660  74.519  1.00  0.00    -0.156 OA 
HETATM   19  O4* UNL     1      -9.610   5.492  73.534  1.00  0.00    -0.138 OA 
HETATM   20  H3* UNL     1     -10.093   2.347  75.279  1.00  0.00     0.000 HD 
BRANCH  16  21
HETATM   21  C5* UNL     1      -7.443   4.437  73.592  1.00  0.00    -0.077 C  
HETATM   22  O5* UNL     1      -7.362   4.607  72.179  1.00  0.00    -0.074 OA 
HETATM   23  H5* UNL     1      -6.460   4.665  71.891  1.00  0.00     0.000 HD 
ENDBRANCH  16  21
ENDBRANCH   8  14
TORSDOF 2
ENDMDL
MODEL      224
REMARK 921   NORMALIZED FREE ENERGY PREDICTED BY IDOCK:   -2.71 KCAL/MOL
REMARK 922        TOTAL FREE ENERGY PREDICTED BY IDOCK:   -3.37 KCAL/MOL
REMARK 923 INTER-LIGAND FREE ENERGY PREDICTED BY IDOCK:   -3.01 KCAL/MOL
REMARK 924 INTRA-LIGAND FREE ENERGY PREDICTED BY IDOCK:   -0.37 KCAL/MOL
REMARK 927      BINDING AFFINITY PREDICTED BY RF-SCORE:    0.00 PKD
ROOT
HETATM    1  N   UNL     1     -10.129  13.532  65.546  1.00  0.00    -0.394 NA 
HETATM    2  C   UNL     1     -10.130  12.794  66.720  1.00  0.00    -0.236 A  
HETATM    3  H1  UNL     1     -10.655  14.399  65.433  1.00  0.00     0.000 HD 
HETATM    4  H2  UNL     1     -10.409  12.905  64.791  1.00  0.00     0.000 HD 
HETATM    5  C   UNL     1      -9.405  11.599  66.875  1.00  0.00    -0.188 A  
HETATM    6  N   UNL     1      -8.602  10.881  66.015  1.00  0.00    -0.175 NA 
HETATM    7  C   UNL     1      -8.172   9.861  66.729  1.00  0.00    -0.124 A  
HETATM    8  N   UNL     1      -8.688   9.866  67.998  1.00  0.00    -0.125 NA 
HETATM    9  C   UNL     1      -9.480  10.977  68.111  1.00  0.00    -0.172 A  
HETATM   10  N   UNL     1     -10.869  13.242  67.758  1.00  0.00    -0.247 NA 
HETATM   11  N   UNL     1     -10.180  11.386  69.181  1.00  0.00    -0.123 NA 
HETATM   12 CL   UNL     1     -11.793  13.151  70.180  1.00  0.00    -0.365 Cl 
HETATM   13  C   UNL     1     -10.841  12.529  68.901  1.00  0.00    -0.196 A  
ENDROOT
BRANCH   8  14
HETATM   14  C1* UNL     1      -8.417   8.917  69.061  1.00  0.00    -0.133 C  
HETATM   15  C2* UNL     1      -8.824   7.487  68.738  1.00  0.00    -0.131 C  
HETATM   16  C4* UNL     1      -6.644   7.534  69.715  1.00  0.00    -0.039 C  
HETATM   17  C3* UNL     1      -7.926   6.699  69.657  1.00  0.00    -0.124 C  
HETATM   18  O3* UNL     1      -8.527   6.666  70.956  1.00  0.00    -0.127 OA 
HETATM   19  O4* UNL     1      -6.999   8.883  69.326  1.00  0.00    -0.056 OA 
HETATM   20  H3* UNL     1      -7.961   6.169  71.535  1.00  0.00     0.000 HD 
BRANCH  16  21
HETATM   21  C5* UNL     1      -5.555   7.037  68.761  1.00  0.00    -0.018 C  
HETATM   22  O5* UNL     1      -5.600   7.734  67.519  1.00  0.00    -0.034 OA 
HETATM   23  H5* UNL     1      -4.925   7.426  66.927  1.00  0.00     0.000 HD 
ENDBRANCH  16  21
ENDBRANCH   8  14
TORSDOF 2
ENDMDL
MODEL      225
REMARK 921   NORMALIZED FREE ENERGY PREDICTED BY IDOCK:   -2.71 KCAL/MOL
REMARK 922        TOTAL FREE ENERGY PREDICTED BY IDOCK:   -3.37 KCAL/MOL
REMARK 923 INTER-LIGAND FREE ENERGY PREDICTED BY IDOCK:   -3.08 KCAL/MOL
REMARK 924 INTRA-LIGAND FREE ENERGY PREDICTED BY IDOCK:   -0.28 KCAL/MOL
REMARK 927      BINDING AFFINITY PREDICTED BY RF-SCORE:    0.00 PKD
ROOT
HETATM    1  N   UNL     1     -10.444   7.642  66.397  1.00  0.00    -0.407 NA 
HETATM    2  C   UNL     1      -9.937   6.678  67.257  1.00  0.00    -0.154 A  
HETATM    3  H1  UNL     1     -10.747   7.433  65.446  1.00  0.00     0.000 HD 
HETATM    4  H2  UNL     1      -9.755   8.392  66.340  1.00  0.00     0.000 HD 
HETATM    5  C   UNL     1      -9.517   6.966  68.569  1.00  0.00    -0.133 A  
HETATM    6  N   UNL     1      -9.465   8.139  69.291  1.00  0.00    -0.158 NA 
HETATM    7  C   UNL     1      -9.008   7.784  70.474  1.00  0.00    -0.150 A  
HETATM    8  N   UNL     1      -8.729   6.444  70.539  1.00  0.00    -0.142 NA 
HETATM    9  C   UNL     1      -9.053   5.902  69.325  1.00  0.00    -0.123 A  
HETATM   10  N   UNL     1      -9.836   5.408  66.809  1.00  0.00    -0.154 NA 
HETATM   11  N   UNL     1      -8.949   4.620  68.940  1.00  0.00    -0.102 NA 
HETATM   12 CL   UNL     1      -9.266   2.888  67.038  1.00  0.00    -0.193 Cl 
HETATM   13  C   UNL     1      -9.366   4.479  67.664  1.00  0.00    -0.147 A  
ENDROOT
BRANCH   8  14
HETATM   14  C1* UNL     1      -8.236   5.703  71.685  1.00  0.00    -0.119 C  
HETATM   15  C2* UNL     1      -7.885   6.571  72.884  1.00  0.00    -0.101 C  
HETATM   16  C4* UNL     1      -9.146   4.664  73.576  1.00  0.00    -0.113 C  
HETATM   17  C3* UNL     1      -8.009   5.588  74.020  1.00  0.00    -0.107 C  
HETATM   18  O3* UNL     1      -6.794   4.836  74.101  1.00  0.00    -0.067 OA 
HETATM   19  O4* UNL     1      -9.252   4.784  72.136  1.00  0.00    -0.126 OA 
HETATM   20  H3* UNL     1      -6.872   4.216  74.817  1.00  0.00     0.000 HD 
BRANCH  16  21
HETATM   21  C5* UNL     1     -10.500   5.036  74.183  1.00  0.00    -0.288 C  
HETATM   22  O5* UNL     1     -11.575   4.513  73.407  1.00  0.00    -0.300 OA 
HETATM   23  H5* UNL     1     -12.416   4.744  73.783  1.00  0.00     0.000 HD 
ENDBRANCH  16  21
ENDBRANCH   8  14
TORSDOF 2
ENDMDL
MODEL      226
REMARK 921   NORMALIZED FREE ENERGY PREDICTED BY IDOCK:   -2.68 KCAL/MOL
REMARK 922        TOTAL FREE ENERGY PREDICTED BY IDOCK:   -3.33 KCAL/MOL
REMARK 923 INTER-LIGAND FREE ENERGY PREDICTED BY IDOCK:   -3.04 KCAL/MOL
REMARK 924 INTRA-LIGAND FREE ENERGY PREDICTED BY IDOCK:   -0.30 KCAL/MOL
REMARK 927      BINDING AFFINITY PREDICTED BY RF-SCORE:    0.00 PKD
ROOT
HETATM    1  N   UNL     1     -11.007   8.534  66.701  1.00  0.00    -0.011 NA 
HETATM    2  C   UNL     1      -9.908   9.368  66.552  1.00  0.00    -0.258 A  
HETATM    3  H1  UNL     1     -10.963   7.526  66.553  1.00  0.00     0.000 HD 
HETATM    4  H2  UNL     1     -11.749   8.898  66.102  1.00  0.00     0.000 HD 
HETATM    5  C   UNL     1      -9.969  10.759  66.755  1.00  0.00    -0.206 A  
HETATM    6  N   UNL     1     -11.003  11.604  67.092  1.00  0.00    -0.264 NA 
HETATM    7  C   UNL     1     -10.451  12.797  67.166  1.00  0.00    -0.233 A  
HETATM    8  N   UNL     1      -9.116  12.769  66.857  1.00  0.00    -0.219 NA 
HETATM    9  C   UNL     1      -8.788  11.466  66.595  1.00  0.00    -0.183 A  
HETATM   10  N   UNL     1      -8.730   8.817  66.189  1.00  0.00    -0.150 NA 
HETATM   11  N   UNL     1      -7.587  10.970  66.255  1.00  0.00    -0.137 NA 
HETATM   12 CL   UNL     1      -6.201   8.876  65.616  1.00  0.00    -0.052 Cl 
HETATM   13  C   UNL     1      -7.666   9.635  66.074  1.00  0.00    -0.102 A  
ENDROOT
BRANCH   8  14
HETATM   14  C1* UNL     1      -8.189  13.884  66.859  1.00  0.00     0.066 C  
HETATM   15  C2* UNL     1      -8.846  15.240  67.073  1.00  0.00    -0.261 C  
HETATM   16  C4* UNL     1      -6.892  15.035  68.433  1.00  0.00    -0.110 C  
HETATM   17  C3* UNL     1      -7.700  16.051  67.621  1.00  0.00    -0.145 C  
HETATM   18  O3* UNL     1      -6.908  16.513  66.522  1.00  0.00    -0.192 OA 
HETATM   19  O4* UNL     1      -7.241  13.720  67.934  1.00  0.00    -0.118 OA 
HETATM   20  H3* UNL     1      -6.185  17.025  66.867  1.00  0.00     0.000 HD 
BRANCH  16  21
HETATM   21  C5* UNL     1      -7.205  15.072  69.930  1.00  0.00    -0.088 C  
HETATM   22  O5* UNL     1      -6.831  13.852  70.566  1.00  0.00    -0.373 OA 
HETATM   23  H5* UNL     1      -7.025  13.875  71.495  1.00  0.00     0.000 HD 
ENDBRANCH  16  21
ENDBRANCH   8  14
TORSDOF 2
ENDMDL
MODEL      227
REMARK 921   NORMALIZED FREE ENERGY PREDICTED BY IDOCK:   -2.63 KCAL/MOL
REMARK 922        TOTAL FREE ENERGY PREDICTED BY IDOCK:   -3.28 KCAL/MOL
REMARK 923 INTER-LIGAND FREE ENERGY PREDICTED BY IDOCK:   -2.84 KCAL/MOL
REMARK 924 INTRA-LIGAND FREE ENERGY PREDICTED BY IDOCK:   -0.44 KCAL/MOL
REMARK 927      BINDING AFFINITY PREDICTED BY RF-SCORE:    0.00 PKD
ROOT
HETATM    1  N   UNL     1      -9.252   3.515  65.000  1.00  0.00    -0.143 NA 
HETATM    2  C   UNL     1      -8.998   4.793  65.477  1.00  0.00    -0.146 A  
HETATM    3  H1  UNL     1      -9.085   3.240  64.032  1.00  0.00     0.000 HD 
HETATM    4  H2  UNL     1     -10.225   3.297  65.216  1.00  0.00     0.000 HD 
HETATM    5  C   UNL     1      -9.229   5.172  66.812  1.00  0.00    -0.123 A  
HETATM    6  N   UNL     1      -9.734   4.490  67.898  1.00  0.00    -0.156 NA 
HETATM    7  C   UNL     1      -9.689   5.356  68.889  1.00  0.00    -0.151 A  
HETATM    8  N   UNL     1      -9.212   6.576  68.487  1.00  0.00    -0.127 NA 
HETATM    9  C   UNL     1      -8.908   6.476  67.156  1.00  0.00    -0.110 A  
HETATM   10  N   UNL     1      -8.514   5.714  64.617  1.00  0.00    -0.120 NA 
HETATM   11  N   UNL     1      -8.408   7.426  66.350  1.00  0.00    -0.121 NA 
HETATM   12 CL   UNL     1      -7.632   8.064  63.962  1.00  0.00    -0.116 Cl 
HETATM   13  C   UNL     1      -8.248   6.943  65.100  1.00  0.00    -0.115 A  
ENDROOT
BRANCH   8  14
HETATM   14  C1* UNL     1      -9.004   7.753  69.309  1.00  0.00    -0.139 C  
HETATM   15  C2* UNL     1      -7.610   8.352  69.198  1.00  0.00    -0.087 C  
HETATM   16  C4* UNL     1      -9.267  10.070  69.087  1.00  0.00    -0.190 C  
HETATM   17  C3* UNL     1      -7.857   9.781  69.610  1.00  0.00    -0.142 C  
HETATM   18  O3* UNL     1      -7.862   9.844  71.040  1.00  0.00    -0.341 OA 
HETATM   19  O4* UNL     1      -9.922   8.790  68.906  1.00  0.00    -0.180 OA 
HETATM   20  H3* UNL     1      -8.018  10.744  71.300  1.00  0.00     0.000 HD 
BRANCH  16  21
HETATM   21  C5* UNL     1      -9.275  10.800  67.743  1.00  0.00    -0.152 C  
HETATM   22  O5* UNL     1      -9.826   9.982  66.714  1.00  0.00    -0.180 OA 
HETATM   23  H5* UNL     1      -9.831  10.435  65.880  1.00  0.00     0.000 HD 
ENDBRANCH  16  21
ENDBRANCH   8  14
TORSDOF 2
ENDMDL
MODEL      228
REMARK 921   NORMALIZED FREE ENERGY PREDICTED BY IDOCK:   -2.61 KCAL/MOL
REMARK 922        TOTAL FREE ENERGY PREDICTED BY IDOCK:   -3.26 KCAL/MOL
REMARK 923 INTER-LIGAND FREE ENERGY PREDICTED BY IDOCK:   -2.95 KCAL/MOL
REMARK 924 INTRA-LIGAND FREE ENERGY PREDICTED BY IDOCK:   -0.32 KCAL/MOL
REMARK 927      BINDING AFFINITY PREDICTED BY RF-SCORE:    0.00 PKD
ROOT
HETATM    1  N   UNL     1     -10.008   5.882  71.679  1.00  0.00    -0.172 NA 
HETATM    2  C   UNL     1      -9.260   6.366  70.615  1.00  0.00    -0.158 A  
HETATM    3  H1  UNL     1      -9.670   5.156  72.310  1.00  0.00     0.000 HD 
HETATM    4  H2  UNL     1     -10.904   5.568  71.304  1.00  0.00     0.000 HD 
HETATM    5  C   UNL     1      -9.726   7.367  69.743  1.00  0.00    -0.170 A  
HETATM    6  N   UNL     1     -10.916   8.059  69.674  1.00  0.00    -0.164 NA 
HETATM    7  C   UNL     1     -10.763   8.890  68.664  1.00  0.00    -0.078 A  
HETATM    8  N   UNL     1      -9.545   8.743  68.055  1.00  0.00    -0.140 NA 
HETATM    9  C   UNL     1      -8.864   7.771  68.737  1.00  0.00    -0.134 A  
HETATM   10  N   UNL     1      -8.032   5.845  70.405  1.00  0.00    -0.104 NA 
HETATM   11  N   UNL     1      -7.629   7.303  68.493  1.00  0.00    -0.115 NA 
HETATM   12 CL   UNL     1      -5.759   5.643  69.173  1.00  0.00    -0.014 Cl 
HETATM   13  C   UNL     1      -7.307   6.342  69.384  1.00  0.00    -0.091 A  
ENDROOT
BRANCH   8  14
HETATM   14  C1* UNL     1      -9.026   9.501  66.932  1.00  0.00    -0.131 C  
HETATM   15  C2* UNL     1     -10.084  10.275  66.161  1.00  0.00    -0.307 C  
HETATM   16  C4* UNL     1      -8.173  11.651  66.563  1.00  0.00    -0.101 C  
HETATM   17  C3* UNL     1      -9.262  11.367  65.525  1.00  0.00    -0.177 C  
HETATM   18  O3* UNL     1      -8.657  10.843  64.338  1.00  0.00    -0.348 OA 
HETATM   19  O4* UNL     1      -8.079  10.479  67.410  1.00  0.00    -0.110 OA 
HETATM   20  H3* UNL     1      -8.139  11.531  63.937  1.00  0.00     0.000 HD 
BRANCH  16  21
HETATM   21  C5* UNL     1      -8.485  12.855  67.453  1.00  0.00    -0.196 C  
HETATM   22  O5* UNL     1      -9.678  13.512  67.034  1.00  0.00    -0.236 OA 
HETATM   23  H5* UNL     1      -9.871  14.260  67.586  1.00  0.00     0.000 HD 
ENDBRANCH  16  21
ENDBRANCH   8  14
TORSDOF 2
ENDMDL
MODEL      229
REMARK 921   NORMALIZED FREE ENERGY PREDICTED BY IDOCK:   -2.61 KCAL/MOL
REMARK 922        TOTAL FREE ENERGY PREDICTED BY IDOCK:   -3.26 KCAL/MOL
REMARK 923 INTER-LIGAND FREE ENERGY PREDICTED BY IDOCK:   -3.30 KCAL/MOL
REMARK 924 INTRA-LIGAND FREE ENERGY PREDICTED BY IDOCK:    0.05 KCAL/MOL
REMARK 927      BINDING AFFINITY PREDICTED BY RF-SCORE:    0.00 PKD
ROOT
HETATM    1  N   UNL     1      -6.438   3.107  67.429  1.00  0.00    -0.036 NA 
HETATM    2  C   UNL     1      -7.426   4.060  67.630  1.00  0.00    -0.068 A  
HETATM    3  H1  UNL     1      -6.505   2.378  66.719  1.00  0.00     0.000 HD 
HETATM    4  H2  UNL     1      -6.272   2.647  68.325  1.00  0.00     0.000 HD 
HETATM    5  C   UNL     1      -7.334   5.066  68.610  1.00  0.00    -0.062 A  
HETATM    6  N   UNL     1      -6.376   5.354  69.557  1.00  0.00    -0.029 NA 
HETATM    7  C   UNL     1      -6.825   6.429  70.171  1.00  0.00    -0.057 A  
HETATM    8  N   UNL     1      -8.044   6.828  69.690  1.00  0.00    -0.124 NA 
HETATM    9  C   UNL     1      -8.385   5.965  68.683  1.00  0.00    -0.109 A  
HETATM   10  N   UNL     1      -8.529   4.014  66.851  1.00  0.00    -0.100 NA 
HETATM   11  N   UNL     1      -9.493   5.979  67.925  1.00  0.00    -0.112 NA 
HETATM   12 CL   UNL     1     -10.838   4.850  66.020  1.00  0.00    -0.281 Cl 
HETATM   13  C   UNL     1      -9.468   4.961  67.039  1.00  0.00    -0.148 A  
ENDROOT
BRANCH   8  14
HETATM   14  C1* UNL     1      -8.822   7.978  70.110  1.00  0.00    -0.143 C  
HETATM   15  C2* UNL     1      -9.675   8.588  69.008  1.00  0.00    -0.170 C  
HETATM   16  C4* UNL     1     -10.942   8.375  71.022  1.00  0.00    -0.246 C  
HETATM   17  C3* UNL     1     -10.751   9.282  69.804  1.00  0.00    -0.231 C  
HETATM   18  O3* UNL     1     -10.248  10.551  70.234  1.00  0.00    -0.415 OA 
HETATM   19  O4* UNL     1      -9.734   7.586  71.156  1.00  0.00    -0.164 OA 
HETATM   20  H3* UNL     1     -10.926  10.988  70.736  1.00  0.00     0.000 HD 
BRANCH  16  21
HETATM   21  C5* UNL     1     -12.122   7.412  70.882  1.00  0.00    -0.257 C  
HETATM   22  O5* UNL     1     -11.856   6.407  69.907  1.00  0.00    -0.552 OA 
HETATM   23  H5* UNL     1     -12.589   5.810  69.819  1.00  0.00     0.000 HD 
ENDBRANCH  16  21
ENDBRANCH   8  14
TORSDOF 2
ENDMDL
MODEL      230
REMARK 921   NORMALIZED FREE ENERGY PREDICTED BY IDOCK:   -2.50 KCAL/MOL
REMARK 922        TOTAL FREE ENERGY PREDICTED BY IDOCK:   -3.13 KCAL/MOL
REMARK 923 INTER-LIGAND FREE ENERGY PREDICTED BY IDOCK:   -2.83 KCAL/MOL
REMARK 924 INTRA-LIGAND FREE ENERGY PREDICTED BY IDOCK:   -0.30 KCAL/MOL
REMARK 927      BINDING AFFINITY PREDICTED BY RF-SCORE:    0.00 PKD
ROOT
HETATM    1  N   UNL     1      -6.141  15.495  70.120  1.00  0.00    -0.148 NA 
HETATM    2  C   UNL     1      -7.081  14.768  69.403  1.00  0.00    -0.170 A  
HETATM    3  H1  UNL     1      -6.308  16.446  70.449  1.00  0.00     0.000 HD 
HETATM    4  H2  UNL     1      -5.282  15.508  69.571  1.00  0.00     0.000 HD 
HETATM    5  C   UNL     1      -6.852  13.457  68.949  1.00  0.00    -0.111 A  
HETATM    6  N   UNL     1      -5.762  12.618  69.043  1.00  0.00    -0.069 NA 
HETATM    7  C   UNL     1      -6.145  11.504  68.454  1.00  0.00    -0.045 A  
HETATM    8  N   UNL     1      -7.416  11.595  67.952  1.00  0.00    -0.099 NA 
HETATM    9  C   UNL     1      -7.888  12.842  68.265  1.00  0.00    -0.141 A  
HETATM   10  N   UNL     1      -8.267  15.352  69.124  1.00  0.00    -0.226 NA 
HETATM   11  N   UNL     1      -9.090  13.365  67.976  1.00  0.00    -0.198 NA 
HETATM   12 CL   UNL     1     -10.661  15.420  68.132  1.00  0.00    -0.263 Cl 
HETATM   13  C   UNL     1      -9.179  14.626  68.450  1.00  0.00    -0.197 A  
ENDROOT
BRANCH   8  14
HETATM   14  C1* UNL     1      -8.168  10.561  67.267  1.00  0.00    -0.119 C  
HETATM   15  C2* UNL     1      -8.351  10.808  65.777  1.00  0.00    -0.158 C  
HETATM   16  C4* UNL     1      -7.703   8.543  66.173  1.00  0.00    -0.093 C  
HETATM   17  C3* UNL     1      -8.575   9.409  65.261  1.00  0.00    -0.162 C  
HETATM   18  O3* UNL     1      -9.951   9.069  65.461  1.00  0.00    -0.437 OA 
HETATM   19  O4* UNL     1      -7.471   9.303  67.385  1.00  0.00    -0.087 OA 
HETATM   20  H3* UNL     1     -10.092   8.188  65.136  1.00  0.00     0.000 HD 
BRANCH  16  21
HETATM   21  C5* UNL     1      -6.343   8.199  65.562  1.00  0.00    -0.048 C  
HETATM   22  O5* UNL     1      -6.447   7.987  64.157  1.00  0.00    -0.060 OA 
HETATM   23  H5* UNL     1      -5.604   7.773  63.778  1.00  0.00     0.000 HD 
ENDBRANCH  16  21
ENDBRANCH   8  14
TORSDOF 2
ENDMDL
MODEL      231
REMARK 921   NORMALIZED FREE ENERGY PREDICTED BY IDOCK:   -2.48 KCAL/MOL
REMARK 922        TOTAL FREE ENERGY PREDICTED BY IDOCK:   -3.11 KCAL/MOL
REMARK 923 INTER-LIGAND FREE ENERGY PREDICTED BY IDOCK:   -2.84 KCAL/MOL
REMARK 924 INTRA-LIGAND FREE ENERGY PREDICTED BY IDOCK:   -0.27 KCAL/MOL
REMARK 927      BINDING AFFINITY PREDICTED BY RF-SCORE:    0.00 PKD
ROOT
HETATM    1  N   UNL     1      -6.945   2.263  67.377  1.00  0.00    -0.043 NA 
HETATM    2  C   UNL     1      -7.731   3.347  67.015  1.00  0.00    -0.079 A  
HETATM    3  H1  UNL     1      -6.658   1.540  66.717  1.00  0.00     0.000 HD 
HETATM    4  H2  UNL     1      -7.409   1.797  68.157  1.00  0.00     0.000 HD 
HETATM    5  C   UNL     1      -8.128   4.344  67.925  1.00  0.00    -0.094 A  
HETATM    6  N   UNL     1      -7.907   4.511  69.275  1.00  0.00    -0.062 NA 
HETATM    7  C   UNL     1      -8.502   5.647  69.574  1.00  0.00    -0.110 A  
HETATM    8  N   UNL     1      -9.127   6.205  68.490  1.00  0.00    -0.118 NA 
HETATM    9  C   UNL     1      -8.894   5.383  67.420  1.00  0.00    -0.105 A  
HETATM   10  N   UNL     1      -8.139   3.443  65.731  1.00  0.00    -0.092 NA 
HETATM   11  N   UNL     1      -9.311   5.539  66.153  1.00  0.00    -0.157 NA 
HETATM   12 CL   UNL     1      -9.361   4.580  63.746  1.00  0.00    -0.098 Cl 
HETATM   13  C   UNL     1      -8.880   4.514  65.388  1.00  0.00    -0.137 A  
ENDROOT
BRANCH   8  14
HETATM   14  C1* UNL     1      -9.855   7.458  68.442  1.00  0.00    -0.158 C  
HETATM   15  C2* UNL     1     -10.108   8.083  69.806  1.00  0.00    -0.196 C  
HETATM   16  C4* UNL     1      -9.341   9.735  68.261  1.00  0.00    -0.129 C  
HETATM   17  C3* UNL     1     -10.287   9.536  69.448  1.00  0.00    -0.214 C  
HETATM   18  O3* UNL     1     -11.637   9.731  69.013  1.00  0.00    -0.468 OA 
HETATM   19  O4* UNL     1      -9.097   8.427  67.689  1.00  0.00    -0.134 OA 
HETATM   20  H3* UNL     1     -11.750  10.647  68.787  1.00  0.00     0.000 HD 
BRANCH  16  21
HETATM   21  C5* UNL     1      -7.991  10.337  68.657  1.00  0.00    -0.111 C  
HETATM   22  O5* UNL     1      -7.931  10.593  70.058  1.00  0.00    -0.337 OA 
HETATM   23  H5* UNL     1      -7.094  10.967  70.304  1.00  0.00     0.000 HD 
ENDBRANCH  16  21
ENDBRANCH   8  14
TORSDOF 2
ENDMDL
MODEL      232
REMARK 921   NORMALIZED FREE ENERGY PREDICTED BY IDOCK:   -2.20 KCAL/MOL
REMARK 922        TOTAL FREE ENERGY PREDICTED BY IDOCK:   -2.81 KCAL/MOL
REMARK 923 INTER-LIGAND FREE ENERGY PREDICTED BY IDOCK:   -2.66 KCAL/MOL
REMARK 924 INTRA-LIGAND FREE ENERGY PREDICTED BY IDOCK:   -0.14 KCAL/MOL
REMARK 927      BINDING AFFINITY PREDICTED BY RF-SCORE:    0.00 PKD
ROOT
HETATM    1  N   UNL     1      -9.544  17.485  65.264  1.00  0.00     0.355 NA 
HETATM    2  C   UNL     1     -10.008  16.301  65.819  1.00  0.00    -0.323 A  
HETATM    3  H1  UNL     1      -9.553  17.669  64.261  1.00  0.00     0.000 HD 
HETATM    4  H2  UNL     1      -8.588  17.621  65.591  1.00  0.00     0.000 HD 
HETATM    5  C   UNL     1      -9.996  16.046  67.202  1.00  0.00    -0.249 A  
HETATM    6  N   UNL     1      -9.555  16.785  68.279  1.00  0.00    -0.237 NA 
HETATM    7  C   UNL     1      -9.830  16.041  69.330  1.00  0.00    -0.254 A  
HETATM    8  N   UNL     1     -10.394  14.842  68.982  1.00  0.00    -0.240 NA 
HETATM    9  C   UNL     1     -10.511  14.829  67.618  1.00  0.00    -0.254 A  
HETATM   10  N   UNL     1     -10.485  15.348  64.989  1.00  0.00    -0.408 NA 
HETATM   11  N   UNL     1     -11.015  13.855  66.843  1.00  0.00    -0.293 NA 
HETATM   12 CL   UNL     1     -11.550  13.048  64.440  1.00  0.00    -0.391 Cl 
HETATM   13  C   UNL     1     -10.956  14.214  65.543  1.00  0.00    -0.310 A  
ENDROOT
BRANCH   8  14
HETATM   14  C1* UNL     1     -10.844  13.790  69.874  1.00  0.00     0.327 C  
HETATM   15  C2* UNL     1     -12.327  13.469  69.759  1.00  0.00    -0.249 C  
HETATM   16  C4* UNL     1     -11.040  11.457  69.813  1.00  0.00    -0.126 C  
HETATM   17  C3* UNL     1     -12.373  12.052  70.272  1.00  0.00    -0.195 C  
HETATM   18  O3* UNL     1     -12.406  12.092  71.703  1.00  0.00    -0.047 OA 
HETATM   19  O4* UNL     1     -10.142  12.567  69.569  1.00  0.00     0.536 OA 
HETATM   20  H3* UNL     1     -12.435  11.199  72.026  1.00  0.00     0.000 HD 
BRANCH  16  21
HETATM   21  C5* UNL     1     -11.153  10.645  68.521  1.00  0.00    -0.263 C  
HETATM   22  O5* UNL     1     -12.499  10.598  68.057  1.00  0.00    -0.043 OA 
HETATM   23  H5* UNL     1     -12.569  10.094  67.255  1.00  0.00     0.000 HD 
ENDBRANCH  16  21
ENDBRANCH   8  14
TORSDOF 2
ENDMDL
MODEL      233
REMARK 921   NORMALIZED FREE ENERGY PREDICTED BY IDOCK:   -2.16 KCAL/MOL
REMARK 922        TOTAL FREE ENERGY PREDICTED BY IDOCK:   -2.75 KCAL/MOL
REMARK 923 INTER-LIGAND FREE ENERGY PREDICTED BY IDOCK:   -2.33 KCAL/MOL
REMARK 924 INTRA-LIGAND FREE ENERGY PREDICTED BY IDOCK:   -0.42 KCAL/MOL
REMARK 927      BINDING AFFINITY PREDICTED BY RF-SCORE:    0.00 PKD
ROOT
HETATM    1  N   UNL     1     -13.762  13.433  71.029  1.00  0.00     0.268 NA 
HETATM    2  C   UNL     1     -12.988  12.282  70.973  1.00  0.00    -0.064 A  
HETATM    3  H1  UNL     1     -14.624  13.496  71.569  1.00  0.00     0.000 HD 
HETATM    4  H2  UNL     1     -13.982  13.699  70.069  1.00  0.00     0.000 HD 
HETATM    5  C   UNL     1     -11.799  12.194  70.227  1.00  0.00    -0.254 A  
HETATM    6  N   UNL     1     -11.143  13.093  69.415  1.00  0.00    -0.142 NA 
HETATM    7  C   UNL     1     -10.064  12.454  69.010  1.00  0.00     0.158 A  
HETATM    8  N   UNL     1     -10.010  11.173  69.493  1.00  0.00     0.077 NA 
HETATM    9  C   UNL     1     -11.115  10.989  70.280  1.00  0.00    -0.003 A  
HETATM   10  N   UNL     1     -13.404  11.196  71.661  1.00  0.00    -0.305 NA 
HETATM   11  N   UNL     1     -11.470   9.887  70.960  1.00  0.00    -0.363 NA 
HETATM   12 CL   UNL     1     -13.207   8.755  72.513  1.00  0.00    -0.432 Cl 
HETATM   13  C   UNL     1     -12.630  10.095  71.618  1.00  0.00    -0.434 A  
ENDROOT
BRANCH   8  14
HETATM   14  C1* UNL     1      -8.963  10.194  69.275  1.00  0.00    -0.183 C  
HETATM   15  C2* UNL     1      -9.019   9.514  67.915  1.00  0.00    -0.125 C  
HETATM   16  C4* UNL     1      -6.781  10.178  68.424  1.00  0.00    -0.054 C  
HETATM   17  C3* UNL     1      -7.588   9.075  67.734  1.00  0.00    -0.093 C  
HETATM   18  O3* UNL     1      -7.402   7.843  68.438  1.00  0.00    -0.096 OA 
HETATM   19  O4* UNL     1      -7.676  10.843  69.349  1.00  0.00    -0.134 OA 
HETATM   20  H3* UNL     1      -6.500   7.566  68.323  1.00  0.00     0.000 HD 
BRANCH  16  21
HETATM   21  C5* UNL     1      -6.238  11.228  67.453  1.00  0.00    -0.071 C  
HETATM   22  O5* UNL     1      -6.520  12.548  67.910  1.00  0.00    -0.079 OA 
HETATM   23  H5* UNL     1      -6.183  13.200  67.307  1.00  0.00     0.000 HD 
ENDBRANCH  16  21
ENDBRANCH   8  14
TORSDOF 2
ENDMDL
MODEL      234
REMARK 921   NORMALIZED FREE ENERGY PREDICTED BY IDOCK:   -2.09 KCAL/MOL
REMARK 922        TOTAL FREE ENERGY PREDICTED BY IDOCK:   -2.68 KCAL/MOL
REMARK 923 INTER-LIGAND FREE ENERGY PREDICTED BY IDOCK:   -3.19 KCAL/MOL
REMARK 924 INTRA-LIGAND FREE ENERGY PREDICTED BY IDOCK:    0.51 KCAL/MOL
REMARK 927      BINDING AFFINITY PREDICTED BY RF-SCORE:    0.00 PKD
ROOT
HETATM    1  N   UNL     1      -6.705   4.124  67.723  1.00  0.00    -0.049 NA 
HETATM    2  C   UNL     1      -7.714   5.062  67.554  1.00  0.00    -0.091 A  
HETATM    3  H1  UNL     1      -6.754   3.181  67.339  1.00  0.00     0.000 HD 
HETATM    4  H2  UNL     1      -6.535   4.037  68.726  1.00  0.00     0.000 HD 
HETATM    5  C   UNL     1      -7.647   6.363  68.085  1.00  0.00    -0.103 A  
HETATM    6  N   UNL     1      -6.700   7.006  68.852  1.00  0.00    -0.058 NA 
HETATM    7  C   UNL     1      -7.174   8.223  69.019  1.00  0.00    -0.073 A  
HETATM    8  N   UNL     1      -8.398   8.387  68.427  1.00  0.00    -0.130 NA 
HETATM    9  C   UNL     1      -8.717   7.203  67.818  1.00  0.00    -0.125 A  
HETATM   10  N   UNL     1      -8.811   4.704  66.853  1.00  0.00    -0.110 NA 
HETATM   11  N   UNL     1      -9.821   6.908  67.114  1.00  0.00    -0.154 NA 
HETATM   12 CL   UNL     1     -11.133   5.119  65.775  1.00  0.00     0.011 Cl 
HETATM   13  C   UNL     1      -9.770   5.632  66.675  1.00  0.00    -0.158 A  
ENDROOT
BRANCH   8  14
HETATM   14  C1* UNL     1      -9.202   9.594  68.386  1.00  0.00    -0.133 C  
HETATM   15  C2* UNL     1     -10.545   9.426  67.692  1.00  0.00    -0.333 C  
HETATM   16  C4* UNL     1     -10.809  10.631  69.737  1.00  0.00    -0.261 C  
HETATM   17  C3* UNL     1     -11.349  10.542  68.308  1.00  0.00    -0.264 C  
HETATM   18  O3* UNL     1     -11.045  11.755  67.612  1.00  0.00    -0.221 OA 
HETATM   19  O4* UNL     1      -9.494  10.022  69.733  1.00  0.00    -0.220 OA 
HETATM   20  H3* UNL     1     -11.552  12.458  68.000  1.00  0.00     0.000 HD 
BRANCH  16  21
HETATM   21  C5* UNL     1     -11.672   9.886  70.758  1.00  0.00    -0.341 C  
HETATM   22  O5* UNL     1     -12.589  10.767  71.400  1.00  0.00    -0.376 OA 
HETATM   23  H5* UNL     1     -13.124  10.305  72.034  1.00  0.00     0.000 HD 
ENDBRANCH  16  21
ENDBRANCH   8  14
TORSDOF 2
ENDMDL
MODEL      235
REMARK 921   NORMALIZED FREE ENERGY PREDICTED BY IDOCK:   -1.89 KCAL/MOL
REMARK 922        TOTAL FREE ENERGY PREDICTED BY IDOCK:   -2.46 KCAL/MOL
REMARK 923 INTER-LIGAND FREE ENERGY PREDICTED BY IDOCK:   -2.28 KCAL/MOL
REMARK 924 INTRA-LIGAND FREE ENERGY PREDICTED BY IDOCK:   -0.18 KCAL/MOL
REMARK 927      BINDING AFFINITY PREDICTED BY RF-SCORE:    0.00 PKD
ROOT
HETATM    1  N   UNL     1      -5.203  11.657  68.761  1.00  0.00    -0.046 NA 
HETATM    2  C   UNL     1      -6.564  11.912  68.677  1.00  0.00    -0.066 A  
HETATM    3  H1  UNL     1      -4.814  10.714  68.764  1.00  0.00     0.000 HD 
HETATM    4  H2  UNL     1      -4.854  12.133  69.593  1.00  0.00     0.000 HD 
HETATM    5  C   UNL     1      -7.101  13.213  68.673  1.00  0.00    -0.103 A  
HETATM    6  N   UNL     1      -6.519  14.458  68.766  1.00  0.00    -0.083 NA 
HETATM    7  C   UNL     1      -7.524  15.305  68.679  1.00  0.00    -0.126 A  
HETATM    8  N   UNL     1      -8.730  14.666  68.570  1.00  0.00    -0.172 NA 
HETATM    9  C   UNL     1      -8.478  13.320  68.561  1.00  0.00    -0.067 A  
HETATM   10  N   UNL     1      -7.410  10.862  68.603  1.00  0.00    -0.093 NA 
HETATM   11  N   UNL     1      -9.363  12.315  68.465  1.00  0.00    -0.150 NA 
HETATM   12 CL   UNL     1      -9.746   9.753  68.401  1.00  0.00    -0.157 Cl 
HETATM   13  C   UNL     1      -8.727  11.125  68.496  1.00  0.00    -0.161 A  
ENDROOT
BRANCH   8  14
HETATM   14  C1* UNL     1     -10.039  15.275  68.430  1.00  0.00    -0.220 C  
HETATM   15  C2* UNL     1     -10.306  16.408  69.409  1.00  0.00    -0.290 C  
HETATM   16  C4* UNL     1     -10.992  17.030  67.207  1.00  0.00    -0.015 C  
HETATM   17  C3* UNL     1     -11.365  17.197  68.682  1.00  0.00     0.292 C  
HETATM   18  O3* UNL     1     -12.634  16.577  68.921  1.00  0.00     0.099 OA 
HETATM   19  O4* UNL     1     -10.166  15.844  67.110  1.00  0.00    -0.266 OA 
HETATM   20  H3* UNL     1     -13.301  17.074  68.463  1.00  0.00     0.000 HD 
BRANCH  16  21
HETATM   21  C5* UNL     1     -10.194  18.209  66.647  1.00  0.00    -0.381 C  
HETATM   22  O5* UNL     1      -9.217  18.661  67.581  1.00  0.00    -0.278 OA 
HETATM   23  H5* UNL     1      -8.722  19.393  67.235  1.00  0.00     0.000 HD 
ENDBRANCH  16  21
ENDBRANCH   8  14
TORSDOF 2
ENDMDL
MODEL      236
REMARK 921   NORMALIZED FREE ENERGY PREDICTED BY IDOCK:   -1.80 KCAL/MOL
REMARK 922        TOTAL FREE ENERGY PREDICTED BY IDOCK:   -2.35 KCAL/MOL
REMARK 923 INTER-LIGAND FREE ENERGY PREDICTED BY IDOCK:   -2.21 KCAL/MOL
REMARK 924 INTRA-LIGAND FREE ENERGY PREDICTED BY IDOCK:   -0.14 KCAL/MOL
REMARK 927      BINDING AFFINITY PREDICTED BY RF-SCORE:    0.00 PKD
ROOT
HETATM    1  N   UNL     1      -6.546   1.606  68.282  1.00  0.00    -0.028 NA 
HETATM    2  C   UNL     1      -7.073   2.868  68.516  1.00  0.00    -0.049 A  
HETATM    3  H1  UNL     1      -6.068   1.356  67.416  1.00  0.00     0.000 HD 
HETATM    4  H2  UNL     1      -7.299   0.931  68.421  1.00  0.00     0.000 HD 
HETATM    5  C   UNL     1      -7.733   3.214  69.709  1.00  0.00    -0.043 A  
HETATM    6  N   UNL     1      -8.040   2.493  70.843  1.00  0.00    -0.049 NA 
HETATM    7  C   UNL     1      -8.641   3.356  71.636  1.00  0.00    -0.080 A  
HETATM    8  N   UNL     1      -8.770   4.590  71.054  1.00  0.00    -0.111 NA 
HETATM    9  C   UNL     1      -8.189   4.518  69.817  1.00  0.00    -0.063 A  
HETATM   10  N   UNL     1      -6.950   3.804  67.550  1.00  0.00    -0.054 NA 
HETATM   11  N   UNL     1      -8.079   5.492  68.899  1.00  0.00    -0.095 NA 
HETATM   12 CL   UNL     1      -7.252   6.173  66.540  1.00  0.00    -0.072 Cl 
HETATM   13  C   UNL     1      -7.443   5.032  67.801  1.00  0.00    -0.079 A  
ENDROOT
BRANCH   8  14
HETATM   14  C1* UNL     1      -9.355   5.781  71.639  1.00  0.00    -0.146 C  
HETATM   15  C2* UNL     1      -8.412   6.973  71.699  1.00  0.00    -0.115 C  
HETATM   16  C4* UNL     1     -10.556   7.647  70.890  1.00  0.00    -0.213 C  
HETATM   17  C3* UNL     1      -9.381   8.127  71.744  1.00  0.00    -0.181 C  
HETATM   18  O3* UNL     1      -9.818   8.297  73.097  1.00  0.00    -0.253 OA 
HETATM   19  O4* UNL     1     -10.485   6.201  70.846  1.00  0.00    -0.210 OA 
HETATM   20  H3* UNL     1     -10.428   9.024  73.125  1.00  0.00     0.000 HD 
BRANCH  16  21
HETATM   21  C5* UNL     1     -10.511   8.167  69.452  1.00  0.00    -0.220 C  
HETATM   22  O5* UNL     1      -9.412   9.053  69.257  1.00  0.00    -0.154 OA 
HETATM   23  H5* UNL     1      -9.385   9.376  68.365  1.00  0.00     0.000 HD 
ENDBRANCH  16  21
ENDBRANCH   8  14
TORSDOF 2
ENDMDL
MODEL      237
REMARK 921   NORMALIZED FREE ENERGY PREDICTED BY IDOCK:   -1.64 KCAL/MOL
REMARK 922        TOTAL FREE ENERGY PREDICTED BY IDOCK:   -2.18 KCAL/MOL
REMARK 923 INTER-LIGAND FREE ENERGY PREDICTED BY IDOCK:   -2.05 KCAL/MOL
REMARK 924 INTRA-LIGAND FREE ENERGY PREDICTED BY IDOCK:   -0.13 KCAL/MOL
REMARK 927      BINDING AFFINITY PREDICTED BY RF-SCORE:    0.00 PKD
ROOT
HETATM    1  N   UNL     1     -10.091   9.101  66.362  1.00  0.00    -0.289 NA 
HETATM    2  C   UNL     1      -9.442   7.884  66.519  1.00  0.00    -0.214 A  
HETATM    3  H1  UNL     1     -10.033   9.655  65.507  1.00  0.00     0.000 HD 
HETATM    4  H2  UNL     1      -9.804   9.701  67.135  1.00  0.00     0.000 HD 
HETATM    5  C   UNL     1      -9.522   7.120  67.697  1.00  0.00    -0.126 A  
HETATM    6  N   UNL     1     -10.159   7.331  68.900  1.00  0.00    -0.175 NA 
HETATM    7  C   UNL     1      -9.896   6.255  69.613  1.00  0.00    -0.163 A  
HETATM    8  N   UNL     1      -9.089   5.375  68.941  1.00  0.00    -0.116 NA 
HETATM    9  C   UNL     1      -8.841   5.913  67.706  1.00  0.00    -0.109 A  
HETATM   10  N   UNL     1      -8.696   7.418  65.494  1.00  0.00    -0.082 NA 
HETATM   11  N   UNL     1      -8.102   5.393  66.714  1.00  0.00    -0.105 NA 
HETATM   12 CL   UNL     1      -7.166   5.687  64.316  1.00  0.00    -0.053 Cl 
HETATM   13  C   UNL     1      -8.093   6.224  65.650  1.00  0.00    -0.129 A  
ENDROOT
BRANCH   8  14
HETATM   14  C1* UNL     1      -8.619   4.084  69.404  1.00  0.00    -0.077 C  
HETATM   15  C2* UNL     1      -7.111   3.904  69.321  1.00  0.00    -0.046 C  
HETATM   16  C4* UNL     1      -7.928   3.136  71.431  1.00  0.00    -0.059 C  
HETATM   17  C3* UNL     1      -6.873   2.839  70.362  1.00  0.00    -0.033 C  
HETATM   18  O3* UNL     1      -7.143   1.563  69.773  1.00  0.00    -0.033 OA 
HETATM   19  O4* UNL     1      -8.970   3.914  70.793  1.00  0.00    -0.080 OA 
HETATM   20  H3* UNL     1      -6.993   0.893  70.429  1.00  0.00     0.000 HD 
BRANCH  16  21
HETATM   21  C5* UNL     1      -7.384   3.948  72.609  1.00  0.00    -0.063 C  
HETATM   22  O5* UNL     1      -8.302   4.965  73.002  1.00  0.00    -0.101 OA 
HETATM   23  H5* UNL     1      -7.964   5.469  73.732  1.00  0.00     0.000 HD 
ENDBRANCH  16  21
ENDBRANCH   8  14
TORSDOF 2
ENDMDL
MODEL      238
REMARK 921   NORMALIZED FREE ENERGY PREDICTED BY IDOCK:   -1.53 KCAL/MOL
REMARK 922        TOTAL FREE ENERGY PREDICTED BY IDOCK:   -2.05 KCAL/MOL
REMARK 923 INTER-LIGAND FREE ENERGY PREDICTED BY IDOCK:   -2.22 KCAL/MOL
REMARK 924 INTRA-LIGAND FREE ENERGY PREDICTED BY IDOCK:    0.18 KCAL/MOL
REMARK 927      BINDING AFFINITY PREDICTED BY RF-SCORE:    0.00 PKD
ROOT
HETATM    1  N   UNL     1     -10.665   7.446  66.515  1.00  0.00    -0.385 NA 
HETATM    2  C   UNL     1      -9.798   6.910  67.457  1.00  0.00    -0.138 A  
HETATM    3  H1  UNL     1     -10.920   6.960  65.655  1.00  0.00     0.000 HD 
HETATM    4  H2  UNL     1     -10.301   8.362  66.251  1.00  0.00     0.000 HD 
HETATM    5  C   UNL     1      -9.445   7.580  68.642  1.00  0.00    -0.146 A  
HETATM    6  N   UNL     1      -9.787   8.816  69.148  1.00  0.00    -0.176 NA 
HETATM    7  C   UNL     1      -9.172   8.884  70.310  1.00  0.00    -0.185 A  
HETATM    8  N   UNL     1      -8.420   7.767  70.564  1.00  0.00    -0.126 NA 
HETATM    9  C   UNL     1      -8.587   6.917  69.504  1.00  0.00    -0.134 A  
HETATM   10  N   UNL     1      -9.264   5.693  67.218  1.00  0.00    -0.110 NA 
HETATM   11  N   UNL     1      -8.042   5.702  69.328  1.00  0.00    -0.095 NA 
HETATM   12 CL   UNL     1      -7.804   3.628  67.793  1.00  0.00    -0.076 Cl 
HETATM   13  C   UNL     1      -8.444   5.174  68.152  1.00  0.00    -0.099 A  
ENDROOT
BRANCH   8  14
HETATM   14  C1* UNL     1      -7.633   7.487  71.749  1.00  0.00    -0.084 C  
HETATM   15  C2* UNL     1      -8.439   6.940  72.917  1.00  0.00    -0.127 C  
HETATM   16  C4* UNL     1      -6.433   5.676  72.624  1.00  0.00    -0.065 C  
HETATM   17  C3* UNL     1      -7.381   6.207  73.702  1.00  0.00    -0.088 C  
HETATM   18  O3* UNL     1      -6.685   7.156  74.517  1.00  0.00    -0.089 OA 
HETATM   19  O4* UNL     1      -6.639   6.488  71.442  1.00  0.00    -0.051 OA 
HETATM   20  H3* UNL     1      -6.019   6.694  75.012  1.00  0.00     0.000 HD 
BRANCH  16  21
HETATM   21  C5* UNL     1      -6.701   4.217  72.248  1.00  0.00    -0.041 C  
HETATM   22  O5* UNL     1      -5.561   3.625  71.631  1.00  0.00    -0.007 OA 
HETATM   23  H5* UNL     1      -5.727   2.720  71.397  1.00  0.00     0.000 HD 
ENDBRANCH  16  21
ENDBRANCH   8  14
TORSDOF 2
ENDMDL
MODEL      239
REMARK 921   NORMALIZED FREE ENERGY PREDICTED BY IDOCK:   -1.50 KCAL/MOL
REMARK 922        TOTAL FREE ENERGY PREDICTED BY IDOCK:   -2.02 KCAL/MOL
REMARK 923 INTER-LIGAND FREE ENERGY PREDICTED BY IDOCK:   -1.67 KCAL/MOL
REMARK 924 INTRA-LIGAND FREE ENERGY PREDICTED BY IDOCK:   -0.34 KCAL/MOL
REMARK 927      BINDING AFFINITY PREDICTED BY RF-SCORE:    0.00 PKD
ROOT
HETATM    1  N   UNL     1      -7.574  15.662  66.374  1.00  0.00    -0.170 NA 
HETATM    2  C   UNL     1      -8.352  14.516  66.298  1.00  0.00     0.712 A  
HETATM    3  H1  UNL     1      -7.895  16.575  66.050  1.00  0.00     0.000 HD 
HETATM    4  H2  UNL     1      -6.691  15.464  65.902  1.00  0.00     0.000 HD 
HETATM    5  C   UNL     1      -7.909  13.258  66.745  1.00  0.00     0.411 A  
HETATM    6  N   UNL     1      -6.720  12.834  67.295  1.00  0.00    -0.133 NA 
HETATM    7  C   UNL     1      -6.901  11.552  67.537  1.00  0.00    -0.098 A  
HETATM    8  N   UNL     1      -8.138  11.120  67.137  1.00  0.00    -0.132 NA 
HETATM    9  C   UNL     1      -8.801  12.204  66.628  1.00  0.00    -0.182 A  
HETATM   10  N   UNL     1      -9.588  14.616  65.763  1.00  0.00    -0.281 NA 
HETATM   11  N   UNL     1     -10.045  12.248  66.124  1.00  0.00    -0.239 NA 
HETATM   12 CL   UNL     1     -11.899  13.692  65.034  1.00  0.00    -0.357 Cl 
HETATM   13  C   UNL     1     -10.342  13.501  65.719  1.00  0.00    -0.292 A  
ENDROOT
BRANCH   8  14
HETATM   14  C1* UNL     1      -8.688   9.785  67.268  1.00  0.00    -0.132 C  
HETATM   15  C2* UNL     1      -8.506   8.912  66.036  1.00  0.00    -0.138 C  
HETATM   16  C4* UNL     1      -7.949   7.690  68.012  1.00  0.00    -0.122 C  
HETATM   17  C3* UNL     1      -8.582   7.527  66.628  1.00  0.00    -0.130 C  
HETATM   18  O3* UNL     1      -9.962   7.176  66.778  1.00  0.00    -0.204 OA 
HETATM   19  O4* UNL     1      -8.028   9.097  68.351  1.00  0.00    -0.101 OA 
HETATM   20  H3* UNL     1     -10.010   6.303  67.151  1.00  0.00     0.000 HD 
BRANCH  16  21
HETATM   21  C5* UNL     1      -6.478   7.274  68.058  1.00  0.00    -0.045 C  
HETATM   22  O5* UNL     1      -6.315   5.910  67.675  1.00  0.00    -0.038 OA 
HETATM   23  H5* UNL     1      -5.402   5.652  67.704  1.00  0.00     0.000 HD 
ENDBRANCH  16  21
ENDBRANCH   8  14
TORSDOF 2
ENDMDL
MODEL      240
REMARK 921   NORMALIZED FREE ENERGY PREDICTED BY IDOCK:   -0.69 KCAL/MOL
REMARK 922        TOTAL FREE ENERGY PREDICTED BY IDOCK:   -1.11 KCAL/MOL
REMARK 923 INTER-LIGAND FREE ENERGY PREDICTED BY IDOCK:   -1.49 KCAL/MOL
REMARK 924 INTRA-LIGAND FREE ENERGY PREDICTED BY IDOCK:    0.38 KCAL/MOL
REMARK 927      BINDING AFFINITY PREDICTED BY RF-SCORE:    0.00 PKD
ROOT
HETATM    1  N   UNL     1      -6.278  14.521  72.023  1.00  0.00     0.129 NA 
HETATM    2  C   UNL     1      -6.571  15.407  70.997  1.00  0.00     0.844 A  
HETATM    3  H1  UNL     1      -5.670  14.760  72.806  1.00  0.00     0.000 HD 
HETATM    4  H2  UNL     1      -5.906  13.672  71.596  1.00  0.00     0.000 HD 
HETATM    5  C   UNL     1      -7.410  15.078  69.916  1.00  0.00    -0.060 A  
HETATM    6  N   UNL     1      -8.081  13.922  69.580  1.00  0.00     0.510 NA 
HETATM    7  C   UNL     1      -8.727  14.220  68.471  1.00  0.00    -0.175 A  
HETATM    8  N   UNL     1      -8.476  15.501  68.056  1.00  0.00    -0.142 NA 
HETATM    9  C   UNL     1      -7.634  16.069  68.974  1.00  0.00    -0.209 A  
HETATM   10  N   UNL     1      -6.021  16.640  71.037  1.00  0.00     0.571 NA 
HETATM   11  N   UNL     1      -7.130  17.313  68.973  1.00  0.00    -0.242 NA 
HETATM   12 CL   UNL     1      -5.609  19.044  70.157  1.00  0.00    -0.247 Cl 
HETATM   13  C   UNL     1      -6.335  17.498  70.048  1.00  0.00     0.081 A  
ENDROOT
BRANCH   8  14
HETATM   14  C1* UNL     1      -9.031  16.174  66.897  1.00  0.00    -0.223 C  
HETATM   15  C2* UNL     1     -10.475  16.621  67.068  1.00  0.00    -0.283 C  
HETATM   16  C4* UNL     1      -9.172  18.369  66.092  1.00  0.00    -0.120 C  
HETATM   17  C3* UNL     1     -10.569  17.743  66.066  1.00  0.00    -0.229 C  
HETATM   18  O3* UNL     1     -10.808  17.176  64.774  1.00  0.00    -0.834 OA 
HETATM   19  O4* UNL     1      -8.269  17.369  66.624  1.00  0.00    -0.223 OA 
HETATM   20  H3* UNL     1     -10.867  17.883  64.142  1.00  0.00     0.000 HD 
BRANCH  16  21
HETATM   21  C5* UNL     1      -9.082  19.610  66.983  1.00  0.00    -0.326 C  
HETATM   22  O5* UNL     1      -8.566  19.284  68.271  1.00  0.00    -0.314 OA 
HETATM   23  H5* UNL     1      -8.511  20.054  68.824  1.00  0.00     0.000 HD 
ENDBRANCH  16  21
ENDBRANCH   8  14
TORSDOF 2
ENDMDL
MODEL      241
REMARK 921   NORMALIZED FREE ENERGY PREDICTED BY IDOCK:   -0.59 KCAL/MOL
REMARK 922        TOTAL FREE ENERGY PREDICTED BY IDOCK:   -1.00 KCAL/MOL
REMARK 923 INTER-LIGAND FREE ENERGY PREDICTED BY IDOCK:   -0.53 KCAL/MOL
REMARK 924 INTRA-LIGAND FREE ENERGY PREDICTED BY IDOCK:   -0.47 KCAL/MOL
REMARK 927      BINDING AFFINITY PREDICTED BY RF-SCORE:    0.00 PKD
ROOT
HETATM    1  N   UNL     1      -8.989   4.064  68.963  1.00  0.00    -0.105 NA 
HETATM    2  C   UNL     1      -8.992   5.439  68.776  1.00  0.00    -0.117 A  
HETATM    3  H1  UNL     1      -9.828   3.491  68.882  1.00  0.00     0.000 HD 
HETATM    4  H2  UNL     1      -8.583   3.883  69.881  1.00  0.00     0.000 HD 
HETATM    5  C   UNL     1      -7.834   6.230  68.888  1.00  0.00    -0.105 A  
HETATM    6  N   UNL     1      -6.527   5.926  69.202  1.00  0.00    -0.040 NA 
HETATM    7  C   UNL     1      -5.888   7.074  69.124  1.00  0.00    -0.019 A  
HETATM    8  N   UNL     1      -6.725   8.112  68.811  1.00  0.00    -0.056 NA 
HETATM    9  C   UNL     1      -7.980   7.588  68.652  1.00  0.00    -0.123 A  
HETATM   10  N   UNL     1     -10.163   6.043  68.479  1.00  0.00    -0.167 NA 
HETATM   11  N   UNL     1      -9.111   8.238  68.335  1.00  0.00    -0.136 NA 
HETATM   12 CL   UNL     1     -11.660   8.079  67.897  1.00  0.00     1.272 Cl 
HETATM   13  C   UNL     1     -10.146   7.374  68.274  1.00  0.00    -0.177 A  
ENDROOT
BRANCH   8  14
HETATM   14  C1* UNL     1      -6.366   9.505  68.620  1.00  0.00    -0.048 C  
HETATM   15  C2* UNL     1      -6.643  10.033  67.220  1.00  0.00    -0.069 C  
HETATM   16  C4* UNL     1      -7.401  11.592  68.865  1.00  0.00    -0.116 C  
HETATM   17  C3* UNL     1      -6.770  11.514  67.472  1.00  0.00    -0.087 C  
HETATM   18  O3* UNL     1      -5.455  12.078  67.517  1.00  0.00    -0.077 OA 
HETATM   19  O4* UNL     1      -7.136  10.327  69.521  1.00  0.00    -0.078 OA 
HETATM   20  H3* UNL     1      -5.535  13.011  67.676  1.00  0.00     0.000 HD 
BRANCH  16  21
HETATM   21  C5* UNL     1      -8.916  11.800  68.831  1.00  0.00     0.130 C  
HETATM   22  O5* UNL     1      -9.596  10.758  69.526  1.00  0.00    -0.413 OA 
HETATM   23  H5* UNL     1     -10.536  10.886  69.505  1.00  0.00     0.000 HD 
ENDBRANCH  16  21
ENDBRANCH   8  14
TORSDOF 2
ENDMDL
MODEL      242
REMARK 921   NORMALIZED FREE ENERGY PREDICTED BY IDOCK:   -0.01 KCAL/MOL
REMARK 922        TOTAL FREE ENERGY PREDICTED BY IDOCK:   -0.36 KCAL/MOL
REMARK 923 INTER-LIGAND FREE ENERGY PREDICTED BY IDOCK:   -0.33 KCAL/MOL
REMARK 924 INTRA-LIGAND FREE ENERGY PREDICTED BY IDOCK:   -0.02 KCAL/MOL
REMARK 927      BINDING AFFINITY PREDICTED BY RF-SCORE:    0.00 PKD
ROOT
HETATM    1  N   UNL     1     -12.004  10.835  65.383  1.00  0.00     1.426 NA 
HETATM    2  C   UNL     1     -11.185  11.305  66.399  1.00  0.00    -0.121 A  
HETATM    3  H1  UNL     1     -12.432   9.909  65.398  1.00  0.00     0.000 HD 
HETATM    4  H2  UNL     1     -11.484  10.917  64.509  1.00  0.00     0.000 HD 
HETATM    5  C   UNL     1     -10.595  12.582  66.378  1.00  0.00    -0.247 A  
HETATM    6  N   UNL     1     -10.626  13.605  65.456  1.00  0.00    -0.287 NA 
HETATM    7  C   UNL     1      -9.907  14.567  65.996  1.00  0.00    -0.318 A  
HETATM    8  N   UNL     1      -9.383  14.201  67.208  1.00  0.00    -0.216 NA 
HETATM    9  C   UNL     1      -9.818  12.930  67.472  1.00  0.00    -0.208 A  
HETATM   10  N   UNL     1     -10.939  10.495  67.451  1.00  0.00    -0.301 NA 
HETATM   11  N   UNL     1      -9.555  12.175  68.550  1.00  0.00    -0.175 NA 
HETATM   12 CL   UNL     1      -9.892   9.902  69.748  1.00  0.00    -0.250 Cl 
HETATM   13  C   UNL     1     -10.163  10.974  68.442  1.00  0.00    -0.185 A  
ENDROOT
BRANCH   8  14
HETATM   14  C1* UNL     1      -8.566  15.009  68.093  1.00  0.00    -0.156 C  
HETATM   15  C2* UNL     1      -7.168  14.457  68.328  1.00  0.00    -0.122 C  
HETATM   16  C4* UNL     1      -7.076  16.804  67.890  1.00  0.00    -0.141 C  
HETATM   17  C3* UNL     1      -6.410  15.701  68.717  1.00  0.00    -0.104 C  
HETATM   18  O3* UNL     1      -6.637  15.952  70.108  1.00  0.00    -0.079 OA 
HETATM   19  O4* UNL     1      -8.392  16.322  67.521  1.00  0.00    -0.154 OA 
HETATM   20  H3* UNL     1      -6.160  16.735  70.353  1.00  0.00     0.000 HD 
BRANCH  16  21
HETATM   21  C5* UNL     1      -6.317  17.139  66.605  1.00  0.00    -0.219 C  
HETATM   22  O5* UNL     1      -5.848  15.958  65.959  1.00  0.00     1.520 OA 
HETATM   23  H5* UNL     1      -5.377  16.166  65.162  1.00  0.00     0.000 HD 
ENDBRANCH  16  21
ENDBRANCH   8  14
TORSDOF 2
ENDMDL
MODEL      243
REMARK 921   NORMALIZED FREE ENERGY PREDICTED BY IDOCK:    3.95 KCAL/MOL
REMARK 922        TOTAL FREE ENERGY PREDICTED BY IDOCK:    4.06 KCAL/MOL
REMARK 923 INTER-LIGAND FREE ENERGY PREDICTED BY IDOCK:    4.47 KCAL/MOL
REMARK 924 INTRA-LIGAND FREE ENERGY PREDICTED BY IDOCK:   -0.40 KCAL/MOL
REMARK 927      BINDING AFFINITY PREDICTED BY RF-SCORE:    0.00 PKD
ROOT
HETATM    1  N   UNL     1     -14.049  13.220  69.478  1.00  0.00     4.735 NA 
HETATM    2  C   UNL     1     -12.879  12.501  69.676  1.00  0.00     0.881 A  
HETATM    3  H1  UNL     1     -14.958  12.908  69.822  1.00  0.00     0.000 HD 
HETATM    4  H2  UNL     1     -14.142  13.382  68.475  1.00  0.00     0.000 HD 
HETATM    5  C   UNL     1     -11.626  12.930  69.202  1.00  0.00    -0.322 A  
HETATM    6  N   UNL     1     -11.237  14.033  68.473  1.00  0.00    -0.251 NA 
HETATM    7  C   UNL     1      -9.931  13.911  68.353  1.00  0.00    -0.233 A  
HETATM    8  N   UNL     1      -9.463  12.765  68.938  1.00  0.00     0.155 NA 
HETATM    9  C   UNL     1     -10.538  12.123  69.492  1.00  0.00     0.335 A  
HETATM   10  N   UNL     1     -12.951  11.332  70.349  1.00  0.00    -0.024 NA 
HETATM   11  N   UNL     1     -10.547  10.965  70.171  1.00  0.00     0.077 NA 
HETATM   12 CL   UNL     1     -11.960   9.187  71.418  1.00  0.00    -0.384 Cl 
HETATM   13  C   UNL     1     -11.804  10.657  70.556  1.00  0.00    -0.357 A  
ENDROOT
BRANCH   8  14
HETATM   14  C1* UNL     1      -8.085  12.319  69.021  1.00  0.00     0.282 C  
HETATM   15  C2* UNL     1      -7.462  11.968  67.678  1.00  0.00    -0.132 C  
HETATM   16  C4* UNL     1      -5.959  13.300  68.972  1.00  0.00    -0.083 C  
HETATM   17  C3* UNL     1      -5.993  12.146  67.967  1.00  0.00    -0.062 C  
HETATM   18  O3* UNL     1      -5.510  10.955  68.599  1.00  0.00    -0.041 OA 
HETATM   19  O4* UNL     1      -7.272  13.372  69.580  1.00  0.00     0.112 OA 
HETATM   20  H3* UNL     1      -4.584  11.068  68.781  1.00  0.00     0.000 HD 
BRANCH  16  21
HETATM   21  C5* UNL     1      -5.662  14.655  68.326  1.00  0.00    -0.117 C  
HETATM   22  O5* UNL     1      -6.514  15.672  68.845  1.00  0.00    -0.107 OA 
HETATM   23  H5* UNL     1      -6.330  16.513  68.444  1.00  0.00     0.000 HD 
ENDBRANCH  16  21
ENDBRANCH   8  14
TORSDOF 2
ENDMDL
MODEL      244
REMARK 921   NORMALIZED FREE ENERGY PREDICTED BY IDOCK:    9.01 KCAL/MOL
REMARK 922        TOTAL FREE ENERGY PREDICTED BY IDOCK:    9.73 KCAL/MOL
REMARK 923 INTER-LIGAND FREE ENERGY PREDICTED BY IDOCK:   10.10 KCAL/MOL
REMARK 924 INTRA-LIGAND FREE ENERGY PREDICTED BY IDOCK:   -0.37 KCAL/MOL
REMARK 927      BINDING AFFINITY PREDICTED BY RF-SCORE:    0.00 PKD
ROOT
HETATM    1  N   UNL     1     -13.506   9.597  70.285  1.00  0.00    -0.149 NA 
HETATM    2  C   UNL     1     -12.593  10.607  70.557  1.00  0.00    -0.348 A  
HETATM    3  H1  UNL     1     -14.364   9.465  70.821  1.00  0.00     0.000 HD 
HETATM    4  H2  UNL     1     -12.996   8.714  70.302  1.00  0.00     0.000 HD 
HETATM    5  C   UNL     1     -11.410  10.789  69.819  1.00  0.00    -0.300 A  
HETATM    6  N   UNL     1     -10.858  10.098  68.762  1.00  0.00    -0.217 NA 
HETATM    7  C   UNL     1      -9.752  10.752  68.474  1.00  0.00    -0.182 A  
HETATM    8  N   UNL     1      -9.544  11.811  69.318  1.00  0.00     0.325 NA 
HETATM    9  C   UNL     1     -10.601  11.853  70.186  1.00  0.00     1.377 A  
HETATM   10  N   UNL     1     -12.853  11.447  71.582  1.00  0.00    -0.416 NA 
HETATM   11  N   UNL     1     -10.818  12.729  71.180  1.00  0.00     3.844 NA 
HETATM   12 CL   UNL     1     -12.360  13.471  73.126  1.00  0.00     0.846 Cl 
HETATM   13  C   UNL     1     -11.972  12.438  71.818  1.00  0.00     1.536 A  
ENDROOT
BRANCH   8  14
HETATM   14  C1* UNL     1      -8.449  12.761  69.282  1.00  0.00     0.895 C  
HETATM   15  C2* UNL     1      -7.102  12.147  68.933  1.00  0.00    -0.098 C  
HETATM   16  C4* UNL     1      -7.444  14.163  67.698  1.00  0.00    -0.178 C  
HETATM   17  C3* UNL     1      -6.355  13.337  68.388  1.00  0.00    -0.086 C  
HETATM   18  O3* UNL     1      -5.825  14.081  69.490  1.00  0.00    -0.088 OA 
HETATM   19  O4* UNL     1      -8.710  13.760  68.274  1.00  0.00    -0.172 OA 
HETATM   20  H3* UNL     1      -5.354  14.831  69.146  1.00  0.00     0.000 HD 
BRANCH  16  21
HETATM   21  C5* UNL     1      -7.515  13.929  66.188  1.00  0.00     3.240 C  
HETATM   22  O5* UNL     1      -8.388  12.847  65.873  1.00  0.00     0.268 OA 
HETATM   23  H5* UNL     1      -8.432  12.702  64.936  1.00  0.00     0.000 HD 
ENDBRANCH  16  21
ENDBRANCH   8  14
TORSDOF 2
ENDMDL
MODEL      245
REMARK 921   NORMALIZED FREE ENERGY PREDICTED BY IDOCK:   38.26 KCAL/MOL
REMARK 922        TOTAL FREE ENERGY PREDICTED BY IDOCK:   42.39 KCAL/MOL
REMARK 923 INTER-LIGAND FREE ENERGY PREDICTED BY IDOCK:   42.34 KCAL/MOL
REMARK 924 INTRA-LIGAND FREE ENERGY PREDICTED BY IDOCK:    0.05 KCAL/MOL
REMARK 927      BINDING AFFINITY PREDICTED BY RF-SCORE:    0.00 PKD
ROOT
HETATM    1  N   UNL     1     -11.951  18.441  70.991  1.00  0.00     6.855 NA 
HETATM    2  C   UNL     1     -11.632  17.409  70.120  1.00  0.00     2.363 A  
HETATM    3  H1  UNL     1     -12.235  18.284  71.958  1.00  0.00     0.000 HD 
HETATM    4  H2  UNL     1     -12.678  19.002  70.546  1.00  0.00     0.000 HD 
HETATM    5  C   UNL     1     -11.241  17.625  68.786  1.00  0.00     0.701 A  
HETATM    6  N   UNL     1     -11.100  18.771  68.033  1.00  0.00     0.058 NA 
HETATM    7  C   UNL     1     -10.679  18.350  66.858  1.00  0.00    -0.266 A  
HETATM    8  N   UNL     1     -10.576  16.985  66.804  1.00  0.00    -0.245 NA 
HETATM    9  C   UNL     1     -10.930  16.502  68.036  1.00  0.00    -0.320 A  
HETATM   10  N   UNL     1     -11.710  16.139  70.574  1.00  0.00    -0.316 NA 
HETATM   11  N   UNL     1     -10.971  15.223  68.439  1.00  0.00    -0.259 NA 
HETATM   12 CL   UNL     1     -11.487  13.564  70.362  1.00  0.00    -0.054 Cl 
HETATM   13  C   UNL     1     -11.373  15.149  69.726  1.00  0.00    -0.285 A  
ENDROOT
BRANCH   8  14
HETATM   14  C1* UNL     1     -10.124  16.181  65.686  1.00  0.00    -0.337 C  
HETATM   15  C2* UNL     1      -9.191  16.910  64.731  1.00  0.00     3.667 C  
HETATM   16  C4* UNL     1      -8.344  14.731  65.223  1.00  0.00     4.175 C  
HETATM   17  C3* UNL     1      -8.445  15.763  64.097  1.00  0.00    11.433 C  
HETATM   18  O3* UNL     1      -9.249  15.231  63.040  1.00  0.00    10.746 OA 
HETATM   19  O4* UNL     1      -9.388  15.042  66.178  1.00  0.00    -0.291 OA 
HETATM   20  H3* UNL     1      -8.779  14.508  62.641  1.00  0.00     0.000 HD 
BRANCH  16  21
HETATM   21  C5* UNL     1      -7.003  14.768  65.959  1.00  0.00     4.918 C  
HETATM   22  O5* UNL     1      -7.098  15.516  67.169  1.00  0.00    -0.201 OA 
HETATM   23  H5* UNL     1      -6.266  15.540  67.625  1.00  0.00     0.000 HD 
ENDBRANCH  16  21
ENDBRANCH   8  14
TORSDOF 2
ENDMDL
