MODEL        1
REMARK 921   NORMALIZED FREE ENERGY PREDICTED BY IDOCK:   -5.32 KCAL/MOL
REMARK 922        TOTAL FREE ENERGY PREDICTED BY IDOCK:  -10.19 KCAL/MOL
REMARK 923 INTER-LIGAND FREE ENERGY PREDICTED BY IDOCK:   -7.50 KCAL/MOL
REMARK 924 INTRA-LIGAND FREE ENERGY PREDICTED BY IDOCK:   -2.69 KCAL/MOL
REMARK 927      BINDING AFFINITY PREDICTED BY RF-SCORE:    0.00 PKD
ROOT
HETATM    1  C   UNL     1     -10.632   6.955  66.950  1.00  0.00    -0.302 C  
HETATM    2  O   UNL     1      -8.237   3.296  67.506  1.00  0.00    -0.080 OA 
HETATM    3  C   UNL     1      -9.793   6.310  65.763  1.00  0.00     0.373 C  
HETATM    4  C   UNL     1      -8.636   5.291  66.102  1.00  0.00    -0.120 C  
HETATM    5  C   UNL     1      -9.942   4.302  69.576  1.00  0.00    -0.127 C  
HETATM    6  C   UNL     1      -9.159   4.360  67.210  1.00  0.00    -0.132 C  
HETATM    7  C   UNL     1      -8.243   4.429  64.858  1.00  0.00    -0.104 C  
HETATM    8  O   UNL     1     -10.627   6.148  68.157  1.00  0.00    -0.206 OA 
HETATM    9  H   UNL     1      -8.560   2.722  68.189  1.00  0.00     0.000 HD 
HETATM   10  C   UNL     1      -9.544   5.229  68.415  1.00  0.00    -0.134 C  
ENDROOT
BRANCH   1  11
HETATM   11  O   UNL     1     -10.649   8.505  67.012  1.00  0.00    -0.306 OA 
BRANCH  11  12
HETATM   12  C   UNL     1      -9.868   9.250  65.987  1.00  0.00    -0.293 C  
HETATM   13  C   UNL     1     -11.482  11.482  66.558  1.00  0.00    -0.102 C  
HETATM   14  C   UNL     1      -7.903  11.080  65.147  1.00  0.00     0.294 C  
HETATM   15  C   UNL     1     -10.836  10.368  65.476  1.00  0.00     0.173 C  
HETATM   16  O   UNL     1      -6.722   8.748  67.691  1.00  0.00    -0.064 OA 
HETATM   17  C   UNL     1      -8.157   9.767  65.947  1.00  0.00    -0.114 C  
HETATM   18  C   UNL     1     -10.491  10.623  63.977  1.00  0.00    -0.150 C  
HETATM   19  C   UNL     1     -11.433  12.999  65.950  1.00  0.00    -0.337 C  
HETATM   20  O   UNL     1     -10.138  13.527  65.628  1.00  0.00    -0.291 OA 
HETATM   21  C   UNL     1     -12.241  12.949  64.614  1.00  0.00    -0.494 C  
HETATM   22  C   UNL     1      -7.080   9.770  67.094  1.00  0.00    -0.086 C  
HETATM   23  C   UNL     1     -12.105  13.930  66.967  1.00  0.00    -0.451 C  
HETATM   24  C   UNL     1     -10.117  14.678  64.760  1.00  0.00    -0.051 C  
HETATM   25  C   UNL     1     -11.417  15.134  67.675  1.00  0.00    -0.319 C  
HETATM   26  H   UNL     1      -5.042  13.048  67.271  1.00  0.00     0.000 HD 
HETATM   27  O   UNL     1      -6.422  11.002  67.348  1.00  0.00    -0.061 OA 
HETATM   28  C   UNL     1     -10.165  15.058  68.668  1.00  0.00    -0.231 C  
HETATM   29  C   UNL     1     -12.655  15.669  68.501  1.00  0.00     0.872 C  
HETATM   30  O   UNL     1      -5.690  13.696  67.523  1.00  0.00    -0.326 OA 
HETATM   31  C   UNL     1      -5.150  13.487  69.856  1.00  0.00    -0.083 C  
HETATM   32  O   UNL     1     -10.429  15.178  69.881  1.00  0.00    -0.255 OA 
HETATM   33  C   UNL     1      -8.596  15.162  68.326  1.00  0.00    -0.164 C  
HETATM   34  C   UNL     1      -8.096  15.347  66.922  1.00  0.00    -0.259 C  
HETATM   35  C   UNL     1      -6.478  11.619  68.712  1.00  0.00    -0.064 C  
HETATM   36  C   UNL     1      -7.429  14.444  69.228  1.00  0.00    -0.060 C  
HETATM   37  C   UNL     1      -6.271  13.289  68.778  1.00  0.00    -0.090 C  
HETATM   38  O   UNL     1      -7.739  14.451  70.629  1.00  0.00     0.453 OA 
HETATM   39  H   UNL     1      -7.063  14.035  71.151  1.00  0.00     0.000 HD 
BRANCH  13  40
HETATM   40  O   UNL     1     -11.086  11.220  67.940  1.00  0.00    -0.226 OA 
BRANCH  40  41
HETATM   41  C   UNL     1     -11.648  10.868  69.256  1.00  0.00    -0.318 C  
HETATM   42  C   UNL     1     -11.971   9.055  71.135  1.00  0.00    -0.298 C  
HETATM   43  C   UNL     1     -13.226  12.502  72.196  1.00  0.00    -0.508 C  
HETATM   44  O   UNL     1     -10.157   8.753  69.737  1.00  0.00    -0.186 OA 
HETATM   45  C   UNL     1     -12.427  10.163  72.059  1.00  0.00    -0.264 C  
HETATM   46  H   UNL     1      -9.742   8.116  70.308  1.00  0.00     0.000 HD 
HETATM   47  C   UNL     1     -12.932  11.379  71.218  1.00  0.00    -0.316 C  
HETATM   48  C   UNL     1     -10.943   9.790  70.225  1.00  0.00    -0.298 C  
HETATM   49  O   UNL     1     -12.051  11.907  70.172  1.00  0.00    -0.317 OA 
BRANCH  42  50
HETATM   50  N   UNL     1     -11.509   7.764  71.748  1.00  0.00    -0.257 NA 
HETATM   51  C   UNL     1     -10.835   7.805  73.044  1.00  0.00    -0.389 C  
HETATM   52  C   UNL     1     -12.495   6.684  71.732  1.00  0.00    -0.311 C  
ENDBRANCH  42  50
ENDBRANCH  40  41
ENDBRANCH  13  40
BRANCH  35  53
HETATM   53  C   UNL     1      -7.837  11.264  69.198  1.00  0.00    -0.020 C  
HETATM   54  C   UNL     1      -7.479  10.306  70.324  1.00  0.00     0.019 C  
ENDBRANCH  35  53
ENDBRANCH  11  12
ENDBRANCH   1  11
BRANCH   4  55
HETATM   55  O   UNL     1      -7.507   6.090  66.507  1.00  0.00    -0.086 OA 
HETATM   56  C   UNL     1      -6.267   5.903  65.836  1.00  0.00    -0.037 C  
ENDBRANCH   4  55
TORSDOF 7
ENDMDL
MODEL        2
REMARK 921   NORMALIZED FREE ENERGY PREDICTED BY IDOCK:   -4.32 KCAL/MOL
REMARK 922        TOTAL FREE ENERGY PREDICTED BY IDOCK:   -8.77 KCAL/MOL
REMARK 923 INTER-LIGAND FREE ENERGY PREDICTED BY IDOCK:   -8.82 KCAL/MOL
REMARK 924 INTRA-LIGAND FREE ENERGY PREDICTED BY IDOCK:    0.05 KCAL/MOL
REMARK 927      BINDING AFFINITY PREDICTED BY RF-SCORE:    0.00 PKD
ROOT
HETATM    1  C   UNL     1      -8.787  12.777  66.842  1.00  0.00    -0.194 C  
HETATM    2  O   UNL     1     -11.863  15.188  64.803  1.00  0.00    -0.362 OA 
HETATM    3  C   UNL     1      -9.482  12.292  65.495  1.00  0.00    -0.029 C  
HETATM    4  C   UNL     1     -10.846  12.949  65.052  1.00  0.00    -0.299 C  
HETATM    5  C   UNL     1     -10.441  16.185  67.081  1.00  0.00    -0.305 C  
HETATM    6  C   UNL     1     -10.725  14.463  65.301  1.00  0.00    -0.375 C  
HETATM    7  C   UNL     1     -11.138  12.706  63.535  1.00  0.00    -0.449 C  
HETATM    8  O   UNL     1      -9.172  14.121  67.230  1.00  0.00    -0.201 OA 
HETATM    9  H   UNL     1     -11.788  16.122  64.956  1.00  0.00     0.000 HD 
HETATM   10  C   UNL     1     -10.432  14.674  66.792  1.00  0.00    -0.277 C  
ENDROOT
BRANCH   1  11
HETATM   11  O   UNL     1      -8.504  11.677  67.899  1.00  0.00    -0.135 OA 
BRANCH  11  12
HETATM   12  C   UNL     1      -7.293  10.833  67.716  1.00  0.00    -0.093 C  
HETATM   13  C   UNL     1      -7.612  10.013  70.389  1.00  0.00    -0.014 C  
HETATM   14  C   UNL     1      -5.953   8.395  67.291  1.00  0.00    -0.051 C  
HETATM   15  C   UNL     1      -6.688  10.679  69.152  1.00  0.00    -0.073 C  
HETATM   16  O   UNL     1      -8.744   8.937  65.005  1.00  0.00    -0.182 OA 
HETATM   17  C   UNL     1      -6.994   9.393  66.700  1.00  0.00    -0.081 C  
HETATM   18  C   UNL     1      -5.141  10.571  68.988  1.00  0.00    -0.042 C  
HETATM   19  C   UNL     1      -6.743   8.948  71.274  1.00  0.00    -0.083 C  
HETATM   20  O   UNL     1      -6.207   7.812  70.579  1.00  0.00    -0.036 OA 
HETATM   21  C   UNL     1      -5.522   9.751  71.827  1.00  0.00    -0.041 C  
HETATM   22  C   UNL     1      -8.012   8.498  65.901  1.00  0.00    -0.105 C  
HETATM   23  C   UNL     1      -7.639   8.450  72.415  1.00  0.00    -0.138 C  
HETATM   24  C   UNL     1      -5.151   7.095  71.250  1.00  0.00    -0.027 C  
HETATM   25  C   UNL     1      -8.052   6.968  72.651  1.00  0.00    -0.115 C  
HETATM   26  H   UNL     1      -7.406   4.709  66.356  1.00  0.00     0.000 HD 
HETATM   27  O   UNL     1      -7.979   7.103  66.163  1.00  0.00    -0.103 OA 
HETATM   28  C   UNL     1      -8.915   6.056  71.661  1.00  0.00    -0.142 C  
HETATM   29  C   UNL     1      -8.886   7.159  73.982  1.00  0.00    -0.231 C  
HETATM   30  O   UNL     1      -7.600   4.565  67.275  1.00  0.00    -0.083 OA 
HETATM   31  C   UNL     1      -9.870   3.925  66.805  1.00  0.00    -0.112 C  
HETATM   32  O   UNL     1     -10.107   5.886  71.984  1.00  0.00    -0.184 OA 
HETATM   33  C   UNL     1      -8.410   5.078  70.487  1.00  0.00    -0.101 C  
HETATM   34  C   UNL     1      -6.953   4.909  70.162  1.00  0.00    -0.049 C  
HETATM   35  C   UNL     1      -9.210   6.395  66.639  1.00  0.00    -0.151 C  
HETATM   36  C   UNL     1      -9.306   4.726  69.161  1.00  0.00    -0.135 C  
HETATM   37  C   UNL     1      -8.958   4.983  67.520  1.00  0.00    -0.110 C  
HETATM   38  O   UNL     1     -10.707   4.633  69.456  1.00  0.00     0.319 OA 
HETATM   39  H   UNL     1     -11.227   4.429  68.687  1.00  0.00     0.000 HD 
BRANCH  13  40
HETATM   40  O   UNL     1      -8.974   9.693  69.964  1.00  0.00    -0.207 OA 
BRANCH  40  41
HETATM   41  C   UNL     1     -10.367   9.712  70.442  1.00  0.00    -0.291 C  
HETATM   42  C   UNL     1     -12.464  11.130  71.159  1.00  0.00    -0.393 C  
HETATM   43  C   UNL     1     -13.232   7.396  70.928  1.00  0.00    -0.041 C  
HETATM   44  O   UNL     1     -10.950  12.190  69.774  1.00  0.00    -0.467 OA 
HETATM   45  C   UNL     1     -13.293   9.867  71.059  1.00  0.00    -0.322 C  
HETATM   46  H   UNL     1     -11.550  12.892  69.549  1.00  0.00     0.000 HD 
HETATM   47  C   UNL     1     -12.367   8.616  71.191  1.00  0.00    -0.213 C  
HETATM   48  C   UNL     1     -11.386  10.902  70.060  1.00  0.00    -0.307 C  
HETATM   49  O   UNL     1     -11.190   8.534  70.320  1.00  0.00    -0.248 OA 
BRANCH  42  50
HETATM   50  N   UNL     1     -13.177  12.452  71.124  1.00  0.00    -0.019 NA 
HETATM   51  C   UNL     1     -13.749  12.973  72.363  1.00  0.00    -0.494 C  
HETATM   52  C   UNL     1     -12.469  13.517  70.415  1.00  0.00    -0.275 C  
ENDBRANCH  42  50
ENDBRANCH  40  41
ENDBRANCH  13  40
BRANCH  35  53
HETATM   53  C   UNL     1      -9.882   7.407  67.497  1.00  0.00    -0.203 C  
HETATM   54  C   UNL     1     -11.275   6.802  67.587  1.00  0.00    -0.220 C  
ENDBRANCH  35  53
ENDBRANCH  11  12
ENDBRANCH   1  11
BRANCH   4  55
HETATM   55  O   UNL     1     -11.870  12.315  65.844  1.00  0.00    -0.473 OA 
HETATM   56  C   UNL     1     -11.515  11.187  66.634  1.00  0.00     0.142 C  
ENDBRANCH   4  55
TORSDOF 7
ENDMDL
MODEL        3
REMARK 921   NORMALIZED FREE ENERGY PREDICTED BY IDOCK:   -3.51 KCAL/MOL
REMARK 922        TOTAL FREE ENERGY PREDICTED BY IDOCK:   -7.63 KCAL/MOL
REMARK 923 INTER-LIGAND FREE ENERGY PREDICTED BY IDOCK:   -5.98 KCAL/MOL
REMARK 924 INTRA-LIGAND FREE ENERGY PREDICTED BY IDOCK:   -1.65 KCAL/MOL
REMARK 927      BINDING AFFINITY PREDICTED BY RF-SCORE:    0.00 PKD
ROOT
HETATM    1  C   UNL     1      -8.061   8.904  71.083  1.00  0.00    -0.160 C  
HETATM    2  O   UNL     1      -9.279   4.748  71.903  1.00  0.00    -0.132 OA 
HETATM    3  C   UNL     1      -9.062   8.538  72.263  1.00  0.00    -0.318 C  
HETATM    4  C   UNL     1      -9.796   7.141  72.246  1.00  0.00    -0.153 C  
HETATM    5  C   UNL     1      -7.284   5.368  69.944  1.00  0.00    -0.064 C  
HETATM    6  C   UNL     1      -8.758   6.087  71.821  1.00  0.00    -0.138 C  
HETATM    7  C   UNL     1     -10.354   6.764  73.657  1.00  0.00    -0.372 C  
HETATM    8  O   UNL     1      -7.509   7.738  70.420  1.00  0.00    -0.075 OA 
HETATM    9  H   UNL     1      -8.639   4.098  71.642  1.00  0.00     0.000 HD 
HETATM   10  C   UNL     1      -8.222   6.482  70.439  1.00  0.00    -0.125 C  
ENDROOT
BRANCH   1  11
HETATM   11  O   UNL     1      -8.374  10.208  70.302  1.00  0.00    -0.077 OA 
BRANCH  11  12
HETATM   12  C   UNL     1      -7.518  10.537  69.129  1.00  0.00    -0.114 C  
HETATM   13  C   UNL     1      -9.876  10.653  67.598  1.00  0.00    -0.167 C  
HETATM   14  C   UNL     1      -6.389  12.289  67.239  1.00  0.00    -0.150 C  
HETATM   15  C   UNL     1      -8.333  10.048  67.886  1.00  0.00    -0.117 C  
HETATM   16  O   UNL     1      -6.157  13.508  70.670  1.00  0.00    -0.152 OA 
HETATM   17  C   UNL     1      -6.516  11.971  68.759  1.00  0.00    -0.077 C  
HETATM   18  C   UNL     1      -7.299   9.594  66.811  1.00  0.00    -0.091 C  
HETATM   19  C   UNL     1     -10.087  11.016  66.018  1.00  0.00    -0.247 C  
HETATM   20  O   UNL     1      -9.209  12.002  65.456  1.00  0.00    -0.105 OA 
HETATM   21  C   UNL     1      -9.827   9.688  65.237  1.00  0.00    -0.269 C  
HETATM   22  C   UNL     1      -6.458  13.370  69.478  1.00  0.00    -0.083 C  
HETATM   23  C   UNL     1     -11.536  11.488  65.839  1.00  0.00    -0.086 C  
HETATM   24  C   UNL     1      -9.138  12.046  64.016  1.00  0.00     0.569 C  
HETATM   25  C   UNL     1     -11.966  12.889  65.314  1.00  0.00    -0.459 C  
HETATM   26  H   UNL     1      -6.468  16.354  67.023  1.00  0.00     0.000 HD 
HETATM   27  O   UNL     1      -6.649  14.515  68.661  1.00  0.00    -0.080 OA 
HETATM   28  C   UNL     1     -11.663  14.295  66.012  1.00  0.00    -0.379 C  
HETATM   29  C   UNL     1     -13.534  12.677  65.318  1.00  0.00     1.698 C  
HETATM   30  O   UNL     1      -7.328  16.304  66.622  1.00  0.00    -0.226 OA 
HETATM   31  C   UNL     1      -8.267  17.868  68.189  1.00  0.00    -0.269 C  
HETATM   32  O   UNL     1     -12.619  14.815  66.620  1.00  0.00     0.058 OA 
HETATM   33  C   UNL     1     -10.412  15.285  65.792  1.00  0.00    -0.365 C  
HETATM   34  C   UNL     1      -9.299  14.963  64.835  1.00  0.00     1.333 C  
HETATM   35  C   UNL     1      -7.752  15.482  68.965  1.00  0.00    -0.192 C  
HETATM   36  C   UNL     1      -9.855  16.302  66.951  1.00  0.00    -0.247 C  
HETATM   37  C   UNL     1      -8.319  16.391  67.667  1.00  0.00    -0.165 C  
HETATM   38  O   UNL     1     -10.911  16.841  67.759  1.00  0.00    -0.313 OA 
HETATM   39  H   UNL     1     -10.588  17.431  68.430  1.00  0.00     0.000 HD 
BRANCH  13  40
HETATM   40  O   UNL     1     -10.323  11.574  68.641  1.00  0.00    -0.201 OA 
BRANCH  40  41
HETATM   41  C   UNL     1     -11.227  11.653  69.802  1.00  0.00    -0.127 C  
HETATM   42  C   UNL     1     -12.473  13.157  71.565  1.00  0.00    -0.098 C  
HETATM   43  C   UNL     1     -13.550   9.498  71.741  1.00  0.00    -0.447 C  
HETATM   44  O   UNL     1     -11.870  14.197  69.591  1.00  0.00    -0.282 OA 
HETATM   45  C   UNL     1     -13.324  11.956  71.916  1.00  0.00    -0.405 C  
HETATM   46  H   UNL     1     -12.436  14.946  69.739  1.00  0.00     0.000 HD 
HETATM   47  C   UNL     1     -12.583  10.644  71.506  1.00  0.00    -0.412 C  
HETATM   48  C   UNL     1     -12.187  12.924  70.052  1.00  0.00    -0.222 C  
HETATM   49  O   UNL     1     -12.079  10.538  70.132  1.00  0.00    -0.286 OA 
BRANCH  42  50
HETATM   50  N   UNL     1     -12.978  14.521  71.940  1.00  0.00    -0.324 NA 
HETATM   51  C   UNL     1     -14.410  14.792  71.836  1.00  0.00    -0.570 C  
HETATM   52  C   UNL     1     -12.463  15.045  73.205  1.00  0.00    -0.435 C  
ENDBRANCH  42  50
ENDBRANCH  40  41
ENDBRANCH  13  40
BRANCH  35  53
HETATM   53  C   UNL     1      -8.842  14.613  69.482  1.00  0.00     0.213 C  
HETATM   54  C   UNL     1      -9.617  15.621  70.319  1.00  0.00     0.426 C  
ENDBRANCH  35  53
ENDBRANCH  11  12
ENDBRANCH   1  11
BRANCH   4  55
HETATM   55  O   UNL     1     -10.891   7.278  71.319  1.00  0.00    -0.233 OA 
HETATM   56  C   UNL     1     -12.034   6.448  71.491  1.00  0.00    -0.273 C  
ENDBRANCH   4  55
TORSDOF 7
ENDMDL
MODEL        4
REMARK 921   NORMALIZED FREE ENERGY PREDICTED BY IDOCK:   -3.49 KCAL/MOL
REMARK 922        TOTAL FREE ENERGY PREDICTED BY IDOCK:   -7.61 KCAL/MOL
REMARK 923 INTER-LIGAND FREE ENERGY PREDICTED BY IDOCK:   -4.94 KCAL/MOL
REMARK 924 INTRA-LIGAND FREE ENERGY PREDICTED BY IDOCK:   -2.66 KCAL/MOL
REMARK 927      BINDING AFFINITY PREDICTED BY RF-SCORE:    0.00 PKD
ROOT
HETATM    1  C   UNL     1      -8.105   6.597  66.351  1.00  0.00    -0.113 C  
HETATM    2  O   UNL     1      -8.375   2.326  65.295  1.00  0.00    -0.084 OA 
HETATM    3  C   UNL     1      -8.706   5.518  67.354  1.00  0.00    -0.107 C  
HETATM    4  C   UNL     1      -9.179   4.122  66.790  1.00  0.00    -0.157 C  
HETATM    5  C   UNL     1      -7.060   4.214  63.588  1.00  0.00    -0.046 C  
HETATM    6  C   UNL     1      -8.120   3.659  65.775  1.00  0.00    -0.093 C  
HETATM    7  C   UNL     1      -9.298   3.052  67.924  1.00  0.00    -0.255 C  
HETATM    8  O   UNL     1      -7.549   6.010  65.146  1.00  0.00    -0.080 OA 
HETATM    9  H   UNL     1      -7.721   2.040  64.668  1.00  0.00     0.000 HD 
HETATM   10  C   UNL     1      -8.017   4.727  64.678  1.00  0.00    -0.099 C  
ENDROOT
BRANCH   1  11
HETATM   11  O   UNL     1      -8.814   7.978  66.327  1.00  0.00    -0.145 OA 
BRANCH  11  12
HETATM   12  C   UNL     1      -8.338   8.986  65.341  1.00  0.00    -0.144 C  
HETATM   13  C   UNL     1     -10.581  10.538  66.032  1.00  0.00    -0.093 C  
HETATM   14  C   UNL     1      -7.095  11.396  64.593  1.00  0.00     1.655 C  
HETATM   15  C   UNL     1      -9.628   9.750  64.892  1.00  0.00    -0.316 C  
HETATM   16  O   UNL     1      -5.168   9.457  67.009  1.00  0.00    -0.035 OA 
HETATM   17  C   UNL     1      -6.890  10.035  65.324  1.00  0.00    -0.128 C  
HETATM   18  C   UNL     1      -9.414  10.176  63.407  1.00  0.00    -0.308 C  
HETATM   19  C   UNL     1     -11.041  12.015  65.505  1.00  0.00    -0.313 C  
HETATM   20  O   UNL     1      -9.996  12.952  65.207  1.00  0.00    -0.258 OA 
HETATM   21  C   UNL     1     -11.814  11.768  64.170  1.00  0.00    -0.350 C  
HETATM   22  C   UNL     1      -5.851  10.334  66.467  1.00  0.00    -0.063 C  
HETATM   23  C   UNL     1     -11.960  12.625  66.571  1.00  0.00    -0.401 C  
HETATM   24  C   UNL     1     -10.369  14.088  64.401  1.00  0.00     0.040 C  
HETATM   25  C   UNL     1     -11.688  13.951  67.339  1.00  0.00    -0.422 C  
HETATM   26  H   UNL     1      -4.991  14.085  66.811  1.00  0.00     0.000 HD 
HETATM   27  O   UNL     1      -5.627  11.699  66.784  1.00  0.00    -0.124 OA 
HETATM   28  C   UNL     1     -10.462  14.240  68.323  1.00  0.00    -0.247 C  
HETATM   29  C   UNL     1     -13.017  14.011  68.195  1.00  0.00     1.933 C  
HETATM   30  O   UNL     1      -5.810  14.472  67.098  1.00  0.00    -0.190 OA 
HETATM   31  C   UNL     1      -5.186  14.338  69.416  1.00  0.00    -0.086 C  
HETATM   32  O   UNL     1     -10.726  14.207  69.541  1.00  0.00    -0.153 OA 
HETATM   33  C   UNL     1      -9.019  14.868  67.984  1.00  0.00    -0.172 C  
HETATM   34  C   UNL     1      -8.634  15.274  66.590  1.00  0.00    -0.305 C  
HETATM   35  C   UNL     1      -5.854  12.197  68.178  1.00  0.00    -0.056 C  
HETATM   36  C   UNL     1      -7.665  14.527  68.844  1.00  0.00    -0.132 C  
HETATM   37  C   UNL     1      -6.202  13.837  68.331  1.00  0.00    -0.100 C  
HETATM   38  O   UNL     1      -7.933  14.364  70.244  1.00  0.00     0.107 OA 
HETATM   39  H   UNL     1      -7.148  14.167  70.742  1.00  0.00     0.000 HD 
BRANCH  13  40
HETATM   40  O   UNL     1     -10.094  10.352  67.398  1.00  0.00    -0.180 OA 
BRANCH  40  41
HETATM   41  C   UNL     1     -10.544   9.939  68.739  1.00  0.00    -0.222 C  
HETATM   42  C   UNL     1     -10.333   8.249  70.744  1.00  0.00    -0.193 C  
HETATM   43  C   UNL     1     -12.591  11.218  71.563  1.00  0.00    -0.418 C  
HETATM   44  O   UNL     1      -8.490   8.415  69.361  1.00  0.00    -0.122 OA 
HETATM   45  C   UNL     1     -11.119   9.229  71.589  1.00  0.00    -0.438 C  
HETATM   46  H   UNL     1      -7.911   7.977  69.974  1.00  0.00     0.000 HD 
HETATM   47  C   UNL     1     -11.955  10.171  70.666  1.00  0.00    -0.332 C  
HETATM   48  C   UNL     1      -9.562   9.196  69.778  1.00  0.00    -0.181 C  
HETATM   49  O   UNL     1     -11.258  10.867  69.580  1.00  0.00    -0.235 OA 
BRANCH  42  50
HETATM   50  N   UNL     1      -9.511   7.206  71.445  1.00  0.00    -0.162 NA 
HETATM   51  C   UNL     1      -9.074   7.462  72.816  1.00  0.00    -0.143 C  
HETATM   52  C   UNL     1     -10.018   5.839  71.330  1.00  0.00    -0.185 C  
ENDBRANCH  42  50
ENDBRANCH  40  41
ENDBRANCH  13  40
BRANCH  35  53
HETATM   53  C   UNL     1      -7.014  11.394  68.648  1.00  0.00    -0.087 C  
HETATM   54  C   UNL     1      -6.569  11.084  70.070  1.00  0.00    -0.134 C  
ENDBRANCH  35  53
ENDBRANCH  11  12
ENDBRANCH   1  11
BRANCH   4  55
HETATM   55  O   UNL     1     -10.477   4.348  66.206  1.00  0.00    -0.205 OA 
HETATM   56  C   UNL     1     -11.138   5.578  66.476  1.00  0.00     0.135 C  
ENDBRANCH   4  55
TORSDOF 7
ENDMDL
MODEL        5
REMARK 921   NORMALIZED FREE ENERGY PREDICTED BY IDOCK:   -3.17 KCAL/MOL
REMARK 922        TOTAL FREE ENERGY PREDICTED BY IDOCK:   -7.16 KCAL/MOL
REMARK 923 INTER-LIGAND FREE ENERGY PREDICTED BY IDOCK:   -4.26 KCAL/MOL
REMARK 924 INTRA-LIGAND FREE ENERGY PREDICTED BY IDOCK:   -2.90 KCAL/MOL
REMARK 927      BINDING AFFINITY PREDICTED BY RF-SCORE:    0.00 PKD
ROOT
HETATM    1  C   UNL     1      -9.001   8.625  70.327  1.00  0.00    -0.154 C  
HETATM    2  O   UNL     1     -10.831   5.796  73.170  1.00  0.00    -0.246 OA 
HETATM    3  C   UNL     1      -8.125   7.738  71.315  1.00  0.00    -0.096 C  
HETATM    4  C   UNL     1      -8.809   7.088  72.580  1.00  0.00    -0.123 C  
HETATM    5  C   UNL     1     -12.401   7.195  71.225  1.00  0.00    -0.418 C  
HETATM    6  C   UNL     1     -10.172   6.537  72.127  1.00  0.00    -0.185 C  
HETATM    7  C   UNL     1      -7.954   5.914  73.159  1.00  0.00    -0.110 C  
HETATM    8  O   UNL     1     -10.416   8.303  70.375  1.00  0.00    -0.206 OA 
HETATM    9  H   UNL     1     -11.673   5.455  72.890  1.00  0.00     0.000 HD 
HETATM   10  C   UNL     1     -10.989   7.705  71.558  1.00  0.00    -0.233 C  
ENDROOT
BRANCH   1  11
HETATM   11  O   UNL     1      -8.508  10.077  70.093  1.00  0.00    -0.169 OA 
BRANCH  11  12
HETATM   12  C   UNL     1      -7.682  10.344  68.884  1.00  0.00    -0.111 C  
HETATM   13  C   UNL     1     -10.081  10.877  67.514  1.00  0.00    -0.184 C  
HETATM   14  C   UNL     1      -6.419  12.016  67.006  1.00  0.00    -0.114 C  
HETATM   15  C   UNL     1      -8.629  10.044  67.675  1.00  0.00    -0.118 C  
HETATM   16  O   UNL     1      -5.817  13.003  70.466  1.00  0.00    -0.171 OA 
HETATM   17  C   UNL     1      -6.504  11.638  68.516  1.00  0.00    -0.055 C  
HETATM   18  C   UNL     1      -7.735   9.505  66.516  1.00  0.00    -0.097 C  
HETATM   19  C   UNL     1     -10.327  11.351  65.968  1.00  0.00    -0.249 C  
HETATM   20  O   UNL     1      -9.348  12.231  65.396  1.00  0.00    -0.055 OA 
HETATM   21  C   UNL     1     -10.308  10.044  65.114  1.00  0.00     0.010 C  
HETATM   22  C   UNL     1      -6.202  12.973  69.291  1.00  0.00    -0.103 C  
HETATM   23  C   UNL     1     -11.699  12.034  65.904  1.00  0.00    -0.312 C  
HETATM   24  C   UNL     1      -9.353  12.341  63.959  1.00  0.00     0.410 C  
HETATM   25  C   UNL     1     -11.950  13.508  65.472  1.00  0.00    -0.420 C  
HETATM   26  H   UNL     1      -5.918  16.056  66.979  1.00  0.00     0.000 HD 
HETATM   27  O   UNL     1      -6.271  14.176  68.541  1.00  0.00    -0.082 OA 
HETATM   28  C   UNL     1     -11.406  14.817  66.212  1.00  0.00    -0.334 C  
HETATM   29  C   UNL     1     -13.529  13.522  65.567  1.00  0.00     0.845 C  
HETATM   30  O   UNL     1      -6.797  16.151  66.633  1.00  0.00    -0.236 OA 
HETATM   31  C   UNL     1      -7.407  17.747  68.325  1.00  0.00    -0.240 C  
HETATM   32  O   UNL     1     -12.240  15.434  66.903  1.00  0.00     0.350 OA 
HETATM   33  C   UNL     1     -10.039  15.628  65.957  1.00  0.00    -0.355 C  
HETATM   34  C   UNL     1      -9.041  15.203  64.917  1.00  0.00     2.328 C  
HETATM   35  C   UNL     1      -7.202  15.273  68.959  1.00  0.00    -0.151 C  
HETATM   36  C   UNL     1      -9.275  16.491  67.122  1.00  0.00    -0.214 C  
HETATM   37  C   UNL     1      -7.704  16.322  67.741  1.00  0.00    -0.142 C  
HETATM   38  O   UNL     1     -10.193  17.132  68.020  1.00  0.00    -0.299 OA 
HETATM   39  H   UNL     1      -9.750  17.632  68.695  1.00  0.00     0.000 HD 
BRANCH  13  40
HETATM   40  O   UNL     1     -10.329  11.795  68.624  1.00  0.00    -0.215 OA 
BRANCH  40  41
HETATM   41  C   UNL     1     -11.215  11.990  69.785  1.00  0.00    -0.029 C  
HETATM   42  C   UNL     1     -12.359  13.659  71.467  1.00  0.00    -0.148 C  
HETATM   43  C   UNL     1     -13.629  10.080  71.865  1.00  0.00    -0.354 C  
HETATM   44  O   UNL     1     -11.723  14.548  69.431  1.00  0.00    -0.281 OA 
HETATM   45  C   UNL     1     -13.270  12.529  71.894  1.00  0.00    -0.495 C  
HETATM   46  H   UNL     1     -12.246  15.335  69.539  1.00  0.00     0.000 HD 
HETATM   47  C   UNL     1     -12.605  11.157  71.556  1.00  0.00    -0.325 C  
HETATM   48  C   UNL     1     -12.102  13.323  69.968  1.00  0.00    -0.315 C  
HETATM   49  O   UNL     1     -12.122  10.944  70.187  1.00  0.00    -0.293 OA 
BRANCH  42  50
HETATM   50  N   UNL     1     -12.785  15.068  71.766  1.00  0.00    -0.318 NA 
HETATM   51  C   UNL     1     -14.213  15.380  71.778  1.00  0.00    -0.527 C  
HETATM   52  C   UNL     1     -12.131  15.680  72.921  1.00  0.00    -0.475 C  
ENDBRANCH  42  50
ENDBRANCH  40  41
ENDBRANCH  13  40
BRANCH  35  53
HETATM   53  C   UNL     1      -8.376  14.542  69.504  1.00  0.00     0.255 C  
HETATM   54  C   UNL     1      -8.745  15.453  70.665  1.00  0.00     1.760 C  
ENDBRANCH  35  53
ENDBRANCH  11  12
ENDBRANCH   1  11
BRANCH   4  55
HETATM   55  O   UNL     1      -8.909   8.138  73.562  1.00  0.00    -0.256 OA 
HETATM   56  C   UNL     1      -7.775   8.418  74.374  1.00  0.00    -0.205 C  
ENDBRANCH   4  55
TORSDOF 7
ENDMDL
MODEL        6
REMARK 921   NORMALIZED FREE ENERGY PREDICTED BY IDOCK:   -3.10 KCAL/MOL
REMARK 922        TOTAL FREE ENERGY PREDICTED BY IDOCK:   -7.06 KCAL/MOL
REMARK 923 INTER-LIGAND FREE ENERGY PREDICTED BY IDOCK:   -5.70 KCAL/MOL
REMARK 924 INTRA-LIGAND FREE ENERGY PREDICTED BY IDOCK:   -1.36 KCAL/MOL
REMARK 927      BINDING AFFINITY PREDICTED BY RF-SCORE:    0.00 PKD
ROOT
HETATM    1  C   UNL     1      -7.604  14.268  69.235  1.00  0.00     0.012 C  
HETATM    2  O   UNL     1      -7.778  18.578  68.328  1.00  0.00    -0.274 OA 
HETATM    3  C   UNL     1      -6.315  15.087  68.792  1.00  0.00    -0.082 C  
HETATM    4  C   UNL     1      -6.497  16.479  68.071  1.00  0.00    -0.134 C  
HETATM    5  C   UNL     1     -10.046  17.171  69.369  1.00  0.00    -0.116 C  
HETATM    6  C   UNL     1      -7.616  17.232  68.812  1.00  0.00    -0.256 C  
HETATM    7  C   UNL     1      -5.188  17.334  68.127  1.00  0.00    -0.121 C  
HETATM    8  O   UNL     1      -8.773  15.105  69.432  1.00  0.00    -0.219 OA 
HETATM    9  H   UNL     1      -8.468  19.043  68.785  1.00  0.00     0.000 HD 
HETATM   10  C   UNL     1      -8.886  16.372  68.750  1.00  0.00    -0.246 C  
ENDROOT
BRANCH   1  11
HETATM   11  O   UNL     1      -7.725  12.827  68.672  1.00  0.00    -0.124 OA 
BRANCH  11  12
HETATM   12  C   UNL     1      -6.705  11.828  69.093  1.00  0.00    -0.110 C  
HETATM   13  C   UNL     1      -8.835  10.103  69.726  1.00  0.00    -0.127 C  
HETATM   14  C   UNL     1      -5.140   9.516  68.746  1.00  0.00    -0.033 C  
HETATM   15  C   UNL     1      -7.433  10.929  70.148  1.00  0.00     0.537 C  
HETATM   16  O   UNL     1      -5.134  11.725  65.842  1.00  0.00    -0.282 OA 
HETATM   17  C   UNL     1      -5.481  10.920  68.160  1.00  0.00    -0.039 C  
HETATM   18  C   UNL     1      -6.355  10.465  71.175  1.00  0.00     0.284 C  
HETATM   19  C   UNL     1      -8.815   8.569  70.291  1.00  0.00    -0.148 C  
HETATM   20  O   UNL     1      -7.752   7.722  69.829  1.00  0.00    -0.093 OA 
HETATM   21  C   UNL     1      -8.652   8.687  71.839  1.00  0.00    -0.231 C  
HETATM   22  C   UNL     1      -5.313  10.766  66.603  1.00  0.00    -0.067 C  
HETATM   23  C   UNL     1     -10.155   7.920  69.924  1.00  0.00    -0.197 C  
HETATM   24  C   UNL     1      -7.513   6.525  70.595  1.00  0.00    -0.080 C  
HETATM   25  C   UNL     1     -10.328   6.657  69.030  1.00  0.00    -0.216 C  
HETATM   26  H   UNL     1      -4.638   7.129  65.487  1.00  0.00     0.000 HD 
HETATM   27  O   UNL     1      -5.253   9.442  66.095  1.00  0.00    -0.035 OA 
HETATM   28  C   UNL     1      -9.916   6.524  67.490  1.00  0.00    -0.137 C  
HETATM   29  C   UNL     1     -11.900   6.508  69.123  1.00  0.00     0.349 C  
HETATM   30  O   UNL     1      -5.445   6.679  65.706  1.00  0.00    -0.020 OA 
HETATM   31  C   UNL     1      -6.332   6.965  63.490  1.00  0.00    -0.043 C  
HETATM   32  O   UNL     1     -10.855   6.582  66.672  1.00  0.00    -0.275 OA 
HETATM   33  C   UNL     1      -8.525   6.021  66.855  1.00  0.00    -0.109 C  
HETATM   34  C   UNL     1      -7.366   5.596  67.710  1.00  0.00    -0.077 C  
HETATM   35  C   UNL     1      -6.240   8.982  65.067  1.00  0.00    -0.065 C  
HETATM   36  C   UNL     1      -7.969   6.522  65.396  1.00  0.00    -0.120 C  
HETATM   37  C   UNL     1      -6.527   7.324  65.004  1.00  0.00    -0.037 C  
HETATM   38  O   UNL     1      -9.026   6.717  64.445  1.00  0.00    -0.060 OA 
HETATM   39  H   UNL     1      -8.704   7.006  63.600  1.00  0.00     0.000 HD 
BRANCH  13  40
HETATM   40  O   UNL     1      -9.268  10.389  68.359  1.00  0.00    -0.137 OA 
BRANCH  40  41
HETATM   41  C   UNL     1     -10.048  11.362  67.574  1.00  0.00    -0.183 C  
HETATM   42  C   UNL     1     -11.141  12.011  65.271  1.00  0.00    -0.317 C  
HETATM   43  C   UNL     1     -12.100  14.418  68.076  1.00  0.00    -0.266 C  
HETATM   44  O   UNL     1     -10.775   9.756  65.620  1.00  0.00     0.145 OA 
HETATM   45  C   UNL     1     -11.921  13.085  65.998  1.00  0.00    -0.498 C  
HETATM   46  H   UNL     1     -11.341   9.489  64.905  1.00  0.00     0.000 HD 
HETATM   47  C   UNL     1     -11.193  13.457  67.329  1.00  0.00    -0.295 C  
HETATM   48  C   UNL     1     -11.008  10.908  66.362  1.00  0.00    -0.088 C  
HETATM   49  O   UNL     1     -10.832  12.369  68.245  1.00  0.00    -0.217 OA 
BRANCH  42  50
HETATM   50  N   UNL     1     -11.639  11.557  63.929  1.00  0.00    -0.302 NA 
HETATM   51  C   UNL     1     -12.959  12.000  63.484  1.00  0.00    -0.192 C  
HETATM   52  C   UNL     1     -10.676  11.685  62.836  1.00  0.00     0.082 C  
ENDBRANCH  42  50
ENDBRANCH  40  41
ENDBRANCH  13  40
BRANCH  35  53
HETATM   53  C   UNL     1      -7.491   9.692  65.445  1.00  0.00    -0.111 C  
HETATM   54  C   UNL     1      -8.130   9.862  64.076  1.00  0.00    -0.152 C  
ENDBRANCH  35  53
ENDBRANCH  11  12
ENDBRANCH   1  11
BRANCH   4  55
HETATM   55  O   UNL     1      -6.815  16.179  66.699  1.00  0.00    -0.236 OA 
HETATM   56  C   UNL     1      -7.408  17.196  65.901  1.00  0.00     0.058 C  
ENDBRANCH   4  55
TORSDOF 7
ENDMDL
MODEL        7
REMARK 921   NORMALIZED FREE ENERGY PREDICTED BY IDOCK:   -3.04 KCAL/MOL
REMARK 922        TOTAL FREE ENERGY PREDICTED BY IDOCK:   -6.97 KCAL/MOL
REMARK 923 INTER-LIGAND FREE ENERGY PREDICTED BY IDOCK:   -5.97 KCAL/MOL
REMARK 924 INTRA-LIGAND FREE ENERGY PREDICTED BY IDOCK:   -1.00 KCAL/MOL
REMARK 927      BINDING AFFINITY PREDICTED BY RF-SCORE:    0.00 PKD
ROOT
HETATM    1  C   UNL     1      -8.506  11.759  66.525  1.00  0.00    -0.125 C  
HETATM    2  O   UNL     1     -10.848  15.119  64.896  1.00  0.00    -0.407 OA 
HETATM    3  C   UNL     1      -9.341  11.628  65.178  1.00  0.00    -0.076 C  
HETATM    4  C   UNL     1     -10.482  12.675  64.874  1.00  0.00    -0.309 C  
HETATM    5  C   UNL     1      -9.148  15.442  67.179  1.00  0.00    -0.236 C  
HETATM    6  C   UNL     1      -9.941  14.063  65.260  1.00  0.00    -0.252 C  
HETATM    7  C   UNL     1     -10.868  12.684  63.358  1.00  0.00    -0.265 C  
HETATM    8  O   UNL     1      -8.495  13.107  67.061  1.00  0.00    -0.194 OA 
HETATM    9  H   UNL     1     -10.514  15.976  65.134  1.00  0.00     0.000 HD 
HETATM   10  C   UNL     1      -9.564  14.026  66.747  1.00  0.00    -0.286 C  
ENDROOT
BRANCH   1  11
HETATM   11  O   UNL     1      -8.511  10.517  67.455  1.00  0.00    -0.118 OA 
BRANCH  11  12
HETATM   12  C   UNL     1      -7.312   9.636  67.444  1.00  0.00    -0.087 C  
HETATM   13  C   UNL     1      -7.593   9.423  70.235  1.00  0.00    -0.138 C  
HETATM   14  C   UNL     1      -6.007   7.145  67.542  1.00  0.00    -0.033 C  
HETATM   15  C   UNL     1      -6.684   9.791  68.869  1.00  0.00    -0.050 C  
HETATM   16  O   UNL     1      -8.831   7.215  65.234  1.00  0.00     0.009 OA 
HETATM   17  C   UNL     1      -7.047   8.004  66.762  1.00  0.00    -0.081 C  
HETATM   18  C   UNL     1      -5.141   9.627  68.710  1.00  0.00    -0.037 C  
HETATM   19  C   UNL     1      -6.721   8.565  71.319  1.00  0.00    -0.066 C  
HETATM   20  O   UNL     1      -6.210   7.298  70.882  1.00  0.00    -0.035 OA 
HETATM   21  C   UNL     1      -5.482   9.452  71.665  1.00  0.00    -0.072 C  
HETATM   22  C   UNL     1      -8.088   6.971  66.193  1.00  0.00    -0.119 C  
HETATM   23  C   UNL     1      -7.602   8.341  72.554  1.00  0.00    -0.159 C  
HETATM   24  C   UNL     1      -5.150   6.729  71.677  1.00  0.00    -0.027 C  
HETATM   25  C   UNL     1      -8.026   6.953  73.115  1.00  0.00    -0.110 C  
HETATM   26  H   UNL     1      -7.515   3.364  67.456  1.00  0.00     0.000 HD 
HETATM   27  O   UNL     1      -8.065   5.667  66.754  1.00  0.00    -0.101 OA 
HETATM   28  C   UNL     1      -8.917   5.859  72.361  1.00  0.00    -0.137 C  
HETATM   29  C   UNL     1      -8.835   7.441  74.383  1.00  0.00    -0.220 C  
HETATM   30  O   UNL     1      -7.695   3.427  68.387  1.00  0.00    -0.056 OA 
HETATM   31  C   UNL     1      -9.979   2.733  68.102  1.00  0.00     0.683 C  
HETATM   32  O   UNL     1     -10.105   5.781  72.730  1.00  0.00    -0.174 OA 
HETATM   33  C   UNL     1      -8.443   4.641  71.422  1.00  0.00    -0.113 C  
HETATM   34  C   UNL     1      -6.993   4.384  71.120  1.00  0.00    -0.036 C  
HETATM   35  C   UNL     1      -9.296   5.098  67.390  1.00  0.00    -0.120 C  
HETATM   36  C   UNL     1      -9.366   4.021  70.217  1.00  0.00    -0.163 C  
HETATM   37  C   UNL     1      -9.044   3.908  68.555  1.00  0.00    -0.138 C  
HETATM   38  O   UNL     1     -10.763   4.015  70.546  1.00  0.00     0.811 OA 
HETATM   39  H   UNL     1     -11.297   3.655  69.848  1.00  0.00     0.000 HD 
BRANCH  13  40
HETATM   40  O   UNL     1      -8.966   9.038  69.911  1.00  0.00    -0.145 OA 
BRANCH  40  41
HETATM   41  C   UNL     1     -10.348   9.547  69.949  1.00  0.00    -0.236 C  
HETATM   42  C   UNL     1     -12.857   9.150  70.635  1.00  0.00     0.275 C  
HETATM   43  C   UNL     1     -12.227  12.702  69.381  1.00  0.00    -0.116 C  
HETATM   44  O   UNL     1     -11.281   7.932  71.807  1.00  0.00    -0.245 OA 
HETATM   45  C   UNL     1     -13.103  10.626  70.405  1.00  0.00    -0.099 C  
HETATM   46  H   UNL     1     -11.888   7.690  72.497  1.00  0.00     0.000 HD 
HETATM   47  C   UNL     1     -12.014  11.200  69.444  1.00  0.00    -0.349 C  
HETATM   48  C   UNL     1     -11.377   9.137  71.120  1.00  0.00    -0.322 C  
HETATM   49  O   UNL     1     -10.606  10.955  69.774  1.00  0.00    -0.194 OA 
BRANCH  42  50
HETATM   50  N   UNL     1     -13.837   8.390  71.481  1.00  0.00    -0.350 NA 
HETATM   51  C   UNL     1     -13.773   6.930  71.488  1.00  0.00    -0.157 C  
HETATM   52  C   UNL     1     -13.993   8.888  72.847  1.00  0.00    -0.005 C  
ENDBRANCH  42  50
ENDBRANCH  40  41
ENDBRANCH  13  40
BRANCH  35  53
HETATM   53  C   UNL     1      -9.941   6.282  68.017  1.00  0.00    -0.149 C  
HETATM   54  C   UNL     1     -11.142   6.452  67.098  1.00  0.00    -0.422 C  
ENDBRANCH  35  53
ENDBRANCH  11  12
ENDBRANCH   1  11
BRANCH   4  55
HETATM   55  O   UNL     1     -11.620  12.262  65.655  1.00  0.00    -0.359 OA 
HETATM   56  C   UNL     1     -12.905  12.759  65.299  1.00  0.00    -0.063 C  
ENDBRANCH   4  55
TORSDOF 7
ENDMDL
MODEL        8
REMARK 921   NORMALIZED FREE ENERGY PREDICTED BY IDOCK:   -2.57 KCAL/MOL
REMARK 922        TOTAL FREE ENERGY PREDICTED BY IDOCK:   -6.30 KCAL/MOL
REMARK 923 INTER-LIGAND FREE ENERGY PREDICTED BY IDOCK:   -3.98 KCAL/MOL
REMARK 924 INTRA-LIGAND FREE ENERGY PREDICTED BY IDOCK:   -2.33 KCAL/MOL
REMARK 927      BINDING AFFINITY PREDICTED BY RF-SCORE:    0.00 PKD
ROOT
HETATM    1  C   UNL     1      -9.058  16.653  65.751  1.00  0.00     0.033 C  
HETATM    2  O   UNL     1      -8.374  20.873  66.824  1.00  0.00    -0.553 OA 
HETATM    3  C   UNL     1     -10.202  17.556  66.389  1.00  0.00    -0.354 C  
HETATM    4  C   UNL     1      -9.805  18.884  67.143  1.00  0.00    -0.322 C  
HETATM    5  C   UNL     1      -6.389  19.335  65.446  1.00  0.00    -0.303 C  
HETATM    6  C   UNL     1      -8.717  19.576  66.304  1.00  0.00    -0.359 C  
HETATM    7  C   UNL     1     -11.025  19.851  67.291  1.00  0.00    -0.255 C  
HETATM    8  O   UNL     1      -7.848  17.395  65.448  1.00  0.00    -0.022 OA 
HETATM    9  H   UNL     1      -7.702  21.301  66.306  1.00  0.00     0.000 HD 
HETATM   10  C   UNL     1      -7.536  18.607  66.168  1.00  0.00    -0.255 C  
ENDROOT
BRANCH   1  11
HETATM   11  O   UNL     1      -9.006  15.178  66.229  1.00  0.00    -0.289 OA 
BRANCH  11  12
HETATM   12  C   UNL     1     -10.029  14.238  65.695  1.00  0.00    -0.320 C  
HETATM   13  C   UNL     1      -8.159  12.173  66.090  1.00  0.00     0.485 C  
HETATM   14  C   UNL     1     -12.023  12.268  65.942  1.00  0.00    -0.358 C  
HETATM   15  C   UNL     1      -9.208  13.042  65.105  1.00  0.00     0.741 C  
HETATM   16  O   UNL     1     -12.449  15.064  68.246  1.00  0.00     0.092 OA 
HETATM   17  C   UNL     1     -11.612  13.717  66.342  1.00  0.00    -0.380 C  
HETATM   18  C   UNL     1     -10.017  12.487  63.892  1.00  0.00    -0.199 C  
HETATM   19  C   UNL     1      -8.298  10.564  65.835  1.00  0.00    -0.161 C  
HETATM   20  O   UNL     1      -9.583   9.977  66.082  1.00  0.00    -0.183 OA 
HETATM   21  C   UNL     1      -7.990  10.346  64.319  1.00  0.00    -0.080 C  
HETATM   22  C   UNL     1     -12.239  13.943  67.768  1.00  0.00    -0.182 C  
HETATM   23  C   UNL     1      -7.258   9.861  66.717  1.00  0.00    -0.091 C  
HETATM   24  C   UNL     1      -9.810   8.674  65.509  1.00  0.00     0.440 C  
HETATM   25  C   UNL     1      -7.580   8.824  67.832  1.00  0.00    -0.097 C  
HETATM   26  H   UNL     1     -13.856  10.762  69.251  1.00  0.00     0.000 HD 
HETATM   27  O   UNL     1     -12.682  12.786  68.460  1.00  0.00     0.553 OA 
HETATM   28  C   UNL     1      -8.428   9.095  69.160  1.00  0.00    -0.132 C  
HETATM   29  C   UNL     1      -6.101   8.472  68.268  1.00  0.00    -0.050 C  
HETATM   30  O   UNL     1     -13.115  10.181  69.382  1.00  0.00     0.515 OA 
HETATM   31  C   UNL     1     -12.856  10.857  71.675  1.00  0.00    -0.554 C  
HETATM   32  O   UNL     1      -7.766   9.225  70.208  1.00  0.00    -0.094 OA 
HETATM   33  C   UNL     1     -10.009   8.919  69.403  1.00  0.00    -0.192 C  
HETATM   34  C   UNL     1     -10.936   8.450  68.318  1.00  0.00     0.154 C  
HETATM   35  C   UNL     1     -12.128  12.458  69.813  1.00  0.00    -0.223 C  
HETATM   36  C   UNL     1     -10.855   9.800  70.497  1.00  0.00    -0.323 C  
HETATM   37  C   UNL     1     -12.178  10.836  70.261  1.00  0.00    -0.348 C  
HETATM   38  O   UNL     1     -10.094  10.080  71.681  1.00  0.00     0.320 OA 
HETATM   39  H   UNL     1     -10.585  10.590  72.314  1.00  0.00     0.000 HD 
BRANCH  13  40
HETATM   40  O   UNL     1      -8.087  12.709  67.448  1.00  0.00    -0.163 OA 
BRANCH  40  41
HETATM   41  C   UNL     1      -7.118  13.164  68.460  1.00  0.00    -0.105 C  
HETATM   42  C   UNL     1      -5.915  15.175  69.657  1.00  0.00    -0.117 C  
HETATM   43  C   UNL     1      -5.147  11.818  71.308  1.00  0.00    -0.097 C  
HETATM   44  O   UNL     1      -7.947  15.654  68.668  1.00  0.00    -0.135 OA 
HETATM   45  C   UNL     1      -5.455  14.203  70.722  1.00  0.00    -0.156 C  
HETATM   46  H   UNL     1      -8.046  16.483  69.122  1.00  0.00     0.000 HD 
HETATM   47  C   UNL     1      -5.467  12.749  70.152  1.00  0.00    -0.127 C  
HETATM   48  C   UNL     1      -7.285  14.569  69.232  1.00  0.00    -0.131 C  
HETATM   49  O   UNL     1      -6.696  12.271  69.510  1.00  0.00    -0.088 OA 
BRANCH  42  50
HETATM   50  N   UNL     1      -5.912  16.641  69.983  1.00  0.00    -0.215 NA 
HETATM   51  C   UNL     1      -5.349  17.074  71.261  1.00  0.00     0.075 C  
HETATM   52  C   UNL     1      -5.438  17.513  68.909  1.00  0.00    -0.161 C  
ENDBRANCH  42  50
ENDBRANCH  40  41
ENDBRANCH  13  40
BRANCH  35  53
HETATM   53  C   UNL     1     -10.714  12.910  69.727  1.00  0.00     0.595 C  
HETATM   54  C   UNL     1     -10.803  14.224  70.488  1.00  0.00     0.493 C  
ENDBRANCH  35  53
ENDBRANCH  11  12
ENDBRANCH   1  11
BRANCH   4  55
HETATM   55  O   UNL     1      -9.353  18.479  68.451  1.00  0.00    -0.312 OA 
HETATM   56  C   UNL     1      -9.753  19.252  69.576  1.00  0.00     0.014 C  
ENDBRANCH   4  55
TORSDOF 7
ENDMDL
MODEL        9
REMARK 921   NORMALIZED FREE ENERGY PREDICTED BY IDOCK:   -2.51 KCAL/MOL
REMARK 922        TOTAL FREE ENERGY PREDICTED BY IDOCK:   -6.23 KCAL/MOL
REMARK 923 INTER-LIGAND FREE ENERGY PREDICTED BY IDOCK:   -4.05 KCAL/MOL
REMARK 924 INTRA-LIGAND FREE ENERGY PREDICTED BY IDOCK:   -2.18 KCAL/MOL
REMARK 927      BINDING AFFINITY PREDICTED BY RF-SCORE:    0.00 PKD
ROOT
HETATM    1  C   UNL     1      -7.888   9.210  71.206  1.00  0.00    -0.019 C  
HETATM    2  O   UNL     1      -7.489   5.121  72.803  1.00  0.00    -0.091 OA 
HETATM    3  C   UNL     1      -8.916   8.615  72.264  1.00  0.00    -0.245 C  
HETATM    4  C   UNL     1      -8.995   7.052  72.468  1.00  0.00    -0.128 C  
HETATM    5  C   UNL     1      -5.494   6.267  71.097  1.00  0.00    -0.019 C  
HETATM    6  C   UNL     1      -7.550   6.522  72.483  1.00  0.00    -0.095 C  
HETATM    7  C   UNL     1      -9.686   6.680  73.821  1.00  0.00    -0.248 C  
HETATM    8  O   UNL     1      -6.766   8.328  70.943  1.00  0.00    -0.037 OA 
HETATM    9  H   UNL     1      -6.598   4.794  72.812  1.00  0.00     0.000 HD 
HETATM   10  C   UNL     1      -6.892   6.905  71.150  1.00  0.00    -0.058 C  
ENDROOT
BRANCH   1  11
HETATM   11  O   UNL     1      -8.494  10.105  70.093  1.00  0.00    -0.112 OA 
BRANCH  11  12
HETATM   12  C   UNL     1      -7.600  10.535  68.984  1.00  0.00    -0.117 C  
HETATM   13  C   UNL     1      -9.876  10.578  67.330  1.00  0.00    -0.174 C  
HETATM   14  C   UNL     1      -6.482  12.432  67.231  1.00  0.00    -0.140 C  
HETATM   15  C   UNL     1      -8.316  10.053  67.678  1.00  0.00    -0.114 C  
HETATM   16  O   UNL     1      -6.506  13.511  70.716  1.00  0.00     0.081 OA 
HETATM   17  C   UNL     1      -6.669  12.040  68.728  1.00  0.00    -0.087 C  
HETATM   18  C   UNL     1      -7.201   9.709  66.645  1.00  0.00    -0.086 C  
HETATM   19  C   UNL     1     -10.026  10.997  65.757  1.00  0.00    -0.244 C  
HETATM   20  O   UNL     1      -9.182  12.057  65.285  1.00  0.00    -0.026 OA 
HETATM   21  C   UNL     1      -9.644   9.722  64.939  1.00  0.00    -0.316 C  
HETATM   22  C   UNL     1      -6.735  13.407  69.505  1.00  0.00     0.003 C  
HETATM   23  C   UNL     1     -11.489  11.390  65.517  1.00  0.00     0.031 C  
HETATM   24  C   UNL     1      -9.037  12.167  63.855  1.00  0.00     0.694 C  
HETATM   25  C   UNL     1     -11.976  12.784  65.027  1.00  0.00    -0.456 C  
HETATM   26  H   UNL     1      -6.800  16.490  67.176  1.00  0.00     0.000 HD 
HETATM   27  O   UNL     1      -6.953  14.574  68.726  1.00  0.00    -0.093 OA 
HETATM   28  C   UNL     1     -11.797  14.174  65.797  1.00  0.00    -0.380 C  
HETATM   29  C   UNL     1     -13.526  12.480  64.935  1.00  0.00     1.274 C  
HETATM   30  O   UNL     1      -7.633  16.407  66.727  1.00  0.00    -0.209 OA 
HETATM   31  C   UNL     1      -8.747  17.843  68.301  1.00  0.00    -0.277 C  
HETATM   32  O   UNL     1     -12.814  14.609  66.372  1.00  0.00     0.110 OA 
HETATM   33  C   UNL     1     -10.600  15.244  65.687  1.00  0.00    -0.377 C  
HETATM   34  C   UNL     1      -9.421  15.031  64.781  1.00  0.00     1.340 C  
HETATM   35  C   UNL     1      -8.128  15.460  69.008  1.00  0.00    -0.213 C  
HETATM   36  C   UNL     1     -10.168  16.241  66.915  1.00  0.00    -0.288 C  
HETATM   37  C   UNL     1      -8.680  16.389  67.717  1.00  0.00    -0.180 C  
HETATM   38  O   UNL     1     -11.297  16.681  67.685  1.00  0.00    -0.092 OA 
HETATM   39  H   UNL     1     -11.046  17.259  68.396  1.00  0.00     0.000 HD 
BRANCH  13  40
HETATM   40  O   UNL     1     -10.433  11.424  68.384  1.00  0.00    -0.185 OA 
BRANCH  40  41
HETATM   41  C   UNL     1     -11.473  11.435  69.427  1.00  0.00    -0.310 C  
HETATM   42  C   UNL     1     -13.066  10.064  71.009  1.00  0.00    -0.356 C  
HETATM   43  C   UNL     1     -13.113  13.805  71.773  1.00  0.00    -0.463 C  
HETATM   44  O   UNL     1     -11.181   8.956  70.262  1.00  0.00    -0.273 OA 
HETATM   45  C   UNL     1     -13.311  11.337  71.788  1.00  0.00    -0.371 C  
HETATM   46  H   UNL     1     -11.256   8.261  70.905  1.00  0.00     0.000 HD 
HETATM   47  C   UNL     1     -12.997  12.576  70.889  1.00  0.00     0.016 C  
HETATM   48  C   UNL     1     -11.601  10.256  70.519  1.00  0.00    -0.338 C  
HETATM   49  O   UNL     1     -11.697  12.624  70.212  1.00  0.00    -0.253 OA 
BRANCH  42  50
HETATM   50  N   UNL     1     -13.374   8.753  71.675  1.00  0.00    -0.353 NA 
HETATM   51  C   UNL     1     -13.778   8.758  73.079  1.00  0.00     0.204 C  
HETATM   52  C   UNL     1     -14.243   7.860  70.910  1.00  0.00     0.197 C  
ENDBRANCH  42  50
ENDBRANCH  40  41
ENDBRANCH  13  40
BRANCH  35  53
HETATM   53  C   UNL     1      -9.189  14.506  69.428  1.00  0.00     0.200 C  
HETATM   54  C   UNL     1     -10.020  15.407  70.329  1.00  0.00     0.033 C  
ENDBRANCH  35  53
ENDBRANCH  11  12
ENDBRANCH   1  11
BRANCH   4  55
HETATM   55  O   UNL     1      -9.782   6.547  71.372  1.00  0.00    -0.172 OA 
HETATM   56  C   UNL     1     -10.824   5.620  71.656  1.00  0.00    -0.237 C  
ENDBRANCH   4  55
TORSDOF 7
ENDMDL
MODEL       10
REMARK 921   NORMALIZED FREE ENERGY PREDICTED BY IDOCK:   -2.02 KCAL/MOL
REMARK 922        TOTAL FREE ENERGY PREDICTED BY IDOCK:   -5.54 KCAL/MOL
REMARK 923 INTER-LIGAND FREE ENERGY PREDICTED BY IDOCK:   -6.25 KCAL/MOL
REMARK 924 INTRA-LIGAND FREE ENERGY PREDICTED BY IDOCK:    0.71 KCAL/MOL
REMARK 927      BINDING AFFINITY PREDICTED BY RF-SCORE:    0.00 PKD
ROOT
HETATM    1  C   UNL     1      -8.099  13.499  67.874  1.00  0.00    -0.165 C  
HETATM    2  O   UNL     1      -7.933  17.903  67.965  1.00  0.00    -0.236 OA 
HETATM    3  C   UNL     1      -6.947  14.282  68.641  1.00  0.00    -0.105 C  
HETATM    4  C   UNL     1      -6.679  15.798  68.290  1.00  0.00    -0.119 C  
HETATM    5  C   UNL     1     -10.147  16.509  66.800  1.00  0.00    -0.290 C  
HETATM    6  C   UNL     1      -8.051  16.481  68.149  1.00  0.00    -0.172 C  
HETATM    7  C   UNL     1      -5.868  16.517  69.417  1.00  0.00    -0.167 C  
HETATM    8  O   UNL     1      -9.128  14.374  67.343  1.00  0.00    -0.183 OA 
HETATM    9  H   UNL     1      -8.779  18.325  67.878  1.00  0.00     0.000 HD 
HETATM   10  C   UNL     1      -8.829  15.754  67.044  1.00  0.00    -0.216 C  
ENDROOT
BRANCH   1  11
HETATM   11  O   UNL     1      -7.668  12.209  67.127  1.00  0.00    -0.160 OA 
BRANCH  11  12
HETATM   12  C   UNL     1      -6.672  11.323  67.788  1.00  0.00    -0.069 C  
HETATM   13  C   UNL     1      -8.843   9.891  68.862  1.00  0.00    -0.145 C  
HETATM   14  C   UNL     1      -5.180   8.951  68.047  1.00  0.00    -0.035 C  
HETATM   15  C   UNL     1      -7.411  10.754  69.045  1.00  0.00    -0.109 C  
HETATM   16  O   UNL     1      -5.150  10.325  64.667  1.00  0.00    -0.083 OA 
HETATM   17  C   UNL     1      -5.488  10.164  67.117  1.00  0.00    -0.041 C  
HETATM   18  C   UNL     1      -6.333  10.539  70.151  1.00  0.00    -0.132 C  
HETATM   19  C   UNL     1      -8.859   8.557  69.807  1.00  0.00    -0.137 C  
HETATM   20  O   UNL     1      -7.828   7.586  69.576  1.00  0.00    -0.114 OA 
HETATM   21  C   UNL     1      -8.671   9.070  71.270  1.00  0.00    -0.240 C  
HETATM   22  C   UNL     1      -5.347   9.604  65.653  1.00  0.00    -0.043 C  
HETATM   23  C   UNL     1     -10.223   7.878  69.630  1.00  0.00    -0.207 C  
HETATM   24  C   UNL     1      -7.613   6.623  70.627  1.00  0.00    -0.095 C  
HETATM   25  C   UNL     1     -10.445   6.432  69.098  1.00  0.00    -0.274 C  
HETATM   26  H   UNL     1      -4.793   5.782  65.521  1.00  0.00     0.000 HD 
HETATM   27  O   UNL     1      -5.332   8.192  65.509  1.00  0.00    -0.031 OA 
HETATM   28  C   UNL     1     -10.059   5.889  67.644  1.00  0.00    -0.163 C  
HETATM   29  C   UNL     1     -12.019   6.363  69.236  1.00  0.00     0.661 C  
HETATM   30  O   UNL     1      -5.610   5.431  65.856  1.00  0.00    -0.013 OA 
HETATM   31  C   UNL     1      -6.520   5.157  63.647  1.00  0.00    -0.026 C  
HETATM   32  O   UNL     1     -11.007   5.761  66.845  1.00  0.00    -0.279 OA 
HETATM   33  C   UNL     1      -8.692   5.194  67.154  1.00  0.00    -0.103 C  
HETATM   34  C   UNL     1      -7.533   4.970  68.084  1.00  0.00    -0.075 C  
HETATM   35  C   UNL     1      -6.347   7.512  64.641  1.00  0.00    -0.041 C  
HETATM   36  C   UNL     1      -8.142   5.279  65.612  1.00  0.00    -0.117 C  
HETATM   37  C   UNL     1      -6.682   5.905  65.016  1.00  0.00    -0.043 C  
HETATM   38  O   UNL     1      -9.206   5.252  64.650  1.00  0.00    -0.357 OA 
HETATM   39  H   UNL     1      -8.887   5.301  63.756  1.00  0.00     0.000 HD 
BRANCH  13  40
HETATM   40  O   UNL     1      -9.286   9.824  67.470  1.00  0.00    -0.130 OA 
BRANCH  40  41
HETATM   41  C   UNL     1     -10.120  10.539  66.488  1.00  0.00    -0.225 C  
HETATM   42  C   UNL     1     -12.032  12.287  66.033  1.00  0.00    -0.269 C  
HETATM   43  C   UNL     1     -10.311  11.133  62.826  1.00  0.00     0.030 C  
HETATM   44  O   UNL     1     -10.924  12.500  68.048  1.00  0.00    -0.214 OA 
HETATM   45  C   UNL     1     -11.608  12.301  64.580  1.00  0.00    -0.404 C  
HETATM   46  H   UNL     1     -11.256  13.376  68.212  1.00  0.00     0.000 HD 
HETATM   47  C   UNL     1     -10.838  10.985  64.242  1.00  0.00    -0.192 C  
HETATM   48  C   UNL     1     -10.684  12.023  66.765  1.00  0.00    -0.243 C  
HETATM   49  O   UNL     1      -9.716  10.602  65.106  1.00  0.00    -0.228 OA 
BRANCH  42  50
HETATM   50  N   UNL     1     -12.850  13.438  66.545  1.00  0.00     0.009 NA 
HETATM   51  C   UNL     1     -12.508  14.018  67.843  1.00  0.00     0.246 C  
HETATM   52  C   UNL     1     -13.098  14.502  65.573  1.00  0.00     0.152 C  
ENDBRANCH  42  50
ENDBRANCH  40  41
ENDBRANCH  13  40
BRANCH  35  53
HETATM   53  C   UNL     1      -7.570   8.335  64.829  1.00  0.00    -0.103 C  
HETATM   54  C   UNL     1      -8.076   8.398  63.396  1.00  0.00    -0.145 C  
ENDBRANCH  35  53
ENDBRANCH  11  12
ENDBRANCH   1  11
BRANCH   4  55
HETATM   55  O   UNL     1      -5.909  15.795  67.072  1.00  0.00    -0.316 OA 
HETATM   56  C   UNL     1      -5.520  17.043  66.513  1.00  0.00    -0.089 C  
ENDBRANCH   4  55
TORSDOF 7
ENDMDL
MODEL       11
REMARK 921   NORMALIZED FREE ENERGY PREDICTED BY IDOCK:   -1.27 KCAL/MOL
REMARK 922        TOTAL FREE ENERGY PREDICTED BY IDOCK:   -4.48 KCAL/MOL
REMARK 923 INTER-LIGAND FREE ENERGY PREDICTED BY IDOCK:   -3.21 KCAL/MOL
REMARK 924 INTRA-LIGAND FREE ENERGY PREDICTED BY IDOCK:   -1.27 KCAL/MOL
REMARK 927      BINDING AFFINITY PREDICTED BY RF-SCORE:    0.00 PKD
ROOT
HETATM    1  C   UNL     1     -11.041   6.018  67.954  1.00  0.00    -0.114 C  
HETATM    2  O   UNL     1      -8.498   2.490  67.234  1.00  0.00    -0.087 OA 
HETATM    3  C   UNL     1     -10.719   5.497  66.486  1.00  0.00    -0.309 C  
HETATM    4  C   UNL     1      -9.489   4.535  66.262  1.00  0.00    -0.172 C  
HETATM    5  C   UNL     1      -9.277   3.264  69.880  1.00  0.00    -0.222 C  
HETATM    6  C   UNL     1      -9.498   3.510  67.410  1.00  0.00    -0.190 C  
HETATM    7  C   UNL     1      -9.592   3.774  64.900  1.00  0.00    -0.177 C  
HETATM    8  O   UNL     1     -10.530   5.144  68.995  1.00  0.00    -0.180 OA 
HETATM    9  H   UNL     1      -8.504   1.857  67.942  1.00  0.00     0.000 HD 
HETATM   10  C   UNL     1      -9.403   4.280  68.733  1.00  0.00    -0.153 C  
ENDROOT
BRANCH   1  11
HETATM   11  O   UNL     1     -11.085   7.558  68.140  1.00  0.00     0.033 OA 
BRANCH  11  12
HETATM   12  C   UNL     1     -10.688   8.110  69.463  1.00  0.00    -0.175 C  
HETATM   13  C   UNL     1      -8.273   8.914  68.265  1.00  0.00    -0.121 C  
HETATM   14  C   UNL     1     -10.283  10.191  71.313  1.00  0.00     1.068 C  
HETATM   15  C   UNL     1      -9.123   8.087  69.456  1.00  0.00    -0.152 C  
HETATM   16  O   UNL     1     -13.516  10.352  69.631  1.00  0.00     0.333 OA 
HETATM   17  C   UNL     1     -11.340   9.470  70.424  1.00  0.00    -0.318 C  
HETATM   18  C   UNL     1      -8.663   7.846  70.927  1.00  0.00    -0.139 C  
HETATM   19  C   UNL     1      -7.006   9.732  68.896  1.00  0.00    -0.062 C  
HETATM   20  O   UNL     1      -7.306  10.734  69.879  1.00  0.00    -0.126 OA 
HETATM   21  C   UNL     1      -6.119   8.660  69.606  1.00  0.00    -0.032 C  
HETATM   22  C   UNL     1     -12.364  10.592  70.012  1.00  0.00    -0.269 C  
HETATM   23  C   UNL     1      -6.253  10.392  67.734  1.00  0.00    -0.056 C  
HETATM   24  C   UNL     1      -6.203  11.176  70.695  1.00  0.00     0.074 C  
HETATM   25  C   UNL     1      -6.027  11.922  67.563  1.00  0.00    -0.099 C  
HETATM   26  H   UNL     1     -11.283  14.133  71.120  1.00  0.00     0.000 HD 
HETATM   27  O   UNL     1     -11.952  11.936  70.212  1.00  0.00    -0.344 OA 
HETATM   28  C   UNL     1      -7.164  13.030  67.370  1.00  0.00    -0.116 C  
HETATM   29  C   UNL     1      -5.154  11.892  66.245  1.00  0.00     0.311 C  
HETATM   30  O   UNL     1     -10.501  14.294  70.605  1.00  0.00     0.752 OA 
HETATM   31  C   UNL     1     -11.736  15.442  68.892  1.00  0.00    -0.377 C  
HETATM   32  O   UNL     1      -7.310  13.458  66.208  1.00  0.00     1.384 OA 
HETATM   33  C   UNL     1      -7.932  13.898  68.487  1.00  0.00    -0.137 C  
HETATM   34  C   UNL     1      -7.647  13.740  69.954  1.00  0.00     0.879 C  
HETATM   35  C   UNL     1     -11.913  12.892  69.060  1.00  0.00    -0.251 C  
HETATM   36  C   UNL     1      -9.453  14.476  68.289  1.00  0.00    -0.207 C  
HETATM   37  C   UNL     1     -10.850  14.189  69.210  1.00  0.00    -0.190 C  
HETATM   38  O   UNL     1      -9.714  14.877  66.936  1.00  0.00    -0.228 OA 
HETATM   39  H   UNL     1     -10.596  15.212  66.822  1.00  0.00     0.000 HD 
BRANCH  13  40
HETATM   40  O   UNL     1      -9.152   9.545  67.281  1.00  0.00    -0.130 OA 
BRANCH  40  41
HETATM   41  C   UNL     1      -9.159  10.061  65.901  1.00  0.00    -0.159 C  
HETATM   42  C   UNL     1      -7.890  10.343  63.615  1.00  0.00    -0.072 C  
HETATM   43  C   UNL     1     -11.525  11.497  63.422  1.00  0.00    -0.274 C  
HETATM   44  O   UNL     1      -7.197   8.589  64.949  1.00  0.00    -0.081 OA 
HETATM   45  C   UNL     1      -9.207  10.744  62.987  1.00  0.00    -0.320 C  
HETATM   46  H   UNL     1      -6.715   8.162  64.249  1.00  0.00     0.000 HD 
HETATM   47  C   UNL     1     -10.183  11.261  64.092  1.00  0.00    -0.335 C  
HETATM   48  C   UNL     1      -8.344   9.338  64.714  1.00  0.00    -0.162 C  
HETATM   49  O   UNL     1     -10.406  10.411  65.267  1.00  0.00    -0.284 OA 
BRANCH  42  50
HETATM   50  N   UNL     1      -6.784   9.879  62.710  1.00  0.00    -0.112 NA 
HETATM   51  C   UNL     1      -5.461  10.484  62.853  1.00  0.00    -0.156 C  
HETATM   52  C   UNL     1      -6.657   8.428  62.581  1.00  0.00    -0.091 C  
ENDBRANCH  42  50
ENDBRANCH  40  41
ENDBRANCH  13  40
BRANCH  35  53
HETATM   53  C   UNL     1     -11.502  12.038  67.914  1.00  0.00    -0.396 C  
HETATM   54  C   UNL     1     -12.100  12.828  66.760  1.00  0.00    -0.290 C  
ENDBRANCH  35  53
ENDBRANCH  11  12
ENDBRANCH   1  11
BRANCH   4  55
HETATM   55  O   UNL     1      -8.320   5.378  66.252  1.00  0.00    -0.112 OA 
HETATM   56  C   UNL     1      -7.322   5.143  65.268  1.00  0.00    -0.068 C  
ENDBRANCH   4  55
TORSDOF 7
ENDMDL
MODEL       12
REMARK 921   NORMALIZED FREE ENERGY PREDICTED BY IDOCK:   -0.74 KCAL/MOL
REMARK 922        TOTAL FREE ENERGY PREDICTED BY IDOCK:   -3.73 KCAL/MOL
REMARK 923 INTER-LIGAND FREE ENERGY PREDICTED BY IDOCK:   -2.91 KCAL/MOL
REMARK 924 INTRA-LIGAND FREE ENERGY PREDICTED BY IDOCK:   -0.82 KCAL/MOL
REMARK 927      BINDING AFFINITY PREDICTED BY RF-SCORE:    0.00 PKD
ROOT
HETATM    1  C   UNL     1      -6.690   5.962  65.599  1.00  0.00    -0.048 C  
HETATM    2  O   UNL     1      -9.616   6.463  62.340  1.00  0.00     0.507 OA 
HETATM    3  C   UNL     1      -6.932   4.835  64.504  1.00  0.00    -0.050 C  
HETATM    4  C   UNL     1      -8.256   4.865  63.646  1.00  0.00    -0.118 C  
HETATM    5  C   UNL     1      -9.008   8.597  64.151  1.00  0.00     0.323 C  
HETATM    6  C   UNL     1      -8.506   6.329  63.246  1.00  0.00     0.210 C  
HETATM    7  C   UNL     1      -8.124   4.000  62.349  1.00  0.00    -0.067 C  
HETATM    8  O   UNL     1      -7.421   7.187  65.328  1.00  0.00    -0.082 OA 
HETATM    9  H   UNL     1      -9.770   7.367  62.093  1.00  0.00     0.000 HD 
HETATM   10  C   UNL     1      -8.625   7.157  64.532  1.00  0.00     0.337 C  
ENDROOT
BRANCH   1  11
HETATM   11  O   UNL     1      -6.450   5.467  67.049  1.00  0.00    -0.041 OA 
BRANCH  11  12
HETATM   12  C   UNL     1      -7.403   4.470  67.610  1.00  0.00    -0.069 C  
HETATM   13  C   UNL     1      -6.279   5.000  70.134  1.00  0.00    -0.022 C  
HETATM   14  C   UNL     1      -9.736   3.700  68.982  1.00  0.00    -0.062 C  
HETATM   15  C   UNL     1      -6.709   3.934  68.906  1.00  0.00    -0.045 C  
HETATM   16  O   UNL     1     -10.316   6.270  66.459  1.00  0.00    -0.170 OA 
HETATM   17  C   UNL     1      -9.185   4.486  67.754  1.00  0.00    -0.158 C  
HETATM   18  C   UNL     1      -7.148   2.448  69.079  1.00  0.00    -0.044 C  
HETATM   19  C   UNL     1      -6.667   4.401  71.605  1.00  0.00    -0.030 C  
HETATM   20  O   UNL     1      -8.053   4.122  71.847  1.00  0.00    -0.084 OA 
HETATM   21  C   UNL     1      -5.909   3.040  71.723  1.00  0.00    -0.013 C  
HETATM   22  C   UNL     1     -10.202   5.666  67.532  1.00  0.00    -0.202 C  
HETATM   23  C   UNL     1      -6.175   5.401  72.659  1.00  0.00    -0.046 C  
HETATM   24  C   UNL     1      -8.344   3.260  72.966  1.00  0.00    -0.081 C  
HETATM   25  C   UNL     1      -7.079   6.135  73.692  1.00  0.00    -0.084 C  
HETATM   26  H   UNL     1     -12.879   5.922  70.306  1.00  0.00     0.000 HD 
HETATM   27  O   UNL     1     -11.096   5.947  68.598  1.00  0.00    -0.284 OA 
HETATM   28  C   UNL     1      -8.254   7.166  73.356  1.00  0.00    -0.109 C  
HETATM   29  C   UNL     1      -5.956   6.924  74.478  1.00  0.00    -0.071 C  
HETATM   30  O   UNL     1     -12.374   6.156  71.077  1.00  0.00     0.101 OA 
HETATM   31  C   UNL     1     -12.785   8.504  70.764  1.00  0.00     0.238 C  
HETATM   32  O   UNL     1      -7.983   8.371  73.531  1.00  0.00    -0.305 OA 
HETATM   33  C   UNL     1      -9.820   6.875  73.126  1.00  0.00    -0.213 C  
HETATM   34  C   UNL     1     -10.392   5.487  73.198  1.00  0.00    -0.231 C  
HETATM   35  C   UNL     1     -11.129   7.311  69.216  1.00  0.00    -0.029 C  
HETATM   36  C   UNL     1     -10.779   7.809  72.180  1.00  0.00    -0.248 C  
HETATM   37  C   UNL     1     -11.681   7.391  70.804  1.00  0.00    -0.276 C  
HETATM   38  O   UNL     1     -10.434   9.200  72.254  1.00  0.00    -0.175 OA 
HETATM   39  H   UNL     1     -10.990   9.741  71.707  1.00  0.00     0.000 HD 
BRANCH  13  40
HETATM   40  O   UNL     1      -6.567   6.393  69.797  1.00  0.00    -0.045 OA 
BRANCH  40  41
HETATM   41  C   UNL     1      -6.077   7.763  70.030  1.00  0.00    -0.026 C  
HETATM   42  C   UNL     1      -5.550  10.144  69.045  1.00  0.00    -0.034 C  
HETATM   43  C   UNL     1      -5.209  10.025  72.846  1.00  0.00     0.097 C  
HETATM   44  O   UNL     1      -7.100   8.887  67.881  1.00  0.00    -0.077 OA 
HETATM   45  C   UNL     1      -5.448  10.657  70.465  1.00  0.00    -0.084 C  
HETATM   46  H   UNL     1      -7.419   9.629  67.379  1.00  0.00     0.000 HD 
HETATM   47  C   UNL     1      -5.144   9.471  71.435  1.00  0.00    -0.053 C  
HETATM   48  C   UNL     1      -6.618   9.020  69.178  1.00  0.00    -0.050 C  
HETATM   49  O   UNL     1      -6.011   8.289  71.371  1.00  0.00    -0.034 OA 
BRANCH  42  50
HETATM   50  N   UNL     1      -5.772  11.142  67.944  1.00  0.00    -0.043 NA 
HETATM   51  C   UNL     1      -5.570  12.560  68.231  1.00  0.00    -0.060 C  
HETATM   52  C   UNL     1      -5.153  10.799  66.664  1.00  0.00    -0.058 C  
ENDBRANCH  42  50
ENDBRANCH  40  41
ENDBRANCH  13  40
BRANCH  35  53
HETATM   53  C   UNL     1      -9.710   7.752  69.157  1.00  0.00    -0.161 C  
HETATM   54  C   UNL     1      -9.886   9.149  68.580  1.00  0.00    -0.175 C  
ENDBRANCH  35  53
ENDBRANCH  11  12
ENDBRANCH   1  11
BRANCH   4  55
HETATM   55  O   UNL     1      -9.288   4.313  64.486  1.00  0.00    -0.154 OA 
HETATM   56  C   UNL     1     -10.239   3.430  63.903  1.00  0.00    -0.216 C  
ENDBRANCH   4  55
TORSDOF 7
ENDMDL
MODEL       13
REMARK 921   NORMALIZED FREE ENERGY PREDICTED BY IDOCK:   -0.64 KCAL/MOL
REMARK 922        TOTAL FREE ENERGY PREDICTED BY IDOCK:   -3.60 KCAL/MOL
REMARK 923 INTER-LIGAND FREE ENERGY PREDICTED BY IDOCK:   -1.90 KCAL/MOL
REMARK 924 INTRA-LIGAND FREE ENERGY PREDICTED BY IDOCK:   -1.69 KCAL/MOL
REMARK 927      BINDING AFFINITY PREDICTED BY RF-SCORE:    0.00 PKD
ROOT
HETATM    1  C   UNL     1      -8.512   7.292  65.685  1.00  0.00    -0.131 C  
HETATM    2  O   UNL     1      -5.722   6.619  62.340  1.00  0.00    -0.029 OA 
HETATM    3  C   UNL     1      -7.332   8.307  65.356  1.00  0.00    -0.083 C  
HETATM    4  C   UNL     1      -6.126   7.822  64.461  1.00  0.00    -0.045 C  
HETATM    5  C   UNL     1      -7.992   4.923  62.766  1.00  0.00    -0.077 C  
HETATM    6  C   UNL     1      -6.720   6.999  63.304  1.00  0.00    -0.048 C  
HETATM    7  C   UNL     1      -5.326   9.027  63.868  1.00  0.00    -0.061 C  
HETATM    8  O   UNL     1      -8.642   6.229  64.706  1.00  0.00    -0.041 OA 
HETATM    9  H   UNL     1      -6.089   6.111  61.626  1.00  0.00     0.000 HD 
HETATM   10  C   UNL     1      -7.505   5.828  63.911  1.00  0.00    -0.069 C  
ENDROOT
BRANCH   1  11
HETATM   11  O   UNL     1      -8.803   7.047  67.190  1.00  0.00    -0.119 OA 
BRANCH  11  12
HETATM   12  C   UNL     1      -9.248   8.206  68.010  1.00  0.00    -0.132 C  
HETATM   13  C   UNL     1     -10.741   6.386  69.550  1.00  0.00    -0.289 C  
HETATM   14  C   UNL     1      -9.200   9.856  70.289  1.00  0.00    -0.123 C  
HETATM   15  C   UNL     1     -10.629   7.772  68.605  1.00  0.00    -0.152 C  
HETATM   16  O   UNL     1      -5.884   9.120  68.957  1.00  0.00    -0.039 OA 
HETATM   17  C   UNL     1      -8.351   9.295  69.108  1.00  0.00    -0.127 C  
HETATM   18  C   UNL     1     -11.493   9.063  68.744  1.00  0.00     0.665 C  
HETATM   19  C   UNL     1     -11.670   6.639  70.871  1.00  0.00    -0.375 C  
HETATM   20  O   UNL     1     -11.235   7.657  71.784  1.00  0.00    -0.238 OA 
HETATM   21  C   UNL     1     -13.065   7.089  70.330  1.00  0.00     0.711 C  
HETATM   22  C   UNL     1      -6.889   9.169  69.676  1.00  0.00    -0.054 C  
HETATM   23  C   UNL     1     -11.774   5.309  71.629  1.00  0.00     0.655 C  
HETATM   24  C   UNL     1     -12.221   8.136  72.721  1.00  0.00    -0.099 C  
HETATM   25  C   UNL     1     -11.299   5.069  73.091  1.00  0.00    -0.397 C  
HETATM   26  H   UNL     1      -6.649   9.907  73.462  1.00  0.00     0.000 HD 
HETATM   27  O   UNL     1      -6.745   9.237  71.087  1.00  0.00    -0.092 OA 
HETATM   28  C   UNL     1      -9.797   5.184  73.629  1.00  0.00    -0.162 C  
HETATM   29  C   UNL     1     -11.753   3.562  73.249  1.00  0.00     0.102 C  
HETATM   30  O   UNL     1      -7.143   9.196  73.855  1.00  0.00    -0.310 OA 
HETATM   31  C   UNL     1      -5.165   7.875  74.207  1.00  0.00    -0.057 C  
HETATM   32  O   UNL     1      -9.207   4.102  73.821  1.00  0.00    -0.094 OA 
HETATM   33  C   UNL     1      -9.040   6.461  74.251  1.00  0.00    -0.180 C  
HETATM   34  C   UNL     1      -9.715   7.795  74.398  1.00  0.00     0.847 C  
HETATM   35  C   UNL     1      -6.103   8.109  71.834  1.00  0.00    -0.045 C  
HETATM   36  C   UNL     1      -7.418   6.681  74.154  1.00  0.00    -0.097 C  
HETATM   37  C   UNL     1      -6.538   7.950  73.453  1.00  0.00    -0.091 C  
HETATM   38  O   UNL     1      -6.692   5.447  74.253  1.00  0.00    -0.074 OA 
HETATM   39  H   UNL     1      -5.752   5.575  74.197  1.00  0.00     0.000 HD 
BRANCH  13  40
HETATM   40  O   UNL     1      -9.468   5.674  69.659  1.00  0.00    -0.133 OA 
BRANCH  40  41
HETATM   41  C   UNL     1      -8.887   4.324  69.555  1.00  0.00    -0.091 C  
HETATM   42  C   UNL     1      -8.130   2.331  68.015  1.00  0.00    -0.058 C  
HETATM   43  C   UNL     1      -7.123   1.825  71.663  1.00  0.00    -0.031 C  
HETATM   44  O   UNL     1      -8.217   4.410  67.011  1.00  0.00    -0.101 OA 
HETATM   45  C   UNL     1      -7.392   1.755  69.204  1.00  0.00    -0.043 C  
HETATM   46  H   UNL     1      -7.709   4.137  66.255  1.00  0.00     0.000 HD 
HETATM   47  C   UNL     1      -8.002   2.316  70.527  1.00  0.00    -0.042 C  
HETATM   48  C   UNL     1      -8.024   3.862  68.274  1.00  0.00    -0.076 C  
HETATM   49  O   UNL     1      -8.143   3.770  70.659  1.00  0.00    -0.053 OA 
BRANCH  42  50
HETATM   50  N   UNL     1      -7.739   1.863  66.642  1.00  0.00    -0.065 NA 
HETATM   51  C   UNL     1      -8.773   1.765  65.614  1.00  0.00    -0.115 C  
HETATM   52  C   UNL     1      -6.545   2.500  66.088  1.00  0.00    -0.032 C  
ENDBRANCH  42  50
ENDBRANCH  40  41
ENDBRANCH  13  40
BRANCH  35  53
HETATM   53  C   UNL     1      -6.534   6.903  71.080  1.00  0.00    -0.044 C  
HETATM   54  C   UNL     1      -5.326   6.004  71.293  1.00  0.00    -0.018 C  
ENDBRANCH  35  53
ENDBRANCH  11  12
ENDBRANCH   1  11
BRANCH   4  55
HETATM   55  O   UNL     1      -5.268   7.057  65.330  1.00  0.00    -0.026 OA 
HETATM   56  C   UNL     1      -5.270   7.356  66.720  1.00  0.00    -0.023 C  
ENDBRANCH   4  55
TORSDOF 7
ENDMDL
MODEL       14
REMARK 921   NORMALIZED FREE ENERGY PREDICTED BY IDOCK:   -0.38 KCAL/MOL
REMARK 922        TOTAL FREE ENERGY PREDICTED BY IDOCK:   -3.22 KCAL/MOL
REMARK 923 INTER-LIGAND FREE ENERGY PREDICTED BY IDOCK:   -5.33 KCAL/MOL
REMARK 924 INTRA-LIGAND FREE ENERGY PREDICTED BY IDOCK:    2.11 KCAL/MOL
REMARK 927      BINDING AFFINITY PREDICTED BY RF-SCORE:    0.00 PKD
ROOT
HETATM    1  C   UNL     1     -11.613  13.104  70.101  1.00  0.00    -0.074 C  
HETATM    2  O   UNL     1     -13.616  15.647  73.093  1.00  0.00    -0.564 OA 
HETATM    3  C   UNL     1     -11.101  14.572  70.436  1.00  0.00    -0.037 C  
HETATM    4  C   UNL     1     -12.075  15.581  71.162  1.00  0.00    -0.380 C  
HETATM    5  C   UNL     1     -14.388  12.919  72.684  1.00  0.00     0.409 C  
HETATM    6  C   UNL     1     -12.800  14.795  72.269  1.00  0.00    -0.333 C  
HETATM    7  C   UNL     1     -11.294  16.769  71.812  1.00  0.00     0.356 C  
HETATM    8  O   UNL     1     -12.694  12.665  70.965  1.00  0.00    -0.324 OA 
HETATM    9  H   UNL     1     -14.064  15.163  73.776  1.00  0.00     0.000 HD 
HETATM   10  C   UNL     1     -13.552  13.632  71.608  1.00  0.00    -0.293 C  
ENDROOT
BRANCH   1  11
HETATM   11  O   UNL     1     -11.544  12.679  68.610  1.00  0.00    -0.271 OA 
BRANCH  11  12
HETATM   12  C   UNL     1     -10.616  13.425  67.717  1.00  0.00    -0.245 C  
HETATM   13  C   UNL     1      -8.507  12.029  68.948  1.00  0.00     0.177 C  
HETATM   14  C   UNL     1      -8.930  13.689  65.480  1.00  0.00     1.074 C  
HETATM   15  C   UNL     1      -9.256  13.463  68.491  1.00  0.00    -0.082 C  
HETATM   16  O   UNL     1     -12.157  12.179  64.697  1.00  0.00    -0.366 OA 
HETATM   17  C   UNL     1     -10.385  13.380  65.945  1.00  0.00    -0.290 C  
HETATM   18  C   UNL     1      -8.548  14.798  68.107  1.00  0.00    -0.159 C  
HETATM   19  C   UNL     1      -6.899  12.076  68.653  1.00  0.00    -0.091 C  
HETATM   20  O   UNL     1      -6.496  12.267  67.289  1.00  0.00    -0.144 OA 
HETATM   21  C   UNL     1      -6.355  13.299  69.457  1.00  0.00    -0.104 C  
HETATM   22  C   UNL     1     -10.948  12.365  64.883  1.00  0.00    -0.302 C  
HETATM   23  C   UNL     1      -6.293  10.763  69.165  1.00  0.00    -0.055 C  
HETATM   24  C   UNL     1      -5.132  12.683  67.081  1.00  0.00     0.112 C  
HETATM   25  C   UNL     1      -5.534   9.723  68.292  1.00  0.00    -0.039 C  
HETATM   26  H   UNL     1      -8.292  11.179  62.340  1.00  0.00     0.000 HD 
HETATM   27  O   UNL     1      -9.999  11.737  64.034  1.00  0.00    -0.277 OA 
HETATM   28  C   UNL     1      -6.142   8.889  67.070  1.00  0.00    -0.058 C  
HETATM   29  C   UNL     1      -5.140   8.695  69.428  1.00  0.00    -0.031 C  
HETATM   30  O   UNL     1      -7.683  10.683  62.875  1.00  0.00    -0.127 OA 
HETATM   31  C   UNL     1      -8.775   8.600  62.378  1.00  0.00    -0.112 C  
HETATM   32  O   UNL     1      -6.417   7.697  67.312  1.00  0.00    -0.055 OA 
HETATM   33  C   UNL     1      -6.166   9.261  65.504  1.00  0.00    -0.064 C  
HETATM   34  C   UNL     1      -5.579  10.540  64.979  1.00  0.00    -0.140 C  
HETATM   35  C   UNL     1      -9.898  10.243  63.990  1.00  0.00    -0.218 C  
HETATM   36  C   UNL     1      -7.323   8.730  64.471  1.00  0.00    -0.102 C  
HETATM   37  C   UNL     1      -8.410   9.615  63.515  1.00  0.00    -0.172 C  
HETATM   38  O   UNL     1      -7.761   7.398  64.777  1.00  0.00    -0.100 OA 
HETATM   39  H   UNL     1      -8.431   7.090  64.178  1.00  0.00     0.000 HD 
BRANCH  13  40
HETATM   40  O   UNL     1      -9.294  10.846  68.601  1.00  0.00    -0.173 OA 
BRANCH  40  41
HETATM   41  C   UNL     1     -10.108   9.780  69.212  1.00  0.00    -0.198 C  
HETATM   42  C   UNL     1     -10.569   7.206  69.493  1.00  0.00    -0.234 C  
HETATM   43  C   UNL     1     -12.686   9.338  71.850  1.00  0.00    -0.474 C  
HETATM   44  O   UNL     1      -8.426   7.787  68.854  1.00  0.00    -0.127 OA 
HETATM   45  C   UNL     1     -11.454   7.542  70.674  1.00  0.00    -0.291 C  
HETATM   46  H   UNL     1      -8.065   6.932  69.058  1.00  0.00     0.000 HD 
HETATM   47  C   UNL     1     -11.938   9.023  70.567  1.00  0.00    -0.010 C  
HETATM   48  C   UNL     1      -9.495   8.331  69.558  1.00  0.00    -0.162 C  
HETATM   49  O   UNL     1     -10.927  10.066  70.364  1.00  0.00    -0.279 OA 
BRANCH  42  50
HETATM   50  N   UNL     1     -10.051   5.801  69.370  1.00  0.00    -0.194 NA 
HETATM   51  C   UNL     1     -10.178   4.904  70.517  1.00  0.00    -0.218 C  
HETATM   52  C   UNL     1     -10.440   5.103  68.145  1.00  0.00    -0.013 C  
ENDBRANCH  42  50
ENDBRANCH  40  41
ENDBRANCH  13  40
BRANCH  35  53
HETATM   53  C   UNL     1     -10.189   9.835  65.390  1.00  0.00    -0.049 C  
HETATM   54  C   UNL     1      -9.106  10.607  66.127  1.00  0.00    -0.190 C  
ENDBRANCH  35  53
ENDBRANCH  11  12
ENDBRANCH   1  11
BRANCH   4  55
HETATM   55  O   UNL     1     -12.957  16.087  70.142  1.00  0.00    -0.145 OA 
HETATM   56  C   UNL     1     -12.591  15.911  68.779  1.00  0.00     0.911 C  
ENDBRANCH   4  55
TORSDOF 7
ENDMDL
MODEL       15
REMARK 921   NORMALIZED FREE ENERGY PREDICTED BY IDOCK:   -0.20 KCAL/MOL
REMARK 922        TOTAL FREE ENERGY PREDICTED BY IDOCK:   -2.97 KCAL/MOL
REMARK 923 INTER-LIGAND FREE ENERGY PREDICTED BY IDOCK:   -5.75 KCAL/MOL
REMARK 924 INTRA-LIGAND FREE ENERGY PREDICTED BY IDOCK:    2.78 KCAL/MOL
REMARK 927      BINDING AFFINITY PREDICTED BY RF-SCORE:    0.00 PKD
ROOT
HETATM    1  C   UNL     1      -7.608  12.421  68.802  1.00  0.00    -0.033 C  
HETATM    2  O   UNL     1      -7.495  16.804  69.258  1.00  0.00    -0.229 OA 
HETATM    3  C   UNL     1      -6.547  13.143  69.741  1.00  0.00     0.063 C  
HETATM    4  C   UNL     1      -6.260  14.682  69.540  1.00  0.00    -0.120 C  
HETATM    5  C   UNL     1      -9.568  15.503  67.768  1.00  0.00    -0.209 C  
HETATM    6  C   UNL     1      -7.617  15.372  69.315  1.00  0.00    -0.216 C  
HETATM    7  C   UNL     1      -5.574  15.310  70.797  1.00  0.00    -0.082 C  
HETATM    8  O   UNL     1      -8.588  13.334  68.241  1.00  0.00    -0.173 OA 
HETATM    9  H   UNL     1      -8.333  17.230  69.119  1.00  0.00     0.000 HD 
HETATM   10  C   UNL     1      -8.273  14.734  68.083  1.00  0.00    -0.142 C  
ENDROOT
BRANCH   1  11
HETATM   11  O   UNL     1      -7.092  11.196  68.003  1.00  0.00    -0.071 OA 
BRANCH  11  12
HETATM   12  C   UNL     1      -6.245  10.204  68.721  1.00  0.00    -0.047 C  
HETATM   13  C   UNL     1      -8.582   9.341  70.028  1.00  0.00    -0.182 C  
HETATM   14  C   UNL     1      -5.218   7.626  69.186  1.00  0.00    -0.018 C  
HETATM   15  C   UNL     1      -7.004   9.921  70.060  1.00  0.00    -0.119 C  
HETATM   16  O   UNL     1      -5.125   8.615  65.675  1.00  0.00    -0.030 OA 
HETATM   17  C   UNL     1      -5.344   8.774  68.139  1.00  0.00    -0.035 C  
HETATM   18  C   UNL     1      -5.924   9.614  71.142  1.00  0.00    -0.072 C  
HETATM   19  C   UNL     1      -8.796   8.139  71.116  1.00  0.00    -0.146 C  
HETATM   20  O   UNL     1      -7.983   6.967  70.956  1.00  0.00    -0.099 OA 
HETATM   21  C   UNL     1      -8.429   8.752  72.505  1.00  0.00     0.055 C  
HETATM   22  C   UNL     1      -5.398   8.051  66.742  1.00  0.00    -0.032 C  
HETATM   23  C   UNL     1     -10.272   7.724  71.067  1.00  0.00    -0.210 C  
HETATM   24  C   UNL     1      -7.894   6.093  72.099  1.00  0.00    -0.101 C  
HETATM   25  C   UNL     1     -10.795   6.303  70.708  1.00  0.00    -0.339 C  
HETATM   26  H   UNL     1      -5.589   4.202  67.016  1.00  0.00     0.000 HD 
HETATM   27  O   UNL     1      -5.660   6.656  66.755  1.00  0.00    -0.013 OA 
HETATM   28  C   UNL     1     -10.605   5.550  69.310  1.00  0.00    -0.255 C  
HETATM   29  C   UNL     1     -12.343   6.557  70.912  1.00  0.00    -0.142 C  
HETATM   30  O   UNL     1      -6.437   4.053  67.418  1.00  0.00    -0.036 OA 
HETATM   31  C   UNL     1      -7.509   3.738  65.289  1.00  0.00    -0.077 C  
HETATM   32  O   UNL     1     -11.605   5.529  68.566  1.00  0.00     0.957 OA 
HETATM   33  C   UNL     1      -9.426   4.555  68.850  1.00  0.00    -0.225 C  
HETATM   34  C   UNL     1      -8.279   4.205  69.754  1.00  0.00    -0.068 C  
HETATM   35  C   UNL     1      -6.834   6.102  66.008  1.00  0.00    -0.057 C  
HETATM   36  C   UNL     1      -8.961   4.373  67.288  1.00  0.00    -0.120 C  
HETATM   37  C   UNL     1      -7.446   4.639  66.571  1.00  0.00    -0.082 C  
HETATM   38  O   UNL     1     -10.065   4.457  66.375  1.00  0.00    -0.232 OA 
HETATM   39  H   UNL     1      -9.796   4.351  65.470  1.00  0.00     0.000 HD 
BRANCH  13  40
HETATM   40  O   UNL     1      -9.110   9.220  68.670  1.00  0.00    -0.132 OA 
BRANCH  40  41
HETATM   41  C   UNL     1      -9.846   9.981  67.645  1.00  0.00    -0.162 C  
HETATM   42  C   UNL     1     -11.654  11.809  67.089  1.00  0.00    -0.266 C  
HETATM   43  C   UNL     1      -9.756  10.638  63.990  1.00  0.00    -0.373 C  
HETATM   44  O   UNL     1     -10.683  11.948  69.181  1.00  0.00    -0.347 OA 
HETATM   45  C   UNL     1     -11.128  11.829  65.670  1.00  0.00    -0.340 C  
HETATM   46  H   UNL     1     -10.993  12.833  69.336  1.00  0.00     0.000 HD 
HETATM   47  C   UNL     1     -10.386  10.489  65.363  1.00  0.00    -0.222 C  
HETATM   48  C   UNL     1     -10.371  11.482  67.909  1.00  0.00    -0.183 C  
HETATM   49  O   UNL     1      -9.343  10.050  66.296  1.00  0.00    -0.156 OA 
BRANCH  42  50
HETATM   50  N   UNL     1     -12.461  12.983  67.564  1.00  0.00    -0.017 NA 
HETATM   51  C   UNL     1     -12.069  13.649  68.804  1.00  0.00    -0.297 C  
HETATM   52  C   UNL     1     -12.766  13.980  66.538  1.00  0.00     0.004 C  
ENDBRANCH  42  50
ENDBRANCH  40  41
ENDBRANCH  13  40
BRANCH  35  53
HETATM   53  C   UNL     1      -7.866   7.163  66.149  1.00  0.00    -0.105 C  
HETATM   54  C   UNL     1      -7.832   7.760  64.750  1.00  0.00    -0.129 C  
ENDBRANCH  35  53
ENDBRANCH  11  12
ENDBRANCH   1  11
BRANCH   4  55
HETATM   55  O   UNL     1      -5.371  14.778  68.410  1.00  0.00    -0.097 OA 
HETATM   56  C   UNL     1      -5.598  15.806  67.454  1.00  0.00     0.007 C  
ENDBRANCH   4  55
TORSDOF 7
ENDMDL
MODEL       16
REMARK 921   NORMALIZED FREE ENERGY PREDICTED BY IDOCK:   -0.13 KCAL/MOL
REMARK 922        TOTAL FREE ENERGY PREDICTED BY IDOCK:   -2.88 KCAL/MOL
REMARK 923 INTER-LIGAND FREE ENERGY PREDICTED BY IDOCK:   -0.26 KCAL/MOL
REMARK 924 INTRA-LIGAND FREE ENERGY PREDICTED BY IDOCK:   -2.62 KCAL/MOL
REMARK 927      BINDING AFFINITY PREDICTED BY RF-SCORE:    0.00 PKD
ROOT
HETATM    1  C   UNL     1     -12.073  10.696  69.538  1.00  0.00    -0.214 C  
HETATM    2  O   UNL     1     -12.181  14.643  67.580  1.00  0.00    -0.583 OA 
HETATM    3  C   UNL     1     -12.374  12.030  70.350  1.00  0.00    -0.317 C  
HETATM    4  C   UNL     1     -11.978  13.421  69.719  1.00  0.00    -0.330 C  
HETATM    5  C   UNL     1     -11.892  12.226  66.069  1.00  0.00    -0.409 C  
HETATM    6  C   UNL     1     -12.368  13.374  68.231  1.00  0.00     0.120 C  
HETATM    7  C   UNL     1     -12.739  14.603  70.405  1.00  0.00    -0.370 C  
HETATM    8  O   UNL     1     -11.978  10.908  68.105  1.00  0.00    -0.581 OA 
HETATM    9  H   UNL     1     -12.422  14.614  66.661  1.00  0.00     0.000 HD 
HETATM   10  C   UNL     1     -11.616  12.204  67.583  1.00  0.00    -0.343 C  
ENDROOT
BRANCH   1  11
HETATM   11  O   UNL     1     -11.194   9.640  70.260  1.00  0.00    -0.246 OA 
BRANCH  11  12
HETATM   12  C   UNL     1     -11.714   8.248  70.351  1.00  0.00     0.015 C  
HETATM   13  C   UNL     1      -9.818   7.545  68.395  1.00  0.00    -0.164 C  
HETATM   14  C   UNL     1     -11.615   5.564  71.190  1.00  0.00     0.431 C  
HETATM   15  C   UNL     1     -11.402   7.610  68.956  1.00  0.00     0.432 C  
HETATM   16  O   UNL     1     -10.952   7.949  73.869  1.00  0.00     0.248 OA 
HETATM   17  C   UNL     1     -11.657   7.045  71.672  1.00  0.00    -0.320 C  
HETATM   18  C   UNL     1     -12.535   6.580  68.660  1.00  0.00     4.189 C  
HETATM   19  C   UNL     1      -9.481   6.089  67.731  1.00  0.00    -0.112 C  
HETATM   20  O   UNL     1      -9.602   4.943  68.586  1.00  0.00    -0.136 OA 
HETATM   21  C   UNL     1     -10.516   5.898  66.577  1.00  0.00    -0.251 C  
HETATM   22  C   UNL     1     -10.835   7.063  73.014  1.00  0.00    -0.309 C  
HETATM   23  C   UNL     1      -8.049   6.146  67.185  1.00  0.00    -0.106 C  
HETATM   24  C   UNL     1      -9.679   3.662  67.928  1.00  0.00    -0.046 C  
HETATM   25  C   UNL     1      -6.877   5.229  67.640  1.00  0.00    -0.060 C  
HETATM   26  H   UNL     1      -9.101   3.699  73.793  1.00  0.00     0.000 HD 
HETATM   27  O   UNL     1     -10.016   5.934  73.275  1.00  0.00    -0.170 OA 
HETATM   28  C   UNL     1      -6.245   5.157  69.107  1.00  0.00    -0.033 C  
HETATM   29  C   UNL     1      -5.757   5.764  66.659  1.00  0.00    -0.017 C  
HETATM   30  O   UNL     1      -8.460   3.617  73.097  1.00  0.00    -0.085 OA 
HETATM   31  C   UNL     1      -6.717   4.579  74.444  1.00  0.00    -0.065 C  
HETATM   32  O   UNL     1      -5.150   5.735  69.254  1.00  0.00    -0.003 OA 
HETATM   33  C   UNL     1      -6.649   4.200  70.336  1.00  0.00    -0.032 C  
HETATM   34  C   UNL     1      -7.760   3.194  70.232  1.00  0.00    -0.043 C  
HETATM   35  C   UNL     1      -8.544   6.103  73.494  1.00  0.00    -0.125 C  
HETATM   36  C   UNL     1      -6.440   4.617  71.908  1.00  0.00    -0.023 C  
HETATM   37  C   UNL     1      -7.586   4.762  73.151  1.00  0.00    -0.092 C  
HETATM   38  O   UNL     1      -5.247   5.387  72.116  1.00  0.00    -0.011 OA 
HETATM   39  H   UNL     1      -5.126   5.628  73.026  1.00  0.00     0.000 HD 
BRANCH  13  40
HETATM   40  O   UNL     1      -8.871   8.186  69.306  1.00  0.00    -0.142 OA 
BRANCH  40  41
HETATM   41  C   UNL     1      -7.713   9.097  69.314  1.00  0.00    -0.080 C  
HETATM   42  C   UNL     1      -6.311  10.940  68.066  1.00  0.00    -0.057 C  
HETATM   43  C   UNL     1      -5.152  10.407  71.666  1.00  0.00    -0.068 C  
HETATM   44  O   UNL     1      -8.516  10.728  67.411  1.00  0.00    -0.119 OA 
HETATM   45  C   UNL     1      -5.616  11.232  69.379  1.00  0.00    -0.046 C  
HETATM   46  H   UNL     1      -8.527  11.560  66.952  1.00  0.00     0.000 HD 
HETATM   47  C   UNL     1      -5.729   9.993  70.323  1.00  0.00    -0.055 C  
HETATM   48  C   UNL     1      -7.731  10.509  68.537  1.00  0.00    -0.104 C  
HETATM   49  O   UNL     1      -7.060   9.424  70.558  1.00  0.00    -0.084 OA 
BRANCH  42  50
HETATM   50  N   UNL     1      -6.260  11.984  66.987  1.00  0.00    -0.153 NA 
HETATM   51  C   UNL     1      -6.394  13.389  67.365  1.00  0.00     0.025 C  
HETATM   52  C   UNL     1      -5.168  11.828  66.027  1.00  0.00     0.488 C  
ENDBRANCH  42  50
ENDBRANCH  40  41
ENDBRANCH  13  40
BRANCH  35  53
HETATM   53  C   UNL     1      -8.185   7.221  72.582  1.00  0.00    -0.123 C  
HETATM   54  C   UNL     1      -7.322   8.061  73.511  1.00  0.00    -0.181 C  
ENDBRANCH  35  53
ENDBRANCH  11  12
ENDBRANCH   1  11
BRANCH   4  55
HETATM   55  O   UNL     1     -10.562  13.571  69.939  1.00  0.00     0.409 OA 
HETATM   56  C   UNL     1     -10.040  14.880  70.131  1.00  0.00     0.190 C  
ENDBRANCH   4  55
TORSDOF 7
ENDMDL
MODEL       17
REMARK 921   NORMALIZED FREE ENERGY PREDICTED BY IDOCK:   -0.05 KCAL/MOL
REMARK 922        TOTAL FREE ENERGY PREDICTED BY IDOCK:   -2.76 KCAL/MOL
REMARK 923 INTER-LIGAND FREE ENERGY PREDICTED BY IDOCK:   -0.50 KCAL/MOL
REMARK 924 INTRA-LIGAND FREE ENERGY PREDICTED BY IDOCK:   -2.27 KCAL/MOL
REMARK 927      BINDING AFFINITY PREDICTED BY RF-SCORE:    0.00 PKD
ROOT
HETATM    1  C   UNL     1     -10.838  13.520  69.956  1.00  0.00     0.614 C  
HETATM    2  O   UNL     1     -13.481  15.557  72.836  1.00  0.00    -0.480 OA 
HETATM    3  C   UNL     1     -10.537  14.991  70.481  1.00  0.00    -0.040 C  
HETATM    4  C   UNL     1     -11.700  15.826  71.144  1.00  0.00    -0.428 C  
HETATM    5  C   UNL     1     -13.894  12.821  72.096  1.00  0.00    -0.326 C  
HETATM    6  C   UNL     1     -12.477  14.871  72.068  1.00  0.00    -0.334 C  
HETATM    7  C   UNL     1     -11.145  17.015  71.995  1.00  0.00     1.308 C  
HETATM    8  O   UNL     1     -11.970  12.898  70.619  1.00  0.00    -0.299 OA 
HETATM    9  H   UNL     1     -13.960  14.968  73.407  1.00  0.00     0.000 HD 
HETATM   10  C   UNL     1     -13.005  13.712  71.212  1.00  0.00    -0.322 C  
ENDROOT
BRANCH   1  11
HETATM   11  O   UNL     1     -10.528  13.252  68.460  1.00  0.00    -0.247 OA 
BRANCH  11  12
HETATM   12  C   UNL     1     -11.277  12.161  67.780  1.00  0.00    -0.275 C  
HETATM   13  C   UNL     1      -9.189  12.066  65.897  1.00  0.00    -0.102 C  
HETATM   14  C   UNL     1     -11.782   9.472  67.123  1.00  0.00     2.563 C  
HETATM   15  C   UNL     1     -10.817  12.226  66.285  1.00  0.00    -0.313 C  
HETATM   16  O   UNL     1     -11.253  10.020  70.690  1.00  0.00    -0.304 OA 
HETATM   17  C   UNL     1     -11.670  10.494  68.294  1.00  0.00    -0.051 C  
HETATM   18  C   UNL     1     -12.028  11.772  65.413  1.00  0.00     0.100 C  
HETATM   19  C   UNL     1      -8.977  11.083  64.608  1.00  0.00    -0.072 C  
HETATM   20  O   UNL     1      -9.445   9.733  64.739  1.00  0.00    -0.274 OA 
HETATM   21  C   UNL     1      -9.793  11.729  63.443  1.00  0.00    -0.407 C  
HETATM   22  C   UNL     1     -11.124   9.662  69.513  1.00  0.00    -0.168 C  
HETATM   23  C   UNL     1      -7.478  11.056  64.285  1.00  0.00     0.722 C  
HETATM   24  C   UNL     1      -9.607   8.993  63.512  1.00  0.00     1.584 C  
HETATM   25  C   UNL     1      -6.581   9.784  64.293  1.00  0.00    -0.119 C  
HETATM   26  H   UNL     1     -10.149   6.041  68.583  1.00  0.00     0.000 HD 
HETATM   27  O   UNL     1     -10.568   8.390  69.220  1.00  0.00    -0.223 OA 
HETATM   28  C   UNL     1      -6.258   8.862  65.558  1.00  0.00    -0.056 C  
HETATM   29  C   UNL     1      -5.223  10.444  63.819  1.00  0.00    -0.148 C  
HETATM   30  O   UNL     1      -9.410   6.157  67.997  1.00  0.00    -0.116 OA 
HETATM   31  C   UNL     1      -7.818   5.898  69.780  1.00  0.00    -0.100 C  
HETATM   32  O   UNL     1      -5.130   9.016  66.067  1.00  0.00    -0.032 OA 
HETATM   33  C   UNL     1      -7.039   7.556  66.083  1.00  0.00    -0.070 C  
HETATM   34  C   UNL     1      -8.261   7.025  65.389  1.00  0.00    -0.133 C  
HETATM   35  C   UNL     1      -9.156   8.076  69.609  1.00  0.00    -0.152 C  
HETATM   36  C   UNL     1      -7.065   7.094  67.656  1.00  0.00    -0.089 C  
HETATM   37  C   UNL     1      -8.385   6.886  68.702  1.00  0.00    -0.121 C  
HETATM   38  O   UNL     1      -5.822   7.357  68.324  1.00  0.00    -0.025 OA 
HETATM   39  H   UNL     1      -5.837   7.089  69.235  1.00  0.00     0.000 HD 
BRANCH  13  40
HETATM   40  O   UNL     1      -8.338  11.939  67.080  1.00  0.00    -0.167 OA 
BRANCH  40  41
HETATM   41  C   UNL     1      -7.318  12.669  67.853  1.00  0.00    -0.116 C  
HETATM   42  C   UNL     1      -6.079  14.939  68.333  1.00  0.00    -0.103 C  
HETATM   43  C   UNL     1      -5.160  12.211  70.843  1.00  0.00    -0.140 C  
HETATM   44  O   UNL     1      -8.173  15.111  67.374  1.00  0.00    -0.163 OA 
HETATM   45  C   UNL     1      -5.540  14.321  69.605  1.00  0.00    -0.096 C  
HETATM   46  H   UNL     1      -8.258  16.037  67.571  1.00  0.00     0.000 HD 
HETATM   47  C   UNL     1      -5.563  12.764  69.487  1.00  0.00    -0.090 C  
HETATM   48  C   UNL     1      -7.462  14.238  68.189  1.00  0.00    -0.131 C  
HETATM   49  O   UNL     1      -6.820  12.121  69.091  1.00  0.00    -0.099 OA 
BRANCH  42  50
HETATM   50  N   UNL     1      -6.079  16.436  68.215  1.00  0.00    -0.114 NA 
HETATM   51  C   UNL     1      -5.491  17.225  69.296  1.00  0.00    -0.174 C  
HETATM   52  C   UNL     1      -5.638  16.955  66.922  1.00  0.00    -0.155 C  
ENDBRANCH  42  50
ENDBRANCH  40  41
ENDBRANCH  13  40
BRANCH  35  53
HETATM   53  C   UNL     1      -8.451   9.374  69.434  1.00  0.00    -0.142 C  
HETATM   54  C   UNL     1      -7.700   9.453  70.755  1.00  0.00    -0.144 C  
ENDBRANCH  35  53
ENDBRANCH  11  12
ENDBRANCH   1  11
BRANCH   4  55
HETATM   55  O   UNL     1     -12.490  16.344  70.055  1.00  0.00     0.175 OA 
HETATM   56  C   UNL     1     -11.900  16.415  68.763  1.00  0.00     0.093 C  
ENDBRANCH   4  55
TORSDOF 7
ENDMDL
MODEL       18
REMARK 921   NORMALIZED FREE ENERGY PREDICTED BY IDOCK:    0.26 KCAL/MOL
REMARK 922        TOTAL FREE ENERGY PREDICTED BY IDOCK:   -2.32 KCAL/MOL
REMARK 923 INTER-LIGAND FREE ENERGY PREDICTED BY IDOCK:   -3.27 KCAL/MOL
REMARK 924 INTRA-LIGAND FREE ENERGY PREDICTED BY IDOCK:    0.95 KCAL/MOL
REMARK 927      BINDING AFFINITY PREDICTED BY RF-SCORE:    0.00 PKD
ROOT
HETATM    1  C   UNL     1     -10.929  11.123  67.559  1.00  0.00    -0.275 C  
HETATM    2  O   UNL     1     -10.485  15.109  65.730  1.00  0.00    -0.297 OA 
HETATM    3  C   UNL     1     -10.477  12.392  68.405  1.00  0.00    -0.245 C  
HETATM    4  C   UNL     1      -9.918  13.661  67.651  1.00  0.00    -0.239 C  
HETATM    5  C   UNL     1     -11.544  12.891  64.257  1.00  0.00    -0.434 C  
HETATM    6  C   UNL     1     -10.815  13.891  66.421  1.00  0.00    -0.291 C  
HETATM    7  C   UNL     1      -9.962  14.935  68.556  1.00  0.00    -0.223 C  
HETATM    8  O   UNL     1     -11.299  11.449  66.194  1.00  0.00    -0.225 OA 
HETATM    9  H   UNL     1     -11.038  15.251  64.971  1.00  0.00     0.000 HD 
HETATM   10  C   UNL     1     -10.760  12.626  65.554  1.00  0.00    -0.274 C  
ENDROOT
BRANCH   1  11
HETATM   11  O   UNL     1     -10.231   9.782  67.911  1.00  0.00    -0.171 OA 
BRANCH  11  12
HETATM   12  C   UNL     1     -11.093   8.591  68.144  1.00  0.00     0.368 C  
HETATM   13  C   UNL     1      -8.943   7.015  67.244  1.00  0.00    -0.119 C  
HETATM   14  C   UNL     1     -11.941   6.332  69.590  1.00  0.00     0.473 C  
HETATM   15  C   UNL     1     -10.550   7.503  67.159  1.00  0.00    -0.415 C  
HETATM   16  O   UNL     1     -11.526   9.308  71.658  1.00  0.00    -0.355 OA 
HETATM   17  C   UNL     1     -11.746   7.877  69.648  1.00  0.00     0.596 C  
HETATM   18  C   UNL     1     -11.766   6.623  66.734  1.00  0.00     1.416 C  
HETATM   19  C   UNL     1      -8.807   5.390  67.125  1.00  0.00    -0.109 C  
HETATM   20  O   UNL     1      -9.469   4.608  68.130  1.00  0.00    -0.132 OA 
HETATM   21  C   UNL     1      -9.461   5.007  65.758  1.00  0.00    -0.167 C  
HETATM   22  C   UNL     1     -11.388   8.190  71.148  1.00  0.00    -0.269 C  
HETATM   23  C   UNL     1      -7.313   5.045  67.138  1.00  0.00    -0.082 C  
HETATM   24  C   UNL     1      -9.670   3.214  67.823  1.00  0.00     0.088 C  
HETATM   25  C   UNL     1      -6.607   4.148  68.196  1.00  0.00    -0.042 C  
HETATM   26  H   UNL     1     -10.892   5.019  73.298  1.00  0.00     0.000 HD 
HETATM   27  O   UNL     1     -11.004   7.088  71.955  1.00  0.00    -0.224 OA 
HETATM   28  C   UNL     1      -6.486   4.447  69.762  1.00  0.00    -0.032 C  
HETATM   29  C   UNL     1      -5.147   4.161  67.589  1.00  0.00    -0.011 C  
HETATM   30  O   UNL     1     -10.115   4.620  72.925  1.00  0.00    -0.148 OA 
HETATM   31  C   UNL     1      -8.671   5.674  74.533  1.00  0.00    -0.114 C  
HETATM   32  O   UNL     1      -5.376   4.861  70.150  1.00  0.00    -0.003 OA 
HETATM   33  C   UNL     1      -7.472   4.005  70.955  1.00  0.00    -0.041 C  
HETATM   34  C   UNL     1      -8.719   3.205  70.705  1.00  0.00    -0.130 C  
HETATM   35  C   UNL     1      -9.674   7.085  72.644  1.00  0.00    -0.150 C  
HETATM   36  C   UNL     1      -7.645   4.861  72.343  1.00  0.00    -0.091 C  
HETATM   37  C   UNL     1      -9.034   5.571  73.010  1.00  0.00    -0.122 C  
HETATM   38  O   UNL     1      -6.415   5.459  72.774  1.00  0.00    -0.059 OA 
HETATM   39  H   UNL     1      -6.515   5.955  73.578  1.00  0.00     0.000 HD 
BRANCH  13  40
HETATM   40  O   UNL     1      -8.183   7.755  68.249  1.00  0.00    -0.122 OA 
BRANCH  40  41
HETATM   41  C   UNL     1      -7.269   8.902  68.393  1.00  0.00    -0.078 C  
HETATM   42  C   UNL     1      -5.818  10.416  69.981  1.00  0.00    -0.062 C  
HETATM   43  C   UNL     1      -5.251  11.203  66.287  1.00  0.00    -0.132 C  
HETATM   44  O   UNL     1      -6.284   8.291  70.756  1.00  0.00    -0.032 OA 
HETATM   45  C   UNL     1      -5.136  10.972  68.749  1.00  0.00    -0.041 C  
HETATM   46  H   UNL     1      -5.621   8.324  71.436  1.00  0.00     0.000 HD 
HETATM   47  C   UNL     1      -6.053  10.769  67.501  1.00  0.00    -0.052 C  
HETATM   48  C   UNL     1      -6.143   8.957  69.545  1.00  0.00    -0.036 C  
HETATM   49  O   UNL     1      -6.575   9.423  67.241  1.00  0.00    -0.069 OA 
BRANCH  42  50
HETATM   50  N   UNL     1      -5.128  10.573  71.306  1.00  0.00    -0.086 NA 
HETATM   51  C   UNL     1      -5.172  11.875  71.969  1.00  0.00     0.260 C  
HETATM   52  C   UNL     1      -5.399   9.511  72.274  1.00  0.00    -0.054 C  
ENDBRANCH  42  50
ENDBRANCH  40  41
ENDBRANCH  13  40
BRANCH  35  53
HETATM   53  C   UNL     1      -8.784   7.784  71.680  1.00  0.00    -0.142 C  
HETATM   54  C   UNL     1      -8.342   8.966  72.530  1.00  0.00     0.273 C  
ENDBRANCH  35  53
ENDBRANCH  11  12
ENDBRANCH   1  11
BRANCH   4  55
HETATM   55  O   UNL     1      -8.550  13.357  67.318  1.00  0.00    -0.198 OA 
HETATM   56  C   UNL     1      -7.516  14.098  67.954  1.00  0.00    -0.152 C  
ENDBRANCH   4  55
TORSDOF 7
ENDMDL
MODEL       19
REMARK 921   NORMALIZED FREE ENERGY PREDICTED BY IDOCK:    0.35 KCAL/MOL
REMARK 922        TOTAL FREE ENERGY PREDICTED BY IDOCK:   -2.19 KCAL/MOL
REMARK 923 INTER-LIGAND FREE ENERGY PREDICTED BY IDOCK:   -2.97 KCAL/MOL
REMARK 924 INTRA-LIGAND FREE ENERGY PREDICTED BY IDOCK:    0.78 KCAL/MOL
REMARK 927      BINDING AFFINITY PREDICTED BY RF-SCORE:    0.00 PKD
ROOT
HETATM    1  C   UNL     1      -8.891   6.932  68.059  1.00  0.00    -0.123 C  
HETATM    2  O   UNL     1      -7.520   2.742  68.027  1.00  0.00    -0.052 OA 
HETATM    3  C   UNL     1      -8.369   6.227  66.732  1.00  0.00    -0.110 C  
HETATM    4  C   UNL     1      -7.500   4.914  66.848  1.00  0.00    -0.087 C  
HETATM    5  C   UNL     1      -8.695   3.919  70.360  1.00  0.00    -0.126 C  
HETATM    6  C   UNL     1      -8.148   4.033  67.930  1.00  0.00    -0.089 C  
HETATM    7  C   UNL     1      -7.470   4.122  65.500  1.00  0.00    -0.077 C  
HETATM    8  O   UNL     1      -8.989   6.024  69.187  1.00  0.00    -0.124 OA 
HETATM    9  H   UNL     1      -7.920   2.198  68.695  1.00  0.00     0.000 HD 
HETATM   10  C   UNL     1      -8.172   4.834  69.239  1.00  0.00    -0.077 C  
ENDROOT
BRANCH   1  11
HETATM   11  O   UNL     1      -8.487   8.418  68.248  1.00  0.00    -0.133 OA 
BRANCH  11  12
HETATM   12  C   UNL     1      -7.725   9.076  67.151  1.00  0.00    -0.099 C  
HETATM   13  C   UNL     1     -10.143  10.281  66.363  1.00  0.00    -0.234 C  
HETATM   14  C   UNL     1      -6.423  11.253  65.933  1.00  0.00     0.176 C  
HETATM   15  C   UNL     1      -8.785   9.346  66.031  1.00  0.00    -0.171 C  
HETATM   16  O   UNL     1      -5.466  10.753  69.418  1.00  0.00    -0.038 OA 
HETATM   17  C   UNL     1      -6.441  10.319  67.181  1.00  0.00    -0.068 C  
HETATM   18  C   UNL     1      -8.042   9.241  64.664  1.00  0.00    -0.136 C  
HETATM   19  C   UNL     1     -10.446  11.341  65.156  1.00  0.00    -0.291 C  
HETATM   20  O   UNL     1      -9.419  12.299  64.862  1.00  0.00    -0.007 OA 
HETATM   21  C   UNL     1     -10.634  10.477  63.869  1.00  0.00     0.261 C  
HETATM   22  C   UNL     1      -5.936  11.216  68.372  1.00  0.00    -0.045 C  
HETATM   23  C   UNL     1     -11.734  12.094  65.510  1.00  0.00    -0.384 C  
HETATM   24  C   UNL     1      -9.516  12.965  63.587  1.00  0.00     1.609 C  
HETATM   25  C   UNL     1     -11.850  13.633  65.707  1.00  0.00    -0.397 C  
HETATM   26  H   UNL     1      -5.479  14.929  67.405  1.00  0.00     0.000 HD 
HETATM   27  O   UNL     1      -5.925  12.618  68.154  1.00  0.00    -0.066 OA 
HETATM   28  C   UNL     1     -11.112  14.502  66.828  1.00  0.00    -0.325 C  
HETATM   29  C   UNL     1     -13.406  13.726  65.973  1.00  0.00     0.915 C  
HETATM   30  O   UNL     1      -6.365  15.218  67.220  1.00  0.00    -0.310 OA 
HETATM   31  C   UNL     1      -6.670  16.060  69.451  1.00  0.00    -0.200 C  
HETATM   32  O   UNL     1     -11.820  14.858  67.791  1.00  0.00    -0.345 OA 
HETATM   33  C   UNL     1      -9.685  15.244  66.756  1.00  0.00    -0.249 C  
HETATM   34  C   UNL     1      -8.819  15.189  65.530  1.00  0.00     1.069 C  
HETATM   35  C   UNL     1      -6.696  13.529  69.060  1.00  0.00    -0.112 C  
HETATM   36  C   UNL     1      -8.747  15.521  68.072  1.00  0.00    -0.163 C  
HETATM   37  C   UNL     1      -7.164  15.006  68.401  1.00  0.00    -0.111 C  
HETATM   38  O   UNL     1      -9.521  15.823  69.242  1.00  0.00    -0.238 OA 
HETATM   39  H   UNL     1      -8.978  15.984  70.004  1.00  0.00     0.000 HD 
BRANCH  13  40
HETATM   40  O   UNL     1     -10.206  10.704  67.761  1.00  0.00    -0.169 OA 
BRANCH  40  41
HETATM   41  C   UNL     1     -11.157  10.880  68.873  1.00  0.00    -0.252 C  
HETATM   42  C   UNL     1     -12.687   9.767  70.701  1.00  0.00    -0.088 C  
HETATM   43  C   UNL     1     -12.479  13.562  71.079  1.00  0.00    -0.451 C  
HETATM   44  O   UNL     1     -10.928   8.482  69.933  1.00  0.00    -0.307 OA 
HETATM   45  C   UNL     1     -12.802  11.124  71.362  1.00  0.00    -0.544 C  
HETATM   46  H   UNL     1     -10.987   7.858  70.648  1.00  0.00     0.000 HD 
HETATM   47  C   UNL     1     -12.498  12.247  70.319  1.00  0.00    -0.084 C  
HETATM   48  C   UNL     1     -11.258   9.823  70.086  1.00  0.00    -0.272 C  
HETATM   49  O   UNL     1     -11.256  12.151  69.546  1.00  0.00    -0.217 OA 
BRANCH  42  50
HETATM   50  N   UNL     1     -13.008   8.549  71.519  1.00  0.00    -0.320 NA 
HETATM   51  C   UNL     1     -13.478   8.730  72.891  1.00  0.00     0.008 C  
HETATM   52  C   UNL     1     -13.827   7.546  70.840  1.00  0.00     0.176 C  
ENDBRANCH  42  50
ENDBRANCH  40  41
ENDBRANCH  13  40
BRANCH  35  53
HETATM   53  C   UNL     1      -7.901  12.732  69.409  1.00  0.00     0.734 C  
HETATM   54  C   UNL     1      -8.603  12.699  68.059  1.00  0.00    -0.189 C  
ENDBRANCH  35  53
ENDBRANCH  11  12
ENDBRANCH   1  11
BRANCH   4  55
HETATM   55  O   UNL     1      -6.166   5.347  67.179  1.00  0.00    -0.029 OA 
HETATM   56  C   UNL     1      -5.483   6.199  66.268  1.00  0.00    -0.013 C  
ENDBRANCH   4  55
TORSDOF 7
ENDMDL
MODEL       20
REMARK 921   NORMALIZED FREE ENERGY PREDICTED BY IDOCK:    0.54 KCAL/MOL
REMARK 922        TOTAL FREE ENERGY PREDICTED BY IDOCK:   -1.92 KCAL/MOL
REMARK 923 INTER-LIGAND FREE ENERGY PREDICTED BY IDOCK:   -3.98 KCAL/MOL
REMARK 924 INTRA-LIGAND FREE ENERGY PREDICTED BY IDOCK:    2.06 KCAL/MOL
REMARK 927      BINDING AFFINITY PREDICTED BY RF-SCORE:    0.00 PKD
ROOT
HETATM    1  C   UNL     1      -8.954   7.777  69.923  1.00  0.00    -0.146 C  
HETATM    2  O   UNL     1      -9.344   4.396  72.724  1.00  0.00    -0.125 OA 
HETATM    3  C   UNL     1      -9.467   7.975  71.415  1.00  0.00    -0.194 C  
HETATM    4  C   UNL     1      -9.998   6.726  72.220  1.00  0.00    -0.158 C  
HETATM    5  C   UNL     1      -8.180   4.067  70.127  1.00  0.00    -0.069 C  
HETATM    6  C   UNL     1      -9.039   5.558  71.931  1.00  0.00    -0.138 C  
HETATM    7  C   UNL     1     -10.019   6.998  73.760  1.00  0.00    -0.367 C  
HETATM    8  O   UNL     1      -8.514   6.422  69.645  1.00  0.00    -0.127 OA 
HETATM    9  H   UNL     1      -8.751   3.676  72.547  1.00  0.00     0.000 HD 
HETATM   10  C   UNL     1      -9.031   5.316  70.416  1.00  0.00    -0.128 C  
ENDROOT
BRANCH   1  11
HETATM   11  O   UNL     1      -9.655   8.639  68.839  1.00  0.00    -0.156 OA 
BRANCH  11  12
HETATM   12  C   UNL     1      -8.859   9.035  67.645  1.00  0.00    -0.124 C  
HETATM   13  C   UNL     1     -10.955  10.792  66.984  1.00  0.00    -0.227 C  
HETATM   14  C   UNL     1      -7.169  10.753  66.192  1.00  0.00    -0.126 C  
HETATM   15  C   UNL     1      -9.916   9.526  66.601  1.00  0.00    -0.314 C  
HETATM   16  O   UNL     1      -6.044  10.159  69.611  1.00  0.00    -0.041 OA 
HETATM   17  C   UNL     1      -7.304   9.905  67.493  1.00  0.00    -0.090 C  
HETATM   18  C   UNL     1      -9.357   9.180  65.187  1.00  0.00    -0.180 C  
HETATM   19  C   UNL     1     -11.093  11.846  65.742  1.00  0.00    -0.317 C  
HETATM   20  O   UNL     1      -9.889  12.495  65.306  1.00  0.00    -0.235 OA 
HETATM   21  C   UNL     1     -11.615  11.011  64.531  1.00  0.00     0.585 C  
HETATM   22  C   UNL     1      -6.478  10.687  68.580  1.00  0.00    -0.051 C  
HETATM   23  C   UNL     1     -12.109  12.919  66.153  1.00  0.00    -0.458 C  
HETATM   24  C   UNL     1      -9.934  13.113  64.005  1.00  0.00     0.331 C  
HETATM   25  C   UNL     1     -11.811  14.443  66.264  1.00  0.00    -0.391 C  
HETATM   26  H   UNL     1      -5.188  14.116  67.352  1.00  0.00     0.000 HD 
HETATM   27  O   UNL     1      -6.133  12.030  68.276  1.00  0.00    -0.049 OA 
HETATM   28  C   UNL     1     -10.774  15.135  67.265  1.00  0.00    -0.305 C  
HETATM   29  C   UNL     1     -13.261  14.945  66.650  1.00  0.00     2.581 C  
HETATM   30  O   UNL     1      -5.986  14.616  67.222  1.00  0.00    -0.300 OA 
HETATM   31  C   UNL     1      -5.854  15.595  69.414  1.00  0.00    -0.118 C  
HETATM   32  O   UNL     1     -11.274  15.699  68.258  1.00  0.00    -0.320 OA 
HETATM   33  C   UNL     1      -9.219  15.480  67.031  1.00  0.00    -0.242 C  
HETATM   34  C   UNL     1      -8.515  15.156  65.744  1.00  0.00     1.286 C  
HETATM   35  C   UNL     1      -6.558  13.143  69.184  1.00  0.00    -0.104 C  
HETATM   36  C   UNL     1      -8.121  15.557  68.246  1.00  0.00    -0.133 C  
HETATM   37  C   UNL     1      -6.697  14.663  68.476  1.00  0.00    -0.098 C  
HETATM   38  O   UNL     1      -8.679  16.094  69.454  1.00  0.00    -0.227 OA 
HETATM   39  H   UNL     1      -8.043  16.138  70.158  1.00  0.00     0.000 HD 
BRANCH  13  40
HETATM   40  O   UNL     1     -10.777  11.271  68.354  1.00  0.00    -0.182 OA 
BRANCH  40  41
HETATM   41  C   UNL     1     -11.475  11.355  69.648  1.00  0.00    -0.309 C  
HETATM   42  C   UNL     1     -12.453  12.869  71.564  1.00  0.00    -0.056 C  
HETATM   43  C   UNL     1     -13.371   9.187  71.995  1.00  0.00    -0.507 C  
HETATM   44  O   UNL     1     -12.224  13.874  69.497  1.00  0.00    -0.336 OA 
HETATM   45  C   UNL     1     -13.196  11.655  72.079  1.00  0.00    -0.443 C  
HETATM   46  H   UNL     1     -12.780  14.611  69.722  1.00  0.00     0.000 HD 
HETATM   47  C   UNL     1     -12.493  10.353  71.577  1.00  0.00    -0.404 C  
HETATM   48  C   UNL     1     -12.418  12.605  70.030  1.00  0.00     0.019 C  
HETATM   49  O   UNL     1     -12.224  10.226  70.141  1.00  0.00    -0.249 OA 
BRANCH  42  50
HETATM   50  N   UNL     1     -12.931  14.228  71.992  1.00  0.00    -0.336 NA 
HETATM   51  C   UNL     1     -12.015  15.361  71.876  1.00  0.00    -0.408 C  
HETATM   52  C   UNL     1     -14.254  14.603  71.496  1.00  0.00    -0.458 C  
ENDBRANCH  42  50
ENDBRANCH  40  41
ENDBRANCH  13  40
BRANCH  35  53
HETATM   53  C   UNL     1      -7.887  12.697  69.679  1.00  0.00     1.245 C  
HETATM   54  C   UNL     1      -8.735  12.954  68.442  1.00  0.00    -0.119 C  
ENDBRANCH  35  53
ENDBRANCH  11  12
ENDBRANCH   1  11
BRANCH   4  55
HETATM   55  O   UNL     1     -11.343   6.495  71.756  1.00  0.00    -0.254 OA 
HETATM   56  C   UNL     1     -12.271   5.883  72.643  1.00  0.00     0.092 C  
ENDBRANCH   4  55
TORSDOF 7
ENDMDL
MODEL       21
REMARK 921   NORMALIZED FREE ENERGY PREDICTED BY IDOCK:    1.48 KCAL/MOL
REMARK 922        TOTAL FREE ENERGY PREDICTED BY IDOCK:   -0.60 KCAL/MOL
REMARK 923 INTER-LIGAND FREE ENERGY PREDICTED BY IDOCK:   -1.32 KCAL/MOL
REMARK 924 INTRA-LIGAND FREE ENERGY PREDICTED BY IDOCK:    0.72 KCAL/MOL
REMARK 927      BINDING AFFINITY PREDICTED BY RF-SCORE:    0.00 PKD
ROOT
HETATM    1  C   UNL     1      -9.841   6.268  68.530  1.00  0.00    -0.139 C  
HETATM    2  O   UNL     1      -7.701   2.494  67.751  1.00  0.00    -0.059 OA 
HETATM    3  C   UNL     1     -10.032   5.456  67.176  1.00  0.00    -0.199 C  
HETATM    4  C   UNL     1      -8.952   4.382  66.762  1.00  0.00    -0.118 C  
HETATM    5  C   UNL     1      -7.544   3.812  70.290  1.00  0.00    -0.044 C  
HETATM    6  C   UNL     1      -8.580   3.598  68.033  1.00  0.00    -0.098 C  
HETATM    7  C   UNL     1      -9.509   3.385  65.695  1.00  0.00    -0.119 C  
HETATM    8  O   UNL     1      -9.014   5.574  69.501  1.00  0.00    -0.112 OA 
HETATM    9  H   UNL     1      -7.471   2.010  68.535  1.00  0.00     0.000 HD 
HETATM   10  C   UNL     1      -8.043   4.598  69.066  1.00  0.00    -0.077 C  
ENDROOT
BRANCH   1  11
HETATM   11  O   UNL     1      -9.814   7.814  68.402  1.00  0.00    -0.160 OA 
BRANCH  11  12
HETATM   12  C   UNL     1      -9.076   8.403  67.251  1.00  0.00    -0.137 C  
HETATM   13  C   UNL     1     -11.019  10.438  67.207  1.00  0.00    -0.240 C  
HETATM   14  C   UNL     1      -7.331  10.257  66.052  1.00  0.00    -0.129 C  
HETATM   15  C   UNL     1     -10.154   9.209  66.452  1.00  0.00    -0.345 C  
HETATM   16  O   UNL     1      -6.014   8.800  69.126  1.00  0.00    -0.041 OA 
HETATM   17  C   UNL     1      -7.454   9.148  67.140  1.00  0.00    -0.087 C  
HETATM   18  C   UNL     1      -9.746   9.150  64.948  1.00  0.00     0.368 C  
HETATM   19  C   UNL     1     -11.139  11.757  66.248  1.00  0.00    -0.311 C  
HETATM   20  O   UNL     1      -9.911  12.382  65.848  1.00  0.00    -0.250 OA 
HETATM   21  C   UNL     1     -11.840  11.270  64.940  1.00  0.00     0.456 C  
HETATM   22  C   UNL     1      -6.468   9.585  68.285  1.00  0.00    -0.053 C  
HETATM   23  C   UNL     1     -12.000  12.791  66.984  1.00  0.00    -0.364 C  
HETATM   24  C   UNL     1      -9.991  13.284  64.726  1.00  0.00    -0.124 C  
HETATM   25  C   UNL     1     -11.535  14.217  67.398  1.00  0.00    -0.368 C  
HETATM   26  H   UNL     1      -4.920  13.080  67.720  1.00  0.00     0.000 HD 
HETATM   27  O   UNL     1      -6.006  10.927  68.251  1.00  0.00    -0.046 OA 
HETATM   28  C   UNL     1     -10.355  14.569  68.418  1.00  0.00    -0.241 C  
HETATM   29  C   UNL     1     -12.888  14.740  68.027  1.00  0.00     1.484 C  
HETATM   30  O   UNL     1      -5.667  13.664  67.785  1.00  0.00    -0.181 OA 
HETATM   31  C   UNL     1      -5.262  14.099  70.114  1.00  0.00    -0.093 C  
HETATM   32  O   UNL     1     -10.713  14.932  69.556  1.00  0.00    -0.245 OA 
HETATM   33  C   UNL     1      -8.795  14.824  68.112  1.00  0.00    -0.170 C  
HETATM   34  C   UNL     1      -8.232  14.744  66.721  1.00  0.00    -0.039 C  
HETATM   35  C   UNL     1      -6.238  11.835  69.420  1.00  0.00    -0.103 C  
HETATM   36  C   UNL     1      -7.604  14.525  69.198  1.00  0.00    -0.102 C  
HETATM   37  C   UNL     1      -6.270  13.484  69.082  1.00  0.00    -0.097 C  
HETATM   38  O   UNL     1      -8.006  14.817  70.544  1.00  0.00     0.138 OA 
HETATM   39  H   UNL     1      -7.316  14.644  71.174  1.00  0.00     0.000 HD 
BRANCH  13  40
HETATM   40  O   UNL     1     -10.684  10.574  68.623  1.00  0.00    -0.189 OA 
BRANCH  40  41
HETATM   41  C   UNL     1     -11.265  10.413  69.968  1.00  0.00    -0.316 C  
HETATM   42  C   UNL     1     -12.371  11.538  72.073  1.00  0.00     0.708 C  
HETATM   43  C   UNL     1     -12.428   7.724  72.252  1.00  0.00    -0.224 C  
HETATM   44  O   UNL     1     -12.551  12.706  70.088  1.00  0.00    -0.067 OA 
HETATM   45  C   UNL     1     -12.784  10.157  72.534  1.00  0.00     0.307 C  
HETATM   46  H   UNL     1     -13.230  13.284  70.416  1.00  0.00     0.000 HD 
HETATM   47  C   UNL     1     -11.865   9.082  71.872  1.00  0.00    -0.376 C  
HETATM   48  C   UNL     1     -12.417  11.393  70.523  1.00  0.00    -0.293 C  
HETATM   49  O   UNL     1     -11.705   9.115  70.415  1.00  0.00    -0.213 OA 
BRANCH  42  50
HETATM   50  N   UNL     1     -13.090  12.724  72.649  1.00  0.00    -0.198 NA 
HETATM   51  C   UNL     1     -12.301  13.853  73.137  1.00  0.00     0.542 C  
HETATM   52  C   UNL     1     -14.217  13.210  71.854  1.00  0.00     0.287 C  
ENDBRANCH  42  50
ENDBRANCH  40  41
ENDBRANCH  13  40
BRANCH  35  53
HETATM   53  C   UNL     1      -7.565  11.405  69.935  1.00  0.00     0.753 C  
HETATM   54  C   UNL     1      -7.135  10.342  70.935  1.00  0.00     0.567 C  
ENDBRANCH  35  53
ENDBRANCH  11  12
ENDBRANCH   1  11
BRANCH   4  55
HETATM   55  O   UNL     1      -7.851   5.122  66.199  1.00  0.00    -0.100 OA 
HETATM   56  C   UNL     1      -7.014   4.474  65.249  1.00  0.00    -0.062 C  
ENDBRANCH   4  55
TORSDOF 7
ENDMDL
MODEL       22
REMARK 921   NORMALIZED FREE ENERGY PREDICTED BY IDOCK:    1.53 KCAL/MOL
REMARK 922        TOTAL FREE ENERGY PREDICTED BY IDOCK:   -0.53 KCAL/MOL
REMARK 923 INTER-LIGAND FREE ENERGY PREDICTED BY IDOCK:    0.05 KCAL/MOL
REMARK 924 INTRA-LIGAND FREE ENERGY PREDICTED BY IDOCK:   -0.57 KCAL/MOL
REMARK 927      BINDING AFFINITY PREDICTED BY RF-SCORE:    0.00 PKD
ROOT
HETATM    1  C   UNL     1      -6.591  10.786  69.374  1.00  0.00    -0.085 C  
HETATM    2  O   UNL     1      -8.654  12.674  65.967  1.00  0.00    -0.309 OA 
HETATM    3  C   UNL     1      -6.306  10.351  67.871  1.00  0.00    -0.060 C  
HETATM    4  C   UNL     1      -7.351  10.725  66.749  1.00  0.00    -0.129 C  
HETATM    5  C   UNL     1      -8.986  13.639  68.644  1.00  0.00    -0.025 C  
HETATM    6  C   UNL     1      -7.802  12.173  67.012  1.00  0.00    -0.123 C  
HETATM    7  C   UNL     1      -6.718  10.642  65.321  1.00  0.00     0.017 C  
HETATM    8  O   UNL     1      -7.477  11.931  69.478  1.00  0.00     0.145 OA 
HETATM    9  H   UNL     1      -8.932  13.568  66.129  1.00  0.00     0.000 HD 
HETATM   10  C   UNL     1      -8.411  12.230  68.419  1.00  0.00    -0.144 C  
ENDROOT
BRANCH   1  11
HETATM   11  O   UNL     1      -6.618   9.643  70.423  1.00  0.00    -0.071 OA 
BRANCH  11  12
HETATM   12  C   UNL     1      -7.802   9.552  71.321  1.00  0.00     0.400 C  
HETATM   13  C   UNL     1      -9.014   7.944  69.356  1.00  0.00    -0.145 C  
HETATM   14  C   UNL     1      -9.464   8.256  73.185  1.00  0.00    -0.263 C  
HETATM   15  C   UNL     1      -9.013   9.289  70.366  1.00  0.00    -0.278 C  
HETATM   16  O   UNL     1      -5.919   8.075  74.028  1.00  0.00    -0.078 OA 
HETATM   17  C   UNL     1      -8.020   8.779  72.918  1.00  0.00     0.180 C  
HETATM   18  C   UNL     1     -10.261   9.964  71.013  1.00  0.00     0.074 C  
HETATM   19  C   UNL     1     -10.470   7.200  69.356  1.00  0.00    -0.222 C  
HETATM   20  O   UNL     1     -10.942   6.699  70.615  1.00  0.00    -0.247 OA 
HETATM   21  C   UNL     1     -11.499   8.279  68.890  1.00  0.00     0.865 C  
HETATM   22  C   UNL     1      -7.075   7.788  73.694  1.00  0.00    -0.103 C  
HETATM   23  C   UNL     1     -10.399   6.037  68.359  1.00  0.00    -0.252 C  
HETATM   24  C   UNL     1     -12.350   6.396  70.693  1.00  0.00     0.212 C  
HETATM   25  C   UNL     1     -10.614   4.537  68.712  1.00  0.00     0.742 C  
HETATM   26  H   UNL     1      -8.942   4.766  75.216  1.00  0.00     0.000 HD 
HETATM   27  O   UNL     1      -7.648   6.560  74.118  1.00  0.00    -0.091 OA 
HETATM   28  C   UNL     1      -9.715   3.659  69.701  1.00  0.00    -0.070 C  
HETATM   29  C   UNL     1     -10.472   3.924  67.260  1.00  0.00     1.126 C  
HETATM   30  O   UNL     1      -9.246   4.290  74.452  1.00  0.00    -0.102 OA 
HETATM   31  C   UNL     1      -7.331   2.836  74.463  1.00  0.00    -0.042 C  
HETATM   32  O   UNL     1      -8.921   2.869  69.153  1.00  0.00    -0.091 OA 
HETATM   33  C   UNL     1      -9.894   3.414  71.282  1.00  0.00    -0.194 C  
HETATM   34  C   UNL     1     -11.011   4.043  72.065  1.00  0.00     0.491 C  
HETATM   35  C   UNL     1      -7.055   5.258  73.675  1.00  0.00    -0.082 C  
HETATM   36  C   UNL     1      -8.642   3.087  72.289  1.00  0.00    -0.075 C  
HETATM   37  C   UNL     1      -8.099   3.938  73.653  1.00  0.00    -0.088 C  
HETATM   38  O   UNL     1      -7.638   2.273  71.667  1.00  0.00    -0.039 OA 
HETATM   39  H   UNL     1      -6.913   2.083  72.251  1.00  0.00     0.000 HD 
BRANCH  13  40
HETATM   40  O   UNL     1      -7.780   7.166  69.453  1.00  0.00    -0.103 OA 
BRANCH  40  41
HETATM   41  C   UNL     1      -7.046   6.077  68.786  1.00  0.00    -0.081 C  
HETATM   42  C   UNL     1      -5.955   5.138  66.584  1.00  0.00    -0.023 C  
HETATM   43  C   UNL     1      -5.183   2.976  69.636  1.00  0.00    -0.011 C  
HETATM   44  O   UNL     1      -6.195   7.433  66.697  1.00  0.00    -0.041 OA 
HETATM   45  C   UNL     1      -5.251   4.101  67.432  1.00  0.00    -0.012 C  
HETATM   46  H   UNL     1      -5.603   7.595  65.972  1.00  0.00     0.000 HD 
HETATM   47  C   UNL     1      -6.021   3.907  68.777  1.00  0.00    -0.023 C  
HETATM   48  C   UNL     1      -6.041   6.351  67.557  1.00  0.00    -0.024 C  
HETATM   49  O   UNL     1      -6.332   5.100  69.571  1.00  0.00    -0.031 OA 
BRANCH  42  50
HETATM   50  N   UNL     1      -5.410   5.425  65.214  1.00  0.00    -0.012 NA 
HETATM   51  C   UNL     1      -5.362   4.339  64.237  1.00  0.00    -0.013 C  
HETATM   52  C   UNL     1      -5.926   6.640  64.585  1.00  0.00    -0.035 C  
ENDBRANCH  42  50
ENDBRANCH  40  41
ENDBRANCH  13  40
BRANCH  35  53
HETATM   53  C   UNL     1      -6.582   5.545  72.294  1.00  0.00    -0.058 C  
HETATM   54  C   UNL     1      -5.128   5.116  72.412  1.00  0.00    -0.008 C  
ENDBRANCH  35  53
ENDBRANCH  11  12
ENDBRANCH   1  11
BRANCH   4  55
HETATM   55  O   UNL     1      -8.416   9.761  66.858  1.00  0.00    -0.120 OA 
HETATM   56  C   UNL     1      -8.912   9.160  65.668  1.00  0.00    -0.203 C  
ENDBRANCH   4  55
TORSDOF 7
ENDMDL
MODEL       23
REMARK 921   NORMALIZED FREE ENERGY PREDICTED BY IDOCK:    1.56 KCAL/MOL
REMARK 922        TOTAL FREE ENERGY PREDICTED BY IDOCK:   -0.49 KCAL/MOL
REMARK 923 INTER-LIGAND FREE ENERGY PREDICTED BY IDOCK:   -0.94 KCAL/MOL
REMARK 924 INTRA-LIGAND FREE ENERGY PREDICTED BY IDOCK:    0.45 KCAL/MOL
REMARK 927      BINDING AFFINITY PREDICTED BY RF-SCORE:    0.00 PKD
ROOT
HETATM    1  C   UNL     1      -7.815  12.368  68.317  1.00  0.00    -0.150 C  
HETATM    2  O   UNL     1     -11.041  15.076  67.018  1.00  0.00    -0.324 OA 
HETATM    3  C   UNL     1      -8.275  12.461  66.798  1.00  0.00    -0.028 C  
HETATM    4  C   UNL     1      -9.681  13.091  66.455  1.00  0.00    -0.266 C  
HETATM    5  C   UNL     1     -10.051  15.103  69.706  1.00  0.00    -0.175 C  
HETATM    6  C   UNL     1      -9.850  14.337  67.342  1.00  0.00    -0.235 C  
HETATM    7  C   UNL     1      -9.771  13.520  64.954  1.00  0.00     0.120 C  
HETATM    8  O   UNL     1      -8.465  13.344  69.172  1.00  0.00     0.286 OA 
HETATM    9  H   UNL     1     -11.145  15.846  67.565  1.00  0.00     0.000 HD 
HETATM   10  C   UNL     1      -9.751  13.891  68.807  1.00  0.00    -0.093 C  
ENDROOT
BRANCH   1  11
HETATM   11  O   UNL     1      -7.454  10.950  68.836  1.00  0.00    -0.098 OA 
BRANCH  11  12
HETATM   12  C   UNL     1      -8.160  10.454  70.049  1.00  0.00     0.164 C  
HETATM   13  C   UNL     1      -9.714   8.851  68.336  1.00  0.00    -0.161 C  
HETATM   14  C   UNL     1      -8.702   8.560  72.058  1.00  0.00    -0.265 C  
HETATM   15  C   UNL     1      -9.575  10.016  69.540  1.00  0.00    -0.249 C  
HETATM   16  O   UNL     1      -5.140   9.171  71.560  1.00  0.00    -0.034 OA 
HETATM   17  C   UNL     1      -7.598   9.458  71.423  1.00  0.00     0.227 C  
HETATM   18  C   UNL     1     -10.578  10.271  70.706  1.00  0.00     0.096 C  
HETATM   19  C   UNL     1     -10.891   7.771  68.685  1.00  0.00     0.052 C  
HETATM   20  O   UNL     1     -10.739   7.015  69.895  1.00  0.00    -0.224 OA 
HETATM   21  C   UNL     1     -12.202   8.607  68.842  1.00  0.00     2.997 C  
HETATM   22  C   UNL     1      -6.260   8.647  71.596  1.00  0.00    -0.063 C  
HETATM   23  C   UNL     1     -10.994   6.797  67.505  1.00  0.00    -0.375 C  
HETATM   24  C   UNL     1     -11.924   6.360  70.391  1.00  0.00    -0.115 C  
HETATM   25  C   UNL     1     -10.773   5.259  67.588  1.00  0.00    -0.038 C  
HETATM   26  H   UNL     1      -6.797   5.088  73.002  1.00  0.00     0.000 HD 
HETATM   27  O   UNL     1      -6.385   7.272  71.925  1.00  0.00    -0.040 OA 
HETATM   28  C   UNL     1      -9.416   4.519  67.996  1.00  0.00    -0.148 C  
HETATM   29  C   UNL     1     -11.091   4.888  66.084  1.00  0.00     0.302 C  
HETATM   30  O   UNL     1      -7.277   4.650  72.310  1.00  0.00    -0.073 OA 
HETATM   31  C   UNL     1      -5.272   3.734  71.351  1.00  0.00     0.000 C  
HETATM   32  O   UNL     1      -8.762   4.028  67.054  1.00  0.00    -0.107 OA 
HETATM   33  C   UNL     1      -8.922   4.042  69.452  1.00  0.00    -0.167 C  
HETATM   34  C   UNL     1      -9.747   4.268  70.688  1.00  0.00    -0.274 C  
HETATM   35  C   UNL     1      -5.777   6.227  71.041  1.00  0.00    -0.026 C  
HETATM   36  C   UNL     1      -7.342   3.917  69.870  1.00  0.00    -0.045 C  
HETATM   37  C   UNL     1      -6.483   4.700  71.107  1.00  0.00    -0.023 C  
HETATM   38  O   UNL     1      -6.522   3.465  68.782  1.00  0.00    -0.032 OA 
HETATM   39  H   UNL     1      -5.606   3.393  69.025  1.00  0.00     0.000 HD 
BRANCH  13  40
HETATM   40  O   UNL     1      -8.416   8.403  67.833  1.00  0.00    -0.129 OA 
BRANCH  40  41
HETATM   41  C   UNL     1      -7.752   7.935  66.604  1.00  0.00    -0.098 C  
HETATM   42  C   UNL     1      -6.479   8.542  64.384  1.00  0.00    -0.067 C  
HETATM   43  C   UNL     1      -6.513   4.786  65.071  1.00  0.00    -0.036 C  
HETATM   44  O   UNL     1      -6.400  10.127  66.063  1.00  0.00    -0.080 OA 
HETATM   45  C   UNL     1      -6.074   7.088  64.275  1.00  0.00    -0.036 C  
HETATM   46  H   UNL     1      -5.684  10.608  65.662  1.00  0.00     0.000 HD 
HETATM   47  C   UNL     1      -7.064   6.201  65.095  1.00  0.00    -0.064 C  
HETATM   48  C   UNL     1      -6.539   8.751  65.925  1.00  0.00    -0.057 C  
HETATM   49  O   UNL     1      -7.319   6.564  66.493  1.00  0.00    -0.075 OA 
BRANCH  42  50
HETATM   50  N   UNL     1      -5.692   9.559  63.608  1.00  0.00    -0.086 NA 
HETATM   51  C   UNL     1      -6.251  10.076  62.361  1.00  0.00    -0.112 C  
HETATM   52  C   UNL     1      -5.147  10.658  64.404  1.00  0.00    -0.153 C  
ENDBRANCH  42  50
ENDBRANCH  40  41
ENDBRANCH  13  40
BRANCH  35  53
HETATM   53  C   UNL     1      -5.936   6.793  69.676  1.00  0.00    -0.019 C  
HETATM   54  C   UNL     1      -5.150   5.771  68.867  1.00  0.00    -0.003 C  
ENDBRANCH  35  53
ENDBRANCH  11  12
ENDBRANCH   1  11
BRANCH   4  55
HETATM   55  O   UNL     1     -10.654  12.060  66.718  1.00  0.00    -0.217 OA 
HETATM   56  C   UNL     1     -11.627  11.776  65.720  1.00  0.00    -0.125 C  
ENDBRANCH   4  55
TORSDOF 7
ENDMDL
MODEL       24
REMARK 921   NORMALIZED FREE ENERGY PREDICTED BY IDOCK:    1.80 KCAL/MOL
REMARK 922        TOTAL FREE ENERGY PREDICTED BY IDOCK:   -0.16 KCAL/MOL
REMARK 923 INTER-LIGAND FREE ENERGY PREDICTED BY IDOCK:    1.61 KCAL/MOL
REMARK 924 INTRA-LIGAND FREE ENERGY PREDICTED BY IDOCK:   -1.77 KCAL/MOL
REMARK 927      BINDING AFFINITY PREDICTED BY RF-SCORE:    0.00 PKD
ROOT
HETATM    1  C   UNL     1     -11.342   5.751  69.949  1.00  0.00     0.064 C  
HETATM    2  O   UNL     1      -9.160   2.451  71.893  1.00  0.00    -0.077 OA 
HETATM    3  C   UNL     1     -10.353   4.804  69.140  1.00  0.00    -0.007 C  
HETATM    4  C   UNL     1      -9.288   3.947  69.930  1.00  0.00    -0.174 C  
HETATM    5  C   UNL     1     -11.128   3.983  73.301  1.00  0.00    -0.301 C  
HETATM    6  C   UNL     1      -9.998   3.367  71.166  1.00  0.00     0.016 C  
HETATM    7  C   UNL     1      -8.738   2.769  69.062  1.00  0.00    -0.133 C  
HETATM    8  O   UNL     1     -11.540   5.328  71.324  1.00  0.00     0.367 OA 
HETATM    9  H   UNL     1      -9.598   2.092  72.656  1.00  0.00     0.000 HD 
HETATM   10  C   UNL     1     -10.534   4.541  71.997  1.00  0.00    -0.097 C  
ENDROOT
BRANCH   1  11
HETATM   11  O   UNL     1     -11.325   7.252  69.558  1.00  0.00    -0.098 OA 
BRANCH  11  12
HETATM   12  C   UNL     1     -10.919   8.237  70.598  1.00  0.00    -0.240 C  
HETATM   13  C   UNL     1      -8.443   8.427  69.275  1.00  0.00    -0.125 C  
HETATM   14  C   UNL     1     -10.427  10.834  71.562  1.00  0.00     3.721 C  
HETATM   15  C   UNL     1      -9.358   8.140  70.656  1.00  0.00    -0.165 C  
HETATM   16  O   UNL     1     -13.618  10.510  69.824  1.00  0.00     0.350 OA 
HETATM   17  C   UNL     1     -11.509   9.884  70.964  1.00  0.00    -0.466 C  
HETATM   18  C   UNL     1      -8.936   8.440  72.127  1.00  0.00    -0.293 C  
HETATM   19  C   UNL     1      -7.143   9.361  69.605  1.00  0.00    -0.064 C  
HETATM   20  O   UNL     1      -7.401  10.668  70.136  1.00  0.00    -0.155 OA 
HETATM   21  C   UNL     1      -6.329   8.588  70.692  1.00  0.00    -0.037 C  
HETATM   22  C   UNL     1     -12.461  10.820  70.131  1.00  0.00    -0.285 C  
HETATM   23  C   UNL     1      -6.334   9.508  68.309  1.00  0.00    -0.053 C  
HETATM   24  C   UNL     1      -6.288  11.330  70.771  1.00  0.00     0.443 C  
HETATM   25  C   UNL     1      -6.020  10.854  67.594  1.00  0.00    -0.043 C  
HETATM   26  H   UNL     1     -11.200  14.465  69.892  1.00  0.00     0.000 HD 
HETATM   27  O   UNL     1     -11.977  12.122  69.835  1.00  0.00    -0.319 OA 
HETATM   28  C   UNL     1      -7.089  11.862  66.964  1.00  0.00    -0.116 C  
HETATM   29  C   UNL     1      -5.129  10.297  66.412  1.00  0.00    -0.042 C  
HETATM   30  O   UNL     1     -10.402  14.387  69.382  1.00  0.00    -0.158 OA 
HETATM   31  C   UNL     1     -11.543  14.875  67.323  1.00  0.00    -0.337 C  
HETATM   32  O   UNL     1      -7.192  11.836  65.722  1.00  0.00     0.607 OA 
HETATM   33  C   UNL     1      -7.825  13.116  67.654  1.00  0.00    -0.169 C  
HETATM   34  C   UNL     1      -7.573  13.501  69.085  1.00  0.00     0.177 C  
HETATM   35  C   UNL     1     -11.865  12.580  68.414  1.00  0.00    -0.304 C  
HETATM   36  C   UNL     1      -9.308  13.650  67.202  1.00  0.00    -0.240 C  
HETATM   37  C   UNL     1     -10.733  13.789  68.113  1.00  0.00    -0.248 C  
HETATM   38  O   UNL     1      -9.524  13.533  65.788  1.00  0.00    -0.490 OA 
HETATM   39  H   UNL     1     -10.383  13.842  65.526  1.00  0.00     0.000 HD 
BRANCH  13  40
HETATM   40  O   UNL     1      -9.269   8.688  68.097  1.00  0.00    -0.137 OA 
BRANCH  40  41
HETATM   41  C   UNL     1      -9.193   8.774  66.628  1.00  0.00    -0.177 C  
HETATM   42  C   UNL     1      -8.280   7.766  64.376  1.00  0.00    -0.037 C  
HETATM   43  C   UNL     1     -10.781  10.595  63.806  1.00  0.00     0.244 C  
HETATM   44  O   UNL     1      -8.422   6.302  66.157  1.00  0.00    -0.126 OA 
HETATM   45  C   UNL     1      -9.270   8.642  63.638  1.00  0.00     0.971 C  
HETATM   46  H   UNL     1      -8.329   5.529  65.611  1.00  0.00     0.000 HD 
HETATM   47  C   UNL     1      -9.679   9.851  64.539  1.00  0.00    -0.153 C  
HETATM   48  C   UNL     1      -9.036   7.463  65.703  1.00  0.00     0.043 C  
HETATM   49  O   UNL     1     -10.150   9.568  65.899  1.00  0.00    -0.294 OA 
BRANCH  42  50
HETATM   50  N   UNL     1      -7.706   6.580  63.655  1.00  0.00    -0.109 NA 
HETATM   51  C   UNL     1      -8.564   5.835  62.737  1.00  0.00     0.063 C  
HETATM   52  C   UNL     1      -6.396   6.802  63.044  1.00  0.00    -0.043 C  
ENDBRANCH  42  50
ENDBRANCH  40  41
ENDBRANCH  13  40
BRANCH  35  53
HETATM   53  C   UNL     1     -11.484  11.344  67.680  1.00  0.00    -0.348 C  
HETATM   54  C   UNL     1     -12.219  11.572  66.367  1.00  0.00     1.337 C  
ENDBRANCH  35  53
ENDBRANCH  11  12
ENDBRANCH   1  11
BRANCH   4  55
HETATM   55  O   UNL     1      -8.211   4.848  70.253  1.00  0.00    -0.078 OA 
HETATM   56  C   UNL     1      -7.187   5.055  69.288  1.00  0.00    -0.057 C  
ENDBRANCH   4  55
TORSDOF 7
ENDMDL
MODEL       25
REMARK 921   NORMALIZED FREE ENERGY PREDICTED BY IDOCK:    1.82 KCAL/MOL
REMARK 922        TOTAL FREE ENERGY PREDICTED BY IDOCK:   -0.13 KCAL/MOL
REMARK 923 INTER-LIGAND FREE ENERGY PREDICTED BY IDOCK:   -2.25 KCAL/MOL
REMARK 924 INTRA-LIGAND FREE ENERGY PREDICTED BY IDOCK:    2.13 KCAL/MOL
REMARK 927      BINDING AFFINITY PREDICTED BY RF-SCORE:    0.00 PKD
ROOT
HETATM    1  C   UNL     1      -7.996   7.515  70.499  1.00  0.00    -0.098 C  
HETATM    2  O   UNL     1      -5.962   9.324  73.967  1.00  0.00    -0.296 OA 
HETATM    3  C   UNL     1      -8.525   7.313  71.985  1.00  0.00    -0.116 C  
HETATM    4  C   UNL     1      -7.552   7.595  73.195  1.00  0.00    -0.107 C  
HETATM    5  C   UNL     1      -5.151   9.904  71.281  1.00  0.00    -0.063 C  
HETATM    6  C   UNL     1      -6.783   8.888  72.869  1.00  0.00     0.186 C  
HETATM    7  C   UNL     1      -8.337   7.796  74.533  1.00  0.00    -0.240 C  
HETATM    8  O   UNL     1      -6.885   8.446  70.410  1.00  0.00    -0.036 OA 
HETATM    9  H   UNL     1      -5.488  10.122  73.766  1.00  0.00     0.000 HD 
HETATM   10  C   UNL     1      -6.028   8.669  71.551  1.00  0.00    -0.050 C  
ENDROOT
BRANCH   1  11
HETATM   11  O   UNL     1      -8.095   6.282  69.564  1.00  0.00    -0.113 OA 
BRANCH  11  12
HETATM   12  C   UNL     1      -6.874   5.874  68.818  1.00  0.00    -0.066 C  
HETATM   13  C   UNL     1      -8.518   4.172  67.298  1.00  0.00    -0.100 C  
HETATM   14  C   UNL     1      -5.134   5.912  66.606  1.00  0.00    -0.005 C  
HETATM   15  C   UNL     1      -7.185   4.435  68.289  1.00  0.00    -0.060 C  
HETATM   16  O   UNL     1      -6.153   9.237  67.710  1.00  0.00    -0.052 OA 
HETATM   17  C   UNL     1      -5.802   6.784  67.712  1.00  0.00    -0.020 C  
HETATM   18  C   UNL     1      -5.833   3.658  68.251  1.00  0.00    -0.026 C  
HETATM   19  C   UNL     1      -8.144   3.190  66.045  1.00  0.00    -0.089 C  
HETATM   20  O   UNL     1      -7.120   3.644  65.148  1.00  0.00    -0.063 OA 
HETATM   21  C   UNL     1      -7.623   1.864  66.685  1.00  0.00    -0.065 C  
HETATM   22  C   UNL     1      -6.004   8.199  67.054  1.00  0.00    -0.053 C  
HETATM   23  C   UNL     1      -9.429   2.949  65.243  1.00  0.00    -0.061 C  
HETATM   24  C   UNL     1      -6.534   2.644  64.291  1.00  0.00    -0.027 C  
HETATM   25  C   UNL     1      -9.638   3.323  63.747  1.00  0.00    -0.131 C  
HETATM   26  H   UNL     1      -5.121   8.278  63.293  1.00  0.00     0.000 HD 
HETATM   27  O   UNL     1      -5.886   8.268  65.641  1.00  0.00    -0.043 OA 
HETATM   28  C   UNL     1      -9.604   4.797  63.126  1.00  0.00     0.204 C  
HETATM   29  C   UNL     1     -11.102   2.754  63.557  1.00  0.00     0.015 C  
HETATM   30  O   UNL     1      -5.779   7.714  62.902  1.00  0.00    -0.049 OA 
HETATM   31  C   UNL     1      -7.216   9.570  62.382  1.00  0.00    -0.106 C  
HETATM   32  O   UNL     1     -10.715   5.296  62.858  1.00  0.00     1.465 OA 
HETATM   33  C   UNL     1      -8.357   5.607  62.511  1.00  0.00    -0.097 C  
HETATM   34  C   UNL     1      -6.974   5.021  62.457  1.00  0.00    -0.030 C  
HETATM   35  C   UNL     1      -7.021   8.785  64.813  1.00  0.00    -0.073 C  
HETATM   36  C   UNL     1      -8.254   7.243  62.521  1.00  0.00    -0.050 C  
HETATM   37  C   UNL     1      -7.079   8.250  63.218  1.00  0.00    -0.090 C  
HETATM   38  O   UNL     1      -9.529   7.873  62.331  1.00  0.00     0.307 OA 
HETATM   39  H   UNL     1      -9.469   8.821  62.336  1.00  0.00     0.000 HD 
BRANCH  13  40
HETATM   40  O   UNL     1      -9.310   5.382  67.086  1.00  0.00    -0.114 OA 
BRANCH  40  41
HETATM   41  C   UNL     1     -10.027   6.437  67.824  1.00  0.00    -0.128 C  
HETATM   42  C   UNL     1     -11.797   7.069  69.664  1.00  0.00     0.170 C  
HETATM   43  C   UNL     1      -9.905  10.114  68.349  1.00  0.00    -0.164 C  
HETATM   44  O   UNL     1     -10.835   4.978  69.859  1.00  0.00    -0.035 OA 
HETATM   45  C   UNL     1     -11.264   8.484  69.624  1.00  0.00     0.081 C  
HETATM   46  H   UNL     1     -11.129   4.855  70.755  1.00  0.00     0.000 HD 
HETATM   47  C   UNL     1     -10.545   8.740  68.261  1.00  0.00    -0.142 C  
HETATM   48  C   UNL     1     -10.525   6.230  69.342  1.00  0.00    -0.243 C  
HETATM   49  O   UNL     1      -9.515   7.786  67.835  1.00  0.00    -0.142 OA 
BRANCH  42  50
HETATM   50  N   UNL     1     -12.585   6.640  70.869  1.00  0.00    -0.184 NA 
HETATM   51  C   UNL     1     -11.875   6.405  72.124  1.00  0.00    -0.314 C  
HETATM   52  C   UNL     1     -13.799   7.415  71.121  1.00  0.00    -0.142 C  
ENDBRANCH  42  50
ENDBRANCH  40  41
ENDBRANCH  13  40
BRANCH  35  53
HETATM   53  C   UNL     1      -8.227   8.312  65.544  1.00  0.00    -0.138 C  
HETATM   54  C   UNL     1      -9.166   9.484  65.304  1.00  0.00    -0.307 C  
ENDBRANCH  35  53
ENDBRANCH  11  12
ENDBRANCH   1  11
BRANCH   4  55
HETATM   55  O   UNL     1      -6.705   6.434  73.305  1.00  0.00    -0.072 OA 
HETATM   56  C   UNL     1      -7.277   5.219  73.773  1.00  0.00    -0.083 C  
ENDBRANCH   4  55
TORSDOF 7
ENDMDL
MODEL       26
REMARK 921   NORMALIZED FREE ENERGY PREDICTED BY IDOCK:    1.86 KCAL/MOL
REMARK 922        TOTAL FREE ENERGY PREDICTED BY IDOCK:   -0.07 KCAL/MOL
REMARK 923 INTER-LIGAND FREE ENERGY PREDICTED BY IDOCK:    1.20 KCAL/MOL
REMARK 924 INTRA-LIGAND FREE ENERGY PREDICTED BY IDOCK:   -1.27 KCAL/MOL
REMARK 927      BINDING AFFINITY PREDICTED BY RF-SCORE:    0.00 PKD
ROOT
HETATM    1  C   UNL     1      -7.078  10.982  69.421  1.00  0.00    -0.128 C  
HETATM    2  O   UNL     1      -5.514  14.448  67.192  1.00  0.00    -0.099 OA 
HETATM    3  C   UNL     1      -7.378  12.477  69.872  1.00  0.00     1.086 C  
HETATM    4  C   UNL     1      -6.465  13.644  69.327  1.00  0.00    -0.110 C  
HETATM    5  C   UNL     1      -5.182  11.771  66.229  1.00  0.00     0.186 C  
HETATM    6  C   UNL     1      -6.223  13.372  67.832  1.00  0.00    -0.147 C  
HETATM    7  C   UNL     1      -7.156  15.038  69.484  1.00  0.00    -0.192 C  
HETATM    8  O   UNL     1      -6.370  10.898  68.157  1.00  0.00    -0.056 OA 
HETATM    9  H   UNL     1      -5.365  14.281  66.270  1.00  0.00     0.000 HD 
HETATM   10  C   UNL     1      -5.551  11.998  67.705  1.00  0.00    -0.087 C  
ENDROOT
BRANCH   1  11
HETATM   11  O   UNL     1      -6.822   9.962  70.563  1.00  0.00    -0.122 OA 
BRANCH  11  12
HETATM   12  C   UNL     1      -7.928   9.703  71.524  1.00  0.00     1.037 C  
HETATM   13  C   UNL     1      -9.238   8.320  69.453  1.00  0.00    -0.155 C  
HETATM   14  C   UNL     1      -9.397   8.102  73.311  1.00  0.00    -0.308 C  
HETATM   15  C   UNL     1      -9.201   9.518  70.633  1.00  0.00    -0.243 C  
HETATM   16  O   UNL     1      -5.794   7.960  73.860  1.00  0.00    -0.066 OA 
HETATM   17  C   UNL     1      -7.996   8.716  73.013  1.00  0.00     0.034 C  
HETATM   18  C   UNL     1     -10.416  10.049  71.455  1.00  0.00     0.640 C  
HETATM   19  C   UNL     1     -10.665   7.523  69.458  1.00  0.00    -0.217 C  
HETATM   20  O   UNL     1     -11.021   6.839  70.669  1.00  0.00    -0.240 OA 
HETATM   21  C   UNL     1     -11.761   8.610  69.219  1.00  0.00     1.005 C  
HETATM   22  C   UNL     1      -6.962   7.672  73.576  1.00  0.00    -0.084 C  
HETATM   23  C   UNL     1     -10.634   6.506  68.310  1.00  0.00    -0.302 C  
HETATM   24  C   UNL     1     -12.408   6.469  70.807  1.00  0.00    -0.034 C  
HETATM   25  C   UNL     1     -10.773   4.965  68.471  1.00  0.00     0.426 C  
HETATM   26  H   UNL     1      -8.607   4.399  74.807  1.00  0.00     0.000 HD 
HETATM   27  O   UNL     1      -7.461   6.375  73.870  1.00  0.00    -0.086 OA 
HETATM   28  C   UNL     1      -9.772   4.002  69.263  1.00  0.00    -0.120 C  
HETATM   29  C   UNL     1     -10.726   4.557  66.943  1.00  0.00     0.532 C  
HETATM   30  O   UNL     1      -8.955   4.016  74.010  1.00  0.00    -0.092 OA 
HETATM   31  C   UNL     1      -6.999   2.655  73.683  1.00  0.00    -0.028 C  
HETATM   32  O   UNL     1      -8.998   3.326  68.557  1.00  0.00    -0.106 OA 
HETATM   33  C   UNL     1      -9.819   3.542  70.805  1.00  0.00    -0.114 C  
HETATM   34  C   UNL     1     -10.892   4.014  71.746  1.00  0.00     0.538 C  
HETATM   35  C   UNL     1      -6.863   5.170  73.212  1.00  0.00    -0.075 C  
HETATM   36  C   UNL     1      -8.483   3.137  71.665  1.00  0.00    -0.065 C  
HETATM   37  C   UNL     1      -7.863   3.822  73.088  1.00  0.00    -0.078 C  
HETATM   38  O   UNL     1      -7.504   2.456  70.866  1.00  0.00    -0.033 OA 
HETATM   39  H   UNL     1      -6.730   2.221  71.364  1.00  0.00     0.000 HD 
BRANCH  13  40
HETATM   40  O   UNL     1      -7.975   7.590  69.353  1.00  0.00    -0.118 OA 
BRANCH  40  41
HETATM   41  C   UNL     1      -7.221   6.705  68.448  1.00  0.00    -0.085 C  
HETATM   42  C   UNL     1      -6.161   6.321  66.071  1.00  0.00    -0.033 C  
HETATM   43  C   UNL     1      -5.220   3.576  68.555  1.00  0.00    -0.012 C  
HETATM   44  O   UNL     1      -6.483   8.522  66.692  1.00  0.00    -0.058 OA 
HETATM   45  C   UNL     1      -5.395   5.153  66.655  1.00  0.00    -0.009 C  
HETATM   46  H   UNL     1      -5.918   8.865  66.008  1.00  0.00     0.000 HD 
HETATM   47  C   UNL     1      -6.117   4.636  67.939  1.00  0.00    -0.031 C  
HETATM   48  C   UNL     1      -6.263   7.286  67.288  1.00  0.00    -0.053 C  
HETATM   49  O   UNL     1      -6.449   5.611  68.983  1.00  0.00    -0.038 OA 
BRANCH  42  50
HETATM   50  N   UNL     1      -5.667   6.924  64.787  1.00  0.00    -0.031 NA 
HETATM   51  C   UNL     1      -5.168   6.035  63.741  1.00  0.00    -0.017 C  
HETATM   52  C   UNL     1      -6.544   7.938  64.203  1.00  0.00    -0.061 C  
ENDBRANCH  42  50
ENDBRANCH  40  41
ENDBRANCH  13  40
BRANCH  35  53
HETATM   53  C   UNL     1      -6.509   5.657  71.853  1.00  0.00    -0.052 C  
HETATM   54  C   UNL     1      -5.141   5.012  71.683  1.00  0.00    -0.004 C  
ENDBRANCH  35  53
ENDBRANCH  11  12
ENDBRANCH   1  11
BRANCH   4  55
HETATM   55  O   UNL     1      -5.263  13.613  70.121  1.00  0.00    -0.091 OA 
HETATM   56  C   UNL     1      -5.330  14.052  71.472  1.00  0.00    -0.205 C  
ENDBRANCH   4  55
TORSDOF 7
ENDMDL
MODEL       27
REMARK 921   NORMALIZED FREE ENERGY PREDICTED BY IDOCK:    2.02 KCAL/MOL
REMARK 922        TOTAL FREE ENERGY PREDICTED BY IDOCK:    0.16 KCAL/MOL
REMARK 923 INTER-LIGAND FREE ENERGY PREDICTED BY IDOCK:    0.39 KCAL/MOL
REMARK 924 INTRA-LIGAND FREE ENERGY PREDICTED BY IDOCK:   -0.23 KCAL/MOL
REMARK 927      BINDING AFFINITY PREDICTED BY RF-SCORE:    0.00 PKD
ROOT
HETATM    1  C   UNL     1      -6.079   8.257  70.659  1.00  0.00    -0.032 C  
HETATM    2  O   UNL     1      -6.589   5.451  74.020  1.00  0.00    -0.071 OA 
HETATM    3  C   UNL     1      -6.643   8.727  72.069  1.00  0.00    -0.054 C  
HETATM    4  C   UNL     1      -7.210   7.647  73.071  1.00  0.00    -0.078 C  
HETATM    5  C   UNL     1      -5.336   4.648  71.572  1.00  0.00    -0.004 C  
HETATM    6  C   UNL     1      -6.248   6.446  73.038  1.00  0.00    -0.055 C  
HETATM    7  C   UNL     1      -7.284   8.198  74.533  1.00  0.00    -0.225 C  
HETATM    8  O   UNL     1      -5.638   6.874  70.652  1.00  0.00    -0.023 OA 
HETATM    9  H   UNL     1      -5.995   4.710  74.000  1.00  0.00     0.000 HD 
HETATM   10  C   UNL     1      -6.188   5.929  71.595  1.00  0.00    -0.043 C  
ENDROOT
BRANCH   1  11
HETATM   11  O   UNL     1      -6.734   8.903  69.410  1.00  0.00    -0.047 OA 
BRANCH  11  12
HETATM   12  C   UNL     1      -7.989   8.294  68.890  1.00  0.00    -0.113 C  
HETATM   13  C   UNL     1      -9.354  10.530  69.917  1.00  0.00     0.265 C  
HETATM   14  C   UNL     1     -10.101   8.046  67.047  1.00  0.00    -0.350 C  
HETATM   15  C   UNL     1      -9.124   8.868  69.802  1.00  0.00    -0.151 C  
HETATM   16  O   UNL     1      -6.815   8.243  65.473  1.00  0.00    -0.064 OA 
HETATM   17  C   UNL     1      -8.553   7.987  67.221  1.00  0.00    -0.124 C  
HETATM   18  C   UNL     1     -10.225   7.769  69.907  1.00  0.00    -0.213 C  
HETATM   19  C   UNL     1     -10.941  10.917  69.847  1.00  0.00    -0.199 C  
HETATM   20  O   UNL     1     -11.648  10.542  68.656  1.00  0.00    -0.258 OA 
HETATM   21  C   UNL     1     -11.618  10.152  71.028  1.00  0.00    -0.462 C  
HETATM   22  C   UNL     1      -7.966   8.493  65.852  1.00  0.00    -0.105 C  
HETATM   23  C   UNL     1     -11.058  12.435  70.031  1.00  0.00     0.384 C  
HETATM   24  C   UNL     1     -13.087  10.536  68.744  1.00  0.00     3.374 C  
HETATM   25  C   UNL     1     -11.672  13.421  68.996  1.00  0.00    -0.368 C  
HETATM   26  H   UNL     1     -10.667   9.807  63.421  1.00  0.00     0.000 HD 
HETATM   27  O   UNL     1      -8.864   9.164  64.982  1.00  0.00    -0.190 OA 
HETATM   28  C   UNL     1     -11.124  13.708  67.521  1.00  0.00    -0.277 C  
HETATM   29  C   UNL     1     -11.539  14.760  69.828  1.00  0.00    -0.338 C  
HETATM   30  O   UNL     1     -11.000  10.580  63.861  1.00  0.00     0.368 OA 
HETATM   31  C   UNL     1      -9.515  12.038  62.657  1.00  0.00     0.826 C  
HETATM   32  O   UNL     1     -10.498  14.777  67.375  1.00  0.00    -0.252 OA 
HETATM   33  C   UNL     1     -11.517  12.987  66.137  1.00  0.00    -0.381 C  
HETATM   34  C   UNL     1     -12.518  11.868  66.078  1.00  0.00     1.282 C  
HETATM   35  C   UNL     1      -8.570  10.559  64.523  1.00  0.00    -0.159 C  
HETATM   36  C   UNL     1     -10.494  12.869  64.861  1.00  0.00    -0.331 C  
HETATM   37  C   UNL     1      -9.900  11.488  64.074  1.00  0.00    -0.274 C  
HETATM   38  O   UNL     1      -9.664  14.030  64.716  1.00  0.00    -0.527 OA 
HETATM   39  H   UNL     1      -9.072  13.962  63.977  1.00  0.00     0.000 HD 
BRANCH  13  40
HETATM   40  O   UNL     1      -8.367  11.289  69.151  1.00  0.00    -0.065 OA 
BRANCH  40  41
HETATM   41  C   UNL     1      -7.326  12.320  69.310  1.00  0.00     0.184 C  
HETATM   42  C   UNL     1      -6.054  14.385  68.291  1.00  0.00    -0.119 C  
HETATM   43  C   UNL     1      -5.127  13.750  71.941  1.00  0.00    -0.181 C  
HETATM   44  O   UNL     1      -8.161  13.973  67.439  1.00  0.00    -0.172 OA 
HETATM   45  C   UNL     1      -5.502  14.666  69.672  1.00  0.00    -0.093 C  
HETATM   46  H   UNL     1      -8.232  14.827  67.028  1.00  0.00     0.000 HD 
HETATM   47  C   UNL     1      -5.544  13.363  70.533  1.00  0.00    -0.163 C  
HETATM   48  C   UNL     1      -7.447  13.769  68.614  1.00  0.00    -0.116 C  
HETATM   49  O   UNL     1      -6.815  12.636  70.621  1.00  0.00     0.722 OA 
BRANCH  42  50
HETATM   50  N   UNL     1      -6.039  15.496  67.281  1.00  0.00    -0.324 NA 
HETATM   51  C   UNL     1      -7.314  16.022  66.798  1.00  0.00    -0.151 C  
HETATM   52  C   UNL     1      -5.129  16.599  67.587  1.00  0.00    -0.124 C  
ENDBRANCH  42  50
ENDBRANCH  40  41
ENDBRANCH  13  40
BRANCH  35  53
HETATM   53  C   UNL     1      -7.903  11.177  65.700  1.00  0.00     0.156 C  
HETATM   54  C   UNL     1      -6.463  11.207  65.210  1.00  0.00     0.501 C  
ENDBRANCH  35  53
ENDBRANCH  11  12
ENDBRANCH   1  11
BRANCH   4  55
HETATM   55  O   UNL     1      -8.539   7.334  72.610  1.00  0.00    -0.109 OA 
HETATM   56  C   UNL     1      -9.647   7.917  73.284  1.00  0.00    -0.285 C  
ENDBRANCH   4  55
TORSDOF 7
ENDMDL
MODEL       28
REMARK 921   NORMALIZED FREE ENERGY PREDICTED BY IDOCK:    2.23 KCAL/MOL
REMARK 922        TOTAL FREE ENERGY PREDICTED BY IDOCK:    0.45 KCAL/MOL
REMARK 923 INTER-LIGAND FREE ENERGY PREDICTED BY IDOCK:    0.60 KCAL/MOL
REMARK 924 INTRA-LIGAND FREE ENERGY PREDICTED BY IDOCK:   -0.15 KCAL/MOL
REMARK 927      BINDING AFFINITY PREDICTED BY RF-SCORE:    0.00 PKD
ROOT
HETATM    1  C   UNL     1      -6.130   4.520  70.719  1.00  0.00    -0.018 C  
HETATM    2  O   UNL     1      -8.538   3.463  74.256  1.00  0.00    -0.086 OA 
HETATM    3  C   UNL     1      -6.191   5.454  72.006  1.00  0.00    -0.035 C  
HETATM    4  C   UNL     1      -7.372   5.268  73.036  1.00  0.00    -0.091 C  
HETATM    5  C   UNL     1      -8.233   1.656  72.054  1.00  0.00    -0.045 C  
HETATM    6  C   UNL     1      -7.575   3.755  73.228  1.00  0.00    -0.073 C  
HETATM    7  C   UNL     1      -7.036   5.914  74.421  1.00  0.00    -0.088 C  
HETATM    8  O   UNL     1      -6.825   3.258  70.896  1.00  0.00    -0.031 OA 
HETATM    9  H   UNL     1      -8.664   2.529  74.374  1.00  0.00     0.000 HD 
HETATM   10  C   UNL     1      -7.896   3.144  71.857  1.00  0.00    -0.054 C  
ENDROOT
BRANCH   1  11
HETATM   11  O   UNL     1      -6.104   5.247  69.348  1.00  0.00    -0.022 OA 
BRANCH  11  12
HETATM   12  C   UNL     1      -7.161   4.900  68.359  1.00  0.00    -0.061 C  
HETATM   13  C   UNL     1      -8.834   6.728  69.690  1.00  0.00    -0.144 C  
HETATM   14  C   UNL     1      -8.730   5.368  66.070  1.00  0.00    -0.137 C  
HETATM   15  C   UNL     1      -8.512   5.189  69.094  1.00  0.00    -0.090 C  
HETATM   16  O   UNL     1      -5.166   5.929  65.528  1.00  0.00    -0.009 OA 
HETATM   17  C   UNL     1      -7.274   5.186  66.598  1.00  0.00    -0.081 C  
HETATM   18  C   UNL     1      -9.556   4.167  68.550  1.00  0.00    -0.192 C  
HETATM   19  C   UNL     1     -10.368   7.187  69.357  1.00  0.00    -0.198 C  
HETATM   20  O   UNL     1     -10.736   7.258  67.972  1.00  0.00    -0.200 OA 
HETATM   21  C   UNL     1     -11.286   6.105  70.009  1.00  0.00    -0.443 C  
HETATM   22  C   UNL     1      -6.384   6.090  65.666  1.00  0.00    -0.038 C  
HETATM   23  C   UNL     1     -10.592   8.562  69.997  1.00  0.00    -0.230 C  
HETATM   24  C   UNL     1     -12.150   7.287  67.689  1.00  0.00     3.382 C  
HETATM   25  C   UNL     1     -10.968   9.861  69.228  1.00  0.00    -0.244 C  
HETATM   26  H   UNL     1      -8.442   8.253  63.212  1.00  0.00     0.000 HD 
HETATM   27  O   UNL     1      -7.063   7.051  64.872  1.00  0.00    -0.059 OA 
HETATM   28  C   UNL     1     -10.079  10.595  68.119  1.00  0.00    -0.158 C  
HETATM   29  C   UNL     1     -11.105  10.842  70.461  1.00  0.00    -0.067 C  
HETATM   30  O   UNL     1      -8.907   8.851  63.785  1.00  0.00    -0.099 OA 
HETATM   31  C   UNL     1      -7.231  10.557  63.545  1.00  0.00     0.076 C  
HETATM   32  O   UNL     1      -9.483  11.623  68.496  1.00  0.00    -0.195 OA 
HETATM   33  C   UNL     1     -10.082  10.390  66.522  1.00  0.00    -0.285 C  
HETATM   34  C   UNL     1     -10.987   9.399  65.847  1.00  0.00     1.435 C  
HETATM   35  C   UNL     1      -6.723   8.505  64.990  1.00  0.00    -0.064 C  
HETATM   36  C   UNL     1      -8.767  10.655  65.579  1.00  0.00    -0.188 C  
HETATM   37  C   UNL     1      -7.936   9.587  64.555  1.00  0.00    -0.133 C  
HETATM   38  O   UNL     1      -7.978  11.761  66.040  1.00  0.00    -0.367 OA 
HETATM   39  H   UNL     1      -7.216  11.915  65.493  1.00  0.00     0.000 HD 
BRANCH  13  40
HETATM   40  O   UNL     1      -7.719   7.653  69.493  1.00  0.00    -0.098 OA 
BRANCH  40  41
HETATM   41  C   UNL     1      -7.190   8.943  69.970  1.00  0.00    -0.054 C  
HETATM   42  C   UNL     1      -6.093  10.323  71.922  1.00  0.00     0.688 C  
HETATM   43  C   UNL     1      -6.241  12.283  68.648  1.00  0.00    -0.067 C  
HETATM   44  O   UNL     1      -5.790   8.034  72.004  1.00  0.00    -0.035 OA 
HETATM   45  C   UNL     1      -5.767  11.402  70.912  1.00  0.00    -0.019 C  
HETATM   46  H   UNL     1      -5.092   8.085  72.647  1.00  0.00     0.000 HD 
HETATM   47  C   UNL     1      -6.720  11.279  69.681  1.00  0.00    -0.122 C  
HETATM   48  C   UNL     1      -6.006   9.030  71.059  1.00  0.00    -0.050 C  
HETATM   49  O   UNL     1      -6.833   9.972  69.025  1.00  0.00    -0.052 OA 
BRANCH  42  50
HETATM   50  N   UNL     1      -5.331  10.308  73.216  1.00  0.00    -0.304 NA 
HETATM   51  C   UNL     1      -5.151  11.565  73.939  1.00  0.00     0.433 C  
HETATM   52  C   UNL     1      -5.714   9.248  74.148  1.00  0.00    -0.034 C  
ENDBRANCH  42  50
ENDBRANCH  40  41
ENDBRANCH  13  40
BRANCH  35  53
HETATM   53  C   UNL     1      -6.400   8.668  66.433  1.00  0.00    -0.061 C  
HETATM   54  C   UNL     1      -5.193   9.589  66.336  1.00  0.00    -0.043 C  
ENDBRANCH  35  53
ENDBRANCH  11  12
ENDBRANCH   1  11
BRANCH   4  55
HETATM   55  O   UNL     1      -8.512   5.935  72.461  1.00  0.00    -0.117 OA 
HETATM   56  C   UNL     1      -8.998   7.114  73.090  1.00  0.00    -0.133 C  
ENDBRANCH   4  55
TORSDOF 7
ENDMDL
MODEL       29
REMARK 921   NORMALIZED FREE ENERGY PREDICTED BY IDOCK:    2.57 KCAL/MOL
REMARK 922        TOTAL FREE ENERGY PREDICTED BY IDOCK:    0.94 KCAL/MOL
REMARK 923 INTER-LIGAND FREE ENERGY PREDICTED BY IDOCK:    0.47 KCAL/MOL
REMARK 924 INTRA-LIGAND FREE ENERGY PREDICTED BY IDOCK:    0.47 KCAL/MOL
REMARK 927      BINDING AFFINITY PREDICTED BY RF-SCORE:    0.00 PKD
ROOT
HETATM    1  C   UNL     1      -8.271   7.105  66.958  1.00  0.00    -0.117 C  
HETATM    2  O   UNL     1      -9.402   2.935  67.830  1.00  0.00    -0.195 OA 
HETATM    3  C   UNL     1      -7.486   6.227  68.026  1.00  0.00    -0.090 C  
HETATM    4  C   UNL     1      -8.173   4.932  68.613  1.00  0.00    -0.084 C  
HETATM    5  C   UNL     1     -10.656   4.421  65.727  1.00  0.00    -0.140 C  
HETATM    6  C   UNL     1      -8.857   4.208  67.439  1.00  0.00    -0.116 C  
HETATM    7  C   UNL     1      -7.127   3.969  69.263  1.00  0.00    -0.047 C  
HETATM    8  O   UNL     1      -9.279   6.355  66.231  1.00  0.00    -0.158 OA 
HETATM    9  H   UNL     1      -9.823   2.488  67.106  1.00  0.00     0.000 HD 
HETATM   10  C   UNL     1      -9.871   5.175  66.814  1.00  0.00    -0.185 C  
ENDROOT
BRANCH   1  11
HETATM   11  O   UNL     1      -8.479   8.600  67.322  1.00  0.00    -0.114 OA 
BRANCH  11  12
HETATM   12  C   UNL     1      -8.142   9.031  68.705  1.00  0.00    -0.105 C  
HETATM   13  C   UNL     1      -7.288  11.475  67.604  1.00  0.00    -0.105 C  
HETATM   14  C   UNL     1      -8.604  10.447  71.093  1.00  0.00     3.047 C  
HETATM   15  C   UNL     1      -7.012  10.099  68.531  1.00  0.00    -0.069 C  
HETATM   16  O   UNL     1     -11.525   8.614  69.903  1.00  0.00    -0.046 OA 
HETATM   17  C   UNL     1      -9.174   9.365  70.127  1.00  0.00    -0.268 C  
HETATM   18  C   UNL     1      -6.085   9.993  69.780  1.00  0.00    -0.047 C  
HETATM   19  C   UNL     1      -6.708  12.815  68.339  1.00  0.00    -0.087 C  
HETATM   20  O   UNL     1      -7.256  13.138  69.625  1.00  0.00     0.232 OA 
HETATM   21  C   UNL     1      -5.183  12.555  68.554  1.00  0.00    -0.053 C  
HETATM   22  C   UNL     1     -10.738   9.513  70.222  1.00  0.00    -0.265 C  
HETATM   23  C   UNL     1      -6.939  14.001  67.394  1.00  0.00    -0.067 C  
HETATM   24  C   UNL     1      -6.499  14.069  70.424  1.00  0.00     0.001 C  
HETATM   25  C   UNL     1      -7.795  15.258  67.722  1.00  0.00    -0.161 C  
HETATM   26  H   UNL     1     -11.863  12.547  72.333  1.00  0.00     0.000 HD 
HETATM   27  O   UNL     1     -11.231  10.704  70.816  1.00  0.00    -0.246 OA 
HETATM   28  C   UNL     1      -9.364  15.281  68.028  1.00  0.00    -0.197 C  
HETATM   29  C   UNL     1      -7.553  16.071  66.387  1.00  0.00     0.050 C  
HETATM   30  O   UNL     1     -11.562  13.291  71.824  1.00  0.00     1.443 OA 
HETATM   31  C   UNL     1     -13.689  13.538  70.730  1.00  0.00     0.596 C  
HETATM   32  O   UNL     1     -10.091  15.681  67.098  1.00  0.00    -0.247 OA 
HETATM   33  C   UNL     1     -10.121  15.161  69.444  1.00  0.00    -0.245 C  
HETATM   34  C   UNL     1      -9.373  14.994  70.736  1.00  0.00     1.675 C  
HETATM   35  C   UNL     1     -12.156  11.601  70.053  1.00  0.00    -0.319 C  
HETATM   36  C   UNL     1     -11.632  14.548  69.608  1.00  0.00    -0.299 C  
HETATM   37  C   UNL     1     -12.168  13.219  70.517  1.00  0.00    -0.340 C  
HETATM   38  O   UNL     1     -12.482  14.883  68.501  1.00  0.00    -0.575 OA 
HETATM   39  H   UNL     1     -13.358  14.528  68.597  1.00  0.00     0.000 HD 
BRANCH  13  40
HETATM   40  O   UNL     1      -8.612  11.479  66.983  1.00  0.00    -0.149 OA 
BRANCH  40  41
HETATM   41  C   UNL     1      -9.282  11.262  65.689  1.00  0.00    -0.213 C  
HETATM   42  C   UNL     1     -11.334  11.771  64.123  1.00  0.00    -0.352 C  
HETATM   43  C   UNL     1      -8.587   9.803  62.344  1.00  0.00    -0.204 C  
HETATM   44  O   UNL     1     -10.897  13.340  65.761  1.00  0.00    -0.272 OA 
HETATM   45  C   UNL     1     -10.541  11.185  62.975  1.00  0.00    -0.058 C  
HETATM   46  H   UNL     1     -11.447  14.004  65.361  1.00  0.00     0.000 HD 
HETATM   47  C   UNL     1      -9.436  10.230  63.528  1.00  0.00    -0.298 C  
HETATM   48  C   UNL     1     -10.214  12.389  65.011  1.00  0.00    -0.283 C  
HETATM   49  O   UNL     1      -8.538  10.744  64.567  1.00  0.00    -0.147 OA 
BRANCH  42  50
HETATM   50  N   UNL     1     -12.494  12.668  63.800  1.00  0.00    -0.681 NA 
HETATM   51  C   UNL     1     -12.237  13.921  63.094  1.00  0.00     0.466 C  
HETATM   52  C   UNL     1     -13.653  11.995  63.215  1.00  0.00     1.401 C  
ENDBRANCH  42  50
ENDBRANCH  40  41
ENDBRANCH  13  40
BRANCH  35  53
HETATM   53  C   UNL     1     -11.671  11.487  68.652  1.00  0.00    -0.389 C  
HETATM   54  C   UNL     1     -10.312  12.160  68.781  1.00  0.00    -0.168 C  
ENDBRANCH  35  53
ENDBRANCH  11  12
ENDBRANCH   1  11
BRANCH   4  55
HETATM   55  O   UNL     1      -9.094   5.392  69.621  1.00  0.00    -0.113 OA 
HETATM   56  C   UNL     1      -8.575   5.781  70.887  1.00  0.00    -0.130 C  
ENDBRANCH   4  55
TORSDOF 7
ENDMDL
MODEL       30
REMARK 921   NORMALIZED FREE ENERGY PREDICTED BY IDOCK:    2.58 KCAL/MOL
REMARK 922        TOTAL FREE ENERGY PREDICTED BY IDOCK:    0.95 KCAL/MOL
REMARK 923 INTER-LIGAND FREE ENERGY PREDICTED BY IDOCK:    2.58 KCAL/MOL
REMARK 924 INTRA-LIGAND FREE ENERGY PREDICTED BY IDOCK:   -1.62 KCAL/MOL
REMARK 927      BINDING AFFINITY PREDICTED BY RF-SCORE:    0.00 PKD
ROOT
HETATM    1  C   UNL     1      -8.157   7.854  66.950  1.00  0.00    -0.115 C  
HETATM    2  O   UNL     1      -8.228   3.528  66.111  1.00  0.00    -0.099 OA 
HETATM    3  C   UNL     1      -8.384   7.285  65.483  1.00  0.00    -0.137 C  
HETATM    4  C   UNL     1      -7.974   5.795  65.162  1.00  0.00    -0.119 C  
HETATM    5  C   UNL     1      -8.074   4.535  68.789  1.00  0.00    -0.081 C  
HETATM    6  C   UNL     1      -8.426   4.932  66.353  1.00  0.00    -0.111 C  
HETATM    7  C   UNL     1      -8.670   5.272  63.863  1.00  0.00     0.002 C  
HETATM    8  O   UNL     1      -8.116   6.817  67.965  1.00  0.00    -0.112 OA 
HETATM    9  H   UNL     1      -8.508   2.995  66.846  1.00  0.00     0.000 HD 
HETATM   10  C   UNL     1      -7.736   5.469  67.614  1.00  0.00    -0.093 C  
ENDROOT
BRANCH   1  11
HETATM   11  O   UNL     1      -7.282   9.131  67.061  1.00  0.00    -0.088 OA 
BRANCH  11  12
HETATM   12  C   UNL     1      -7.005   9.668  68.421  1.00  0.00    -0.065 C  
HETATM   13  C   UNL     1      -6.905  12.227  67.255  1.00  0.00    -0.140 C  
HETATM   14  C   UNL     1      -7.711  10.959  70.819  1.00  0.00     2.571 C  
HETATM   15  C   UNL     1      -6.218  10.999  68.176  1.00  0.00    -0.049 C  
HETATM   16  O   UNL     1     -10.081   8.377  69.806  1.00  0.00    -0.189 OA 
HETATM   17  C   UNL     1      -8.015   9.741  69.894  1.00  0.00    -0.184 C  
HETATM   18  C   UNL     1      -5.234  11.175  69.373  1.00  0.00    -0.044 C  
HETATM   19  C   UNL     1      -6.673  13.690  67.947  1.00  0.00    -0.153 C  
HETATM   20  O   UNL     1      -7.222  13.881  69.259  1.00  0.00    -0.081 OA 
HETATM   21  C   UNL     1      -5.126  13.858  68.080  1.00  0.00    -0.097 C  
HETATM   22  C   UNL     1      -9.553   9.463  70.074  1.00  0.00    -0.226 C  
HETATM   23  C   UNL     1      -7.265  14.748  67.007  1.00  0.00     0.261 C  
HETATM   24  C   UNL     1      -6.707  15.000  70.008  1.00  0.00    -0.147 C  
HETATM   25  C   UNL     1      -8.413  15.733  67.373  1.00  0.00    -0.191 C  
HETATM   26  H   UNL     1     -11.351  12.125  72.221  1.00  0.00     0.000 HD 
HETATM   27  O   UNL     1     -10.320  10.488  70.686  1.00  0.00     0.194 OA 
HETATM   28  C   UNL     1      -9.912  15.336  67.765  1.00  0.00    -0.224 C  
HETATM   29  C   UNL     1      -8.469  16.551  66.020  1.00  0.00    -0.206 C  
HETATM   30  O   UNL     1     -11.290  12.911  71.691  1.00  0.00     2.522 OA 
HETATM   31  C   UNL     1     -13.457  12.548  70.714  1.00  0.00     0.905 C  
HETATM   32  O   UNL     1     -10.767  15.504  66.873  1.00  0.00    -0.312 OA 
HETATM   33  C   UNL     1     -10.534  15.048  69.221  1.00  0.00    -0.252 C  
HETATM   34  C   UNL     1      -9.704  15.118  70.471  1.00  0.00     0.655 C  
HETATM   35  C   UNL     1     -11.491  11.085  69.968  1.00  0.00    -0.314 C  
HETATM   36  C   UNL     1     -11.811  14.052  69.473  1.00  0.00    -0.325 C  
HETATM   37  C   UNL     1     -11.920  12.648  70.420  1.00  0.00    -0.248 C  
HETATM   38  O   UNL     1     -12.776  14.120  68.412  1.00  0.00    -0.283 OA 
HETATM   39  H   UNL     1     -13.516  13.543  68.559  1.00  0.00     0.000 HD 
BRANCH  13  40
HETATM   40  O   UNL     1      -8.210  11.858  66.709  1.00  0.00    -0.170 OA 
BRANCH  40  41
HETATM   41  C   UNL     1      -8.856  11.411  65.462  1.00  0.00    -0.030 C  
HETATM   42  C   UNL     1     -10.926  11.549  63.846  1.00  0.00    -0.401 C  
HETATM   43  C   UNL     1      -8.046   9.527  62.364  1.00  0.00    -0.139 C  
HETATM   44  O   UNL     1     -10.603  13.366  65.235  1.00  0.00    -0.301 OA 
HETATM   45  C   UNL     1     -10.090  10.855  62.793  1.00  0.00    -0.086 C  
HETATM   46  H   UNL     1     -11.193  13.927  64.745  1.00  0.00     0.000 HD 
HETATM   47  C   UNL     1      -8.928  10.066  63.476  1.00  0.00    -0.256 C  
HETATM   48  C   UNL     1      -9.856  12.363  64.630  1.00  0.00    -0.076 C  
HETATM   49  O   UNL     1      -8.073  10.785  64.426  1.00  0.00    -0.019 OA 
BRANCH  42  50
HETATM   50  N   UNL     1     -12.141  12.311  63.400  1.00  0.00    -0.520 NA 
HETATM   51  C   UNL     1     -13.401  12.103  64.111  1.00  0.00     0.477 C  
HETATM   52  C   UNL     1     -11.927  13.740  63.174  1.00  0.00     0.384 C  
ENDBRANCH  42  50
ENDBRANCH  40  41
ENDBRANCH  13  40
BRANCH  35  53
HETATM   53  C   UNL     1     -11.066  11.075  68.543  1.00  0.00    -0.297 C  
HETATM   54  C   UNL     1     -12.404  10.828  67.863  1.00  0.00     1.647 C  
ENDBRANCH  35  53
ENDBRANCH  11  12
ENDBRANCH   1  11
BRANCH   4  55
HETATM   55  O   UNL     1      -6.546   5.808  64.969  1.00  0.00    -0.041 OA 
HETATM   56  C   UNL     1      -6.009   5.142  63.833  1.00  0.00    -0.021 C  
ENDBRANCH   4  55
TORSDOF 7
ENDMDL
MODEL       31
REMARK 921   NORMALIZED FREE ENERGY PREDICTED BY IDOCK:    3.44 KCAL/MOL
REMARK 922        TOTAL FREE ENERGY PREDICTED BY IDOCK:    2.16 KCAL/MOL
REMARK 923 INTER-LIGAND FREE ENERGY PREDICTED BY IDOCK:    0.29 KCAL/MOL
REMARK 924 INTRA-LIGAND FREE ENERGY PREDICTED BY IDOCK:    1.86 KCAL/MOL
REMARK 927      BINDING AFFINITY PREDICTED BY RF-SCORE:    0.00 PKD
ROOT
HETATM    1  C   UNL     1     -10.116   9.255  69.858  1.00  0.00    -0.209 C  
HETATM    2  O   UNL     1      -8.082   5.419  70.613  1.00  0.00    -0.104 OA 
HETATM    3  C   UNL     1     -10.923   7.898  70.050  1.00  0.00    -0.208 C  
HETATM    4  C   UNL     1     -10.169   6.523  69.881  1.00  0.00    -0.184 C  
HETATM    5  C   UNL     1      -6.638   7.891  70.524  1.00  0.00    -0.037 C  
HETATM    6  C   UNL     1      -8.806   6.662  70.582  1.00  0.00    -0.148 C  
HETATM    7  C   UNL     1     -10.960   5.346  70.539  1.00  0.00    -0.101 C  
HETATM    8  O   UNL     1      -8.691   9.110  70.090  1.00  0.00    -0.145 OA 
HETATM    9  H   UNL     1      -7.241   5.504  71.046  1.00  0.00     0.000 HD 
HETATM   10  C   UNL     1      -8.053   7.826  69.924  1.00  0.00    -0.120 C  
ENDROOT
BRANCH   1  11
HETATM   11  O   UNL     1     -10.667  10.232  68.785  1.00  0.00    -0.197 OA 
BRANCH  11  12
HETATM   12  C   UNL     1      -9.823  10.497  67.588  1.00  0.00    -0.166 C  
HETATM   13  C   UNL     1     -11.394  12.787  67.140  1.00  0.00    -0.314 C  
HETATM   14  C   UNL     1      -7.774  11.818  66.184  1.00  0.00     0.338 C  
HETATM   15  C   UNL     1     -10.738  11.327  66.626  1.00  0.00    -0.321 C  
HETATM   16  O   UNL     1      -6.765  10.687  69.502  1.00  0.00    -0.073 OA 
HETATM   17  C   UNL     1      -8.098  10.937  67.428  1.00  0.00    -0.114 C  
HETATM   18  C   UNL     1     -10.324  10.957  65.169  1.00  0.00    -0.344 C  
HETATM   19  C   UNL     1     -11.277  13.934  65.980  1.00  0.00    -0.300 C  
HETATM   20  O   UNL     1      -9.955  14.275  65.537  1.00  0.00    -0.334 OA 
HETATM   21  C   UNL     1     -12.031  13.361  64.738  1.00  0.00    -0.429 C  
HETATM   22  C   UNL     1      -7.069  11.388  68.529  1.00  0.00    -0.085 C  
HETATM   23  C   UNL     1     -11.962  15.201  66.507  1.00  0.00     0.154 C  
HETATM   24  C   UNL     1      -9.866  14.983  64.284  1.00  0.00     2.364 C  
HETATM   25  C   UNL     1     -11.269  16.580  66.708  1.00  0.00     0.335 C  
HETATM   26  H   UNL     1      -4.946  14.442  67.483  1.00  0.00     0.000 HD 
HETATM   27  O   UNL     1      -6.387  12.612  68.302  1.00  0.00    -0.061 OA 
HETATM   28  C   UNL     1     -10.062  16.895  67.708  1.00  0.00    -0.292 C  
HETATM   29  C   UNL     1     -12.524  17.413  67.190  1.00  0.00     4.504 C  
HETATM   30  O   UNL     1      -5.585  15.143  67.423  1.00  0.00    -0.339 OA 
HETATM   31  C   UNL     1      -5.146  15.880  69.669  1.00  0.00    -0.109 C  
HETATM   32  O   UNL     1     -10.371  17.492  68.758  1.00  0.00    -0.353 OA 
HETATM   33  C   UNL     1      -8.478  16.838  67.431  1.00  0.00    -0.203 C  
HETATM   34  C   UNL     1      -7.915  16.440  66.095  1.00  0.00    -0.130 C  
HETATM   35  C   UNL     1      -6.480  13.724  69.302  1.00  0.00    -0.112 C  
HETATM   36  C   UNL     1      -7.370  16.529  68.600  1.00  0.00    -0.194 C  
HETATM   37  C   UNL     1      -6.228  15.278  68.706  1.00  0.00    -0.090 C  
HETATM   38  O   UNL     1      -7.736  17.098  69.865  1.00  0.00     0.680 OA 
HETATM   39  H   UNL     1      -7.094  16.920  70.542  1.00  0.00     0.000 HD 
BRANCH  13  40
HETATM   40  O   UNL     1     -11.063  13.096  68.530  1.00  0.00    -0.241 OA 
BRANCH  40  41
HETATM   41  C   UNL     1     -11.614  13.017  69.894  1.00  0.00    -0.179 C  
HETATM   42  C   UNL     1     -12.274  14.267  72.112  1.00  0.00    -0.071 C  
HETATM   43  C   UNL     1     -13.408  10.621  72.095  1.00  0.00    -0.335 C  
HETATM   44  O   UNL     1     -12.188  15.567  70.204  1.00  0.00    -0.357 OA 
HETATM   45  C   UNL     1     -13.046  13.032  72.522  1.00  0.00    -0.263 C  
HETATM   46  H   UNL     1     -12.662  16.290  70.598  1.00  0.00     0.000 HD 
HETATM   47  C   UNL     1     -12.496  11.787  71.756  1.00  0.00     0.094 C  
HETATM   48  C   UNL     1     -12.418  14.243  70.562  1.00  0.00    -0.361 C  
HETATM   49  O   UNL     1     -12.388  11.869  70.296  1.00  0.00    -0.274 OA 
BRANCH  42  50
HETATM   50  N   UNL     1     -12.603  15.568  72.788  1.00  0.00    -0.375 NA 
HETATM   51  C   UNL     1     -13.974  16.071  72.711  1.00  0.00    -0.256 C  
HETATM   52  C   UNL     1     -12.100  15.700  74.154  1.00  0.00    -0.472 C  
ENDBRANCH  42  50
ENDBRANCH  40  41
ENDBRANCH  13  40
BRANCH  35  53
HETATM   53  C   UNL     1      -7.868  13.607  69.822  1.00  0.00     1.061 C  
HETATM   54  C   UNL     1      -8.648  14.158  68.638  1.00  0.00    -0.126 C  
ENDBRANCH  35  53
ENDBRANCH  11  12
ENDBRANCH   1  11
BRANCH   4  55
HETATM   55  O   UNL     1     -10.066   6.296  68.461  1.00  0.00    -0.140 OA 
HETATM   56  C   UNL     1     -10.522   5.055  67.937  1.00  0.00     0.032 C  
ENDBRANCH   4  55
TORSDOF 7
ENDMDL
MODEL       32
REMARK 921   NORMALIZED FREE ENERGY PREDICTED BY IDOCK:    3.51 KCAL/MOL
REMARK 922        TOTAL FREE ENERGY PREDICTED BY IDOCK:    2.25 KCAL/MOL
REMARK 923 INTER-LIGAND FREE ENERGY PREDICTED BY IDOCK:    1.13 KCAL/MOL
REMARK 924 INTRA-LIGAND FREE ENERGY PREDICTED BY IDOCK:    1.12 KCAL/MOL
REMARK 927      BINDING AFFINITY PREDICTED BY RF-SCORE:    0.00 PKD
ROOT
HETATM    1  C   UNL     1      -8.739   8.886  70.975  1.00  0.00    -0.224 C  
HETATM    2  O   UNL     1      -5.291   7.140  73.094  1.00  0.00    -0.038 OA 
HETATM    3  C   UNL     1      -8.452   7.322  70.969  1.00  0.00    -0.127 C  
HETATM    4  C   UNL     1      -7.012   6.802  71.352  1.00  0.00    -0.070 C  
HETATM    5  C   UNL     1      -5.941   9.921  73.322  1.00  0.00     0.740 C  
HETATM    6  C   UNL     1      -6.540   7.622  72.566  1.00  0.00    -0.061 C  
HETATM    7  C   UNL     1      -7.029   5.287  71.739  1.00  0.00    -0.070 C  
HETATM    8  O   UNL     1      -7.843   9.628  71.843  1.00  0.00     0.305 OA 
HETATM    9  H   UNL     1      -4.999   7.646  73.843  1.00  0.00     0.000 HD 
HETATM   10  C   UNL     1      -6.537   9.103  72.164  1.00  0.00     0.183 C  
ENDROOT
BRANCH   1  11
HETATM   11  O   UNL     1      -9.263   9.490  69.645  1.00  0.00    -0.172 OA 
BRANCH  11  12
HETATM   12  C   UNL     1      -8.265   9.820  68.591  1.00  0.00    -0.106 C  
HETATM   13  C   UNL     1     -10.433  10.348  66.878  1.00  0.00    -0.240 C  
HETATM   14  C   UNL     1      -6.772  11.590  66.993  1.00  0.00    -0.143 C  
HETATM   15  C   UNL     1      -9.002   9.543  67.238  1.00  0.00    -0.143 C  
HETATM   16  O   UNL     1      -6.748  12.461  70.535  1.00  0.00     0.314 OA 
HETATM   17  C   UNL     1      -7.082  11.154  68.457  1.00  0.00    -0.080 C  
HETATM   18  C   UNL     1      -7.921   9.069  66.219  1.00  0.00    -0.103 C  
HETATM   19  C   UNL     1     -10.447  10.873  65.330  1.00  0.00    -0.230 C  
HETATM   20  O   UNL     1      -9.416  11.796  64.948  1.00  0.00    -0.164 OA 
HETATM   21  C   UNL     1     -10.257   9.599  64.446  1.00  0.00     1.143 C  
HETATM   22  C   UNL     1      -6.943  12.466  69.314  1.00  0.00     0.021 C  
HETATM   23  C   UNL     1     -11.811  11.526  65.072  1.00  0.00     0.161 C  
HETATM   24  C   UNL     1      -9.199  11.959  63.533  1.00  0.00     0.209 C  
HETATM   25  C   UNL     1     -12.033  13.009  64.654  1.00  0.00    -0.445 C  
HETATM   26  H   UNL     1      -6.388  15.638  67.178  1.00  0.00     0.000 HD 
HETATM   27  O   UNL     1      -6.928  13.694  68.602  1.00  0.00    -0.091 OA 
HETATM   28  C   UNL     1     -11.650  14.302  65.513  1.00  0.00    -0.338 C  
HETATM   29  C   UNL     1     -13.607  12.983  64.499  1.00  0.00     1.495 C  
HETATM   30  O   UNL     1      -7.205  15.726  66.700  1.00  0.00    -0.168 OA 
HETATM   31  C   UNL     1      -8.118  17.243  68.326  1.00  0.00    -0.246 C  
HETATM   32  O   UNL     1     -12.599  14.874  66.084  1.00  0.00     0.109 OA 
HETATM   33  C   UNL     1     -10.284  15.153  65.504  1.00  0.00    -0.405 C  
HETATM   34  C   UNL     1      -9.123  14.790  64.622  1.00  0.00     3.408 C  
HETATM   35  C   UNL     1      -7.944  14.753  68.903  1.00  0.00    -0.160 C  
HETATM   36  C   UNL     1      -9.737  15.990  66.804  1.00  0.00    -0.239 C  
HETATM   37  C   UNL     1      -8.278  15.834  67.657  1.00  0.00    -0.151 C  
HETATM   38  O   UNL     1     -10.802  16.575  67.566  1.00  0.00    -0.313 OA 
HETATM   39  H   UNL     1     -10.485  17.061  68.318  1.00  0.00     0.000 HD 
BRANCH  13  40
HETATM   40  O   UNL     1     -10.879  11.218  67.965  1.00  0.00    -0.191 OA 
BRANCH  40  41
HETATM   41  C   UNL     1     -11.508  11.174  69.296  1.00  0.00    -0.294 C  
HETATM   42  C   UNL     1     -12.426  12.493  71.379  1.00  0.00    -0.099 C  
HETATM   43  C   UNL     1     -13.212   8.760  71.549  1.00  0.00    -0.356 C  
HETATM   44  O   UNL     1     -12.337  13.670  69.393  1.00  0.00    -0.292 OA 
HETATM   45  C   UNL     1     -13.104  11.217  71.828  1.00  0.00    -0.536 C  
HETATM   46  H   UNL     1     -12.901  14.367  69.707  1.00  0.00     0.000 HD 
HETATM   47  C   UNL     1     -12.392   9.985  71.184  1.00  0.00    -0.377 C  
HETATM   48  C   UNL     1     -12.466  12.356  69.828  1.00  0.00     0.134 C  
HETATM   49  O   UNL     1     -12.197   9.984  69.731  1.00  0.00    -0.007 OA 
BRANCH  42  50
HETATM   50  N   UNL     1     -12.919  13.796  71.941  1.00  0.00    -0.351 NA 
HETATM   51  C   UNL     1     -14.357  14.051  71.962  1.00  0.00    -0.459 C  
HETATM   52  C   UNL     1     -12.326  14.180  73.222  1.00  0.00     0.239 C  
ENDBRANCH  42  50
ENDBRANCH  40  41
ENDBRANCH  13  40
BRANCH  35  53
HETATM   53  C   UNL     1      -9.168  13.975  69.232  1.00  0.00     0.411 C  
HETATM   54  C   UNL     1      -9.500  13.402  67.863  1.00  0.00    -0.216 C  
ENDBRANCH  35  53
ENDBRANCH  11  12
ENDBRANCH   1  11
BRANCH   4  55
HETATM   55  O   UNL     1      -6.196   6.987  70.179  1.00  0.00    -0.027 OA 
HETATM   56  C   UNL     1      -5.638   5.839  69.552  1.00  0.00    -0.008 C  
ENDBRANCH   4  55
TORSDOF 7
ENDMDL
MODEL       33
REMARK 921   NORMALIZED FREE ENERGY PREDICTED BY IDOCK:    3.70 KCAL/MOL
REMARK 922        TOTAL FREE ENERGY PREDICTED BY IDOCK:    2.52 KCAL/MOL
REMARK 923 INTER-LIGAND FREE ENERGY PREDICTED BY IDOCK:   -3.97 KCAL/MOL
REMARK 924 INTRA-LIGAND FREE ENERGY PREDICTED BY IDOCK:    6.49 KCAL/MOL
REMARK 927      BINDING AFFINITY PREDICTED BY RF-SCORE:    0.00 PKD
ROOT
HETATM    1  C   UNL     1      -7.704  12.742  68.613  1.00  0.00    -0.064 C  
HETATM    2  O   UNL     1      -8.472  17.082  68.545  1.00  0.00    -0.239 OA 
HETATM    3  C   UNL     1      -6.587  13.801  69.013  1.00  0.00    -0.108 C  
HETATM    4  C   UNL     1      -6.755  15.305  68.564  1.00  0.00    -0.112 C  
HETATM    5  C   UNL     1     -10.562  15.181  68.070  1.00  0.00    -0.258 C  
HETATM    6  C   UNL     1      -8.229  15.685  68.789  1.00  0.00    -0.183 C  
HETATM    7  C   UNL     1      -5.849  16.263  69.406  1.00  0.00    -0.149 C  
HETATM    8  O   UNL     1      -9.000  13.346  68.365  1.00  0.00    -0.184 OA 
HETATM    9  H   UNL     1      -9.382  17.317  68.684  1.00  0.00     0.000 HD 
HETATM   10  C   UNL     1      -9.095  14.728  67.960  1.00  0.00    -0.179 C  
ENDROOT
BRANCH   1  11
HETATM   11  O   UNL     1      -7.218  11.507  67.808  1.00  0.00    -0.085 OA 
BRANCH  11  12
HETATM   12  C   UNL     1      -6.364  10.512  68.512  1.00  0.00    -0.050 C  
HETATM   13  C   UNL     1      -8.680   9.668  69.868  1.00  0.00    -0.219 C  
HETATM   14  C   UNL     1      -5.346   7.928  68.963  1.00  0.00    -0.023 C  
HETATM   15  C   UNL     1      -7.098  10.237  69.867  1.00  0.00    -0.152 C  
HETATM   16  O   UNL     1      -5.317   8.907  65.449  1.00  0.00    -0.037 OA 
HETATM   17  C   UNL     1      -5.485   9.073  67.916  1.00  0.00    -0.035 C  
HETATM   18  C   UNL     1      -5.999   9.925  70.927  1.00  0.00    -0.088 C  
HETATM   19  C   UNL     1      -8.881   8.470  70.963  1.00  0.00    -0.175 C  
HETATM   20  O   UNL     1      -8.080   7.292  70.790  1.00  0.00    -0.108 OA 
HETATM   21  C   UNL     1      -8.482   9.084  72.342  1.00  0.00     0.447 C  
HETATM   22  C   UNL     1      -5.572   8.348  66.522  1.00  0.00    -0.035 C  
HETATM   23  C   UNL     1     -10.361   8.066  70.945  1.00  0.00    -0.221 C  
HETATM   24  C   UNL     1      -7.975   6.420  71.933  1.00  0.00    -0.104 C  
HETATM   25  C   UNL     1     -10.901   6.648  70.600  1.00  0.00    -0.301 C  
HETATM   26  H   UNL     1      -5.784   4.500  66.810  1.00  0.00     0.000 HD 
HETATM   27  O   UNL     1      -5.843   6.955  66.544  1.00  0.00    -0.027 OA 
HETATM   28  C   UNL     1     -10.744   5.890  69.200  1.00  0.00    -0.324 C  
HETATM   29  C   UNL     1     -12.443   6.913  70.834  1.00  0.00    -0.314 C  
HETATM   30  O   UNL     1      -6.625   4.358  67.229  1.00  0.00    -0.044 OA 
HETATM   31  C   UNL     1      -7.742   4.046  65.123  1.00  0.00    -0.082 C  
HETATM   32  O   UNL     1     -11.759   5.874  68.477  1.00  0.00     0.564 OA 
HETATM   33  C   UNL     1      -9.582   4.886  68.719  1.00  0.00    -0.219 C  
HETATM   34  C   UNL     1      -8.419   4.530  69.602  1.00  0.00    -0.087 C  
HETATM   35  C   UNL     1      -7.036   6.407  65.822  1.00  0.00    -0.062 C  
HETATM   36  C   UNL     1      -9.149   4.696  67.149  1.00  0.00    -0.122 C  
HETATM   37  C   UNL     1      -7.647   4.949  66.401  1.00  0.00    -0.087 C  
HETATM   38  O   UNL     1     -10.271   4.786  66.258  1.00  0.00    -0.236 OA 
HETATM   39  H   UNL     1     -10.020   4.676  65.348  1.00  0.00     0.000 HD 
BRANCH  13  40
HETATM   40  O   UNL     1      -9.237   9.548  68.521  1.00  0.00    -0.130 OA 
BRANCH  40  41
HETATM   41  C   UNL     1      -9.668  10.363  67.372  1.00  0.00    -0.163 C  
HETATM   42  C   UNL     1      -9.202  11.189  64.918  1.00  0.00    -0.155 C  
HETATM   43  C   UNL     1     -12.636  12.263  66.196  1.00  0.00     0.972 C  
HETATM   44  O   UNL     1      -8.202   9.196  65.524  1.00  0.00    -0.113 OA 
HETATM   45  C   UNL     1     -10.630  11.688  64.866  1.00  0.00    -0.349 C  
HETATM   46  H   UNL     1      -7.998   8.952  64.628  1.00  0.00     0.000 HD 
HETATM   47  C   UNL     1     -11.164  11.915  66.316  1.00  0.00    -0.337 C  
HETATM   48  C   UNL     1      -9.323   9.950  65.853  1.00  0.00    -0.192 C  
HETATM   49  O   UNL     1     -11.034  10.816  67.279  1.00  0.00    -0.290 OA 
BRANCH  42  50
HETATM   50  N   UNL     1      -8.478  10.971  63.621  1.00  0.00     0.090 NA 
HETATM   51  C   UNL     1      -7.891   9.659  63.357  1.00  0.00    -0.138 C  
HETATM   52  C   UNL     1      -9.181  11.450  62.431  1.00  0.00     0.013 C  
ENDBRANCH  42  50
ENDBRANCH  40  41
ENDBRANCH  13  40
BRANCH  35  53
HETATM   53  C   UNL     1      -8.058   7.476  65.981  1.00  0.00    -0.123 C  
HETATM   54  C   UNL     1      -9.106   6.997  64.987  1.00  0.00     0.621 C  
ENDBRANCH  35  53
ENDBRANCH  11  12
ENDBRANCH   1  11
BRANCH   4  55
HETATM   55  O   UNL     1      -6.351  15.356  67.182  1.00  0.00    -0.305 OA 
HETATM   56  C   UNL     1      -5.214  16.137  66.835  1.00  0.00     0.336 C  
ENDBRANCH   4  55
TORSDOF 7
ENDMDL
MODEL       34
REMARK 921   NORMALIZED FREE ENERGY PREDICTED BY IDOCK:    4.10 KCAL/MOL
REMARK 922        TOTAL FREE ENERGY PREDICTED BY IDOCK:    3.09 KCAL/MOL
REMARK 923 INTER-LIGAND FREE ENERGY PREDICTED BY IDOCK:    0.11 KCAL/MOL
REMARK 924 INTRA-LIGAND FREE ENERGY PREDICTED BY IDOCK:    2.98 KCAL/MOL
REMARK 927      BINDING AFFINITY PREDICTED BY RF-SCORE:    0.00 PKD
ROOT
HETATM    1  C   UNL     1      -7.391   7.461  68.828  1.00  0.00    -0.095 C  
HETATM    2  O   UNL     1      -8.460   3.504  67.208  1.00  0.00    -0.093 OA 
HETATM    3  C   UNL     1      -8.575   6.593  69.439  1.00  0.00    -0.135 C  
HETATM    4  C   UNL     1      -9.195   5.422  68.581  1.00  0.00    -0.117 C  
HETATM    5  C   UNL     1      -6.169   4.941  66.266  1.00  0.00    -0.035 C  
HETATM    6  C   UNL     1      -8.025   4.682  67.909  1.00  0.00    -0.089 C  
HETATM    7  C   UNL     1      -9.990   4.412  69.472  1.00  0.00    -0.187 C  
HETATM    8  O   UNL     1      -6.642   6.761  67.800  1.00  0.00    -0.053 OA 
HETATM    9  H   UNL     1      -7.738   3.047  66.793  1.00  0.00     0.000 HD 
HETATM   10  C   UNL     1      -7.259   5.695  67.048  1.00  0.00    -0.075 C  
ENDROOT
BRANCH   1  11
HETATM   11  O   UNL     1      -7.634   8.992  68.754  1.00  0.00    -0.084 OA 
BRANCH  11  12
HETATM   12  C   UNL     1      -6.878   9.766  67.731  1.00  0.00    -0.081 C  
HETATM   13  C   UNL     1      -9.242   9.825  66.207  1.00  0.00    -0.164 C  
HETATM   14  C   UNL     1      -6.138  12.125  66.387  1.00  0.00     0.784 C  
HETATM   15  C   UNL     1      -7.608   9.468  66.379  1.00  0.00    -0.097 C  
HETATM   16  O   UNL     1      -6.077  12.443  70.021  1.00  0.00    -0.144 OA 
HETATM   17  C   UNL     1      -6.173  11.409  67.772  1.00  0.00    -0.050 C  
HETATM   18  C   UNL     1      -6.526   9.508  65.257  1.00  0.00    -0.078 C  
HETATM   19  C   UNL     1      -9.548  10.534  64.767  1.00  0.00    -0.285 C  
HETATM   20  O   UNL     1      -8.884  11.779  64.503  1.00  0.00     0.362 OA 
HETATM   21  C   UNL     1      -9.055   9.525  63.682  1.00  0.00    -0.145 C  
HETATM   22  C   UNL     1      -6.369  12.561  68.825  1.00  0.00    -0.079 C  
HETATM   23  C   UNL     1     -11.063  10.755  64.669  1.00  0.00     0.313 C  
HETATM   24  C   UNL     1      -8.849  12.203  63.125  1.00  0.00     1.343 C  
HETATM   25  C   UNL     1     -11.761  12.136  64.506  1.00  0.00    -0.410 C  
HETATM   26  H   UNL     1      -6.992  16.018  67.215  1.00  0.00     0.000 HD 
HETATM   27  O   UNL     1      -6.790  13.820  68.322  1.00  0.00    -0.085 OA 
HETATM   28  C   UNL     1     -11.718  13.347  65.549  1.00  0.00    -0.340 C  
HETATM   29  C   UNL     1     -13.260  11.639  64.407  1.00  0.00     1.155 C  
HETATM   30  O   UNL     1      -7.834  15.912  66.788  1.00  0.00    -0.234 OA 
HETATM   31  C   UNL     1      -9.023  16.816  68.671  1.00  0.00    -0.251 C  
HETATM   32  O   UNL     1     -12.744  13.504  66.240  1.00  0.00    -0.302 OA 
HETATM   33  C   UNL     1     -10.683  14.577  65.629  1.00  0.00    -0.335 C  
HETATM   34  C   UNL     1      -9.547  14.728  64.657  1.00  0.00     1.294 C  
HETATM   35  C   UNL     1      -8.050  14.452  68.829  1.00  0.00    -0.127 C  
HETATM   36  C   UNL     1     -10.308  15.349  67.026  1.00  0.00    -0.280 C  
HETATM   37  C   UNL     1      -8.803  15.539  67.788  1.00  0.00    -0.172 C  
HETATM   38  O   UNL     1     -11.432  15.454  67.912  1.00  0.00    -0.335 OA 
HETATM   39  H   UNL     1     -11.214  15.902  68.721  1.00  0.00     0.000 HD 
BRANCH  13  40
HETATM   40  O   UNL     1      -9.837  10.346  67.437  1.00  0.00    -0.170 OA 
BRANCH  40  41
HETATM   41  C   UNL     1     -10.477   9.903  68.688  1.00  0.00    -0.206 C  
HETATM   42  C   UNL     1     -10.197   8.983  71.137  1.00  0.00    -0.293 C  
HETATM   43  C   UNL     1     -13.810   9.919  70.330  1.00  0.00     0.738 C  
HETATM   44  O   UNL     1      -8.380  10.113  70.265  1.00  0.00    -0.341 OA 
HETATM   45  C   UNL     1     -11.648   9.334  71.384  1.00  0.00    -0.437 C  
HETATM   46  H   UNL     1      -7.958  10.218  71.111  1.00  0.00     0.000 HD 
HETATM   47  C   UNL     1     -12.411   9.416  70.023  1.00  0.00     0.571 C  
HETATM   48  C   UNL     1      -9.762  10.081  70.122  1.00  0.00    -0.123 C  
HETATM   49  O   UNL     1     -11.846  10.261  68.966  1.00  0.00    -0.101 OA 
BRANCH  42  50
HETATM   50  N   UNL     1      -9.300   8.788  72.326  1.00  0.00    -0.360 NA 
HETATM   51  C   UNL     1      -9.555   7.660  73.219  1.00  0.00    -0.268 C  
HETATM   52  C   UNL     1      -7.869   8.889  72.045  1.00  0.00     0.136 C  
ENDBRANCH  42  50
ENDBRANCH  40  41
ENDBRANCH  13  40
BRANCH  35  53
HETATM   53  C   UNL     1      -8.946  13.290  69.072  1.00  0.00     0.440 C  
HETATM   54  C   UNL     1     -10.169  14.004  69.626  1.00  0.00     0.425 C  
ENDBRANCH  35  53
ENDBRANCH  11  12
ENDBRANCH   1  11
BRANCH   4  55
HETATM   55  O   UNL     1     -10.095   6.047  67.646  1.00  0.00    -0.135 OA 
HETATM   56  C   UNL     1     -11.241   6.720  68.153  1.00  0.00    -0.061 C  
ENDBRANCH   4  55
TORSDOF 7
ENDMDL
MODEL       35
REMARK 921   NORMALIZED FREE ENERGY PREDICTED BY IDOCK:    4.30 KCAL/MOL
REMARK 922        TOTAL FREE ENERGY PREDICTED BY IDOCK:    3.37 KCAL/MOL
REMARK 923 INTER-LIGAND FREE ENERGY PREDICTED BY IDOCK:    4.96 KCAL/MOL
REMARK 924 INTRA-LIGAND FREE ENERGY PREDICTED BY IDOCK:   -1.59 KCAL/MOL
REMARK 927      BINDING AFFINITY PREDICTED BY RF-SCORE:    0.00 PKD
ROOT
HETATM    1  C   UNL     1      -8.370   5.486  65.208  1.00  0.00    -0.144 C  
HETATM    2  O   UNL     1      -5.523   3.725  62.340  1.00  0.00    -0.005 OA 
HETATM    3  C   UNL     1      -7.390   6.385  64.336  1.00  0.00    -0.075 C  
HETATM    4  C   UNL     1      -6.122   5.720  63.671  1.00  0.00    -0.025 C  
HETATM    5  C   UNL     1      -7.456   2.118  63.715  1.00  0.00    -0.058 C  
HETATM    6  C   UNL     1      -6.568   4.364  63.096  1.00  0.00    -0.030 C  
HETATM    7  C   UNL     1      -5.550   6.600  62.511  1.00  0.00    -0.031 C  
HETATM    8  O   UNL     1      -8.315   4.078  64.860  1.00  0.00    -0.103 OA 
HETATM    9  H   UNL     1      -5.798   2.888  61.985  1.00  0.00     0.000 HD 
HETATM   10  C   UNL     1      -7.130   3.523  64.250  1.00  0.00    -0.054 C  
ENDROOT
BRANCH   1  11
HETATM   11  O   UNL     1      -8.605   5.951  66.670  1.00  0.00    -0.116 OA 
BRANCH  11  12
HETATM   12  C   UNL     1      -9.213   4.980  67.619  1.00  0.00    -0.120 C  
HETATM   13  C   UNL     1      -7.170   5.658  69.430  1.00  0.00    -0.066 C  
HETATM   14  C   UNL     1     -10.753   4.267  69.863  1.00  0.00     1.484 C  
HETATM   15  C   UNL     1      -8.032   4.523  68.539  1.00  0.00    -0.079 C  
HETATM   16  O   UNL     1     -12.396   6.687  67.683  1.00  0.00     2.582 OA 
HETATM   17  C   UNL     1     -10.779   4.988  68.482  1.00  0.00     0.269 C  
HETATM   18  C   UNL     1      -8.316   3.044  68.947  1.00  0.00    -0.083 C  
HETATM   19  C   UNL     1      -6.901   5.139  70.957  1.00  0.00    -0.047 C  
HETATM   20  O   UNL     1      -8.058   4.862  71.760  1.00  0.00    -0.108 OA 
HETATM   21  C   UNL     1      -6.121   3.793  70.817  1.00  0.00    -0.018 C  
HETATM   22  C   UNL     1     -11.833   6.145  68.642  1.00  0.00     1.419 C  
HETATM   23  C   UNL     1      -6.052   6.200  71.667  1.00  0.00    -0.040 C  
HETATM   24  C   UNL     1      -7.838   4.061  72.939  1.00  0.00    -0.080 C  
HETATM   25  C   UNL     1      -6.475   6.983  72.944  1.00  0.00    -0.061 C  
HETATM   26  H   UNL     1     -13.144   6.532  72.256  1.00  0.00     0.000 HD 
HETATM   27  O   UNL     1     -12.219   6.477  69.967  1.00  0.00    -0.174 OA 
HETATM   28  C   UNL     1      -7.715   7.984  73.073  1.00  0.00    -0.144 C  
HETATM   29  C   UNL     1      -5.153   7.824  73.161  1.00  0.00    -0.040 C  
HETATM   30  O   UNL     1     -12.375   6.813  72.739  1.00  0.00     0.207 OA 
HETATM   31  C   UNL     1     -12.949   9.137  72.512  1.00  0.00    -0.416 C  
HETATM   32  O   UNL     1      -7.434   9.198  73.064  1.00  0.00    -0.128 OA 
HETATM   33  C   UNL     1      -9.228   7.666  73.520  1.00  0.00    -0.331 C  
HETATM   34  C   UNL     1      -9.678   6.280  73.887  1.00  0.00    -0.209 C  
HETATM   35  C   UNL     1     -12.038   7.873  70.479  1.00  0.00     0.121 C  
HETATM   36  C   UNL     1     -10.520   8.538  73.009  1.00  0.00     0.347 C  
HETATM   37  C   UNL     1     -11.893   8.037  72.148  1.00  0.00    -0.349 C  
HETATM   38  O   UNL     1     -10.217   9.934  72.870  1.00  0.00     3.441 OA 
HETATM   39  H   UNL     1     -10.965  10.439  72.574  1.00  0.00     0.000 HD 
BRANCH  13  40
HETATM   40  O   UNL     1      -7.613   7.028  69.175  1.00  0.00    -0.095 OA 
BRANCH  40  41
HETATM   41  C   UNL     1      -7.263   8.230  68.399  1.00  0.00    -0.092 C  
HETATM   42  C   UNL     1      -7.722   9.745  66.298  1.00  0.00    -0.103 C  
HETATM   43  C   UNL     1      -5.225  11.320  68.719  1.00  0.00    -0.040 C  
HETATM   44  O   UNL     1      -9.480   8.416  66.992  1.00  0.00    -0.154 OA 
HETATM   45  C   UNL     1      -6.882  10.822  66.950  1.00  0.00    -0.101 C  
HETATM   46  H   UNL     1     -10.125   8.889  66.479  1.00  0.00     0.000 HD 
HETATM   47  C   UNL     1      -5.920  10.179  67.999  1.00  0.00    -0.041 C  
HETATM   48  C   UNL     1      -8.356   9.034  67.529  1.00  0.00    -0.116 C  
HETATM   49  O   UNL     1      -6.499   9.289  69.011  1.00  0.00    -0.046 OA 
BRANCH  42  50
HETATM   50  N   UNL     1      -8.671  10.148  65.205  1.00  0.00    -0.162 NA 
HETATM   51  C   UNL     1      -9.586  11.261  65.446  1.00  0.00    -0.228 C  
HETATM   52  C   UNL     1      -8.068  10.277  63.879  1.00  0.00    -0.138 C  
ENDBRANCH  42  50
ENDBRANCH  40  41
ENDBRANCH  13  40
BRANCH  35  53
HETATM   53  C   UNL     1     -10.783   8.323  69.821  1.00  0.00    -0.221 C  
HETATM   54  C   UNL     1     -11.121   9.783  69.563  1.00  0.00    -0.226 C  
ENDBRANCH  35  53
ENDBRANCH  11  12
ENDBRANCH   1  11
BRANCH   4  55
HETATM   55  O   UNL     1      -5.137   5.606  64.717  1.00  0.00    -0.009 OA 
HETATM   56  C   UNL     1      -5.520   5.932  66.047  1.00  0.00    -0.010 C  
ENDBRANCH   4  55
TORSDOF 7
ENDMDL
MODEL       36
REMARK 921   NORMALIZED FREE ENERGY PREDICTED BY IDOCK:    4.46 KCAL/MOL
REMARK 922        TOTAL FREE ENERGY PREDICTED BY IDOCK:    3.60 KCAL/MOL
REMARK 923 INTER-LIGAND FREE ENERGY PREDICTED BY IDOCK:    2.95 KCAL/MOL
REMARK 924 INTRA-LIGAND FREE ENERGY PREDICTED BY IDOCK:    0.65 KCAL/MOL
REMARK 927      BINDING AFFINITY PREDICTED BY RF-SCORE:    0.00 PKD
ROOT
HETATM    1  C   UNL     1      -8.024   5.405  70.078  1.00  0.00    -0.082 C  
HETATM    2  O   UNL     1     -10.316   1.648  70.339  1.00  0.00     0.436 OA 
HETATM    3  C   UNL     1      -7.986   4.313  68.922  1.00  0.00    -0.072 C  
HETATM    4  C   UNL     1      -8.449   2.838  69.239  1.00  0.00    -0.063 C  
HETATM    5  C   UNL     1     -10.592   3.714  72.304  1.00  0.00     0.024 C  
HETATM    6  C   UNL     1      -9.719   2.936  70.102  1.00  0.00     0.043 C  
HETATM    7  C   UNL     1      -8.783   2.046  67.933  1.00  0.00    -0.126 C  
HETATM    8  O   UNL     1      -8.976   5.091  71.128  1.00  0.00    -0.132 OA 
HETATM    9  H   UNL     1     -11.100   1.708  70.871  1.00  0.00     0.000 HD 
HETATM   10  C   UNL     1      -9.368   3.723  71.372  1.00  0.00    -0.138 C  
ENDROOT
BRANCH   1  11
HETATM   11  O   UNL     1      -6.682   6.119  70.389  1.00  0.00    -0.049 OA 
BRANCH  11  12
HETATM   12  C   UNL     1      -6.715   7.291  71.305  1.00  0.00    -0.051 C  
HETATM   13  C   UNL     1      -6.590   8.926  69.019  1.00  0.00    -0.048 C  
HETATM   14  C   UNL     1      -7.969   9.456  72.594  1.00  0.00     1.592 C  
HETATM   15  C   UNL     1      -6.001   8.439  70.517  1.00  0.00    -0.031 C  
HETATM   16  O   UNL     1      -9.892   6.360  72.752  1.00  0.00    -0.168 OA 
HETATM   17  C   UNL     1      -7.993   7.910  72.392  1.00  0.00    -0.151 C  
HETATM   18  C   UNL     1      -5.283   9.339  71.569  1.00  0.00    -0.050 C  
HETATM   19  C   UNL     1      -6.610  10.556  68.889  1.00  0.00    -0.054 C  
HETATM   20  O   UNL     1      -7.415  11.273  69.836  1.00  0.00     0.153 OA 
HETATM   21  C   UNL     1      -5.136  11.019  69.113  1.00  0.00    -0.041 C  
HETATM   22  C   UNL     1      -9.511   7.507  72.492  1.00  0.00    -0.159 C  
HETATM   23  C   UNL     1      -7.090  10.903  67.474  1.00  0.00    -0.090 C  
HETATM   24  C   UNL     1      -7.142  12.682  69.967  1.00  0.00     0.944 C  
HETATM   25  C   UNL     1      -8.360  11.737  67.135  1.00  0.00    -0.168 C  
HETATM   26  H   UNL     1     -11.889  10.543  72.727  1.00  0.00     0.000 HD 
HETATM   27  O   UNL     1     -10.458   8.559  72.389  1.00  0.00    -0.322 OA 
HETATM   28  C   UNL     1      -9.870  11.344  67.480  1.00  0.00    -0.178 C  
HETATM   29  C   UNL     1      -8.217  11.766  65.560  1.00  0.00     0.693 C  
HETATM   30  O   UNL     1     -11.789  10.966  71.882  1.00  0.00     0.453 OA 
HETATM   31  C   UNL     1     -13.692   9.821  70.961  1.00  0.00    -0.078 C  
HETATM   32  O   UNL     1     -10.548  10.909  66.527  1.00  0.00    -0.248 OA 
HETATM   33  C   UNL     1     -10.738  11.709  68.786  1.00  0.00    -0.254 C  
HETATM   34  C   UNL     1     -10.172  12.518  69.918  1.00  0.00     1.680 C  
HETATM   35  C   UNL     1     -11.512   8.525  71.325  1.00  0.00    -0.277 C  
HETATM   36  C   UNL     1     -11.959  10.769  69.347  1.00  0.00    -0.281 C  
HETATM   37  C   UNL     1     -12.139  10.015  70.856  1.00  0.00    -0.355 C  
HETATM   38  O   UNL     1     -12.703  10.149  68.288  1.00  0.00     1.474 OA 
HETATM   39  H   UNL     1     -13.410   9.605  68.613  1.00  0.00     0.000 HD 
BRANCH  13  40
HETATM   40  O   UNL     1      -7.733   8.128  68.577  1.00  0.00    -0.108 OA 
BRANCH  40  41
HETATM   41  C   UNL     1      -8.277   7.449  67.389  1.00  0.00    -0.113 C  
HETATM   42  C   UNL     1      -7.978   6.792  64.859  1.00  0.00    -0.124 C  
HETATM   43  C   UNL     1     -11.010   5.110  66.460  1.00  0.00     0.028 C  
HETATM   44  O   UNL     1      -6.036   7.253  66.022  1.00  0.00    -0.035 OA 
HETATM   45  C   UNL     1      -9.111   5.803  65.032  1.00  0.00     0.186 C  
HETATM   46  H   UNL     1      -5.473   6.864  65.362  1.00  0.00     0.000 HD 
HETATM   47  C   UNL     1      -9.995   6.219  66.250  1.00  0.00     0.026 C  
HETATM   48  C   UNL     1      -7.322   6.788  66.271  1.00  0.00    -0.073 C  
HETATM   49  O   UNL     1      -9.327   6.472  67.532  1.00  0.00    -0.123 OA 
BRANCH  42  50
HETATM   50  N   UNL     1      -7.046   6.609  63.695  1.00  0.00    -0.052 NA 
HETATM   51  C   UNL     1      -7.011   5.312  63.022  1.00  0.00    -0.037 C  
HETATM   52  C   UNL     1      -7.075   7.684  62.705  1.00  0.00    -0.078 C  
ENDBRANCH  42  50
ENDBRANCH  40  41
ENDBRANCH  13  40
BRANCH  35  53
HETATM   53  C   UNL     1     -10.820   7.888  70.173  1.00  0.00    -0.243 C  
HETATM   54  C   UNL     1     -11.861   6.854  69.771  1.00  0.00    -0.068 C  
ENDBRANCH  35  53
ENDBRANCH  11  12
ENDBRANCH   1  11
BRANCH   4  55
HETATM   55  O   UNL     1      -7.342   2.209  69.912  1.00  0.00    -0.042 OA 
HETATM   56  C   UNL     1      -6.134   2.943  70.064  1.00  0.00    -0.024 C  
ENDBRANCH   4  55
TORSDOF 7
ENDMDL
MODEL       37
REMARK 921   NORMALIZED FREE ENERGY PREDICTED BY IDOCK:    4.63 KCAL/MOL
REMARK 922        TOTAL FREE ENERGY PREDICTED BY IDOCK:    3.84 KCAL/MOL
REMARK 923 INTER-LIGAND FREE ENERGY PREDICTED BY IDOCK:    0.46 KCAL/MOL
REMARK 924 INTRA-LIGAND FREE ENERGY PREDICTED BY IDOCK:    3.38 KCAL/MOL
REMARK 927      BINDING AFFINITY PREDICTED BY RF-SCORE:    0.00 PKD
ROOT
HETATM    1  C   UNL     1     -10.124   7.989  66.822  1.00  0.00    -0.287 C  
HETATM    2  O   UNL     1      -8.008   4.141  66.442  1.00  0.00    -0.097 OA 
HETATM    3  C   UNL     1      -9.419   7.546  65.467  1.00  0.00     0.528 C  
HETATM    4  C   UNL     1      -8.330   6.404  65.502  1.00  0.00    -0.147 C  
HETATM    5  C   UNL     1      -9.488   4.813  68.801  1.00  0.00    -0.209 C  
HETATM    6  C   UNL     1      -8.857   5.303  66.440  1.00  0.00    -0.123 C  
HETATM    7  C   UNL     1      -8.091   5.791  64.084  1.00  0.00    -0.120 C  
HETATM    8  O   UNL     1     -10.108   6.953  67.839  1.00  0.00    -0.148 OA 
HETATM    9  H   UNL     1      -8.333   3.461  67.021  1.00  0.00     0.000 HD 
HETATM   10  C   UNL     1      -9.090   5.929  67.821  1.00  0.00    -0.109 C  
ENDROOT
BRANCH   1  11
HETATM   11  O   UNL     1     -10.009   9.491  67.194  1.00  0.00    -0.179 OA 
BRANCH  11  12
HETATM   12  C   UNL     1      -9.712  10.457  66.101  1.00  0.00    -0.209 C  
HETATM   13  C   UNL     1     -11.578  12.192  67.295  1.00  0.00    -0.334 C  
HETATM   14  C   UNL     1      -8.500  12.755  65.021  1.00  0.00     2.660 C  
HETATM   15  C   UNL     1     -11.006  11.327  65.970  1.00  0.00    -0.237 C  
HETATM   16  O   UNL     1      -6.199  10.656  66.922  1.00  0.00    -0.060 OA 
HETATM   17  C   UNL     1      -8.233  11.380  65.705  1.00  0.00     0.230 C  
HETATM   18  C   UNL     1     -11.133  11.736  64.471  1.00  0.00    -0.376 C  
HETATM   19  C   UNL     1     -12.032  13.703  66.869  1.00  0.00    -0.410 C  
HETATM   20  O   UNL     1     -11.020  14.549  66.303  1.00  0.00    -0.311 OA 
HETATM   21  C   UNL     1     -13.130  13.524  65.772  1.00  0.00     0.055 C  
HETATM   22  C   UNL     1      -6.921  11.589  66.548  1.00  0.00    -0.009 C  
HETATM   23  C   UNL     1     -12.603  14.387  68.117  1.00  0.00     0.501 C  
HETATM   24  C   UNL     1     -11.487  15.713  65.592  1.00  0.00     0.116 C  
HETATM   25  C   UNL     1     -12.042  15.685  68.767  1.00  0.00    -0.131 C  
HETATM   26  H   UNL     1      -5.698  15.254  66.594  1.00  0.00     0.000 HD 
HETATM   27  O   UNL     1      -6.514  12.930  66.773  1.00  0.00     0.077 OA 
HETATM   28  C   UNL     1     -10.589  15.868  69.411  1.00  0.00    -0.263 C  
HETATM   29  C   UNL     1     -13.107  15.856  69.924  1.00  0.00     0.899 C  
HETATM   30  O   UNL     1      -6.385  15.708  67.067  1.00  0.00    -0.298 OA 
HETATM   31  C   UNL     1      -5.218  15.519  69.160  1.00  0.00    -0.096 C  
HETATM   32  O   UNL     1     -10.544  15.857  70.657  1.00  0.00    -0.208 OA 
HETATM   33  C   UNL     1      -9.230  16.372  68.713  1.00  0.00    -0.239 C  
HETATM   34  C   UNL     1      -9.171  16.746  67.259  1.00  0.00    -0.234 C  
HETATM   35  C   UNL     1      -6.346  13.444  68.170  1.00  0.00    -0.114 C  
HETATM   36  C   UNL     1      -7.737  15.918  69.217  1.00  0.00    -0.222 C  
HETATM   37  C   UNL     1      -6.509  15.107  68.372  1.00  0.00    -0.107 C  
HETATM   38  O   UNL     1      -7.661  15.776  70.642  1.00  0.00     1.145 OA 
HETATM   39  H   UNL     1      -6.796  15.513  70.935  1.00  0.00     0.000 HD 
BRANCH  13  40
HETATM   40  O   UNL     1     -10.783  11.964  68.501  1.00  0.00    -0.208 OA 
BRANCH  40  41
HETATM   41  C   UNL     1     -10.192  10.882  69.308  1.00  0.00    -0.166 C  
HETATM   42  C   UNL     1     -10.568   8.801  70.872  1.00  0.00    -0.220 C  
HETATM   43  C   UNL     1      -6.903   9.260  69.903  1.00  0.00    -0.055 C  
HETATM   44  O   UNL     1     -12.318   9.338  69.463  1.00  0.00     0.350 OA 
HETATM   45  C   UNL     1      -9.111   8.445  70.669  1.00  0.00    -0.174 C  
HETATM   46  H   UNL     1     -12.756   8.503  69.585  1.00  0.00     0.000 HD 
HETATM   47  C   UNL     1      -8.312   9.716  70.238  1.00  0.00    -0.186 C  
HETATM   48  C   UNL     1     -10.935   9.466  69.513  1.00  0.00    -0.173 C  
HETATM   49  O   UNL     1      -8.818  10.496  69.103  1.00  0.00    -0.163 OA 
BRANCH  42  50
HETATM   50  N   UNL     1     -11.500   7.728  71.357  1.00  0.00    -0.255 NA 
HETATM   51  C   UNL     1     -10.986   6.368  71.507  1.00  0.00    -0.263 C  
HETATM   52  C   UNL     1     -12.305   8.088  72.524  1.00  0.00    -0.194 C  
ENDBRANCH  42  50
ENDBRANCH  40  41
ENDBRANCH  13  40
BRANCH  35  53
HETATM   53  C   UNL     1      -7.414  12.741  68.928  1.00  0.00     0.022 C  
HETATM   54  C   UNL     1      -7.232  13.373  70.300  1.00  0.00     1.317 C  
ENDBRANCH  35  53
ENDBRANCH  11  12
ENDBRANCH   1  11
BRANCH   4  55
HETATM   55  O   UNL     1      -7.116   7.025  65.968  1.00  0.00    -0.069 OA 
HETATM   56  C   UNL     1      -6.250   7.622  65.011  1.00  0.00    -0.038 C  
ENDBRANCH   4  55
TORSDOF 7
ENDMDL
MODEL       38
REMARK 921   NORMALIZED FREE ENERGY PREDICTED BY IDOCK:    4.83 KCAL/MOL
REMARK 922        TOTAL FREE ENERGY PREDICTED BY IDOCK:    4.11 KCAL/MOL
REMARK 923 INTER-LIGAND FREE ENERGY PREDICTED BY IDOCK:    5.62 KCAL/MOL
REMARK 924 INTRA-LIGAND FREE ENERGY PREDICTED BY IDOCK:   -1.50 KCAL/MOL
REMARK 927      BINDING AFFINITY PREDICTED BY RF-SCORE:    0.00 PKD
ROOT
HETATM    1  C   UNL     1      -9.460  12.055  69.481  1.00  0.00     1.243 C  
HETATM    2  O   UNL     1     -12.425  14.251  67.069  1.00  0.00    -0.588 OA 
HETATM    3  C   UNL     1      -9.203  12.413  67.953  1.00  0.00    -0.192 C  
HETATM    4  C   UNL     1     -10.429  12.794  67.034  1.00  0.00    -0.237 C  
HETATM    5  C   UNL     1     -12.788  13.836  69.880  1.00  0.00     0.195 C  
HETATM    6  C   UNL     1     -11.340  13.725  67.854  1.00  0.00    -0.299 C  
HETATM    7  C   UNL     1      -9.969  13.545  65.741  1.00  0.00    -0.266 C  
HETATM    8  O   UNL     1     -10.682  12.636  70.006  1.00  0.00     0.638 OA 
HETATM    9  H   UNL     1     -12.987  14.826  67.575  1.00  0.00     0.000 HD 
HETATM   10  C   UNL     1     -11.771  12.969  69.118  1.00  0.00    -0.326 C  
ENDROOT
BRANCH   1  11
HETATM   11  O   UNL     1      -8.958  10.664  69.951  1.00  0.00     0.138 OA 
BRANCH  11  12
HETATM   12  C   UNL     1      -9.686  10.003  71.068  1.00  0.00     0.825 C  
HETATM   13  C   UNL     1     -10.409   7.989  69.242  1.00  0.00    -0.220 C  
HETATM   14  C   UNL     1      -9.995   8.067  73.087  1.00  0.00    -0.316 C  
HETATM   15  C   UNL     1     -10.811   9.165  70.375  1.00  0.00    -0.285 C  
HETATM   16  O   UNL     1      -6.723   9.682  73.111  1.00  0.00     0.288 OA 
HETATM   17  C   UNL     1      -9.101   9.237  72.574  1.00  0.00     1.349 C  
HETATM   18  C   UNL     1     -12.026   9.135  71.352  1.00  0.00    -0.410 C  
HETATM   19  C   UNL     1     -11.272   6.620  69.472  1.00  0.00    -0.326 C  
HETATM   20  O   UNL     1     -11.115   5.960  70.737  1.00  0.00    -0.293 OA 
HETATM   21  C   UNL     1     -12.773   7.040  69.369  1.00  0.00     2.876 C  
HETATM   22  C   UNL     1      -7.637   8.855  73.006  1.00  0.00     0.419 C  
HETATM   23  C   UNL     1     -10.894   5.638  68.356  1.00  0.00    -0.161 C  
HETATM   24  C   UNL     1     -12.131   4.997  71.084  1.00  0.00     3.178 C  
HETATM   25  C   UNL     1     -10.261   4.233  68.571  1.00  0.00     0.260 C  
HETATM   26  H   UNL     1      -7.367   5.318  74.537  1.00  0.00     0.000 HD 
HETATM   27  O   UNL     1      -7.419   7.508  73.399  1.00  0.00    -0.091 OA 
HETATM   28  C   UNL     1      -8.838   3.927  69.232  1.00  0.00    -0.093 C  
HETATM   29  C   UNL     1     -10.204   3.760  67.063  1.00  0.00     0.616 C  
HETATM   30  O   UNL     1      -7.580   4.747  73.808  1.00  0.00    -0.088 OA 
HETATM   31  C   UNL     1      -5.265   4.439  73.234  1.00  0.00    -0.007 C  
HETATM   32  O   UNL     1      -7.924   3.633  68.437  1.00  0.00    -0.070 OA 
HETATM   33  C   UNL     1      -8.480   3.639  70.775  1.00  0.00    -0.101 C  
HETATM   34  C   UNL     1      -9.530   3.635  71.850  1.00  0.00    -0.203 C  
HETATM   35  C   UNL     1      -6.400   6.671  72.690  1.00  0.00    -0.054 C  
HETATM   36  C   UNL     1      -7.023   3.987  71.441  1.00  0.00    -0.032 C  
HETATM   37  C   UNL     1      -6.643   5.006  72.743  1.00  0.00    -0.060 C  
HETATM   38  O   UNL     1      -5.939   3.776  70.525  1.00  0.00    -0.017 OA 
HETATM   39  H   UNL     1      -5.094   3.977  70.911  1.00  0.00     0.000 HD 
BRANCH  13  40
HETATM   40  O   UNL     1      -8.973   7.930  68.977  1.00  0.00    -0.144 OA 
BRANCH  40  41
HETATM   41  C   UNL     1      -7.992   8.074  67.887  1.00  0.00    -0.128 C  
HETATM   42  C   UNL     1      -7.179   7.322  65.500  1.00  0.00    -0.066 C  
HETATM   43  C   UNL     1      -5.232  10.326  66.831  1.00  0.00    -0.041 C  
HETATM   44  O   UNL     1      -9.413   6.963  65.969  1.00  0.00    -0.378 OA 
HETATM   45  C   UNL     1      -6.281   8.540  65.475  1.00  0.00    -0.049 C  
HETATM   46  H   UNL     1      -9.646   6.816  65.059  1.00  0.00     0.000 HD 
HETATM   47  C   UNL     1      -6.004   9.022  66.935  1.00  0.00    -0.056 C  
HETATM   48  C   UNL     1      -8.387   7.824  66.344  1.00  0.00    -0.131 C  
HETATM   49  O   UNL     1      -7.154   9.245  67.817  1.00  0.00    -0.080 OA 
BRANCH  42  50
HETATM   50  N   UNL     1      -7.513   6.658  64.195  1.00  0.00    -0.089 NA 
HETATM   51  C   UNL     1      -7.803   7.499  63.035  1.00  0.00    -0.133 C  
HETATM   52  C   UNL     1      -6.619   5.567  63.809  1.00  0.00    -0.033 C  
ENDBRANCH  42  50
ENDBRANCH  40  41
ENDBRANCH  13  40
BRANCH  35  53
HETATM   53  C   UNL     1      -6.482   7.143  71.282  1.00  0.00    -0.041 C  
HETATM   54  C   UNL     1      -5.224   6.508  70.710  1.00  0.00    -0.018 C  
ENDBRANCH  35  53
ENDBRANCH  11  12
ENDBRANCH   1  11
BRANCH   4  55
HETATM   55  O   UNL     1     -11.055  11.549  66.669  1.00  0.00    -0.292 OA 
HETATM   56  C   UNL     1     -11.171  11.227  65.288  1.00  0.00     0.003 C  
ENDBRANCH   4  55
TORSDOF 7
ENDMDL
MODEL       39
REMARK 921   NORMALIZED FREE ENERGY PREDICTED BY IDOCK:    5.01 KCAL/MOL
REMARK 922        TOTAL FREE ENERGY PREDICTED BY IDOCK:    4.37 KCAL/MOL
REMARK 923 INTER-LIGAND FREE ENERGY PREDICTED BY IDOCK:    5.93 KCAL/MOL
REMARK 924 INTRA-LIGAND FREE ENERGY PREDICTED BY IDOCK:   -1.56 KCAL/MOL
REMARK 927      BINDING AFFINITY PREDICTED BY RF-SCORE:    0.00 PKD
ROOT
HETATM    1  C   UNL     1      -7.227   8.906  65.945  1.00  0.00    -0.089 C  
HETATM    2  O   UNL     1      -8.802   5.291  63.974  1.00  0.00    -0.317 OA 
HETATM    3  C   UNL     1      -7.651   7.614  66.770  1.00  0.00    -0.098 C  
HETATM    4  C   UNL     1      -8.594   6.543  66.095  1.00  0.00    -0.145 C  
HETATM    5  C   UNL     1      -7.805   7.510  62.462  1.00  0.00    -0.129 C  
HETATM    6  C   UNL     1      -8.102   6.351  64.649  1.00  0.00    -0.100 C  
HETATM    7  C   UNL     1      -8.532   5.169  66.839  1.00  0.00    -0.106 C  
HETATM    8  O   UNL     1      -7.288   8.710  64.508  1.00  0.00    -0.093 OA 
HETATM    9  H   UNL     1      -8.499   5.172  63.082  1.00  0.00     0.000 HD 
HETATM   10  C   UNL     1      -8.166   7.713  63.944  1.00  0.00     0.032 C  
ENDROOT
BRANCH   1  11
HETATM   11  O   UNL     1      -7.571  10.274  66.591  1.00  0.00    -0.104 OA 
BRANCH  11  12
HETATM   12  C   UNL     1      -7.224  10.471  68.025  1.00  0.00    -0.087 C  
HETATM   13  C   UNL     1      -7.122  13.232  67.492  1.00  0.00    -0.149 C  
HETATM   14  C   UNL     1      -7.800  11.165  70.691  1.00  0.00     3.019 C  
HETATM   15  C   UNL     1      -6.421  11.814  68.064  1.00  0.00    -0.056 C  
HETATM   16  O   UNL     1     -10.264   8.919  69.209  1.00  0.00    -0.198 OA 
HETATM   17  C   UNL     1      -8.168  10.204  69.520  1.00  0.00    -0.176 C  
HETATM   18  C   UNL     1      -5.383  11.693  69.222  1.00  0.00    -0.048 C  
HETATM   19  C   UNL     1      -6.831  14.488  68.498  1.00  0.00    -0.096 C  
HETATM   20  O   UNL     1      -7.318  14.369  69.842  1.00  0.00     0.010 OA 
HETATM   21  C   UNL     1      -5.276  14.604  68.594  1.00  0.00    -0.095 C  
HETATM   22  C   UNL     1      -9.702   9.906  69.701  1.00  0.00    -0.229 C  
HETATM   23  C   UNL     1      -7.441  15.744  67.863  1.00  0.00    -0.147 C  
HETATM   24  C   UNL     1      -6.748  15.273  70.809  1.00  0.00     0.537 C  
HETATM   25  C   UNL     1      -8.551  16.626  68.504  1.00  0.00    -0.234 C  
HETATM   26  H   UNL     1     -11.351  12.003  72.497  1.00  0.00     0.000 HD 
HETATM   27  O   UNL     1     -10.421  10.765  70.572  1.00  0.00     0.274 OA 
HETATM   28  C   UNL     1     -10.039  16.162  68.861  1.00  0.00    -0.238 C  
HETATM   29  C   UNL     1      -8.649  17.741  67.387  1.00  0.00    -0.233 C  
HETATM   30  O   UNL     1     -11.297  12.891  72.164  1.00  0.00     3.711 OA 
HETATM   31  C   UNL     1     -13.511  12.791  71.232  1.00  0.00     0.168 C  
HETATM   32  O   UNL     1     -10.928  16.545  68.075  1.00  0.00    -0.352 OA 
HETATM   33  C   UNL     1     -10.604  15.544  70.236  1.00  0.00    -0.324 C  
HETATM   34  C   UNL     1      -9.719  15.308  71.427  1.00  0.00     2.329 C  
HETATM   35  C   UNL     1     -11.610  11.526  70.071  1.00  0.00    -0.282 C  
HETATM   36  C   UNL     1     -11.890  14.529  70.305  1.00  0.00    -0.308 C  
HETATM   37  C   UNL     1     -11.986  12.942  70.899  1.00  0.00     0.119 C  
HETATM   38  O   UNL     1     -12.897  14.855  69.337  1.00  0.00    -0.482 OA 
HETATM   39  H   UNL     1     -13.642  14.268  69.377  1.00  0.00     0.000 HD 
BRANCH  13  40
HETATM   40  O   UNL     1      -8.456  13.016  66.936  1.00  0.00    -0.173 OA 
BRANCH  40  41
HETATM   41  C   UNL     1      -9.349  13.482  65.861  1.00  0.00     0.081 C  
HETATM   42  C   UNL     1     -10.730  12.908  63.697  1.00  0.00    -0.191 C  
HETATM   43  C   UNL     1     -11.400  16.447  64.963  1.00  0.00    -0.025 C  
HETATM   44  O   UNL     1     -10.268  11.135  65.104  1.00  0.00    -0.259 OA 
HETATM   45  C   UNL     1     -11.441  14.234  63.856  1.00  0.00     0.165 C  
HETATM   46  H   UNL     1     -10.910  10.563  64.699  1.00  0.00     0.000 HD 
HETATM   47  C   UNL     1     -10.567  15.203  64.713  1.00  0.00    -0.276 C  
HETATM   48  C   UNL     1     -10.438  12.513  65.174  1.00  0.00    -0.293 C  
HETATM   49  O   UNL     1     -10.071  14.722  66.007  1.00  0.00    -0.276 OA 
BRANCH  42  50
HETATM   50  N   UNL     1     -11.376  11.853  62.844  1.00  0.00     0.101 NA 
HETATM   51  C   UNL     1     -10.628  10.630  62.555  1.00  0.00     1.091 C  
HETATM   52  C   UNL     1     -12.753  11.521  63.208  1.00  0.00     0.176 C  
ENDBRANCH  42  50
ENDBRANCH  40  41
ENDBRANCH  13  40
BRANCH  35  53
HETATM   53  C   UNL     1     -11.247  11.849  68.666  1.00  0.00    -0.311 C  
HETATM   54  C   UNL     1     -12.327  11.078  67.923  1.00  0.00     1.196 C  
ENDBRANCH  35  53
ENDBRANCH  11  12
ENDBRANCH   1  11
BRANCH   4  55
HETATM   55  O   UNL     1      -9.930   7.076  66.183  1.00  0.00     0.031 OA 
HETATM   56  C   UNL     1     -10.884   6.387  66.982  1.00  0.00    -0.392 C  
ENDBRANCH   4  55
TORSDOF 7
ENDMDL
MODEL       40
REMARK 921   NORMALIZED FREE ENERGY PREDICTED BY IDOCK:    5.21 KCAL/MOL
REMARK 922        TOTAL FREE ENERGY PREDICTED BY IDOCK:    4.66 KCAL/MOL
REMARK 923 INTER-LIGAND FREE ENERGY PREDICTED BY IDOCK:   -2.50 KCAL/MOL
REMARK 924 INTRA-LIGAND FREE ENERGY PREDICTED BY IDOCK:    7.16 KCAL/MOL
REMARK 927      BINDING AFFINITY PREDICTED BY RF-SCORE:    0.00 PKD
ROOT
HETATM    1  C   UNL     1      -9.532   8.046  67.281  1.00  0.00    -0.155 C  
HETATM    2  O   UNL     1      -6.627   4.800  66.604  1.00  0.00    -0.047 OA 
HETATM    3  C   UNL     1      -9.979   6.610  66.765  1.00  0.00    -0.238 C  
HETATM    4  C   UNL     1      -8.900   5.647  66.132  1.00  0.00    -0.142 C  
HETATM    5  C   UNL     1      -5.844   7.296  67.773  1.00  0.00    -0.030 C  
HETATM    6  C   UNL     1      -7.637   5.743  67.005  1.00  0.00    -0.099 C  
HETATM    7  C   UNL     1      -9.392   4.163  66.112  1.00  0.00    -0.167 C  
HETATM    8  O   UNL     1      -8.123   8.117  67.622  1.00  0.00    -0.123 OA 
HETATM    9  H   UNL     1      -5.847   4.859  67.143  1.00  0.00     0.000 HD 
HETATM   10  C   UNL     1      -7.179   7.208  67.015  1.00  0.00    -0.091 C  
ENDROOT
BRANCH   1  11
HETATM   11  O   UNL     1     -10.277   9.258  66.661  1.00  0.00    -0.256 OA 
BRANCH  11  12
HETATM   12  C   UNL     1      -9.581  10.032  65.598  1.00  0.00    -0.252 C  
HETATM   13  C   UNL     1     -11.355  12.145  66.146  1.00  0.00    -0.361 C  
HETATM   14  C   UNL     1      -7.787  11.986  64.659  1.00  0.00     2.924 C  
HETATM   15  C   UNL     1     -10.647  11.054  65.080  1.00  0.00    -0.295 C  
HETATM   16  O   UNL     1      -6.368   9.830  67.237  1.00  0.00    -0.066 OA 
HETATM   17  C   UNL     1      -7.918  10.681  65.501  1.00  0.00    -0.116 C  
HETATM   18  C   UNL     1     -10.356  11.291  63.567  1.00  0.00    -0.463 C  
HETATM   19  C   UNL     1     -11.441  13.643  65.496  1.00  0.00    -0.305 C  
HETATM   20  O   UNL     1     -10.200  14.262  65.128  1.00  0.00    -0.377 OA 
HETATM   21  C   UNL     1     -12.271  13.489  64.182  1.00  0.00    -0.449 C  
HETATM   22  C   UNL     1      -6.819  10.803  66.621  1.00  0.00    -0.125 C  
HETATM   23  C   UNL     1     -12.161  14.547  66.504  1.00  0.00    -0.268 C  
HETATM   24  C   UNL     1     -10.290  15.385  64.228  1.00  0.00     1.311 C  
HETATM   25  C   UNL     1     -11.556  15.821  67.161  1.00  0.00     0.201 C  
HETATM   26  H   UNL     1      -5.045  14.236  66.658  1.00  0.00     0.000 HD 
HETATM   27  O   UNL     1      -6.257  12.090  66.825  1.00  0.00    -0.129 OA 
HETATM   28  C   UNL     1     -10.281  15.874  68.124  1.00  0.00    -0.232 C  
HETATM   29  C   UNL     1     -12.814  16.281  68.002  1.00  0.00     2.900 C  
HETATM   30  O   UNL     1      -5.738  14.837  66.907  1.00  0.00     0.335 OA 
HETATM   31  C   UNL     1      -5.130  14.741  69.232  1.00  0.00    -0.086 C  
HETATM   32  O   UNL     1     -10.526  16.008  69.339  1.00  0.00    -0.231 OA 
HETATM   33  C   UNL     1      -8.733  16.092  67.742  1.00  0.00    -0.174 C  
HETATM   34  C   UNL     1      -8.280  16.275  66.320  1.00  0.00    -0.312 C  
HETATM   35  C   UNL     1      -6.330  12.741  68.172  1.00  0.00    -0.088 C  
HETATM   36  C   UNL     1      -7.493  15.496  68.633  1.00  0.00    -0.131 C  
HETATM   37  C   UNL     1      -6.256  14.422  68.187  1.00  0.00    -0.139 C  
HETATM   38  O   UNL     1      -7.771  15.518  70.041  1.00  0.00    -0.032 OA 
HETATM   39  H   UNL     1      -7.052  15.173  70.558  1.00  0.00     0.000 HD 
BRANCH  13  40
HETATM   40  O   UNL     1     -10.908  11.955  67.525  1.00  0.00    -0.219 OA 
BRANCH  40  41
HETATM   41  C   UNL     1     -11.412  11.927  68.909  1.00  0.00    -0.301 C  
HETATM   42  C   UNL     1     -12.273  13.269  71.002  1.00  0.00    -0.197 C  
HETATM   43  C   UNL     1     -12.666   9.494  71.422  1.00  0.00    -0.445 C  
HETATM   44  O   UNL     1     -12.474  14.335  68.962  1.00  0.00    -0.559 OA 
HETATM   45  C   UNL     1     -12.779  11.962  71.572  1.00  0.00    -0.379 C  
HETATM   46  H   UNL     1     -13.075  14.992  69.293  1.00  0.00     0.000 HD 
HETATM   47  C   UNL     1     -12.007  10.768  70.926  1.00  0.00    -0.333 C  
HETATM   48  C   UNL     1     -12.433  13.041  69.470  1.00  0.00     0.157 C  
HETATM   49  O   UNL     1     -11.939  10.703  69.462  1.00  0.00    -0.288 OA 
BRANCH  42  50
HETATM   50  N   UNL     1     -12.842  14.549  71.544  1.00  0.00    -0.317 NA 
HETATM   51  C   UNL     1     -14.072  14.491  72.332  1.00  0.00    -0.448 C  
HETATM   52  C   UNL     1     -11.873  15.430  72.196  1.00  0.00    -0.449 C  
ENDBRANCH  42  50
ENDBRANCH  40  41
ENDBRANCH  13  40
BRANCH  35  53
HETATM   53  C   UNL     1      -7.646  12.294  68.701  1.00  0.00    -0.089 C  
HETATM   54  C   UNL     1      -8.582  13.104  67.817  1.00  0.00    -0.188 C  
ENDBRANCH  35  53
ENDBRANCH  11  12
ENDBRANCH   1  11
BRANCH   4  55
HETATM   55  O   UNL     1      -8.702   6.105  64.780  1.00  0.00    -0.001 OA 
HETATM   56  C   UNL     1      -8.255   5.170  63.806  1.00  0.00    -0.126 C  
ENDBRANCH   4  55
TORSDOF 7
ENDMDL
MODEL       41
REMARK 921   NORMALIZED FREE ENERGY PREDICTED BY IDOCK:    5.24 KCAL/MOL
REMARK 922        TOTAL FREE ENERGY PREDICTED BY IDOCK:    4.69 KCAL/MOL
REMARK 923 INTER-LIGAND FREE ENERGY PREDICTED BY IDOCK:    7.07 KCAL/MOL
REMARK 924 INTRA-LIGAND FREE ENERGY PREDICTED BY IDOCK:   -2.38 KCAL/MOL
REMARK 927      BINDING AFFINITY PREDICTED BY RF-SCORE:    0.00 PKD
ROOT
HETATM    1  C   UNL     1      -9.408   9.472  65.940  1.00  0.00    -0.226 C  
HETATM    2  O   UNL     1      -6.454   8.987  62.705  1.00  0.00    -0.095 OA 
HETATM    3  C   UNL     1      -7.906   9.973  66.090  1.00  0.00    -0.114 C  
HETATM    4  C   UNL     1      -6.803   9.401  65.116  1.00  0.00    -0.084 C  
HETATM    5  C   UNL     1      -9.214   8.315  62.330  1.00  0.00     0.880 C  
HETATM    6  C   UNL     1      -7.417   9.362  63.706  1.00  0.00    -0.112 C  
HETATM    7  C   UNL     1      -5.530  10.309  65.090  1.00  0.00    -0.111 C  
HETATM    8  O   UNL     1      -9.716   8.980  64.610  1.00  0.00     0.398 OA 
HETATM    9  H   UNL     1      -6.833   8.962  61.834  1.00  0.00     0.000 HD 
HETATM   10  C   UNL     1      -8.666   8.472  63.759  1.00  0.00     0.195 C  
ENDROOT
BRANCH   1  11
HETATM   11  O   UNL     1     -10.048   8.842  67.205  1.00  0.00    -0.199 OA 
BRANCH  11  12
HETATM   12  C   UNL     1     -10.429   9.753  68.319  1.00  0.00    -0.216 C  
HETATM   13  C   UNL     1     -11.505   7.506  69.625  1.00  0.00     0.195 C  
HETATM   14  C   UNL     1     -10.111  10.892  70.872  1.00  0.00     2.715 C  
HETATM   15  C   UNL     1     -11.654   9.062  69.004  1.00  0.00     0.756 C  
HETATM   16  O   UNL     1      -7.026  10.804  68.927  1.00  0.00    -0.065 OA 
HETATM   17  C   UNL     1      -9.438  10.681  69.482  1.00  0.00    -0.038 C  
HETATM   18  C   UNL     1     -12.572  10.196  69.554  1.00  0.00     0.533 C  
HETATM   19  C   UNL     1     -12.212   7.381  71.094  1.00  0.00    -0.324 C  
HETATM   20  O   UNL     1     -11.701   8.229  72.134  1.00  0.00    -0.316 OA 
HETATM   21  C   UNL     1     -13.706   7.783  70.883  1.00  0.00     0.115 C  
HETATM   22  C   UNL     1      -7.896  10.596  69.782  1.00  0.00     0.045 C  
HETATM   23  C   UNL     1     -12.090   5.920  71.547  1.00  0.00     0.294 C  
HETATM   24  C   UNL     1     -12.545   8.397  73.291  1.00  0.00     1.294 C  
HETATM   25  C   UNL     1     -11.357   5.435  72.831  1.00  0.00    -0.365 C  
HETATM   26  H   UNL     1      -7.069  10.557  73.556  1.00  0.00     0.000 HD 
HETATM   27  O   UNL     1      -7.519  10.386  71.134  1.00  0.00     0.551 OA 
HETATM   28  C   UNL     1      -9.798   5.595  73.148  1.00  0.00    -0.167 C  
HETATM   29  C   UNL     1     -11.670   3.889  72.718  1.00  0.00     0.498 C  
HETATM   30  O   UNL     1      -7.436   9.732  73.852  1.00  0.00     1.257 OA 
HETATM   31  C   UNL     1      -5.338   8.585  73.601  1.00  0.00    -0.073 C  
HETATM   32  O   UNL     1      -9.109   4.566  73.004  1.00  0.00    -0.119 OA 
HETATM   33  C   UNL     1      -9.039   6.789  73.915  1.00  0.00    -0.195 C  
HETATM   34  C   UNL     1      -9.773   7.984  74.453  1.00  0.00     1.554 C  
HETATM   35  C   UNL     1      -6.680   9.203  71.508  1.00  0.00    -0.010 C  
HETATM   36  C   UNL     1      -7.477   7.195  73.626  1.00  0.00    -0.082 C  
HETATM   37  C   UNL     1      -6.821   8.668  73.098  1.00  0.00     0.043 C  
HETATM   38  O   UNL     1      -6.659   6.052  73.339  1.00  0.00    -0.071 OA 
HETATM   39  H   UNL     1      -5.754   6.287  73.172  1.00  0.00     0.000 HD 
BRANCH  13  40
HETATM   40  O   UNL     1     -10.185   6.927  69.381  1.00  0.00    -0.172 OA 
BRANCH  40  41
HETATM   41  C   UNL     1      -9.515   5.860  68.617  1.00  0.00    -0.122 C  
HETATM   42  C   UNL     1      -7.619   4.039  68.513  1.00  0.00    -0.058 C  
HETATM   43  C   UNL     1     -10.012   3.831  65.544  1.00  0.00    -0.067 C  
HETATM   44  O   UNL     1      -8.292   4.682  70.628  1.00  0.00    -0.087 OA 
HETATM   45  C   UNL     1      -8.320   3.447  67.309  1.00  0.00    -0.094 C  
HETATM   46  H   UNL     1      -7.877   3.941  71.054  1.00  0.00     0.000 HD 
HETATM   47  C   UNL     1      -9.227   4.528  66.641  1.00  0.00    -0.134 C  
HETATM   48  C   UNL     1      -8.811   4.604  69.340  1.00  0.00    -0.088 C  
HETATM   49  O   UNL     1     -10.179   5.251  67.491  1.00  0.00    -0.183 OA 
BRANCH  42  50
HETATM   50  N   UNL     1      -6.643   3.178  69.261  1.00  0.00    -0.033 NA 
HETATM   51  C   UNL     1      -6.757   1.725  69.147  1.00  0.00    -0.029 C  
HETATM   52  C   UNL     1      -5.242   3.579  69.137  1.00  0.00    -0.011 C  
ENDBRANCH  42  50
ENDBRANCH  40  41
ENDBRANCH  13  40
BRANCH  35  53
HETATM   53  C   UNL     1      -7.147   8.139  70.580  1.00  0.00    -0.041 C  
HETATM   54  C   UNL     1      -5.824   7.458  70.262  1.00  0.00    -0.024 C  
ENDBRANCH  35  53
ENDBRANCH  11  12
ENDBRANCH   1  11
BRANCH   4  55
HETATM   55  O   UNL     1      -6.453   8.101  65.629  1.00  0.00    -0.048 OA 
HETATM   56  C   UNL     1      -6.962   7.713  66.899  1.00  0.00    -0.079 C  
ENDBRANCH   4  55
TORSDOF 7
ENDMDL
MODEL       42
REMARK 921   NORMALIZED FREE ENERGY PREDICTED BY IDOCK:    5.29 KCAL/MOL
REMARK 922        TOTAL FREE ENERGY PREDICTED BY IDOCK:    4.76 KCAL/MOL
REMARK 923 INTER-LIGAND FREE ENERGY PREDICTED BY IDOCK:    0.72 KCAL/MOL
REMARK 924 INTRA-LIGAND FREE ENERGY PREDICTED BY IDOCK:    4.04 KCAL/MOL
REMARK 927      BINDING AFFINITY PREDICTED BY RF-SCORE:    0.00 PKD
ROOT
HETATM    1  C   UNL     1      -9.759   9.025  70.931  1.00  0.00    -0.264 C  
HETATM    2  O   UNL     1      -9.927   4.623  71.096  1.00  0.00    -0.186 OA 
HETATM    3  C   UNL     1     -10.227   8.153  69.686  1.00  0.00    -0.205 C  
HETATM    4  C   UNL     1      -9.862   6.619  69.638  1.00  0.00    -0.157 C  
HETATM    5  C   UNL     1      -9.328   6.190  73.418  1.00  0.00    -0.136 C  
HETATM    6  C   UNL     1     -10.095   6.051  71.050  1.00  0.00    -0.192 C  
HETATM    7  C   UNL     1     -10.763   5.842  68.624  1.00  0.00    -0.303 C  
HETATM    8  O   UNL     1      -9.534   8.236  72.128  1.00  0.00    -0.205 OA 
HETATM    9  H   UNL     1     -10.071   4.273  71.966  1.00  0.00     0.000 HD 
HETATM   10  C   UNL     1      -9.206   6.833  72.026  1.00  0.00    -0.141 C  
ENDROOT
BRANCH   1  11
HETATM   11  O   UNL     1      -8.891  10.270  70.607  1.00  0.00     0.353 OA 
BRANCH  11  12
HETATM   12  C   UNL     1      -8.080  10.245  69.359  1.00  0.00    -0.163 C  
HETATM   13  C   UNL     1     -10.366  11.161  68.000  1.00  0.00    -0.185 C  
HETATM   14  C   UNL     1      -6.572  11.435  67.303  1.00  0.00    -0.104 C  
HETATM   15  C   UNL     1      -9.120  10.052  68.206  1.00  0.00    -0.122 C  
HETATM   16  O   UNL     1      -5.625  12.566  70.640  1.00  0.00    -0.160 OA 
HETATM   17  C   UNL     1      -6.670  11.217  68.843  1.00  0.00    -0.077 C  
HETATM   18  C   UNL     1      -8.411   9.234  67.083  1.00  0.00    -0.124 C  
HETATM   19  C   UNL     1     -10.572  11.541  66.423  1.00  0.00    -0.259 C  
HETATM   20  O   UNL     1      -9.454  12.135  65.748  1.00  0.00    -0.227 OA 
HETATM   21  C   UNL     1     -10.869  10.191  65.696  1.00  0.00     0.362 C  
HETATM   22  C   UNL     1      -6.058  12.518  69.482  1.00  0.00    -0.120 C  
HETATM   23  C   UNL     1     -11.769  12.496  66.326  1.00  0.00    -0.462 C  
HETATM   24  C   UNL     1      -9.497  12.118  64.307  1.00  0.00     0.197 C  
HETATM   25  C   UNL     1     -11.719  13.945  65.763  1.00  0.00    -0.369 C  
HETATM   26  H   UNL     1      -5.223  15.253  66.883  1.00  0.00     0.000 HD 
HETATM   27  O   UNL     1      -5.901  13.637  68.623  1.00  0.00    -0.079 OA 
HETATM   28  C   UNL     1     -10.877  15.165  66.363  1.00  0.00    -0.326 C  
HETATM   29  C   UNL     1     -13.253  14.308  65.892  1.00  0.00     0.449 C  
HETATM   30  O   UNL     1      -6.076  15.505  66.549  1.00  0.00     0.533 OA 
HETATM   31  C   UNL     1      -6.260  17.336  68.096  1.00  0.00    -0.147 C  
HETATM   32  O   UNL     1     -11.530  16.006  67.011  1.00  0.00     0.047 OA 
HETATM   33  C   UNL     1      -9.381  15.637  66.001  1.00  0.00    -0.384 C  
HETATM   34  C   UNL     1      -8.542  14.918  64.983  1.00  0.00     4.085 C  
HETATM   35  C   UNL     1      -6.559  14.941  68.956  1.00  0.00    -0.109 C  
HETATM   36  C   UNL     1      -8.401  16.413  67.062  1.00  0.00    -0.199 C  
HETATM   37  C   UNL     1      -6.877  15.963  67.657  1.00  0.00    -0.166 C  
HETATM   38  O   UNL     1      -9.123  17.313  67.916  1.00  0.00    -0.232 OA 
HETATM   39  H   UNL     1      -8.555  17.763  68.530  1.00  0.00     0.000 HD 
BRANCH  13  40
HETATM   40  O   UNL     1     -10.366  12.205  69.025  1.00  0.00    -0.124 OA 
BRANCH  40  41
HETATM   41  C   UNL     1     -11.126  13.385  69.472  1.00  0.00    -0.040 C  
HETATM   42  C   UNL     1     -13.170  14.346  70.820  1.00  0.00    -0.231 C  
HETATM   43  C   UNL     1     -10.812  17.085  69.588  1.00  0.00     0.025 C  
HETATM   44  O   UNL     1     -12.439  12.246  71.448  1.00  0.00    -0.249 OA 
HETATM   45  C   UNL     1     -12.526  15.712  70.730  1.00  0.00    -0.484 C  
HETATM   46  H   UNL     1     -12.915  12.257  72.271  1.00  0.00     0.000 HD 
HETATM   47  C   UNL     1     -11.532  15.750  69.526  1.00  0.00    -0.353 C  
HETATM   48  C   UNL     1     -11.932  13.403  70.867  1.00  0.00    -0.042 C  
HETATM   49  O   UNL     1     -10.519  14.692  69.435  1.00  0.00    -0.227 OA 
BRANCH  42  50
HETATM   50  N   UNL     1     -14.215  14.121  71.876  1.00  0.00    -0.479 NA 
HETATM   51  C   UNL     1     -14.406  12.769  72.396  1.00  0.00     0.327 C  
HETATM   52  C   UNL     1     -14.197  15.081  72.979  1.00  0.00     0.662 C  
ENDBRANCH  42  50
ENDBRANCH  40  41
ENDBRANCH  13  40
BRANCH  35  53
HETATM   53  C   UNL     1      -7.837  14.532  69.596  1.00  0.00     0.183 C  
HETATM   54  C   UNL     1      -7.935  15.576  70.697  1.00  0.00     1.750 C  
ENDBRANCH  35  53
ENDBRANCH  11  12
ENDBRANCH   1  11
BRANCH   4  55
HETATM   55  O   UNL     1      -8.488   6.549  69.209  1.00  0.00    -0.125 OA 
HETATM   56  C   UNL     1      -8.157   5.686  68.128  1.00  0.00    -0.097 C  
ENDBRANCH   4  55
TORSDOF 7
ENDMDL
MODEL       43
REMARK 921   NORMALIZED FREE ENERGY PREDICTED BY IDOCK:    5.64 KCAL/MOL
REMARK 922        TOTAL FREE ENERGY PREDICTED BY IDOCK:    5.25 KCAL/MOL
REMARK 923 INTER-LIGAND FREE ENERGY PREDICTED BY IDOCK:   -0.78 KCAL/MOL
REMARK 924 INTRA-LIGAND FREE ENERGY PREDICTED BY IDOCK:    6.04 KCAL/MOL
REMARK 927      BINDING AFFINITY PREDICTED BY RF-SCORE:    0.00 PKD
ROOT
HETATM    1  C   UNL     1      -8.218   7.428  70.351  1.00  0.00    -0.121 C  
HETATM    2  O   UNL     1      -6.080   9.591  73.542  1.00  0.00    -0.303 OA 
HETATM    3  C   UNL     1      -8.760   7.475  71.846  1.00  0.00    -0.132 C  
HETATM    4  C   UNL     1      -7.772   7.869  73.012  1.00  0.00    -0.127 C  
HETATM    5  C   UNL     1      -5.233   9.727  70.809  1.00  0.00    -0.048 C  
HETATM    6  C   UNL     1      -6.925   9.052  72.510  1.00  0.00     0.311 C  
HETATM    7  C   UNL     1      -8.544   8.307  74.299  1.00  0.00    -0.015 C  
HETATM    8  O   UNL     1      -7.053   8.267  70.140  1.00  0.00    -0.040 OA 
HETATM    9  H   UNL     1      -5.557  10.321  73.232  1.00  0.00     0.000 HD 
HETATM   10  C   UNL     1      -6.184   8.600  71.245  1.00  0.00    -0.050 C  
ENDROOT
BRANCH   1  11
HETATM   11  O   UNL     1      -8.393   6.081  69.602  1.00  0.00    -0.115 OA 
BRANCH  11  12
HETATM   12  C   UNL     1      -7.195   5.489  68.948  1.00  0.00    -0.066 C  
HETATM   13  C   UNL     1      -8.958   4.119  67.237  1.00  0.00    -0.128 C  
HETATM   14  C   UNL     1      -5.284   5.279  66.892  1.00  0.00    -0.008 C  
HETATM   15  C   UNL     1      -7.693   4.134  68.344  1.00  0.00    -0.070 C  
HETATM   16  O   UNL     1      -5.831   8.704  68.022  1.00  0.00    -0.041 OA 
HETATM   17  C   UNL     1      -5.894   6.227  67.968  1.00  0.00    -0.013 C  
HETATM   18  C   UNL     1      -6.491   3.142  68.393  1.00  0.00    -0.036 C  
HETATM   19  C   UNL     1      -8.643   3.114  65.986  1.00  0.00    -0.119 C  
HETATM   20  O   UNL     1      -7.483   3.407  65.195  1.00  0.00    -0.071 OA 
HETATM   21  C   UNL     1      -8.408   1.706  66.621  1.00  0.00    -0.085 C  
HETATM   22  C   UNL     1      -5.799   7.669  67.345  1.00  0.00    -0.036 C  
HETATM   23  C   UNL     1      -9.874   3.109  65.071  1.00  0.00     0.017 C  
HETATM   24  C   UNL     1      -6.997   2.340  64.356  1.00  0.00    -0.047 C  
HETATM   25  C   UNL     1      -9.885   3.543  63.577  1.00  0.00    -0.154 C  
HETATM   26  H   UNL     1      -4.586   7.675  63.676  1.00  0.00     0.000 HD 
HETATM   27  O   UNL     1      -5.546   7.746  65.950  1.00  0.00    -0.032 OA 
HETATM   28  C   UNL     1      -9.552   5.002  63.013  1.00  0.00     0.408 C  
HETATM   29  C   UNL     1     -11.400   3.233  63.246  1.00  0.00     0.410 C  
HETATM   30  O   UNL     1      -5.291   7.238  63.212  1.00  0.00    -0.032 OA 
HETATM   31  C   UNL     1      -6.348   9.319  62.639  1.00  0.00    -0.093 C  
HETATM   32  O   UNL     1     -10.536   5.687  62.670  1.00  0.00     1.859 OA 
HETATM   33  C   UNL     1      -8.138   5.603  62.533  1.00  0.00    -0.104 C  
HETATM   34  C   UNL     1      -6.872   4.794  62.575  1.00  0.00    -0.030 C  
HETATM   35  C   UNL     1      -6.502   8.464  65.049  1.00  0.00    -0.060 C  
HETATM   36  C   UNL     1      -7.766   7.198  62.609  1.00  0.00    -0.125 C  
HETATM   37  C   UNL     1      -6.507   7.978  63.437  1.00  0.00    -0.072 C  
HETATM   38  O   UNL     1      -8.897   8.037  62.335  1.00  0.00    -0.422 OA 
HETATM   39  H   UNL     1      -8.681   8.961  62.378  1.00  0.00     0.000 HD 
BRANCH  13  40
HETATM   40  O   UNL     1      -9.517   5.449  67.002  1.00  0.00    -0.123 OA 
BRANCH  40  41
HETATM   41  C   UNL     1     -10.124   6.589  67.711  1.00  0.00    -0.148 C  
HETATM   42  C   UNL     1     -10.545   9.183  67.824  1.00  0.00    -0.227 C  
HETATM   43  C   UNL     1     -12.539   7.262  70.454  1.00  0.00     0.207 C  
HETATM   44  O   UNL     1     -10.067   8.324  65.733  1.00  0.00    -0.338 OA 
HETATM   45  C   UNL     1     -11.613   8.917  68.863  1.00  0.00     0.928 C  
HETATM   46  H   UNL     1     -10.364   9.102  65.275  1.00  0.00     0.000 HD 
HETATM   47  C   UNL     1     -11.356   7.533  69.542  1.00  0.00     0.152 C  
HETATM   48  C   UNL     1     -10.629   7.908  66.934  1.00  0.00    -0.263 C  
HETATM   49  O   UNL     1     -11.173   6.364  68.676  1.00  0.00    -0.329 OA 
BRANCH  42  50
HETATM   50  N   UNL     1     -10.572  10.498  67.099  1.00  0.00    -0.253 NA 
HETATM   51  C   UNL     1     -11.757  11.344  67.224  1.00  0.00    -0.039 C  
HETATM   52  C   UNL     1      -9.364  11.309  67.244  1.00  0.00    -0.166 C  
ENDBRANCH  42  50
ENDBRANCH  40  41
ENDBRANCH  13  40
BRANCH  35  53
HETATM   53  C   UNL     1      -7.830   8.185  65.659  1.00  0.00    -0.098 C  
HETATM   54  C   UNL     1      -7.942   6.692  65.389  1.00  0.00    -0.121 C  
ENDBRANCH  35  53
ENDBRANCH  11  12
ENDBRANCH   1  11
BRANCH   4  55
HETATM   55  O   UNL     1      -6.999   6.687  73.296  1.00  0.00    -0.076 OA 
HETATM   56  C   UNL     1      -7.688   5.491  73.637  1.00  0.00    -0.102 C  
ENDBRANCH   4  55
TORSDOF 7
ENDMDL
MODEL       44
REMARK 921   NORMALIZED FREE ENERGY PREDICTED BY IDOCK:    6.28 KCAL/MOL
REMARK 922        TOTAL FREE ENERGY PREDICTED BY IDOCK:    6.17 KCAL/MOL
REMARK 923 INTER-LIGAND FREE ENERGY PREDICTED BY IDOCK:    7.36 KCAL/MOL
REMARK 924 INTRA-LIGAND FREE ENERGY PREDICTED BY IDOCK:   -1.19 KCAL/MOL
REMARK 927      BINDING AFFINITY PREDICTED BY RF-SCORE:    0.00 PKD
ROOT
HETATM    1  C   UNL     1      -8.694   9.804  66.835  1.00  0.00    -0.135 C  
HETATM    2  O   UNL     1      -8.305  11.195  62.671  1.00  0.00    -0.415 OA 
HETATM    3  C   UNL     1      -7.312  10.328  66.249  1.00  0.00    -0.118 C  
HETATM    4  C   UNL     1      -7.115  10.396  64.684  1.00  0.00    -0.017 C  
HETATM    5  C   UNL     1     -10.848  10.495  63.788  1.00  0.00     0.771 C  
HETATM    6  C   UNL     1      -8.416  10.957  64.085  1.00  0.00     0.113 C  
HETATM    7  C   UNL     1      -5.929  11.337  64.292  1.00  0.00     1.301 C  
HETATM    8  O   UNL     1      -9.803   9.961  65.912  1.00  0.00    -0.237 OA 
HETATM    9  H   UNL     1      -9.108  11.541  62.301  1.00  0.00     0.000 HD 
HETATM   10  C   UNL     1      -9.564  10.021  64.489  1.00  0.00    -0.279 C  
ENDROOT
BRANCH   1  11
HETATM   11  O   UNL     1      -8.611   8.593  67.802  1.00  0.00    -0.134 OA 
BRANCH  11  12
HETATM   12  C   UNL     1      -9.544   7.456  67.574  1.00  0.00    -0.140 C  
HETATM   13  C   UNL     1      -7.553   5.771  68.629  1.00  0.00    -0.089 C  
HETATM   14  C   UNL     1     -11.405   5.512  68.394  1.00  0.00     0.980 C  
HETATM   15  C   UNL     1      -8.619   6.204  67.403  1.00  0.00    -0.106 C  
HETATM   16  O   UNL     1     -12.117   8.845  69.694  1.00  0.00     0.706 OA 
HETATM   17  C   UNL     1     -11.112   7.041  68.325  1.00  0.00    -0.080 C  
HETATM   18  C   UNL     1      -9.338   5.237  66.413  1.00  0.00    -0.153 C  
HETATM   19  C   UNL     1      -7.570   4.157  68.891  1.00  0.00    -0.055 C  
HETATM   20  O   UNL     1      -8.821   3.578  69.288  1.00  0.00    -0.081 OA 
HETATM   21  C   UNL     1      -7.187   3.501  67.526  1.00  0.00    -0.059 C  
HETATM   22  C   UNL     1     -11.811   7.651  69.596  1.00  0.00     0.662 C  
HETATM   23  C   UNL     1      -6.521   3.849  69.966  1.00  0.00    -0.032 C  
HETATM   24  C   UNL     1      -8.934   2.147  69.150  1.00  0.00    -0.107 C  
HETATM   25  C   UNL     1      -6.815   3.190  71.345  1.00  0.00    -0.031 C  
HETATM   26  H   UNL     1     -13.263   4.976  71.977  1.00  0.00     0.000 HD 
HETATM   27  O   UNL     1     -12.200   6.737  70.610  1.00  0.00    -0.386 OA 
HETATM   28  C   UNL     1      -7.734   3.795  72.506  1.00  0.00    -0.068 C  
HETATM   29  C   UNL     1      -5.335   3.109  71.895  1.00  0.00    -0.004 C  
HETATM   30  O   UNL     1     -12.490   4.525  72.297  1.00  0.00     1.539 OA 
HETATM   31  C   UNL     1     -12.371   5.901  74.265  1.00  0.00     6.442 C  
HETATM   32  O   UNL     1      -7.125   4.297  73.471  1.00  0.00    -0.065 OA 
HETATM   33  C   UNL     1      -9.308   3.580  72.766  1.00  0.00    -0.146 C  
HETATM   34  C   UNL     1     -10.155   2.725  71.867  1.00  0.00    -0.151 C  
HETATM   35  C   UNL     1     -11.681   6.893  72.006  1.00  0.00    -0.300 C  
HETATM   36  C   UNL     1     -10.256   4.690  73.512  1.00  0.00    -0.174 C  
HETATM   37  C   UNL     1     -11.637   5.493  72.941  1.00  0.00    -0.218 C  
HETATM   38  O   UNL     1      -9.565   5.383  74.561  1.00  0.00    -0.140 OA 
HETATM   39  H   UNL     1     -10.115   6.026  74.994  1.00  0.00     0.000 HD 
BRANCH  13  40
HETATM   40  O   UNL     1      -7.573   6.709  69.751  1.00  0.00    -0.099 OA 
BRANCH  40  41
HETATM   41  C   UNL     1      -6.675   7.455  70.649  1.00  0.00    -0.047 C  
HETATM   42  C   UNL     1      -5.412   9.699  71.186  1.00  0.00    -0.064 C  
HETATM   43  C   UNL     1      -5.154   7.159  74.025  1.00  0.00    -0.042 C  
HETATM   44  O   UNL     1      -7.273   9.884  69.829  1.00  0.00    -0.085 OA 
HETATM   45  C   UNL     1      -5.163   9.169  72.581  1.00  0.00    -0.072 C  
HETATM   46  H   UNL     1      -7.336  10.826  69.936  1.00  0.00     0.000 HD 
HETATM   47  C   UNL     1      -5.258   7.610  72.580  1.00  0.00    -0.036 C  
HETATM   48  C   UNL     1      -6.783   9.053  70.830  1.00  0.00    -0.080 C  
HETATM   49  O   UNL     1      -6.455   6.994  71.997  1.00  0.00    -0.051 OA 
BRANCH  42  50
HETATM   50  N   UNL     1      -5.298  11.179  70.957  1.00  0.00    -0.196 NA 
HETATM   51  C   UNL     1      -6.248  11.824  70.052  1.00  0.00    -0.136 C  
HETATM   52  C   UNL     1      -5.140  11.982  72.168  1.00  0.00     0.187 C  
ENDBRANCH  42  50
ENDBRANCH  40  41
ENDBRANCH  13  40
BRANCH  35  53
HETATM   53  C   UNL     1     -10.299   7.404  71.806  1.00  0.00    -0.215 C  
HETATM   54  C   UNL     1     -10.169   8.313  73.019  1.00  0.00    -0.161 C  
ENDBRANCH  35  53
ENDBRANCH  11  12
ENDBRANCH   1  11
BRANCH   4  55
HETATM   55  O   UNL     1      -6.819   9.051  64.261  1.00  0.00    -0.082 OA 
HETATM   56  C   UNL     1      -5.487   8.739  63.872  1.00  0.00    -0.061 C  
ENDBRANCH   4  55
TORSDOF 7
ENDMDL
MODEL       45
REMARK 921   NORMALIZED FREE ENERGY PREDICTED BY IDOCK:    6.36 KCAL/MOL
REMARK 922        TOTAL FREE ENERGY PREDICTED BY IDOCK:    6.27 KCAL/MOL
REMARK 923 INTER-LIGAND FREE ENERGY PREDICTED BY IDOCK:    7.38 KCAL/MOL
REMARK 924 INTRA-LIGAND FREE ENERGY PREDICTED BY IDOCK:   -1.11 KCAL/MOL
REMARK 927      BINDING AFFINITY PREDICTED BY RF-SCORE:    0.00 PKD
ROOT
HETATM    1  C   UNL     1     -10.834  10.486  66.868  1.00  0.00    -0.187 C  
HETATM    2  O   UNL     1     -10.054  13.434  63.685  1.00  0.00    -0.526 OA 
HETATM    3  C   UNL     1     -10.533  10.047  65.370  1.00  0.00     0.041 C  
HETATM    4  C   UNL     1     -10.693  11.104  64.209  1.00  0.00    -0.333 C  
HETATM    5  C   UNL     1     -10.342  14.224  66.423  1.00  0.00    -0.287 C  
HETATM    6  C   UNL     1     -10.090  12.427  64.713  1.00  0.00    -0.236 C  
HETATM    7  C   UNL     1      -9.936  10.661  62.915  1.00  0.00    -0.185 C  
HETATM    8  O   UNL     1     -10.690  11.914  67.084  1.00  0.00    -0.223 OA 
HETATM    9  H   UNL     1      -9.681  14.250  63.995  1.00  0.00     0.000 HD 
HETATM   10  C   UNL     1     -10.844  12.837  65.985  1.00  0.00    -0.276 C  
ENDROOT
BRANCH   1  11
HETATM   11  O   UNL     1     -11.908   9.657  67.621  1.00  0.00     0.905 OA 
BRANCH  11  12
HETATM   12  C   UNL     1     -12.033   9.852  69.091  1.00  0.00     0.490 C  
HETATM   13  C   UNL     1     -11.845   7.058  69.353  1.00  0.00     0.372 C  
HETATM   14  C   UNL     1     -11.022  10.010  71.712  1.00  0.00     0.766 C  
HETATM   15  C   UNL     1     -12.642   8.513  69.625  1.00  0.00     2.402 C  
HETATM   16  O   UNL     1      -9.090  11.939  69.292  1.00  0.00     0.355 OA 
HETATM   17  C   UNL     1     -10.941  10.621  70.281  1.00  0.00    -0.237 C  
HETATM   18  C   UNL     1     -13.523   8.872  70.861  1.00  0.00     0.164 C  
HETATM   19  C   UNL     1     -11.834   6.125  70.696  1.00  0.00     0.032 C  
HETATM   20  O   UNL     1     -11.191   6.669  71.858  1.00  0.00    -0.242 OA 
HETATM   21  C   UNL     1     -13.333   5.906  71.074  1.00  0.00     2.758 C  
HETATM   22  C   UNL     1      -9.448  11.091  70.119  1.00  0.00     1.510 C  
HETATM   23  C   UNL     1     -11.155   4.797  70.335  1.00  0.00     1.369 C  
HETATM   24  C   UNL     1     -11.505   6.035  73.115  1.00  0.00     0.045 C  
HETATM   25  C   UNL     1      -9.864   4.238  71.000  1.00  0.00    -0.251 C  
HETATM   26  H   UNL     1      -7.184  10.043  73.069  1.00  0.00     0.000 HD 
HETATM   27  O   UNL     1      -8.515  10.586  71.061  1.00  0.00     1.492 OA 
HETATM   28  C   UNL     1      -8.415   4.913  70.968  1.00  0.00    -0.116 C  
HETATM   29  C   UNL     1      -9.772   2.861  70.228  1.00  0.00    -0.042 C  
HETATM   30  O   UNL     1      -7.166   9.095  73.004  1.00  0.00    -0.193 OA 
HETATM   31  C   UNL     1      -5.127   9.114  71.729  1.00  0.00    -0.047 C  
HETATM   32  O   UNL     1      -7.596   4.399  70.181  1.00  0.00    -0.049 OA 
HETATM   33  C   UNL     1      -7.758   5.948  72.011  1.00  0.00    -0.102 C  
HETATM   34  C   UNL     1      -8.499   6.439  73.222  1.00  0.00    -0.123 C  
HETATM   35  C   UNL     1      -7.314   9.820  70.597  1.00  0.00    -0.050 C  
HETATM   36  C   UNL     1      -6.617   7.048  71.589  1.00  0.00    -0.048 C  
HETATM   37  C   UNL     1      -6.650   8.741  71.705  1.00  0.00    -0.072 C  
HETATM   38  O   UNL     1      -5.714   6.546  70.594  1.00  0.00    -0.022 OA 
HETATM   39  H   UNL     1      -5.053   7.183  70.350  1.00  0.00     0.000 HD 
BRANCH  13  40
HETATM   40  O   UNL     1     -10.635   7.220  68.548  1.00  0.00    -0.206 OA 
BRANCH  40  41
HETATM   41  C   UNL     1      -9.695   6.456  67.710  1.00  0.00    -0.121 C  
HETATM   42  C   UNL     1      -9.326   4.562  65.921  1.00  0.00    -0.159 C  
HETATM   43  C   UNL     1      -6.142   6.548  66.627  1.00  0.00    -0.033 C  
HETATM   44  O   UNL     1     -11.435   5.505  65.979  1.00  0.00    -0.637 OA 
HETATM   45  C   UNL     1      -7.928   5.100  65.710  1.00  0.00    -0.108 C  
HETATM   46  H   UNL     1     -11.687   5.149  65.135  1.00  0.00     0.000 HD 
HETATM   47  C   UNL     1      -7.478   5.913  66.966  1.00  0.00    -0.084 C  
HETATM   48  C   UNL     1     -10.122   5.852  66.278  1.00  0.00    -0.046 C  
HETATM   49  O   UNL     1      -8.370   6.967  67.459  1.00  0.00    -0.118 OA 
BRANCH  42  50
HETATM   50  N   UNL     1      -9.922   3.692  64.852  1.00  0.00    -0.164 NA 
HETATM   51  C   UNL     1      -9.659   4.021  63.452  1.00  0.00    -0.149 C  
HETATM   52  C   UNL     1      -9.762   2.254  65.064  1.00  0.00     0.162 C  
ENDBRANCH  42  50
ENDBRANCH  40  41
ENDBRANCH  13  40
BRANCH  35  53
HETATM   53  C   UNL     1      -7.816   9.074  69.412  1.00  0.00    -0.094 C  
HETATM   54  C   UNL     1      -6.758   9.454  68.386  1.00  0.00    -0.058 C  
ENDBRANCH  35  53
ENDBRANCH  11  12
ENDBRANCH   1  11
BRANCH   4  55
HETATM   55  O   UNL     1     -12.105  11.183  63.935  1.00  0.00     0.308 OA 
HETATM   56  C   UNL     1     -12.573  12.215  63.075  1.00  0.00     0.035 C  
ENDBRANCH   4  55
TORSDOF 7
ENDMDL
MODEL       46
REMARK 921   NORMALIZED FREE ENERGY PREDICTED BY IDOCK:    6.71 KCAL/MOL
REMARK 922        TOTAL FREE ENERGY PREDICTED BY IDOCK:    6.76 KCAL/MOL
REMARK 923 INTER-LIGAND FREE ENERGY PREDICTED BY IDOCK:    3.08 KCAL/MOL
REMARK 924 INTRA-LIGAND FREE ENERGY PREDICTED BY IDOCK:    3.68 KCAL/MOL
REMARK 927      BINDING AFFINITY PREDICTED BY RF-SCORE:    0.00 PKD
ROOT
HETATM    1  C   UNL     1      -5.383  16.774  67.063  1.00  0.00    -0.122 C  
HETATM    2  O   UNL     1      -5.893  21.055  66.143  1.00  0.00    -0.221 OA 
HETATM    3  C   UNL     1      -5.664  17.290  65.585  1.00  0.00     0.555 C  
HETATM    4  C   UNL     1      -6.262  18.735  65.374  1.00  0.00    -0.282 C  
HETATM    5  C   UNL     1      -5.136  20.161  68.758  1.00  0.00    -0.223 C  
HETATM    6  C   UNL     1      -5.528  19.678  66.344  1.00  0.00    -0.160 C  
HETATM    7  C   UNL     1      -6.043  19.242  63.911  1.00  0.00     0.096 C  
HETATM    8  O   UNL     1      -5.184  17.851  68.015  1.00  0.00    -0.143 OA 
HETATM    9  H   UNL     1      -5.439  21.637  66.742  1.00  0.00     0.000 HD 
HETATM   10  C   UNL     1      -5.751  19.156  67.769  1.00  0.00    -0.193 C  
ENDROOT
BRANCH   1  11
HETATM   11  O   UNL     1      -6.086  15.452  67.470  1.00  0.00    -0.234 OA 
BRANCH  11  12
HETATM   12  C   UNL     1      -6.655  15.362  68.842  1.00  0.00    -0.110 C  
HETATM   13  C   UNL     1      -9.203  15.529  67.662  1.00  0.00    -0.190 C  
HETATM   14  C   UNL     1      -7.903  14.017  70.976  1.00  0.00     3.809 C  
HETATM   15  C   UNL     1      -8.044  16.077  68.750  1.00  0.00    -0.212 C  
HETATM   16  O   UNL     1      -5.125  12.158  69.513  1.00  0.00    -0.064 OA 
HETATM   17  C   UNL     1      -6.657  14.034  70.040  1.00  0.00    -0.025 C  
HETATM   18  C   UNL     1      -8.312  16.738  70.137  1.00  0.00     2.086 C  
HETATM   19  C   UNL     1     -10.687  15.477  68.348  1.00  0.00    -0.263 C  
HETATM   20  O   UNL     1     -10.843  14.625  69.492  1.00  0.00    -0.245 OA 
HETATM   21  C   UNL     1     -10.983  16.933  68.831  1.00  0.00    -0.207 C  
HETATM   22  C   UNL     1      -6.253  12.523  69.866  1.00  0.00    -0.094 C  
HETATM   23  C   UNL     1     -11.684  15.039  67.268  1.00  0.00    -0.238 C  
HETATM   24  C   UNL     1     -12.006  14.862  70.309  1.00  0.00    -0.312 C  
HETATM   25  C   UNL     1     -12.574  13.764  67.332  1.00  0.00     0.298 C  
HETATM   26  H   UNL     1      -8.776  10.071  71.465  1.00  0.00     0.000 HD 
HETATM   27  O   UNL     1      -7.217  11.556  70.256  1.00  0.00     0.346 OA 
HETATM   28  C   UNL     1     -12.058  12.251  67.377  1.00  0.00     0.050 C  
HETATM   29  C   UNL     1     -13.373  13.960  65.981  1.00  0.00     0.887 C  
HETATM   30  O   UNL     1      -9.560  10.191  70.942  1.00  0.00     0.304 OA 
HETATM   31  C   UNL     1      -9.011   8.347  69.501  1.00  0.00    -0.149 C  
HETATM   32  O   UNL     1     -12.147  11.617  66.307  1.00  0.00    -0.333 OA 
HETATM   33  C   UNL     1     -11.731  11.332  68.657  1.00  0.00    -0.391 C  
HETATM   34  C   UNL     1     -11.880  11.840  70.063  1.00  0.00    -0.422 C  
HETATM   35  C   UNL     1      -7.708  10.541  69.270  1.00  0.00    -0.144 C  
HETATM   36  C   UNL     1     -10.635  10.113  68.633  1.00  0.00    -0.210 C  
HETATM   37  C   UNL     1      -9.235   9.898  69.568  1.00  0.00    -0.223 C  
HETATM   38  O   UNL     1     -10.614   9.420  67.377  1.00  0.00    -0.265 OA 
HETATM   39  H   UNL     1      -9.979   8.713  67.364  1.00  0.00     0.000 HD 
BRANCH  13  40
HETATM   40  O   UNL     1      -8.723  14.420  66.839  1.00  0.00    -0.221 OA 
BRANCH  40  41
HETATM   41  C   UNL     1      -9.198  13.388  65.900  1.00  0.00     0.208 C  
HETATM   42  C   UNL     1     -10.962  12.655  64.092  1.00  0.00    -0.387 C  
HETATM   43  C   UNL     1      -8.071  10.180  64.404  1.00  0.00    -0.163 C  
HETATM   44  O   UNL     1     -10.707  14.931  64.393  1.00  0.00    -0.594 OA 
HETATM   45  C   UNL     1     -10.032  11.522  63.713  1.00  0.00    -0.384 C  
HETATM   46  H   UNL     1     -11.159  15.153  63.587  1.00  0.00     0.000 HD 
HETATM   47  C   UNL     1      -9.069  11.209  64.903  1.00  0.00    -0.095 C  
HETATM   48  C   UNL     1      -9.963  13.765  64.533  1.00  0.00     0.173 C  
HETATM   49  O   UNL     1      -8.317  12.322  65.491  1.00  0.00     0.795 OA 
BRANCH  42  50
HETATM   50  N   UNL     1     -12.018  13.067  63.106  1.00  0.00    -0.427 NA 
HETATM   51  C   UNL     1     -13.069  12.112  62.764  1.00  0.00     1.158 C  
HETATM   52  C   UNL     1     -12.600  14.388  63.340  1.00  0.00     0.948 C  
ENDBRANCH  42  50
ENDBRANCH  40  41
ENDBRANCH  13  40
BRANCH  35  53
HETATM   53  C   UNL     1      -7.722  11.286  67.983  1.00  0.00    -0.108 C  
HETATM   54  C   UNL     1      -6.414  10.801  67.377  1.00  0.00    -0.063 C  
ENDBRANCH  35  53
ENDBRANCH  11  12
ENDBRANCH   1  11
BRANCH   4  55
HETATM   55  O   UNL     1      -7.674  18.625  65.636  1.00  0.00    -0.495 OA 
HETATM   56  C   UNL     1      -8.437  19.819  65.759  1.00  0.00    -0.018 C  
ENDBRANCH   4  55
TORSDOF 7
ENDMDL
MODEL       47
REMARK 921   NORMALIZED FREE ENERGY PREDICTED BY IDOCK:    6.89 KCAL/MOL
REMARK 922        TOTAL FREE ENERGY PREDICTED BY IDOCK:    7.02 KCAL/MOL
REMARK 923 INTER-LIGAND FREE ENERGY PREDICTED BY IDOCK:    6.18 KCAL/MOL
REMARK 924 INTRA-LIGAND FREE ENERGY PREDICTED BY IDOCK:    0.84 KCAL/MOL
REMARK 927      BINDING AFFINITY PREDICTED BY RF-SCORE:    0.00 PKD
ROOT
HETATM    1  C   UNL     1      -6.046   8.935  68.233  1.00  0.00    -0.053 C  
HETATM    2  O   UNL     1      -5.923   5.836  71.366  1.00  0.00    -0.027 OA 
HETATM    3  C   UNL     1      -5.814   9.295  69.764  1.00  0.00    -0.035 C  
HETATM    4  C   UNL     1      -6.206   8.241  70.872  1.00  0.00    -0.033 C  
HETATM    5  C   UNL     1      -6.087   5.156  68.588  1.00  0.00    -0.029 C  
HETATM    6  C   UNL     1      -5.742   6.862  70.373  1.00  0.00    -0.024 C  
HETATM    7  C   UNL     1      -5.505   8.550  72.235  1.00  0.00    -0.047 C  
HETATM    8  O   UNL     1      -6.074   7.505  67.980  1.00  0.00    -0.034 OA 
HETATM    9  H   UNL     1      -5.636   4.985  71.058  1.00  0.00     0.000 HD 
HETATM   10  C   UNL     1      -6.437   6.586  69.033  1.00  0.00    -0.043 C  
ENDROOT
BRANCH   1  11
HETATM   11  O   UNL     1      -6.937   9.917  67.427  1.00  0.00    -0.082 OA 
BRANCH  11  12
HETATM   12  C   UNL     1      -8.273   9.436  66.979  1.00  0.00    -0.116 C  
HETATM   13  C   UNL     1      -9.373  10.848  69.149  1.00  0.00    -0.078 C  
HETATM   14  C   UNL     1     -10.772   9.731  65.721  1.00  0.00     0.446 C  
HETATM   15  C   UNL     1      -9.154   9.430  68.272  1.00  0.00    -0.128 C  
HETATM   16  O   UNL     1      -7.984  10.969  63.720  1.00  0.00     0.231 OA 
HETATM   17  C   UNL     1      -9.229   9.793  65.511  1.00  0.00    -0.270 C  
HETATM   18  C   UNL     1     -10.178   8.264  68.122  1.00  0.00    -0.255 C  
HETATM   19  C   UNL     1     -10.933  11.033  69.603  1.00  0.00    -0.225 C  
HETATM   20  O   UNL     1     -11.908  11.111  68.553  1.00  0.00    -0.452 OA 
HETATM   21  C   UNL     1     -11.284   9.766  70.446  1.00  0.00    -0.362 C  
HETATM   22  C   UNL     1      -9.008  10.895  64.410  1.00  0.00    -0.108 C  
HETATM   23  C   UNL     1     -11.022  12.306  70.453  1.00  0.00     1.377 C  
HETATM   24  C   UNL     1     -13.279  10.893  68.940  1.00  0.00     3.117 C  
HETATM   25  C   UNL     1     -11.889  13.554  70.115  1.00  0.00    -0.348 C  
HETATM   26  H   UNL     1     -12.247  12.772  63.450  1.00  0.00     0.000 HD 
HETATM   27  O   UNL     1     -10.104  11.756  64.140  1.00  0.00    -0.275 OA 
HETATM   28  C   UNL     1     -11.728  14.499  68.835  1.00  0.00    -0.319 C  
HETATM   29  C   UNL     1     -11.572  14.423  71.398  1.00  0.00     0.004 C  
HETATM   30  O   UNL     1     -12.471  13.241  64.245  1.00  0.00    -0.573 OA 
HETATM   31  C   UNL     1     -11.353  15.238  63.510  1.00  0.00     1.736 C  
HETATM   32  O   UNL     1     -11.173  15.597  69.039  1.00  0.00    -0.263 OA 
HETATM   33  C   UNL     1     -12.442  14.384  67.397  1.00  0.00     0.148 C  
HETATM   34  C   UNL     1     -13.410  13.282  67.073  1.00  0.00     4.016 C  
HETATM   35  C   UNL     1      -9.953  13.239  64.286  1.00  0.00     0.117 C  
HETATM   36  C   UNL     1     -11.767  14.939  66.010  1.00  0.00    -0.173 C  
HETATM   37  C   UNL     1     -11.366  14.101  64.590  1.00  0.00    -0.371 C  
HETATM   38  O   UNL     1     -11.016  16.145  66.211  1.00  0.00    -0.190 OA 
HETATM   39  H   UNL     1     -10.625  16.466  65.407  1.00  0.00     0.000 HD 
BRANCH  13  40
HETATM   40  O   UNL     1      -8.617  11.972  68.599  1.00  0.00    -0.116 OA 
BRANCH  40  41
HETATM   41  C   UNL     1      -7.604  12.976  68.971  1.00  0.00     0.142 C  
HETATM   42  C   UNL     1      -6.545  15.345  68.544  1.00  0.00    -0.109 C  
HETATM   43  C   UNL     1      -5.148  13.661  71.673  1.00  0.00    -0.175 C  
HETATM   44  O   UNL     1      -8.726  15.067  67.833  1.00  0.00    -0.150 OA 
HETATM   45  C   UNL     1      -5.837  15.216  69.875  1.00  0.00    -0.130 C  
HETATM   46  H   UNL     1      -8.879  16.000  67.730  1.00  0.00     0.000 HD 
HETATM   47  C   UNL     1      -5.724  13.709  70.269  1.00  0.00    -0.146 C  
HETATM   48  C   UNL     1      -7.864  14.557  68.797  1.00  0.00    -0.145 C  
HETATM   49  O   UNL     1      -6.946  12.898  70.251  1.00  0.00     0.551 OA 
BRANCH  42  50
HETATM   50  N   UNL     1      -6.698  16.717  67.951  1.00  0.00    -0.136 NA 
HETATM   51  C   UNL     1      -7.175  17.802  68.806  1.00  0.00    -0.271 C  
HETATM   52  C   UNL     1      -5.562  17.175  67.151  1.00  0.00    -0.158 C  
ENDBRANCH  42  50
ENDBRANCH  40  41
ENDBRANCH  13  40
BRANCH  35  53
HETATM   53  C   UNL     1      -9.024  13.380  65.439  1.00  0.00     1.193 C  
HETATM   54  C   UNL     1      -9.829  12.678  66.522  1.00  0.00    -0.258 C  
ENDBRANCH  35  53
ENDBRANCH  11  12
ENDBRANCH   1  11
BRANCH   4  55
HETATM   55  O   UNL     1      -7.634   8.346  71.033  1.00  0.00    -0.069 OA 
HETATM   56  C   UNL     1      -8.222   7.838  72.225  1.00  0.00    -0.118 C  
ENDBRANCH   4  55
TORSDOF 7
ENDMDL
MODEL       48
REMARK 921   NORMALIZED FREE ENERGY PREDICTED BY IDOCK:    7.21 KCAL/MOL
REMARK 922        TOTAL FREE ENERGY PREDICTED BY IDOCK:    7.47 KCAL/MOL
REMARK 923 INTER-LIGAND FREE ENERGY PREDICTED BY IDOCK:    2.00 KCAL/MOL
REMARK 924 INTRA-LIGAND FREE ENERGY PREDICTED BY IDOCK:    5.47 KCAL/MOL
REMARK 927      BINDING AFFINITY PREDICTED BY RF-SCORE:    0.00 PKD
ROOT
HETATM    1  C   UNL     1      -9.061  13.787  69.310  1.00  0.00     0.606 C  
HETATM    2  O   UNL     1     -12.821  15.987  69.984  1.00  0.00    -0.611 OA 
HETATM    3  C   UNL     1      -9.123  15.376  69.287  1.00  0.00    -0.260 C  
HETATM    4  C   UNL     1     -10.517  16.091  69.096  1.00  0.00    -0.251 C  
HETATM    5  C   UNL     1     -12.673  13.141  70.281  1.00  0.00    -0.012 C  
HETATM    6  C   UNL     1     -11.537  15.338  69.969  1.00  0.00    -0.305 C  
HETATM    7  C   UNL     1     -10.466  17.586  69.551  1.00  0.00     0.105 C  
HETATM    8  O   UNL     1     -10.316  13.173  69.702  1.00  0.00     0.474 OA 
HETATM    9  H   UNL     1     -13.451  15.522  70.523  1.00  0.00     0.000 HD 
HETATM   10  C   UNL     1     -11.563  13.874  69.508  1.00  0.00    -0.301 C  
ENDROOT
BRANCH   1  11
HETATM   11  O   UNL     1      -8.127  13.124  68.264  1.00  0.00    -0.142 OA 
BRANCH  11  12
HETATM   12  C   UNL     1      -7.035  12.246  68.765  1.00  0.00    -0.098 C  
HETATM   13  C   UNL     1      -9.015  10.351  69.396  1.00  0.00    -0.151 C  
HETATM   14  C   UNL     1      -5.245  10.083  68.578  1.00  0.00    -0.035 C  
HETATM   15  C   UNL     1      -7.716  11.325  69.832  1.00  0.00     0.747 C  
HETATM   16  O   UNL     1      -5.330  12.162  65.581  1.00  0.00     0.877 OA 
HETATM   17  C   UNL     1      -5.693  11.422  67.918  1.00  0.00    -0.044 C  
HETATM   18  C   UNL     1      -6.641  11.008  70.916  1.00  0.00     0.870 C  
HETATM   19  C   UNL     1      -8.873   8.850  70.028  1.00  0.00    -0.160 C  
HETATM   20  O   UNL     1      -7.717   8.091  69.644  1.00  0.00    -0.097 OA 
HETATM   21  C   UNL     1      -8.784   9.046  71.575  1.00  0.00    -0.145 C  
HETATM   22  C   UNL     1      -5.449  11.223  66.376  1.00  0.00    -0.139 C  
HETATM   23  C   UNL     1     -10.130   8.060  69.642  1.00  0.00    -0.198 C  
HETATM   24  C   UNL     1      -7.396   6.955  70.470  1.00  0.00    -0.077 C  
HETATM   25  C   UNL     1     -10.145   6.752  68.799  1.00  0.00    -0.165 C  
HETATM   26  H   UNL     1      -4.387   7.625  65.448  1.00  0.00     0.000 HD 
HETATM   27  O   UNL     1      -5.243   9.891  65.931  1.00  0.00    -0.037 OA 
HETATM   28  C   UNL     1      -9.661   6.597  67.283  1.00  0.00    -0.134 C  
HETATM   29  C   UNL     1     -11.699   6.456  68.842  1.00  0.00     0.326 C  
HETATM   30  O   UNL     1      -5.157   7.109  65.657  1.00  0.00    -0.023 OA 
HETATM   31  C   UNL     1      -5.977   7.218  63.400  1.00  0.00    -0.045 C  
HETATM   32  O   UNL     1     -10.568   6.530  66.430  1.00  0.00    -0.087 OA 
HETATM   33  C   UNL     1      -8.205   6.205  66.722  1.00  0.00    -0.109 C  
HETATM   34  C   UNL     1      -7.045   5.928  67.636  1.00  0.00    -0.074 C  
HETATM   35  C   UNL     1      -6.140   9.297  64.888  1.00  0.00    -0.066 C  
HETATM   36  C   UNL     1      -7.640   6.697  65.263  1.00  0.00    -0.088 C  
HETATM   37  C   UNL     1      -6.265   7.618  64.889  1.00  0.00    -0.038 C  
HETATM   38  O   UNL     1      -8.672   6.750  64.267  1.00  0.00    -0.291 OA 
HETATM   39  H   UNL     1      -8.344   7.035  63.422  1.00  0.00     0.000 HD 
BRANCH  13  40
HETATM   40  O   UNL     1      -9.418  10.538  68.003  1.00  0.00    -0.145 OA 
BRANCH  40  41
HETATM   41  C   UNL     1      -9.726  11.593  67.022  1.00  0.00    -0.186 C  
HETATM   42  C   UNL     1     -11.407  12.577  65.254  1.00  0.00    -0.324 C  
HETATM   43  C   UNL     1      -8.472  14.921  65.946  1.00  0.00     1.117 C  
HETATM   44  O   UNL     1     -12.324  11.201  66.867  1.00  0.00     0.806 OA 
HETATM   45  C   UNL     1     -10.610  13.864  65.283  1.00  0.00    -0.372 C  
HETATM   46  H   UNL     1     -13.216  11.473  66.683  1.00  0.00     0.000 HD 
HETATM   47  C   UNL     1      -9.162  13.577  65.795  1.00  0.00     0.318 C  
HETATM   48  C   UNL     1     -11.239  12.055  66.711  1.00  0.00    -0.322 C  
HETATM   49  O   UNL     1      -9.010  12.844  67.056  1.00  0.00    -0.213 OA 
BRANCH  42  50
HETATM   50  N   UNL     1     -12.813  12.624  64.726  1.00  0.00    -0.830 NA 
HETATM   51  C   UNL     1     -13.594  13.843  64.920  1.00  0.00     1.442 C  
HETATM   52  C   UNL     1     -12.975  12.141  63.356  1.00  0.00    -0.118 C  
ENDBRANCH  42  50
ENDBRANCH  40  41
ENDBRANCH  13  40
BRANCH  35  53
HETATM   53  C   UNL     1      -7.466   9.898  65.189  1.00  0.00    -0.133 C  
HETATM   54  C   UNL     1      -7.834  10.443  63.818  1.00  0.00    -0.065 C  
ENDBRANCH  35  53
ENDBRANCH  11  12
ENDBRANCH   1  11
BRANCH   4  55
HETATM   55  O   UNL     1     -10.808  16.028  67.686  1.00  0.00    -0.319 OA 
HETATM   56  C   UNL     1     -11.843  16.855  67.169  1.00  0.00     1.522 C  
ENDBRANCH   4  55
TORSDOF 7
ENDMDL
MODEL       49
REMARK 921   NORMALIZED FREE ENERGY PREDICTED BY IDOCK:    7.86 KCAL/MOL
REMARK 922        TOTAL FREE ENERGY PREDICTED BY IDOCK:    8.39 KCAL/MOL
REMARK 923 INTER-LIGAND FREE ENERGY PREDICTED BY IDOCK:    9.07 KCAL/MOL
REMARK 924 INTRA-LIGAND FREE ENERGY PREDICTED BY IDOCK:   -0.68 KCAL/MOL
REMARK 927      BINDING AFFINITY PREDICTED BY RF-SCORE:    0.00 PKD
ROOT
HETATM    1  C   UNL     1     -11.827  11.950  66.516  1.00  0.00    -0.049 C  
HETATM    2  O   UNL     1     -11.874  13.697  62.469  1.00  0.00    -0.035 OA 
HETATM    3  C   UNL     1     -11.263  11.164  65.253  1.00  0.00     0.019 C  
HETATM    4  C   UNL     1     -11.689  11.626  63.805  1.00  0.00    -0.303 C  
HETATM    5  C   UNL     1     -12.656  15.216  64.768  1.00  0.00     0.137 C  
HETATM    6  C   UNL     1     -11.639  13.164  63.784  1.00  0.00    -0.425 C  
HETATM    7  C   UNL     1     -10.716  11.072  62.713  1.00  0.00     0.467 C  
HETATM    8  O   UNL     1     -12.218  13.314  66.211  1.00  0.00    -0.409 OA 
HETATM    9  H   UNL     1     -11.843  14.646  62.456  1.00  0.00     0.000 HD 
HETATM   10  C   UNL     1     -12.595  13.682  64.867  1.00  0.00    -0.336 C  
ENDROOT
BRANCH   1  11
HETATM   11  O   UNL     1     -12.598  11.100  67.561  1.00  0.00     1.024 OA 
BRANCH  11  12
HETATM   12  C   UNL     1     -12.361  11.389  69.001  1.00  0.00     0.033 C  
HETATM   13  C   UNL     1     -11.140   8.861  69.182  1.00  0.00     0.137 C  
HETATM   14  C   UNL     1     -10.773  12.141  71.200  1.00  0.00     4.893 C  
HETATM   15  C   UNL     1     -12.285   9.985  69.687  1.00  0.00     0.199 C  
HETATM   16  O   UNL     1     -10.409  14.352  68.321  1.00  0.00    -0.228 OA 
HETATM   17  C   UNL     1     -11.320  12.596  69.813  1.00  0.00    -0.108 C  
HETATM   18  C   UNL     1     -12.848  10.149  71.132  1.00  0.00    -0.494 C  
HETATM   19  C   UNL     1     -10.423   8.127  70.454  1.00  0.00    -0.215 C  
HETATM   20  O   UNL     1      -9.712   8.969  71.373  1.00  0.00    -0.276 OA 
HETATM   21  C   UNL     1     -11.579   7.457  71.264  1.00  0.00    -0.306 C  
HETATM   22  C   UNL     1     -10.197  13.521  69.212  1.00  0.00     0.280 C  
HETATM   23  C   UNL     1      -9.454   7.075  69.900  1.00  0.00    -0.157 C  
HETATM   24  C   UNL     1      -9.415   8.397  72.662  1.00  0.00    -0.265 C  
HETATM   25  C   UNL     1      -7.918   7.052  70.144  1.00  0.00    -0.114 C  
HETATM   26  H   UNL     1      -6.974  13.596  71.342  1.00  0.00     0.000 HD 
HETATM   27  O   UNL     1      -8.920  13.456  69.828  1.00  0.00     1.502 OA 
HETATM   28  C   UNL     1      -6.869   8.167  69.682  1.00  0.00    -0.041 C  
HETATM   29  C   UNL     1      -7.571   5.715  69.373  1.00  0.00    -0.083 C  
HETATM   30  O   UNL     1      -6.644  12.708  71.270  1.00  0.00     1.140 OA 
HETATM   31  C   UNL     1      -5.191  13.282  69.442  1.00  0.00    -0.075 C  
HETATM   32  O   UNL     1      -6.181   7.881  68.682  1.00  0.00    -0.038 OA 
HETATM   33  C   UNL     1      -6.350   9.462  70.484  1.00  0.00    -0.072 C  
HETATM   34  C   UNL     1      -6.842   9.796  71.864  1.00  0.00     0.868 C  
HETATM   35  C   UNL     1      -7.711  13.095  69.021  1.00  0.00     0.178 C  
HETATM   36  C   UNL     1      -5.837  10.833  69.745  1.00  0.00    -0.063 C  
HETATM   37  C   UNL     1      -6.427  12.419  69.874  1.00  0.00     0.024 C  
HETATM   38  O   UNL     1      -5.135  10.565  68.523  1.00  0.00    -0.035 OA 
HETATM   39  H   UNL     1      -4.837  11.359  68.095  1.00  0.00     0.000 HD 
BRANCH  13  40
HETATM   40  O   UNL     1     -10.345   9.338  68.051  1.00  0.00    -0.199 OA 
BRANCH  40  41
HETATM   41  C   UNL     1      -9.467   8.855  66.971  1.00  0.00    -0.166 C  
HETATM   42  C   UNL     1      -8.523   6.816  65.603  1.00  0.00    -0.138 C  
HETATM   43  C   UNL     1      -7.480  10.178  64.124  1.00  0.00    -0.114 C  
HETATM   44  O   UNL     1     -10.554   6.479  66.652  1.00  0.00    -0.423 OA 
HETATM   45  C   UNL     1      -8.007   7.803  64.578  1.00  0.00    -0.135 C  
HETATM   46  H   UNL     1     -10.754   5.695  66.153  1.00  0.00     0.000 HD 
HETATM   47  C   UNL     1      -7.848   9.211  65.235  1.00  0.00    -0.105 C  
HETATM   48  C   UNL     1      -9.807   7.526  66.124  1.00  0.00     0.137 C  
HETATM   49  O   UNL     1      -8.996   9.768  65.959  1.00  0.00    -0.144 OA 
BRANCH  42  50
HETATM   50  N   UNL     1      -8.682   5.381  65.189  1.00  0.00    -0.150 NA 
HETATM   51  C   UNL     1      -8.469   5.027  63.787  1.00  0.00    -0.128 C  
HETATM   52  C   UNL     1      -8.014   4.409  66.055  1.00  0.00    -0.099 C  
ENDBRANCH  42  50
ENDBRANCH  40  41
ENDBRANCH  13  40
BRANCH  35  53
HETATM   53  C   UNL     1      -8.233  12.109  68.038  1.00  0.00    -0.158 C  
HETATM   54  C   UNL     1      -7.472  12.540  66.794  1.00  0.00     0.232 C  
ENDBRANCH  35  53
ENDBRANCH  11  12
ENDBRANCH   1  11
BRANCH   4  55
HETATM   55  O   UNL     1     -13.008  11.089  63.588  1.00  0.00     1.023 OA 
HETATM   56  C   UNL     1     -14.114  11.983  63.598  1.00  0.00     2.864 C  
ENDBRANCH   4  55
TORSDOF 7
ENDMDL
MODEL       50
REMARK 921   NORMALIZED FREE ENERGY PREDICTED BY IDOCK:    7.91 KCAL/MOL
REMARK 922        TOTAL FREE ENERGY PREDICTED BY IDOCK:    8.46 KCAL/MOL
REMARK 923 INTER-LIGAND FREE ENERGY PREDICTED BY IDOCK:    6.69 KCAL/MOL
REMARK 924 INTRA-LIGAND FREE ENERGY PREDICTED BY IDOCK:    1.77 KCAL/MOL
REMARK 927      BINDING AFFINITY PREDICTED BY RF-SCORE:    0.00 PKD
ROOT
HETATM    1  C   UNL     1      -7.078   9.239  65.961  1.00  0.00    -0.090 C  
HETATM    2  O   UNL     1      -7.321   5.851  63.152  1.00  0.00    -0.053 OA 
HETATM    3  C   UNL     1      -7.840   9.352  64.570  1.00  0.00    -0.121 C  
HETATM    4  C   UNL     1      -7.536   8.297  63.437  1.00  0.00    -0.131 C  
HETATM    5  C   UNL     1      -6.169   5.559  65.758  1.00  0.00    -0.034 C  
HETATM    6  C   UNL     1      -7.457   6.915  64.110  1.00  0.00    -0.101 C  
HETATM    7  C   UNL     1      -8.666   8.270  62.355  1.00  0.00     0.019 C  
HETATM    8  O   UNL     1      -6.607   7.896  66.247  1.00  0.00    -0.049 OA 
HETATM    9  H   UNL     1      -7.273   4.998  63.568  1.00  0.00     0.000 HD 
HETATM   10  C   UNL     1      -6.349   6.969  65.170  1.00  0.00    -0.037 C  
ENDROOT
BRANCH   1  11
HETATM   11  O   UNL     1      -6.274  10.490  66.404  1.00  0.00    -0.077 OA 
BRANCH  11  12
HETATM   12  C   UNL     1      -6.132  10.744  67.863  1.00  0.00    -0.046 C  
HETATM   13  C   UNL     1      -7.343  13.245  67.420  1.00  0.00    -0.114 C  
HETATM   14  C   UNL     1      -7.093  10.920  70.502  1.00  0.00     0.814 C  
HETATM   15  C   UNL     1      -6.075  12.303  67.997  1.00  0.00    -0.070 C  
HETATM   16  O   UNL     1      -8.104   7.863  68.788  1.00  0.00    -0.122 OA 
HETATM   17  C   UNL     1      -6.900   9.971  69.281  1.00  0.00    -0.059 C  
HETATM   18  C   UNL     1      -5.162  12.624  69.220  1.00  0.00    -0.069 C  
HETATM   19  C   UNL     1      -7.738  14.425  68.480  1.00  0.00    -0.135 C  
HETATM   20  O   UNL     1      -8.170  14.009  69.783  1.00  0.00     0.628 OA 
HETATM   21  C   UNL     1      -6.436  15.264  68.687  1.00  0.00    -0.094 C  
HETATM   22  C   UNL     1      -8.109   8.967  69.346  1.00  0.00    -0.105 C  
HETATM   23  C   UNL     1      -8.845  15.273  67.842  1.00  0.00    -0.165 C  
HETATM   24  C   UNL     1      -8.150  15.017  70.814  1.00  0.00     1.908 C  
HETATM   25  C   UNL     1     -10.271  15.478  68.430  1.00  0.00    -0.215 C  
HETATM   26  H   UNL     1     -10.690   9.853  72.082  1.00  0.00     0.000 HD 
HETATM   27  O   UNL     1      -9.192   9.326  70.191  1.00  0.00    -0.188 OA 
HETATM   28  C   UNL     1     -11.369  14.340  68.670  1.00  0.00    -0.275 C  
HETATM   29  C   UNL     1     -10.841  16.475  67.342  1.00  0.00    -0.202 C  
HETATM   30  O   UNL     1     -11.054  10.677  71.781  1.00  0.00     1.266 OA 
HETATM   31  C   UNL     1     -12.901   9.588  70.695  1.00  0.00     0.011 C  
HETATM   32  O   UNL     1     -12.295  14.297  67.835  1.00  0.00    -0.229 OA 
HETATM   33  C   UNL     1     -11.631  13.448  69.983  1.00  0.00    -0.219 C  
HETATM   34  C   UNL     1     -10.798  13.593  71.225  1.00  0.00     3.248 C  
HETATM   35  C   UNL     1     -10.575   9.454  69.631  1.00  0.00    -0.225 C  
HETATM   36  C   UNL     1     -12.273  11.940  69.934  1.00  0.00    -0.199 C  
HETATM   37  C   UNL     1     -11.623  10.468  70.473  1.00  0.00    -0.350 C  
HETATM   38  O   UNL     1     -13.267  11.802  68.908  1.00  0.00     1.559 OA 
HETATM   39  H   UNL     1     -13.639  10.928  68.880  1.00  0.00     0.000 HD 
BRANCH  13  40
HETATM   40  O   UNL     1      -8.382  12.451  66.767  1.00  0.00    -0.155 OA 
BRANCH  40  41
HETATM   41  C   UNL     1      -9.484  12.565  65.796  1.00  0.00    -0.059 C  
HETATM   42  C   UNL     1     -11.161  14.117  64.493  1.00  0.00    -0.337 C  
HETATM   43  C   UNL     1     -11.281  10.496  63.287  1.00  0.00     1.769 C  
HETATM   44  O   UNL     1      -9.226  15.127  65.250  1.00  0.00    -0.219 OA 
HETATM   45  C   UNL     1     -11.462  12.947  63.582  1.00  0.00    -0.506 C  
HETATM   46  H   UNL     1      -9.336  15.896  64.702  1.00  0.00     0.000 HD 
HETATM   47  C   UNL     1     -11.103  11.609  64.304  1.00  0.00    -0.338 C  
HETATM   48  C   UNL     1      -9.670  13.868  64.865  1.00  0.00     0.220 C  
HETATM   49  O   UNL     1      -9.764  11.480  64.888  1.00  0.00    -0.245 OA 
BRANCH  42  50
HETATM   50  N   UNL     1     -11.501  15.499  64.010  1.00  0.00    -0.161 NA 
HETATM   51  C   UNL     1     -12.884  15.793  63.644  1.00  0.00     1.874 C  
HETATM   52  C   UNL     1     -10.957  16.588  64.820  1.00  0.00    -0.177 C  
ENDBRANCH  42  50
ENDBRANCH  40  41
ENDBRANCH  13  40
BRANCH  35  53
HETATM   53  C   UNL     1     -10.347   9.994  68.265  1.00  0.00    -0.224 C  
HETATM   54  C   UNL     1     -10.756   8.792  67.428  1.00  0.00    -0.216 C  
ENDBRANCH  35  53
ENDBRANCH  11  12
ENDBRANCH   1  11
BRANCH   4  55
HETATM   55  O   UNL     1      -6.299   8.712  62.827  1.00  0.00    -0.090 OA 
HETATM   56  C   UNL     1      -6.019  10.104  62.739  1.00  0.00    -0.129 C  
ENDBRANCH   4  55
TORSDOF 7
ENDMDL
MODEL       51
REMARK 921   NORMALIZED FREE ENERGY PREDICTED BY IDOCK:    9.20 KCAL/MOL
REMARK 922        TOTAL FREE ENERGY PREDICTED BY IDOCK:   10.27 KCAL/MOL
REMARK 923 INTER-LIGAND FREE ENERGY PREDICTED BY IDOCK:    2.88 KCAL/MOL
REMARK 924 INTRA-LIGAND FREE ENERGY PREDICTED BY IDOCK:    7.39 KCAL/MOL
REMARK 927      BINDING AFFINITY PREDICTED BY RF-SCORE:    0.00 PKD
ROOT
HETATM    1  C   UNL     1      -9.532  15.154  66.273  1.00  0.00    -0.309 C  
HETATM    2  O   UNL     1      -8.606  19.426  66.841  1.00  0.00    -0.277 OA 
HETATM    3  C   UNL     1     -10.643  16.205  66.709  1.00  0.00    -0.277 C  
HETATM    4  C   UNL     1     -10.196  17.593  67.313  1.00  0.00    -0.343 C  
HETATM    5  C   UNL     1      -6.661  17.592  65.811  1.00  0.00    -0.164 C  
HETATM    6  C   UNL     1      -9.012  18.097  66.469  1.00  0.00    -0.275 C  
HETATM    7  C   UNL     1     -11.348  18.648  67.251  1.00  0.00     0.532 C  
HETATM    8  O   UNL     1      -8.255  15.769  65.961  1.00  0.00    -0.049 OA 
HETATM    9  H   UNL     1      -7.876  19.737  66.319  1.00  0.00     0.000 HD 
HETATM   10  C   UNL     1      -7.899  17.043  66.540  1.00  0.00    -0.296 C  
ENDROOT
BRANCH   1  11
HETATM   11  O   UNL     1      -9.617  13.755  66.939  1.00  0.00    -0.244 OA 
BRANCH  11  12
HETATM   12  C   UNL     1     -10.529  12.749  66.329  1.00  0.00    -0.257 C  
HETATM   13  C   UNL     1      -8.258  11.156  65.860  1.00  0.00    -0.048 C  
HETATM   14  C   UNL     1     -12.014  10.359  66.327  1.00  0.00     3.089 C  
HETATM   15  C   UNL     1      -9.635  11.955  65.319  1.00  0.00    -0.156 C  
HETATM   16  O   UNL     1     -12.482  12.357  69.343  1.00  0.00     0.011 OA 
HETATM   17  C   UNL     1     -11.815  11.730  67.040  1.00  0.00    -0.126 C  
HETATM   18  C   UNL     1     -10.556  11.522  64.137  1.00  0.00    -0.420 C  
HETATM   19  C   UNL     1      -8.137   9.665  65.200  1.00  0.00    -0.124 C  
HETATM   20  O   UNL     1      -9.207   8.748  65.468  1.00  0.00    -0.203 OA 
HETATM   21  C   UNL     1      -8.113   9.885  63.653  1.00  0.00    -0.153 C  
HETATM   22  C   UNL     1     -12.165  11.462  68.551  1.00  0.00     0.098 C  
HETATM   23  C   UNL     1      -6.822   9.045  65.690  1.00  0.00    -0.076 C  
HETATM   24  C   UNL     1      -9.293   7.599  64.602  1.00  0.00     1.601 C  
HETATM   25  C   UNL     1      -6.702   7.731  66.515  1.00  0.00    -0.062 C  
HETATM   26  H   UNL     1     -12.801   7.732  69.336  1.00  0.00     0.000 HD 
HETATM   27  O   UNL     1     -12.225  10.104  68.960  1.00  0.00     0.075 OA 
HETATM   28  C   UNL     1      -7.293   7.475  67.978  1.00  0.00    -0.096 C  
HETATM   29  C   UNL     1      -5.125   7.650  66.611  1.00  0.00    -0.024 C  
HETATM   30  O   UNL     1     -11.952   7.331  69.191  1.00  0.00     0.688 OA 
HETATM   31  C   UNL     1     -11.359   7.495  71.515  1.00  0.00    -0.283 C  
HETATM   32  O   UNL     1      -6.466   7.511  68.910  1.00  0.00    -0.041 OA 
HETATM   33  C   UNL     1      -8.726   6.875  68.400  1.00  0.00    -0.124 C  
HETATM   34  C   UNL     1      -9.750   6.466  67.379  1.00  0.00    -0.141 C  
HETATM   35  C   UNL     1     -11.351   9.612  70.073  1.00  0.00    -0.195 C  
HETATM   36  C   UNL     1      -9.480   7.250  69.806  1.00  0.00    -0.149 C  
HETATM   37  C   UNL     1     -10.997   7.967  70.064  1.00  0.00    -0.207 C  
HETATM   38  O   UNL     1      -8.559   7.419  70.893  1.00  0.00    -0.132 OA 
HETATM   39  H   UNL     1      -8.996   7.636  71.708  1.00  0.00     0.000 HD 
BRANCH  13  40
HETATM   40  O   UNL     1      -8.011  11.363  67.286  1.00  0.00    -0.134 OA 
BRANCH  40  41
HETATM   41  C   UNL     1      -8.080  12.397  68.332  1.00  0.00    -0.143 C  
HETATM   42  C   UNL     1      -6.809  14.135  69.844  1.00  0.00     0.025 C  
HETATM   43  C   UNL     1     -10.604  14.437  70.142  1.00  0.00     0.305 C  
HETATM   44  O   UNL     1      -5.746  13.528  67.885  1.00  0.00    -0.115 OA 
HETATM   45  C   UNL     1      -8.150  14.753  70.178  1.00  0.00     0.670 C  
HETATM   46  H   UNL     1      -5.131  14.251  67.919  1.00  0.00     0.000 HD 
HETATM   47  C   UNL     1      -9.287  13.710  69.939  1.00  0.00     2.102 C  
HETATM   48  C   UNL     1      -7.037  13.625  68.391  1.00  0.00    -0.107 C  
HETATM   49  O   UNL     1      -9.339  13.031  68.640  1.00  0.00    -0.123 OA 
BRANCH  42  50
HETATM   50  N   UNL     1      -5.572  14.956  70.071  1.00  0.00    -0.113 NA 
HETATM   51  C   UNL     1      -5.270  16.041  69.140  1.00  0.00    -0.109 C  
HETATM   52  C   UNL     1      -5.375  15.410  71.447  1.00  0.00     0.007 C  
ENDBRANCH  42  50
ENDBRANCH  40  41
ENDBRANCH  13  40
BRANCH  35  53
HETATM   53  C   UNL     1     -10.099  10.395  69.901  1.00  0.00    -0.144 C  
HETATM   54  C   UNL     1      -9.491   9.674  68.708  1.00  0.00    -0.148 C  
ENDBRANCH  35  53
ENDBRANCH  11  12
ENDBRANCH   1  11
BRANCH   4  55
HETATM   55  O   UNL     1      -9.854  17.338  68.689  1.00  0.00    -0.283 OA 
HETATM   56  C   UNL     1      -9.255  18.383  69.445  1.00  0.00     0.348 C  
ENDBRANCH   4  55
TORSDOF 7
ENDMDL
MODEL       52
REMARK 921   NORMALIZED FREE ENERGY PREDICTED BY IDOCK:    9.57 KCAL/MOL
REMARK 922        TOTAL FREE ENERGY PREDICTED BY IDOCK:   10.80 KCAL/MOL
REMARK 923 INTER-LIGAND FREE ENERGY PREDICTED BY IDOCK:    9.26 KCAL/MOL
REMARK 924 INTRA-LIGAND FREE ENERGY PREDICTED BY IDOCK:    1.54 KCAL/MOL
REMARK 927      BINDING AFFINITY PREDICTED BY RF-SCORE:    0.00 PKD
ROOT
HETATM    1  C   UNL     1     -12.416  11.382  68.773  1.00  0.00     0.466 C  
HETATM    2  O   UNL     1     -12.618  15.547  70.202  1.00  0.00    -0.537 OA 
HETATM    3  C   UNL     1     -12.744  11.737  70.289  1.00  0.00    -0.005 C  
HETATM    4  C   UNL     1     -12.381  13.171  70.840  1.00  0.00    -0.307 C  
HETATM    5  C   UNL     1     -12.279  14.928  67.426  1.00  0.00     0.129 C  
HETATM    6  C   UNL     1     -12.774  14.188  69.755  1.00  0.00     0.050 C  
HETATM    7  C   UNL     1     -13.166  13.500  72.152  1.00  0.00    -0.551 C  
HETATM    8  O   UNL     1     -12.331  12.552  67.918  1.00  0.00    -0.245 OA 
HETATM    9  H   UNL     1     -12.860  16.175  69.533  1.00  0.00     0.000 HD 
HETATM   10  C   UNL     1     -11.998  13.841  68.477  1.00  0.00    -0.367 C  
ENDROOT
BRANCH   1  11
HETATM   11  O   UNL     1     -11.513  10.142  68.542  1.00  0.00    -0.170 OA 
BRANCH  11  12
HETATM   12  C   UNL     1     -11.936   8.850  69.149  1.00  0.00     1.634 C  
HETATM   13  C   UNL     1      -9.999   7.599  67.538  1.00  0.00    -0.178 C  
HETATM   14  C   UNL     1     -11.653   6.674  70.910  1.00  0.00    -0.416 C  
HETATM   15  C   UNL     1     -11.583   7.766  68.077  1.00  0.00     1.400 C  
HETATM   16  O   UNL     1     -11.151   9.913  72.512  1.00  0.00     1.589 OA 
HETATM   17  C   UNL     1     -11.796   8.223  70.818  1.00  0.00    -0.172 C  
HETATM   18  C   UNL     1     -12.643   6.630  68.209  1.00  0.00     5.890 C  
HETATM   19  C   UNL     1      -9.564   6.026  67.445  1.00  0.00    -0.112 C  
HETATM   20  O   UNL     1      -9.606   5.268  68.663  1.00  0.00    -0.122 OA 
HETATM   21  C   UNL     1     -10.585   5.359  66.469  1.00  0.00    -0.353 C  
HETATM   22  C   UNL     1     -10.975   8.784  72.037  1.00  0.00    -0.368 C  
HETATM   23  C   UNL     1      -8.140   5.969  66.879  1.00  0.00    -0.105 C  
HETATM   24  C   UNL     1      -9.596   3.834  68.522  1.00  0.00    -0.105 C  
HETATM   25  C   UNL     1      -6.907   5.358  67.606  1.00  0.00    -0.060 C  
HETATM   26  H   UNL     1      -9.015   6.057  73.949  1.00  0.00     0.000 HD 
HETATM   27  O   UNL     1     -10.081   7.883  72.673  1.00  0.00    -0.229 OA 
HETATM   28  C   UNL     1      -6.271   5.870  68.981  1.00  0.00    -0.036 C  
HETATM   29  C   UNL     1      -5.828   5.565  66.469  1.00  0.00    -0.018 C  
HETATM   30  O   UNL     1      -8.371   5.765  73.314  1.00  0.00    -0.116 OA 
HETATM   31  C   UNL     1      -6.695   7.263  74.169  1.00  0.00    -0.083 C  
HETATM   32  O   UNL     1      -5.217   6.528  68.878  1.00  0.00    -0.011 OA 
HETATM   33  C   UNL     1      -6.607   5.407  70.486  1.00  0.00    -0.042 C  
HETATM   34  C   UNL     1      -7.647   4.365  70.786  1.00  0.00    -0.052 C  
HETATM   35  C   UNL     1      -8.623   8.213  72.776  1.00  0.00    -0.206 C  
HETATM   36  C   UNL     1      -6.425   6.384  71.790  1.00  0.00    -0.050 C  
HETATM   37  C   UNL     1      -7.576   6.903  72.923  1.00  0.00    -0.085 C  
HETATM   38  O   UNL     1      -5.287   7.250  71.670  1.00  0.00    -0.034 OA 
HETATM   39  H   UNL     1      -5.182   7.816  72.426  1.00  0.00     0.000 HD 
BRANCH  13  40
HETATM   40  O   UNL     1      -9.097   8.588  68.126  1.00  0.00    -0.138 OA 
BRANCH  40  41
HETATM   41  C   UNL     1      -8.688   9.998  67.998  1.00  0.00    -0.125 C  
HETATM   42  C   UNL     1      -7.043  11.921  68.719  1.00  0.00    -0.111 C  
HETATM   43  C   UNL     1      -9.340  12.958  65.850  1.00  0.00     0.028 C  
HETATM   44  O   UNL     1      -6.258   9.764  68.984  1.00  0.00    -0.041 OA 
HETATM   45  C   UNL     1      -7.551  12.730  67.545  1.00  0.00    -0.162 C  
HETATM   46  H   UNL     1      -5.355  10.038  69.094  1.00  0.00     0.000 HD 
HETATM   47  C   UNL     1      -8.962  12.214  67.118  1.00  0.00    -0.189 C  
HETATM   48  C   UNL     1      -7.156  10.463  68.184  1.00  0.00    -0.082 C  
HETATM   49  O   UNL     1      -9.124  10.778  66.866  1.00  0.00    -0.147 OA 
BRANCH  42  50
HETATM   50  N   UNL     1      -5.725  12.303  69.328  1.00  0.00    -0.070 NA 
HETATM   51  C   UNL     1      -5.224  13.661  69.122  1.00  0.00    -0.073 C  
HETATM   52  C   UNL     1      -5.554  11.915  70.728  1.00  0.00    -0.118 C  
ENDBRANCH  42  50
ENDBRANCH  40  41
ENDBRANCH  13  40
BRANCH  35  53
HETATM   53  C   UNL     1      -8.342   8.938  71.509  1.00  0.00    -0.163 C  
HETATM   54  C   UNL     1      -6.903   9.364  71.755  1.00  0.00     0.267 C  
ENDBRANCH  35  53
ENDBRANCH  11  12
ENDBRANCH   1  11
BRANCH   4  55
HETATM   55  O   UNL     1     -10.968  13.144  71.120  1.00  0.00     2.415 OA 
HETATM   56  C   UNL     1     -10.109  13.983  70.358  1.00  0.00     1.945 C  
ENDBRANCH   4  55
TORSDOF 7
ENDMDL
MODEL       53
REMARK 921   NORMALIZED FREE ENERGY PREDICTED BY IDOCK:    9.58 KCAL/MOL
REMARK 922        TOTAL FREE ENERGY PREDICTED BY IDOCK:   10.82 KCAL/MOL
REMARK 923 INTER-LIGAND FREE ENERGY PREDICTED BY IDOCK:    7.49 KCAL/MOL
REMARK 924 INTRA-LIGAND FREE ENERGY PREDICTED BY IDOCK:    3.33 KCAL/MOL
REMARK 927      BINDING AFFINITY PREDICTED BY RF-SCORE:    0.00 PKD
ROOT
HETATM    1  C   UNL     1      -7.919   6.943  67.310  1.00  0.00    -0.114 C  
HETATM    2  O   UNL     1     -10.398   3.404  66.441  1.00  0.00     0.074 OA 
HETATM    3  C   UNL     1      -8.474   6.001  68.464  1.00  0.00    -0.113 C  
HETATM    4  C   UNL     1      -9.683   5.035  68.155  1.00  0.00    -0.148 C  
HETATM    5  C   UNL     1      -9.195   4.943  64.347  1.00  0.00     0.016 C  
HETATM    6  C   UNL     1      -9.427   4.413  66.771  1.00  0.00    -0.180 C  
HETATM    7  C   UNL     1      -9.792   3.889  69.214  1.00  0.00    -0.036 C  
HETATM    8  O   UNL     1      -8.199   6.440  65.977  1.00  0.00    -0.114 OA 
HETATM    9  H   UNL     1     -10.240   3.020  65.587  1.00  0.00     0.000 HD 
HETATM   10  C   UNL     1      -9.317   5.555  65.753  1.00  0.00    -0.091 C  
ENDROOT
BRANCH   1  11
HETATM   11  O   UNL     1      -7.907   8.464  67.616  1.00  0.00    -0.104 OA 
BRANCH  11  12
HETATM   12  C   UNL     1      -8.187   9.401  66.493  1.00  0.00    -0.115 C  
HETATM   13  C   UNL     1     -10.590  10.056  67.803  1.00  0.00    -0.261 C  
HETATM   14  C   UNL     1      -8.324  11.946  65.302  1.00  0.00     0.991 C  
HETATM   15  C   UNL     1      -9.747   9.522  66.449  1.00  0.00    -0.295 C  
HETATM   16  O   UNL     1      -5.182  11.328  67.050  1.00  0.00    -0.052 OA 
HETATM   17  C   UNL     1      -7.377  10.910  65.979  1.00  0.00    -0.081 C  
HETATM   18  C   UNL     1     -10.146   9.747  64.959  1.00  0.00     0.026 C  
HETATM   19  C   UNL     1     -11.751  11.132  67.395  1.00  0.00     0.059 C  
HETATM   20  O   UNL     1     -11.319  12.338  66.747  1.00  0.00    -0.298 OA 
HETATM   21  C   UNL     1     -12.682  10.390  66.384  1.00  0.00     8.372 C  
HETATM   22  C   UNL     1      -6.289  11.771  66.721  1.00  0.00    -0.083 C  
HETATM   23  C   UNL     1     -12.510  11.506  68.674  1.00  0.00     0.530 C  
HETATM   24  C   UNL     1     -12.338  13.092  66.060  1.00  0.00    -0.319 C  
HETATM   25  C   UNL     1     -12.619  12.940  69.268  1.00  0.00     0.490 C  
HETATM   26  H   UNL     1      -7.020  15.564  66.637  1.00  0.00     0.000 HD 
HETATM   27  O   UNL     1      -6.580  13.148  66.901  1.00  0.00     0.018 OA 
HETATM   28  C   UNL     1     -11.408  13.839  69.800  1.00  0.00    -0.134 C  
HETATM   29  C   UNL     1     -13.561  12.622  70.498  1.00  0.00     1.640 C  
HETATM   30  O   UNL     1      -7.813  15.646  67.154  1.00  0.00    -0.178 OA 
HETATM   31  C   UNL     1      -6.582  16.147  69.158  1.00  0.00    -0.176 C  
HETATM   32  O   UNL     1     -11.290  13.908  71.040  1.00  0.00     0.261 OA 
HETATM   33  C   UNL     1     -10.514  14.910  68.998  1.00  0.00    -0.247 C  
HETATM   34  C   UNL     1     -10.733  15.199  67.540  1.00  0.00    -0.284 C  
HETATM   35  C   UNL     1      -6.603  13.742  68.276  1.00  0.00    -0.109 C  
HETATM   36  C   UNL     1      -8.964  15.266  69.395  1.00  0.00    -0.225 C  
HETATM   37  C   UNL     1      -7.548  15.121  68.471  1.00  0.00    -0.120 C  
HETATM   38  O   UNL     1      -8.744  15.245  70.813  1.00  0.00     0.655 OA 
HETATM   39  H   UNL     1      -7.846  15.451  71.043  1.00  0.00     0.000 HD 
BRANCH  13  40
HETATM   40  O   UNL     1      -9.716  10.300  68.949  1.00  0.00    -0.171 OA 
BRANCH  40  41
HETATM   41  C   UNL     1      -9.133   9.625  70.122  1.00  0.00    -0.240 C  
HETATM   42  C   UNL     1      -9.519   8.212  72.307  1.00  0.00    -0.245 C  
HETATM   43  C   UNL     1      -5.818   8.585  71.439  1.00  0.00    -0.040 C  
HETATM   44  O   UNL     1     -11.178   8.074  70.706  1.00  0.00    -0.261 OA 
HETATM   45  C   UNL     1      -8.033   7.923  72.325  1.00  0.00    -0.151 C  
HETATM   46  H   UNL     1     -11.579   7.306  71.095  1.00  0.00     0.000 HD 
HETATM   47  C   UNL     1      -7.272   9.017  71.510  1.00  0.00    -0.007 C  
HETATM   48  C   UNL     1      -9.812   8.321  70.782  1.00  0.00    -0.179 C  
HETATM   49  O   UNL     1      -7.728   9.302  70.145  1.00  0.00    -0.088 OA 
BRANCH  42  50
HETATM   50  N   UNL     1     -10.427   7.311  73.093  1.00  0.00    -0.302 NA 
HETATM   51  C   UNL     1     -11.838   7.238  72.719  1.00  0.00    -0.018 C  
HETATM   52  C   UNL     1      -9.906   5.967  73.337  1.00  0.00    -0.163 C  
ENDBRANCH  42  50
ENDBRANCH  40  41
ENDBRANCH  13  40
BRANCH  35  53
HETATM   53  C   UNL     1      -7.142  12.642  69.119  1.00  0.00     0.028 C  
HETATM   54  C   UNL     1      -6.509  12.992  70.457  1.00  0.00     0.508 C  
ENDBRANCH  35  53
ENDBRANCH  11  12
ENDBRANCH   1  11
BRANCH   4  55
HETATM   55  O   UNL     1     -10.869   5.851  68.209  1.00  0.00    -0.270 OA 
HETATM   56  C   UNL     1     -10.774   7.148  68.784  1.00  0.00    -0.169 C  
ENDBRANCH   4  55
TORSDOF 7
ENDMDL
MODEL       54
REMARK 921   NORMALIZED FREE ENERGY PREDICTED BY IDOCK:    9.71 KCAL/MOL
REMARK 922        TOTAL FREE ENERGY PREDICTED BY IDOCK:   10.99 KCAL/MOL
REMARK 923 INTER-LIGAND FREE ENERGY PREDICTED BY IDOCK:    3.55 KCAL/MOL
REMARK 924 INTRA-LIGAND FREE ENERGY PREDICTED BY IDOCK:    7.44 KCAL/MOL
REMARK 927      BINDING AFFINITY PREDICTED BY RF-SCORE:    0.00 PKD
ROOT
HETATM    1  C   UNL     1      -9.281   5.911  68.719  1.00  0.00    -0.115 C  
HETATM    2  O   UNL     1      -6.661   2.467  69.558  1.00  0.00    -0.032 OA 
HETATM    3  C   UNL     1      -8.766   4.945  67.566  1.00  0.00    -0.103 C  
HETATM    4  C   UNL     1      -7.515   4.021  67.836  1.00  0.00    -0.067 C  
HETATM    5  C   UNL     1      -7.785   4.046  71.667  1.00  0.00    -0.065 C  
HETATM    6  C   UNL     1      -7.676   3.440  69.252  1.00  0.00    -0.051 C  
HETATM    7  C   UNL     1      -7.436   2.843  66.810  1.00  0.00    -0.071 C  
HETATM    8  O   UNL     1      -8.912   5.461  70.049  1.00  0.00    -0.125 OA 
HETATM    9  H   UNL     1      -6.760   2.108  70.432  1.00  0.00     0.000 HD 
HETATM   10  C   UNL     1      -7.759   4.613  70.237  1.00  0.00    -0.057 C  
ENDROOT
BRANCH   1  11
HETATM   11  O   UNL     1      -9.351   7.421  68.365  1.00  0.00    -0.144 OA 
BRANCH  11  12
HETATM   12  C   UNL     1      -8.209   8.012  67.616  1.00  0.00    -0.124 C  
HETATM   13  C   UNL     1     -10.104   9.178  65.894  1.00  0.00    -0.048 C  
HETATM   14  C   UNL     1      -6.484  10.112  66.885  1.00  0.00    -0.070 C  
HETATM   15  C   UNL     1      -8.748   8.221  66.161  1.00  0.00    -0.174 C  
HETATM   16  O   UNL     1      -6.957   9.809  70.489  1.00  0.00    -0.120 OA 
HETATM   17  C   UNL     1      -7.004   9.251  68.075  1.00  0.00    -0.076 C  
HETATM   18  C   UNL     1      -7.538   8.036  65.195  1.00  0.00    -0.098 C  
HETATM   19  C   UNL     1      -9.892  10.168  64.611  1.00  0.00    -0.291 C  
HETATM   20  O   UNL     1      -8.807  11.105  64.687  1.00  0.00    -0.082 OA 
HETATM   21  C   UNL     1      -9.591   9.232  63.397  1.00  0.00     1.055 C  
HETATM   22  C   UNL     1      -6.976  10.213  69.320  1.00  0.00    -0.068 C  
HETATM   23  C   UNL     1     -11.198  10.944  64.400  1.00  0.00     0.331 C  
HETATM   24  C   UNL     1      -8.388  11.697  63.441  1.00  0.00     0.962 C  
HETATM   25  C   UNL     1     -11.342  12.493  64.457  1.00  0.00    -0.379 C  
HETATM   26  H   UNL     1      -6.088  13.863  68.415  1.00  0.00     0.000 HD 
HETATM   27  O   UNL     1      -6.847  11.601  69.052  1.00  0.00    -0.090 OA 
HETATM   28  C   UNL     1     -11.072  13.422  65.730  1.00  0.00    -0.282 C  
HETATM   29  C   UNL     1     -12.878  12.606  64.096  1.00  0.00    -0.279 C  
HETATM   30  O   UNL     1      -6.827  14.144  67.888  1.00  0.00    -0.130 OA 
HETATM   31  C   UNL     1      -7.947  15.114  69.781  1.00  0.00    -0.019 C  
HETATM   32  O   UNL     1     -12.087  13.835  66.324  1.00  0.00    -0.401 OA 
HETATM   33  C   UNL     1      -9.710  14.154  66.177  1.00  0.00    -0.310 C  
HETATM   34  C   UNL     1      -8.439  14.026  65.385  1.00  0.00     3.126 C  
HETATM   35  C   UNL     1      -7.884  12.564  69.542  1.00  0.00     0.968 C  
HETATM   36  C   UNL     1      -9.345  14.503  67.737  1.00  0.00    -0.198 C  
HETATM   37  C   UNL     1      -8.025  14.002  68.678  1.00  0.00    -0.122 C  
HETATM   38  O   UNL     1     -10.503  14.874  68.499  1.00  0.00    -0.231 OA 
HETATM   39  H   UNL     1     -10.291  15.077  69.403  1.00  0.00     0.000 HD 
BRANCH  13  40
HETATM   40  O   UNL     1     -10.692   9.681  67.135  1.00  0.00    -0.250 OA 
BRANCH  40  41
HETATM   41  C   UNL     1     -11.103   9.241  68.479  1.00  0.00     0.120 C  
HETATM   42  C   UNL     1     -11.885   9.900  70.903  1.00  0.00    -0.356 C  
HETATM   43  C   UNL     1     -12.082   6.139  70.274  1.00  0.00     0.463 C  
HETATM   44  O   UNL     1     -12.265  11.472  69.254  1.00  0.00    -0.283 OA 
HETATM   45  C   UNL     1     -12.295   8.458  71.111  1.00  0.00    -0.219 C  
HETATM   46  H   UNL     1     -12.872  11.976  69.785  1.00  0.00     0.000 HD 
HETATM   47  C   UNL     1     -11.514   7.538  70.120  1.00  0.00    -0.095 C  
HETATM   48  C   UNL     1     -12.133  10.094  69.379  1.00  0.00     0.203 C  
HETATM   49  O   UNL     1     -11.538   7.883  68.694  1.00  0.00     0.834 OA 
BRANCH  42  50
HETATM   50  N   UNL     1     -12.474  10.943  71.809  1.00  0.00    -0.232 NA 
HETATM   51  C   UNL     1     -12.975  12.182  71.218  1.00  0.00    -0.207 C  
HETATM   52  C   UNL     1     -13.428  10.439  72.795  1.00  0.00     0.944 C  
ENDBRANCH  42  50
ENDBRANCH  40  41
ENDBRANCH  13  40
BRANCH  35  53
HETATM   53  C   UNL     1      -9.150  11.792  69.438  1.00  0.00     0.826 C  
HETATM   54  C   UNL     1      -9.240  11.622  67.929  1.00  0.00    -0.171 C  
ENDBRANCH  35  53
ENDBRANCH  11  12
ENDBRANCH   1  11
BRANCH   4  55
HETATM   55  O   UNL     1      -6.357   4.864  67.688  1.00  0.00    -0.038 OA 
HETATM   56  C   UNL     1      -5.138   4.457  68.296  1.00  0.00    -0.007 C  
ENDBRANCH   4  55
TORSDOF 7
ENDMDL
MODEL       55
REMARK 921   NORMALIZED FREE ENERGY PREDICTED BY IDOCK:    9.85 KCAL/MOL
REMARK 922        TOTAL FREE ENERGY PREDICTED BY IDOCK:   11.20 KCAL/MOL
REMARK 923 INTER-LIGAND FREE ENERGY PREDICTED BY IDOCK:    5.89 KCAL/MOL
REMARK 924 INTRA-LIGAND FREE ENERGY PREDICTED BY IDOCK:    5.31 KCAL/MOL
REMARK 927      BINDING AFFINITY PREDICTED BY RF-SCORE:    0.00 PKD
ROOT
HETATM    1  C   UNL     1      -9.264  15.498  66.003  1.00  0.00    -0.326 C  
HETATM    2  O   UNL     1      -7.891  19.631  66.688  1.00  0.00    -0.260 OA 
HETATM    3  C   UNL     1     -10.276  16.724  66.057  1.00  0.00    -0.361 C  
HETATM    4  C   UNL     1      -9.813  18.078  66.723  1.00  0.00    -0.335 C  
HETATM    5  C   UNL     1      -6.039  17.473  66.340  1.00  0.00    -0.259 C  
HETATM    6  C   UNL     1      -8.373  18.347  66.253  1.00  0.00    -0.207 C  
HETATM    7  C   UNL     1     -10.721  19.275  66.288  1.00  0.00    -0.477 C  
HETATM    8  O   UNL     1      -7.872  15.905  66.066  1.00  0.00     0.198 OA 
HETATM    9  H   UNL     1      -7.002  19.797  66.397  1.00  0.00     0.000 HD 
HETATM   10  C   UNL     1      -7.505  17.157  66.684  1.00  0.00    -0.258 C  
ENDROOT
BRANCH   1  11
HETATM   11  O   UNL     1      -9.753  14.179  66.656  1.00  0.00    -0.268 OA 
BRANCH  11  12
HETATM   12  C   UNL     1      -9.443  12.901  65.958  1.00  0.00    -0.103 C  
HETATM   13  C   UNL     1      -7.352  12.542  67.805  1.00  0.00    -0.124 C  
HETATM   14  C   UNL     1      -9.474  10.101  65.683  1.00  0.00    -0.275 C  
HETATM   15  C   UNL     1      -7.921  12.654  66.227  1.00  0.00     0.835 C  
HETATM   16  O   UNL     1     -12.721  11.509  66.568  1.00  0.00     1.833 OA 
HETATM   17  C   UNL     1     -10.363  11.374  65.819  1.00  0.00    -0.304 C  
HETATM   18  C   UNL     1      -7.351  11.911  64.980  1.00  0.00     2.754 C  
HETATM   19  C   UNL     1      -6.295  11.305  67.970  1.00  0.00    -0.053 C  
HETATM   20  O   UNL     1      -6.785   9.989  67.676  1.00  0.00    -0.073 OA 
HETATM   21  C   UNL     1      -5.143  11.592  66.955  1.00  0.00    -0.105 C  
HETATM   22  C   UNL     1     -11.646  10.898  66.596  1.00  0.00     0.605 C  
HETATM   23  C   UNL     1      -5.776  11.326  69.414  1.00  0.00    -0.049 C  
HETATM   24  C   UNL     1      -5.787   8.973  67.453  1.00  0.00    -0.046 C  
HETATM   25  C   UNL     1      -5.938  10.170  70.443  1.00  0.00    -0.092 C  
HETATM   26  H   UNL     1     -11.409   7.252  67.853  1.00  0.00     0.000 HD 
HETATM   27  O   UNL     1     -11.564   9.643  67.252  1.00  0.00     0.495 OA 
HETATM   28  C   UNL     1      -7.317   9.597  71.015  1.00  0.00     0.143 C  
HETATM   29  C   UNL     1      -5.143  10.809  71.652  1.00  0.00    -0.032 C  
HETATM   30  O   UNL     1     -10.713   7.289  68.500  1.00  0.00    -0.194 OA 
HETATM   31  C   UNL     1     -12.266   7.585  70.312  1.00  0.00     0.271 C  
HETATM   32  O   UNL     1      -7.614   9.958  72.171  1.00  0.00     1.124 OA 
HETATM   33  C   UNL     1      -8.222   8.391  70.453  1.00  0.00    -0.115 C  
HETATM   34  C   UNL     1      -7.842   7.614  69.225  1.00  0.00    -0.121 C  
HETATM   35  C   UNL     1     -11.810   9.545  68.727  1.00  0.00     1.030 C  
HETATM   36  C   UNL     1      -9.845   8.309  70.667  1.00  0.00    -0.182 C  
HETATM   37  C   UNL     1     -11.088   8.243  69.513  1.00  0.00     0.051 C  
HETATM   38  O   UNL     1     -10.256   8.822  71.943  1.00  0.00    -0.301 OA 
HETATM   39  H   UNL     1     -11.197   8.774  72.067  1.00  0.00     0.000 HD 
BRANCH  13  40
HETATM   40  O   UNL     1      -8.401  12.764  68.799  1.00  0.00    -0.020 OA 
BRANCH  40  41
HETATM   41  C   UNL     1      -9.642  13.527  69.018  1.00  0.00     0.266 C  
HETATM   42  C   UNL     1     -11.086  15.032  70.621  1.00  0.00    -0.203 C  
HETATM   43  C   UNL     1     -12.568  14.792  67.110  1.00  0.00     0.688 C  
HETATM   44  O   UNL     1      -8.812  15.006  71.031  1.00  0.00     1.196 OA 
HETATM   45  C   UNL     1     -11.946  15.392  69.429  1.00  0.00    -0.351 C  
HETATM   46  H   UNL     1      -8.839  15.775  71.590  1.00  0.00     0.000 HD 
HETATM   47  C   UNL     1     -11.808  14.295  68.326  1.00  0.00    -0.335 C  
HETATM   48  C   UNL     1      -9.688  14.830  69.965  1.00  0.00     0.415 C  
HETATM   49  O   UNL     1     -10.458  13.918  67.895  1.00  0.00    -0.236 OA 
BRANCH  42  50
HETATM   50  N   UNL     1     -11.129  15.929  71.825  1.00  0.00    -0.054 NA 
HETATM   51  C   UNL     1     -11.781  17.231  71.706  1.00  0.00     1.709 C  
HETATM   52  C   UNL     1     -11.539  15.277  73.068  1.00  0.00    -0.235 C  
ENDBRANCH  42  50
ENDBRANCH  40  41
ENDBRANCH  13  40
BRANCH  35  53
HETATM   53  C   UNL     1     -11.255  10.819  69.255  1.00  0.00    -0.333 C  
HETATM   54  C   UNL     1     -12.303  11.155  70.305  1.00  0.00    -0.397 C  
ENDBRANCH  35  53
ENDBRANCH  11  12
ENDBRANCH   1  11
BRANCH   4  55
HETATM   55  O   UNL     1      -9.928  17.881  68.146  1.00  0.00    -0.311 OA 
HETATM   56  C   UNL     1     -10.013  19.027  68.984  1.00  0.00    -0.328 C  
ENDBRANCH   4  55
TORSDOF 7
ENDMDL
MODEL       56
REMARK 921   NORMALIZED FREE ENERGY PREDICTED BY IDOCK:    9.95 KCAL/MOL
REMARK 922        TOTAL FREE ENERGY PREDICTED BY IDOCK:   11.34 KCAL/MOL
REMARK 923 INTER-LIGAND FREE ENERGY PREDICTED BY IDOCK:    4.63 KCAL/MOL
REMARK 924 INTRA-LIGAND FREE ENERGY PREDICTED BY IDOCK:    6.71 KCAL/MOL
REMARK 927      BINDING AFFINITY PREDICTED BY RF-SCORE:    0.00 PKD
ROOT
HETATM    1  C   UNL     1     -10.910  11.068  70.876  1.00  0.00     1.452 C  
HETATM    2  O   UNL     1     -13.677  14.497  70.724  1.00  0.00    -0.469 OA 
HETATM    3  C   UNL     1     -10.586  12.375  70.029  1.00  0.00     1.289 C  
HETATM    4  C   UNL     1     -11.760  13.362  69.655  1.00  0.00    -0.310 C  
HETATM    5  C   UNL     1     -14.152  12.261  72.451  1.00  0.00     0.364 C  
HETATM    6  C   UNL     1     -12.647  13.508  70.903  1.00  0.00    -0.337 C  
HETATM    7  C   UNL     1     -11.220  14.772  69.247  1.00  0.00    -0.303 C  
HETATM    8  O   UNL     1     -12.117  11.190  71.674  1.00  0.00    -0.047 OA 
HETATM    9  H   UNL     1     -14.225  14.587  71.495  1.00  0.00     0.000 HD 
HETATM   10  C   UNL     1     -13.157  12.113  71.286  1.00  0.00    -0.116 C  
ENDROOT
BRANCH   1  11
HETATM   11  O   UNL     1     -10.497   9.718  70.234  1.00  0.00    -0.251 OA 
BRANCH  11  12
HETATM   12  C   UNL     1     -11.254   9.255  69.039  1.00  0.00     0.165 C  
HETATM   13  C   UNL     1      -9.153  10.273  67.468  1.00  0.00    -0.137 C  
HETATM   14  C   UNL     1     -11.783   7.492  66.911  1.00  0.00     2.469 C  
HETATM   15  C   UNL     1     -10.782  10.192  67.877  1.00  0.00    -0.317 C  
HETATM   16  O   UNL     1     -11.273   5.803  70.104  1.00  0.00    -0.319 OA 
HETATM   17  C   UNL     1     -11.668   7.615  68.460  1.00  0.00     1.478 C  
HETATM   18  C   UNL     1     -11.992  10.361  66.907  1.00  0.00     2.444 C  
HETATM   19  C   UNL     1      -8.944  10.248  65.847  1.00  0.00    -0.158 C  
HETATM   20  O   UNL     1      -9.427   9.091  65.149  1.00  0.00    -0.142 OA 
HETATM   21  C   UNL     1      -9.744  11.471  65.296  1.00  0.00    -0.268 C  
HETATM   22  C   UNL     1     -11.139   6.214  68.945  1.00  0.00    -0.345 C  
HETATM   23  C   UNL     1      -7.443  10.399  65.569  1.00  0.00    -0.142 C  
HETATM   24  C   UNL     1      -9.588   9.229  63.723  1.00  0.00     0.975 C  
HETATM   25  C   UNL     1      -6.559   9.361  64.818  1.00  0.00    -0.079 C  
HETATM   26  H   UNL     1     -10.197   3.846  66.041  1.00  0.00     0.000 HD 
HETATM   27  O   UNL     1     -10.595   5.360  67.951  1.00  0.00    -0.176 OA 
HETATM   28  C   UNL     1      -6.255   7.863  65.285  1.00  0.00    -0.038 C  
HETATM   29  C   UNL     1      -5.192  10.156  64.829  1.00  0.00    -0.092 C  
HETATM   30  O   UNL     1      -9.453   4.278  65.639  1.00  0.00    -0.150 OA 
HETATM   31  C   UNL     1      -7.876   2.989  66.916  1.00  0.00    -0.076 C  
HETATM   32  O   UNL     1      -5.130   7.669  65.785  1.00  0.00    -0.024 OA 
HETATM   33  C   UNL     1      -7.054   6.511  64.931  1.00  0.00    -0.057 C  
HETATM   34  C   UNL     1      -8.277   6.513  64.058  1.00  0.00     0.043 C  
HETATM   35  C   UNL     1      -9.189   4.857  68.076  1.00  0.00    -0.123 C  
HETATM   36  C   UNL     1      -7.096   5.204  65.920  1.00  0.00    -0.068 C  
HETATM   37  C   UNL     1      -8.425   4.431  66.638  1.00  0.00    -0.105 C  
HETATM   38  O   UNL     1      -5.855   5.003  66.612  1.00  0.00    -0.020 OA 
HETATM   39  H   UNL     1      -5.879   4.245  67.185  1.00  0.00     0.000 HD 
BRANCH  13  40
HETATM   40  O   UNL     1      -8.312   9.456  68.342  1.00  0.00    -0.116 OA 
BRANCH  40  41
HETATM   41  C   UNL     1      -8.214   8.976  69.731  1.00  0.00    -0.122 C  
HETATM   42  C   UNL     1      -6.706   8.538  71.842  1.00  0.00    -0.081 C  
HETATM   43  C   UNL     1     -10.418   7.993  72.556  1.00  0.00    -0.383 C  
HETATM   44  O   UNL     1      -5.932  10.129  70.356  1.00  0.00    -0.070 OA 
HETATM   45  C   UNL     1      -7.973   8.369  72.652  1.00  0.00    -0.157 C  
HETATM   46  H   UNL     1      -5.299  10.486  70.969  1.00  0.00     0.000 HD 
HETATM   47  C   UNL     1      -9.159   7.995  71.707  1.00  0.00    -0.158 C  
HETATM   48  C   UNL     1      -7.141   9.581  70.770  1.00  0.00    -0.097 C  
HETATM   49  O   UNL     1      -9.402   8.845  70.537  1.00  0.00    -0.171 OA 
BRANCH  42  50
HETATM   50  N   UNL     1      -5.429   8.835  72.574  1.00  0.00    -0.055 NA 
HETATM   51  C   UNL     1      -5.147  10.215  72.961  1.00  0.00     0.066 C  
HETATM   52  C   UNL     1      -5.131   7.934  73.687  1.00  0.00    -0.041 C  
ENDBRANCH  42  50
ENDBRANCH  40  41
ENDBRANCH  13  40
BRANCH  35  53
HETATM   53  C   UNL     1      -8.469   5.995  68.707  1.00  0.00    -0.113 C  
HETATM   54  C   UNL     1      -7.669   5.254  69.767  1.00  0.00    -0.073 C  
ENDBRANCH  35  53
ENDBRANCH  11  12
ENDBRANCH   1  11
BRANCH   4  55
HETATM   55  O   UNL     1     -12.438  12.765  68.532  1.00  0.00     0.134 OA 
HETATM   56  C   UNL     1     -12.493  13.490  67.309  1.00  0.00     0.054 C  
ENDBRANCH   4  55
TORSDOF 7
ENDMDL
MODEL       57
REMARK 921   NORMALIZED FREE ENERGY PREDICTED BY IDOCK:   10.01 KCAL/MOL
REMARK 922        TOTAL FREE ENERGY PREDICTED BY IDOCK:   11.42 KCAL/MOL
REMARK 923 INTER-LIGAND FREE ENERGY PREDICTED BY IDOCK:    5.88 KCAL/MOL
REMARK 924 INTRA-LIGAND FREE ENERGY PREDICTED BY IDOCK:    5.54 KCAL/MOL
REMARK 927      BINDING AFFINITY PREDICTED BY RF-SCORE:    0.00 PKD
ROOT
HETATM    1  C   UNL     1     -11.070   6.824  70.109  1.00  0.00    -0.315 C  
HETATM    2  O   UNL     1     -11.774   5.883  74.357  1.00  0.00     1.420 OA 
HETATM    3  C   UNL     1      -9.874   6.532  71.116  1.00  0.00    -0.198 C  
HETATM    4  C   UNL     1     -10.132   6.634  72.670  1.00  0.00    -0.174 C  
HETATM    5  C   UNL     1     -13.939   6.155  72.502  1.00  0.00     0.742 C  
HETATM    6  C   UNL     1     -11.494   5.974  72.949  1.00  0.00    -0.147 C  
HETATM    7  C   UNL     1      -9.028   5.888  73.489  1.00  0.00    -0.128 C  
HETATM    8  O   UNL     1     -12.378   6.616  70.701  1.00  0.00    -0.340 OA 
HETATM    9  H   UNL     1     -12.614   5.475  74.530  1.00  0.00     0.000 HD 
HETATM   10  C   UNL     1     -12.557   6.718  72.130  1.00  0.00    -0.124 C  
ENDROOT
BRANCH   1  11
HETATM   11  O   UNL     1     -10.823   7.941  69.061  1.00  0.00    -0.143 OA 
BRANCH  11  12
HETATM   12  C   UNL     1      -9.597   7.849  68.222  1.00  0.00    -0.156 C  
HETATM   13  C   UNL     1     -10.687   9.892  66.623  1.00  0.00    -0.046 C  
HETATM   14  C   UNL     1      -7.071   8.717  67.337  1.00  0.00    -0.079 C  
HETATM   15  C   UNL     1     -10.038   8.351  66.807  1.00  0.00    -0.373 C  
HETATM   16  O   UNL     1      -7.384   8.623  70.971  1.00  0.00    -0.065 OA 
HETATM   17  C   UNL     1      -7.888   8.239  68.575  1.00  0.00    -0.121 C  
HETATM   18  C   UNL     1      -9.185   7.572  65.759  1.00  0.00     0.043 C  
HETATM   19  C   UNL     1     -10.066  10.647  65.313  1.00  0.00    -0.297 C  
HETATM   20  O   UNL     1      -8.646  10.855  65.297  1.00  0.00    -0.172 OA 
HETATM   21  C   UNL     1     -10.397   9.726  64.095  1.00  0.00     1.472 C  
HETATM   22  C   UNL     1      -7.263   9.004  69.800  1.00  0.00    -0.056 C  
HETATM   23  C   UNL     1     -10.764  12.006  65.184  1.00  0.00    -0.332 C  
HETATM   24  C   UNL     1      -8.062  11.163  64.015  1.00  0.00     0.606 C  
HETATM   25  C   UNL     1     -10.052  13.389  65.228  1.00  0.00    -0.266 C  
HETATM   26  H   UNL     1      -4.624  11.634  68.778  1.00  0.00     0.000 HD 
HETATM   27  O   UNL     1      -6.430  10.113  69.502  1.00  0.00    -0.046 OA 
HETATM   28  C   UNL     1      -9.239  13.997  66.464  1.00  0.00    -0.218 C  
HETATM   29  C   UNL     1     -11.309  14.316  64.976  1.00  0.00    -0.365 C  
HETATM   30  O   UNL     1      -5.132  12.280  68.301  1.00  0.00    -0.052 OA 
HETATM   31  C   UNL     1      -5.425  13.650  70.254  1.00  0.00    -0.123 C  
HETATM   32  O   UNL     1      -9.832  14.874  67.123  1.00  0.00    -0.227 OA 
HETATM   33  C   UNL     1      -7.670  13.875  66.800  1.00  0.00     0.596 C  
HETATM   34  C   UNL     1      -6.723  13.107  65.922  1.00  0.00     5.088 C  
HETATM   35  C   UNL     1      -6.753  11.469  70.050  1.00  0.00     0.105 C  
HETATM   36  C   UNL     1      -7.069  13.935  68.325  1.00  0.00    -0.108 C  
HETATM   37  C   UNL     1      -6.161  12.781  69.177  1.00  0.00    -0.098 C  
HETATM   38  O   UNL     1      -7.792  14.848  69.163  1.00  0.00    -0.159 OA 
HETATM   39  H   UNL     1      -7.444  14.883  70.046  1.00  0.00     0.000 HD 
BRANCH  13  40
HETATM   40  O   UNL     1     -10.826  10.599  67.895  1.00  0.00    -0.232 OA 
BRANCH  40  41
HETATM   41  C   UNL     1     -11.517  11.746  68.509  1.00  0.00    -0.296 C  
HETATM   42  C   UNL     1     -13.015  12.665  70.467  1.00  0.00     0.298 C  
HETATM   43  C   UNL     1     -11.699  15.444  68.203  1.00  0.00    -0.276 C  
HETATM   44  O   UNL     1     -11.817  10.743  70.924  1.00  0.00    -0.326 OA 
HETATM   45  C   UNL     1     -12.648  14.066  70.026  1.00  0.00    -0.250 C  
HETATM   46  H   UNL     1     -11.944  10.810  71.863  1.00  0.00     0.000 HD 
HETATM   47  C   UNL     1     -12.196  14.048  68.531  1.00  0.00    -0.174 C  
HETATM   48  C   UNL     1     -11.732  11.861  70.102  1.00  0.00    -0.253 C  
HETATM   49  O   UNL     1     -11.157  13.092  68.137  1.00  0.00    -0.234 OA 
BRANCH  42  50
HETATM   50  N   UNL     1     -13.542  12.474  71.861  1.00  0.00    -0.291 NA 
HETATM   51  C   UNL     1     -14.123  13.622  72.554  1.00  0.00    -0.381 C  
HETATM   52  C   UNL     1     -14.391  11.298  72.045  1.00  0.00     1.524 C  
ENDBRANCH  42  50
ENDBRANCH  40  41
ENDBRANCH  13  40
BRANCH  35  53
HETATM   53  C   UNL     1      -8.240  11.498  70.049  1.00  0.00     1.972 C  
HETATM   54  C   UNL     1      -8.511  11.373  68.557  1.00  0.00    -0.152 C  
ENDBRANCH  35  53
ENDBRANCH  11  12
ENDBRANCH   1  11
BRANCH   4  55
HETATM   55  O   UNL     1     -10.097   8.039  72.988  1.00  0.00    -0.294 OA 
HETATM   56  C   UNL     1      -8.914   8.574  73.567  1.00  0.00     0.103 C  
ENDBRANCH   4  55
TORSDOF 7
ENDMDL
MODEL       58
REMARK 921   NORMALIZED FREE ENERGY PREDICTED BY IDOCK:   10.40 KCAL/MOL
REMARK 922        TOTAL FREE ENERGY PREDICTED BY IDOCK:   11.96 KCAL/MOL
REMARK 923 INTER-LIGAND FREE ENERGY PREDICTED BY IDOCK:    4.35 KCAL/MOL
REMARK 924 INTRA-LIGAND FREE ENERGY PREDICTED BY IDOCK:    7.61 KCAL/MOL
REMARK 927      BINDING AFFINITY PREDICTED BY RF-SCORE:    0.00 PKD
ROOT
HETATM    1  C   UNL     1     -10.261   6.505  71.048  1.00  0.00    -0.189 C  
HETATM    2  O   UNL     1      -9.436   2.231  71.747  1.00  0.00    -0.098 OA 
HETATM    3  C   UNL     1      -9.839   5.952  72.478  1.00  0.00    -0.179 C  
HETATM    4  C   UNL     1      -9.981   4.410  72.781  1.00  0.00    -0.159 C  
HETATM    5  C   UNL     1      -9.946   3.250  69.119  1.00  0.00     0.465 C  
HETATM    6  C   UNL     1      -9.484   3.654  71.536  1.00  0.00    -0.150 C  
HETATM    7  C   UNL     1      -9.117   3.981  74.012  1.00  0.00    -0.096 C  
HETATM    8  O   UNL     1     -10.210   5.494  70.007  1.00  0.00    -0.219 OA 
HETATM    9  H   UNL     1      -9.130   1.765  70.979  1.00  0.00     0.000 HD 
HETATM   10  C   UNL     1     -10.342   4.095  70.342  1.00  0.00     0.425 C  
ENDROOT
BRANCH   1  11
HETATM   11  O   UNL     1     -11.335   7.624  71.037  1.00  0.00    -0.263 OA 
BRANCH  11  12
HETATM   12  C   UNL     1     -11.790   8.138  69.717  1.00  0.00     0.714 C  
HETATM   13  C   UNL     1      -9.941  10.235  70.034  1.00  0.00    -0.071 C  
HETATM   14  C   UNL     1     -11.543   8.548  66.944  1.00  0.00     2.883 C  
HETATM   15  C   UNL     1     -11.504   9.676  69.762  1.00  0.00    -0.095 C  
HETATM   16  O   UNL     1     -10.882   5.109  67.969  1.00  0.00     0.058 OA 
HETATM   17  C   UNL     1     -11.631   7.470  68.066  1.00  0.00     1.156 C  
HETATM   18  C   UNL     1     -12.601  10.372  68.900  1.00  0.00     1.238 C  
HETATM   19  C   UNL     1      -9.567  11.469  69.029  1.00  0.00     0.065 C  
HETATM   20  O   UNL     1      -9.606  11.194  67.621  1.00  0.00    -0.167 OA 
HETATM   21  C   UNL     1     -10.636  12.576  69.298  1.00  0.00     0.101 C  
HETATM   22  C   UNL     1     -10.759   6.266  67.548  1.00  0.00    -0.319 C  
HETATM   23  C   UNL     1      -8.161  11.959  69.396  1.00  0.00     0.643 C  
HETATM   24  C   UNL     1      -9.652  12.341  66.749  1.00  0.00    -0.218 C  
HETATM   25  C   UNL     1      -6.933  11.965  68.439  1.00  0.00    -0.078 C  
HETATM   26  H   UNL     1      -8.854   7.050  64.280  1.00  0.00     0.000 HD 
HETATM   27  O   UNL     1      -9.883   6.533  66.464  1.00  0.00    -0.167 OA 
HETATM   28  C   UNL     1      -6.244  10.684  67.776  1.00  0.00    -0.054 C  
HETATM   29  C   UNL     1      -5.876  12.634  69.407  1.00  0.00    -0.094 C  
HETATM   30  O   UNL     1      -8.236   7.723  64.542  1.00  0.00    -0.132 OA 
HETATM   31  C   UNL     1      -6.486   6.119  64.923  1.00  0.00    -0.038 C  
HETATM   32  O   UNL     1      -5.170  10.319  68.293  1.00  0.00    -0.036 OA 
HETATM   33  C   UNL     1      -6.559   9.986  66.360  1.00  0.00    -0.080 C  
HETATM   34  C   UNL     1      -7.629  10.498  65.438  1.00  0.00    -0.097 C  
HETATM   35  C   UNL     1      -8.412   6.286  66.604  1.00  0.00    -0.114 C  
HETATM   36  C   UNL     1      -6.308   8.392  66.068  1.00  0.00    -0.053 C  
HETATM   37  C   UNL     1      -7.411   7.191  65.598  1.00  0.00    -0.079 C  
HETATM   38  O   UNL     1      -5.143   7.890  66.738  1.00  0.00    -0.026 OA 
HETATM   39  H   UNL     1      -4.997   6.966  66.568  1.00  0.00     0.000 HD 
BRANCH  13  40
HETATM   40  O   UNL     1      -8.989   9.151  70.270  1.00  0.00    -0.178 OA 
BRANCH  40  41
HETATM   41  C   UNL     1      -7.962   8.704  71.228  1.00  0.00    -0.136 C  
HETATM   42  C   UNL     1      -6.719   6.703  72.399  1.00  0.00    -0.063 C  
HETATM   43  C   UNL     1      -5.129  10.081  73.198  1.00  0.00     0.030 C  
HETATM   44  O   UNL     1      -7.712   6.229  70.367  1.00  0.00    -0.094 OA 
HETATM   45  C   UNL     1      -5.671   7.689  72.865  1.00  0.00    -0.044 C  
HETATM   46  H   UNL     1      -7.242   5.411  70.255  1.00  0.00     0.000 HD 
HETATM   47  C   UNL     1      -6.269   9.132  72.874  1.00  0.00     0.188 C  
HETATM   48  C   UNL     1      -7.164   7.316  71.039  1.00  0.00    -0.073 C  
HETATM   49  O   UNL     1      -6.927   9.613  71.655  1.00  0.00    -0.300 OA 
BRANCH  42  50
HETATM   50  N   UNL     1      -6.365   5.243  72.382  1.00  0.00    -0.038 NA 
HETATM   51  C   UNL     1      -5.502   4.744  71.314  1.00  0.00    -0.004 C  
HETATM   52  C   UNL     1      -5.933   4.697  73.668  1.00  0.00    -0.025 C  
ENDBRANCH  42  50
ENDBRANCH  40  41
ENDBRANCH  13  40
BRANCH  35  53
HETATM   53  C   UNL     1      -8.137   6.628  68.024  1.00  0.00    -0.110 C  
HETATM   54  C   UNL     1      -6.942   5.727  68.292  1.00  0.00    -0.069 C  
ENDBRANCH  35  53
ENDBRANCH  11  12
ENDBRANCH   1  11
BRANCH   4  55
HETATM   55  O   UNL     1     -11.374   4.187  73.073  1.00  0.00    -0.125 OA 
HETATM   56  C   UNL     1     -11.712   3.359  74.178  1.00  0.00     0.910 C  
ENDBRANCH   4  55
TORSDOF 7
ENDMDL
MODEL       59
REMARK 921   NORMALIZED FREE ENERGY PREDICTED BY IDOCK:   11.21 KCAL/MOL
REMARK 922        TOTAL FREE ENERGY PREDICTED BY IDOCK:   13.12 KCAL/MOL
REMARK 923 INTER-LIGAND FREE ENERGY PREDICTED BY IDOCK:   10.06 KCAL/MOL
REMARK 924 INTRA-LIGAND FREE ENERGY PREDICTED BY IDOCK:    3.06 KCAL/MOL
REMARK 927      BINDING AFFINITY PREDICTED BY RF-SCORE:    0.00 PKD
ROOT
HETATM    1  C   UNL     1     -10.698   7.153  68.017  1.00  0.00    -0.171 C  
HETATM    2  O   UNL     1      -9.066   3.121  67.300  1.00  0.00    -0.145 OA 
HETATM    3  C   UNL     1     -10.319   6.645  66.559  1.00  0.00    -0.120 C  
HETATM    4  C   UNL     1      -9.356   5.405  66.400  1.00  0.00    -0.150 C  
HETATM    5  C   UNL     1      -9.983   3.930  69.891  1.00  0.00     0.031 C  
HETATM    6  C   UNL     1      -9.787   4.358  67.443  1.00  0.00    -0.143 C  
HETATM    7  C   UNL     1      -9.460   4.773  64.974  1.00  0.00    -0.087 C  
HETATM    8  O   UNL     1     -10.578   6.120  69.030  1.00  0.00    -0.217 OA 
HETATM    9  H   UNL     1      -9.332   2.475  67.943  1.00  0.00     0.000 HD 
HETATM   10  C   UNL     1      -9.684   5.004  68.831  1.00  0.00    -0.167 C  
ENDROOT
BRANCH   1  11
HETATM   11  O   UNL     1     -10.373   8.637  68.332  1.00  0.00    -0.203 OA 
BRANCH  11  12
HETATM   12  C   UNL     1      -9.938   8.975  69.714  1.00  0.00    -0.196 C  
HETATM   13  C   UNL     1      -8.035  10.697  68.561  1.00  0.00    -0.122 C  
HETATM   14  C   UNL     1      -9.818  10.622  71.993  1.00  0.00     7.543 C  
HETATM   15  C   UNL     1      -8.443   9.415  69.569  1.00  0.00    -0.152 C  
HETATM   16  O   UNL     1     -13.197  10.193  70.686  1.00  0.00    -0.336 OA 
HETATM   17  C   UNL     1     -10.771   9.837  71.041  1.00  0.00    -0.342 C  
HETATM   18  C   UNL     1      -7.715   9.002  70.885  1.00  0.00    -0.149 C  
HETATM   19  C   UNL     1      -6.948  11.691  69.271  1.00  0.00    -0.083 C  
HETATM   20  O   UNL     1      -7.347  12.318  70.498  1.00  0.00     1.590 OA 
HETATM   21  C   UNL     1      -5.711  10.798  69.606  1.00  0.00    -0.044 C  
HETATM   22  C   UNL     1     -12.105  10.671  71.017  1.00  0.00    -0.368 C  
HETATM   23  C   UNL     1      -6.583  12.782  68.257  1.00  0.00    -0.085 C  
HETATM   24  C   UNL     1      -6.289  12.873  71.304  1.00  0.00     1.546 C  
HETATM   25  C   UNL     1      -6.800  14.310  68.463  1.00  0.00    -0.100 C  
HETATM   26  H   UNL     1     -11.842  14.036  72.896  1.00  0.00     0.000 HD 
HETATM   27  O   UNL     1     -12.038  11.997  71.518  1.00  0.00     0.168 OA 
HETATM   28  C   UNL     1      -8.205  15.049  68.655  1.00  0.00    -0.156 C  
HETATM   29  C   UNL     1      -6.163  14.829  67.112  1.00  0.00     0.612 C  
HETATM   30  O   UNL     1     -11.219  14.530  72.375  1.00  0.00     0.531 OA 
HETATM   31  C   UNL     1     -12.962  15.613  71.122  1.00  0.00    -0.539 C  
HETATM   32  O   UNL     1      -8.635  15.660  67.658  1.00  0.00    -0.162 OA 
HETATM   33  C   UNL     1      -8.993  15.383  70.018  1.00  0.00     0.298 C  
HETATM   34  C   UNL     1      -8.455  14.997  71.366  1.00  0.00     3.879 C  
HETATM   35  C   UNL     1     -12.430  13.152  70.649  1.00  0.00    -0.286 C  
HETATM   36  C   UNL     1     -10.625  15.518  70.103  1.00  0.00    -0.320 C  
HETATM   37  C   UNL     1     -11.737  14.637  71.034  1.00  0.00    -0.277 C  
HETATM   38  O   UNL     1     -11.187  16.112  68.924  1.00  0.00    -0.319 OA 
HETATM   39  H   UNL     1     -12.133  16.191  68.974  1.00  0.00     0.000 HD 
BRANCH  13  40
HETATM   40  O   UNL     1      -9.190  11.242  67.848  1.00  0.00    -0.149 OA 
BRANCH  40  41
HETATM   41  C   UNL     1      -9.541  12.097  66.701  1.00  0.00    -0.220 C  
HETATM   42  C   UNL     1     -10.372  12.262  64.210  1.00  0.00    -0.348 C  
HETATM   43  C   UNL     1     -10.161  15.674  65.912  1.00  0.00    -0.372 C  
HETATM   44  O   UNL     1     -10.934  10.326  65.339  1.00  0.00     0.225 OA 
HETATM   45  C   UNL     1     -10.621  13.737  64.441  1.00  0.00    -0.316 C  
HETATM   46  H   UNL     1     -11.588  10.067  64.701  1.00  0.00     0.000 HD 
HETATM   47  C   UNL     1      -9.751  14.238  65.638  1.00  0.00    -0.205 C  
HETATM   48  C   UNL     1     -10.652  11.659  65.618  1.00  0.00    -0.275 C  
HETATM   49  O   UNL     1      -9.823  13.496  66.901  1.00  0.00    -0.243 OA 
BRANCH  42  50
HETATM   50  N   UNL     1     -11.065  11.597  63.055  1.00  0.00    -0.098 NA 
HETATM   51  C   UNL     1     -10.407  10.470  62.397  1.00  0.00     0.873 C  
HETATM   52  C   UNL     1     -12.478  11.290  63.275  1.00  0.00     0.689 C  
ENDBRANCH  42  50
ENDBRANCH  40  41
ENDBRANCH  13  40
BRANCH  35  53
HETATM   53  C   UNL     1     -11.989  12.731  69.293  1.00  0.00    -0.300 C  
HETATM   54  C   UNL     1     -12.520  13.891  68.464  1.00  0.00     0.233 C  
ENDBRANCH  35  53
ENDBRANCH  11  12
ENDBRANCH   1  11
BRANCH   4  55
HETATM   55  O   UNL     1      -8.021   5.908  66.606  1.00  0.00    -0.100 OA 
HETATM   56  C   UNL     1      -7.624   7.082  65.909  1.00  0.00    -0.097 C  
ENDBRANCH   4  55
TORSDOF 7
ENDMDL
MODEL       60
REMARK 921   NORMALIZED FREE ENERGY PREDICTED BY IDOCK:   11.24 KCAL/MOL
REMARK 922        TOTAL FREE ENERGY PREDICTED BY IDOCK:   13.16 KCAL/MOL
REMARK 923 INTER-LIGAND FREE ENERGY PREDICTED BY IDOCK:   14.66 KCAL/MOL
REMARK 924 INTRA-LIGAND FREE ENERGY PREDICTED BY IDOCK:   -1.50 KCAL/MOL
REMARK 927      BINDING AFFINITY PREDICTED BY RF-SCORE:    0.00 PKD
ROOT
HETATM    1  C   UNL     1     -11.469  10.405  69.290  1.00  0.00    -0.215 C  
HETATM    2  O   UNL     1      -9.264   6.656  70.006  1.00  0.00    -0.156 OA 
HETATM    3  C   UNL     1     -11.593   9.156  68.313  1.00  0.00     1.094 C  
HETATM    4  C   UNL     1     -10.486   8.032  68.356  1.00  0.00    -0.163 C  
HETATM    5  C   UNL     1      -9.232   8.801  71.904  1.00  0.00    -0.320 C  
HETATM    6  C   UNL     1     -10.164   7.765  69.837  1.00  0.00    -0.213 C  
HETATM    7  C   UNL     1     -10.987   6.704  67.699  1.00  0.00    -0.392 C  
HETATM    8  O   UNL     1     -10.680  10.126  70.476  1.00  0.00    -0.298 OA 
HETATM    9  H   UNL     1      -9.066   6.491  70.920  1.00  0.00     0.000 HD 
HETATM   10  C   UNL     1      -9.683   9.082  70.460  1.00  0.00    -0.216 C  
ENDROOT
BRANCH   1  11
HETATM   11  O   UNL     1     -11.449  11.802  68.614  1.00  0.00    -0.236 OA 
BRANCH  11  12
HETATM   12  C   UNL     1     -10.691  11.948  67.342  1.00  0.00    -0.232 C  
HETATM   13  C   UNL     1     -11.955  14.440  67.019  1.00  0.00    -0.395 C  
HETATM   14  C   UNL     1      -8.613  12.970  65.744  1.00  0.00     1.209 C  
HETATM   15  C   UNL     1     -11.563  12.903  66.461  1.00  0.00    -0.425 C  
HETATM   16  O   UNL     1      -7.474  11.695  68.966  1.00  0.00    -0.110 OA 
HETATM   17  C   UNL     1      -8.942  12.139  67.021  1.00  0.00    -0.201 C  
HETATM   18  C   UNL     1     -11.342  12.483  64.975  1.00  0.00    -0.353 C  
HETATM   19  C   UNL     1     -11.784  15.563  65.842  1.00  0.00     0.329 C  
HETATM   20  O   UNL     1     -10.474  15.715  65.277  1.00  0.00    -0.379 OA 
HETATM   21  C   UNL     1     -12.723  15.107  64.680  1.00  0.00     0.263 C  
HETATM   22  C   UNL     1      -7.763  12.436  68.019  1.00  0.00    -0.135 C  
HETATM   23  C   UNL     1     -12.231  16.912  66.417  1.00  0.00     3.468 C  
HETATM   24  C   UNL     1     -10.401  16.407  64.014  1.00  0.00     3.377 C  
HETATM   25  C   UNL     1     -11.334  18.178  66.541  1.00  0.00     1.077 C  
HETATM   26  H   UNL     1      -5.334  15.161  66.753  1.00  0.00     0.000 HD 
HETATM   27  O   UNL     1      -6.938  13.551  67.719  1.00  0.00    -0.127 OA 
HETATM   28  C   UNL     1     -10.007  18.315  67.423  1.00  0.00    -0.334 C  
HETATM   29  C   UNL     1     -12.409  19.179  67.128  1.00  0.00     3.815 C  
HETATM   30  O   UNL     1      -5.870  15.945  66.745  1.00  0.00    -0.219 OA 
HETATM   31  C   UNL     1      -5.126  16.605  68.934  1.00  0.00    -0.119 C  
HETATM   32  O   UNL     1     -10.131  18.947  68.491  1.00  0.00    -0.382 OA 
HETATM   33  C   UNL     1      -8.479  18.034  67.002  1.00  0.00    -0.247 C  
HETATM   34  C   UNL     1      -8.105  17.566  65.625  1.00  0.00     0.455 C  
HETATM   35  C   UNL     1      -6.780  14.662  68.712  1.00  0.00    -0.088 C  
HETATM   36  C   UNL     1      -7.324  17.567  68.067  1.00  0.00    -0.208 C  
HETATM   37  C   UNL     1      -6.366  16.166  68.081  1.00  0.00    -0.122 C  
HETATM   38  O   UNL     1      -7.488  18.178  69.355  1.00  0.00    -0.055 OA 
HETATM   39  H   UNL     1      -6.818  17.908  69.972  1.00  0.00     0.000 HD 
BRANCH  13  40
HETATM   40  O   UNL     1     -11.457  14.694  68.369  1.00  0.00    -0.282 OA 
BRANCH  40  41
HETATM   41  C   UNL     1     -11.806  15.394  69.617  1.00  0.00    -0.347 C  
HETATM   42  C   UNL     1     -13.059  15.348  71.930  1.00  0.00    -0.429 C  
HETATM   43  C   UNL     1     -10.867  18.447  71.515  1.00  0.00     3.173 C  
HETATM   44  O   UNL     1     -12.509  13.290  71.034  1.00  0.00    -0.366 OA 
HETATM   45  C   UNL     1     -12.271  16.578  72.327  1.00  0.00    -0.170 C  
HETATM   46  H   UNL     1     -12.657  12.824  71.849  1.00  0.00     0.000 HD 
HETATM   47  C   UNL     1     -11.772  17.321  71.048  1.00  0.00     2.231 C  
HETATM   48  C   UNL     1     -12.056  14.604  70.999  1.00  0.00    -0.329 C  
HETATM   49  O   UNL     1     -11.045  16.544  70.039  1.00  0.00    -0.345 OA 
BRANCH  42  50
HETATM   50  N   UNL     1     -13.687  14.525  73.018  1.00  0.00    -0.528 NA 
HETATM   51  C   UNL     1     -14.147  13.175  72.699  1.00  0.00     0.027 C  
HETATM   52  C   UNL     1     -12.960  14.517  74.287  1.00  0.00     1.858 C  
ENDBRANCH  42  50
ENDBRANCH  40  41
ENDBRANCH  13  40
BRANCH  35  53
HETATM   53  C   UNL     1      -8.117  14.741  69.359  1.00  0.00    -0.039 C  
HETATM   54  C   UNL     1      -7.720  14.582  70.818  1.00  0.00     1.833 C  
ENDBRANCH  35  53
ENDBRANCH  11  12
ENDBRANCH   1  11
BRANCH   4  55
HETATM   55  O   UNL     1      -9.367   8.545  67.607  1.00  0.00    -0.136 OA 
HETATM   56  C   UNL     1      -9.534   8.780  66.214  1.00  0.00    -0.234 C  
ENDBRANCH   4  55
TORSDOF 7
ENDMDL
MODEL       61
REMARK 921   NORMALIZED FREE ENERGY PREDICTED BY IDOCK:   11.47 KCAL/MOL
REMARK 922        TOTAL FREE ENERGY PREDICTED BY IDOCK:   13.47 KCAL/MOL
REMARK 923 INTER-LIGAND FREE ENERGY PREDICTED BY IDOCK:   14.12 KCAL/MOL
REMARK 924 INTRA-LIGAND FREE ENERGY PREDICTED BY IDOCK:   -0.65 KCAL/MOL
REMARK 927      BINDING AFFINITY PREDICTED BY RF-SCORE:    0.00 PKD
ROOT
HETATM    1  C   UNL     1      -5.198  11.568  66.821  1.00  0.00    -0.122 C  
HETATM    2  O   UNL     1      -5.606   7.197  67.226  1.00  0.00    -0.022 OA 
HETATM    3  C   UNL     1      -5.238  10.854  68.242  1.00  0.00    -0.040 C  
HETATM    4  C   UNL     1      -5.812   9.388  68.352  1.00  0.00    -0.041 C  
HETATM    5  C   UNL     1      -5.280   8.443  64.667  1.00  0.00    -0.036 C  
HETATM    6  C   UNL     1      -5.261   8.592  67.156  1.00  0.00    -0.033 C  
HETATM    7  C   UNL     1      -5.361   8.690  69.677  1.00  0.00    -0.030 C  
HETATM    8  O   UNL     1      -5.174  10.631  65.712  1.00  0.00    -0.075 OA 
HETATM    9  H   UNL     1      -5.266   6.706  66.488  1.00  0.00     0.000 HD 
HETATM   10  C   UNL     1      -5.710   9.300  65.870  1.00  0.00    -0.049 C  
ENDROOT
BRANCH   1  11
HETATM   11  O   UNL     1      -5.939  12.927  66.718  1.00  0.00    -0.027 OA 
BRANCH  11  12
HETATM   12  C   UNL     1      -5.836  13.864  67.869  1.00  0.00    -0.127 C  
HETATM   13  C   UNL     1      -7.371  15.682  66.367  1.00  0.00     0.819 C  
HETATM   14  C   UNL     1      -6.817  15.168  70.161  1.00  0.00    -0.046 C  
HETATM   15  C   UNL     1      -5.989  15.290  67.242  1.00  0.00     0.243 C  
HETATM   16  O   UNL     1      -7.405  11.568  70.174  1.00  0.00     0.363 OA 
HETATM   17  C   UNL     1      -6.495  13.781  69.528  1.00  0.00    -0.105 C  
HETATM   18  C   UNL     1      -5.129  16.264  68.105  1.00  0.00    -0.105 C  
HETATM   19  C   UNL     1      -7.922  17.170  66.761  1.00  0.00    -0.235 C  
HETATM   20  O   UNL     1      -8.297  17.381  68.129  1.00  0.00    -0.224 OA 
HETATM   21  C   UNL     1      -6.746  18.153  66.462  1.00  0.00    -0.247 C  
HETATM   22  C   UNL     1      -7.559  12.795  70.139  1.00  0.00     2.297 C  
HETATM   23  C   UNL     1      -9.133  17.469  65.867  1.00  0.00     0.064 C  
HETATM   24  C   UNL     1      -8.415  18.754  68.553  1.00  0.00    -0.345 C  
HETATM   25  C   UNL     1     -10.575  17.760  66.375  1.00  0.00    -0.218 C  
HETATM   26  H   UNL     1     -10.241  14.571  72.280  1.00  0.00     0.000 HD 
HETATM   27  O   UNL     1      -8.682  13.384  70.778  1.00  0.00     5.176 OA 
HETATM   28  C   UNL     1     -11.510  16.755  67.195  1.00  0.00     0.628 C  
HETATM   29  C   UNL     1     -11.270  18.038  64.982  1.00  0.00     1.383 C  
HETATM   30  O   UNL     1     -10.712  15.100  71.647  1.00  0.00    -0.037 OA 
HETATM   31  C   UNL     1     -12.394  13.412  71.328  1.00  0.00    -0.286 C  
HETATM   32  O   UNL     1     -12.420  16.208  66.542  1.00  0.00     1.942 OA 
HETATM   33  C   UNL     1     -11.652  16.578  68.789  1.00  0.00    -0.042 C  
HETATM   34  C   UNL     1     -10.849  17.399  69.757  1.00  0.00     0.557 C  
HETATM   35  C   UNL     1     -10.069  13.063  70.312  1.00  0.00     3.216 C  
HETATM   36  C   UNL     1     -12.086  15.167  69.502  1.00  0.00    -0.283 C  
HETATM   37  C   UNL     1     -11.245  14.223  70.634  1.00  0.00     0.159 C  
HETATM   38  O   UNL     1     -13.050  14.438  68.730  1.00  0.00     0.531 OA 
HETATM   39  H   UNL     1     -13.302  13.620  69.144  1.00  0.00     0.000 HD 
BRANCH  13  40
HETATM   40  O   UNL     1      -8.293  14.555  66.237  1.00  0.00     0.291 OA 
BRANCH  40  41
HETATM   41  C   UNL     1      -9.183  13.898  65.264  1.00  0.00     0.926 C  
HETATM   42  C   UNL     1      -9.630  11.854  63.670  1.00  0.00    -0.151 C  
HETATM   43  C   UNL     1     -12.647  14.179  63.948  1.00  0.00     0.049 C  
HETATM   44  O   UNL     1      -8.169  11.474  65.419  1.00  0.00    -0.337 OA 
HETATM   45  C   UNL     1     -11.070  12.309  63.567  1.00  0.00    -0.533 C  
HETATM   46  H   UNL     1      -8.208  10.529  65.330  1.00  0.00     0.000 HD 
HETATM   47  C   UNL     1     -11.170  13.828  63.919  1.00  0.00     0.054 C  
HETATM   48  C   UNL     1      -9.249  12.295  65.113  1.00  0.00     0.373 C  
HETATM   49  O   UNL     1     -10.570  14.285  65.177  1.00  0.00    -0.354 OA 
BRANCH  42  50
HETATM   50  N   UNL     1      -9.307  10.434  63.304  1.00  0.00    -0.279 NA 
HETATM   51  C   UNL     1      -8.158  10.177  62.438  1.00  0.00    -0.143 C  
HETATM   52  C   UNL     1      -9.309   9.491  64.422  1.00  0.00    -0.054 C  
ENDBRANCH  42  50
ENDBRANCH  40  41
ENDBRANCH  13  40
BRANCH  35  53
HETATM   53  C   UNL     1      -9.912  12.904  68.842  1.00  0.00     0.091 C  
HETATM   54  C   UNL     1     -10.503  11.515  68.656  1.00  0.00    -0.224 C  
ENDBRANCH  35  53
ENDBRANCH  11  12
ENDBRANCH   1  11
BRANCH   4  55
HETATM   55  O   UNL     1      -7.247   9.520  68.344  1.00  0.00    -0.074 OA 
HETATM   56  C   UNL     1      -8.029   8.401  67.946  1.00  0.00    -0.115 C  
ENDBRANCH   4  55
TORSDOF 7
ENDMDL
MODEL       62
REMARK 921   NORMALIZED FREE ENERGY PREDICTED BY IDOCK:   12.23 KCAL/MOL
REMARK 922        TOTAL FREE ENERGY PREDICTED BY IDOCK:   14.54 KCAL/MOL
REMARK 923 INTER-LIGAND FREE ENERGY PREDICTED BY IDOCK:    6.94 KCAL/MOL
REMARK 924 INTRA-LIGAND FREE ENERGY PREDICTED BY IDOCK:    7.60 KCAL/MOL
REMARK 927      BINDING AFFINITY PREDICTED BY RF-SCORE:    0.00 PKD
ROOT
HETATM    1  C   UNL     1      -7.204   5.979  65.642  1.00  0.00    -0.074 C  
HETATM    2  O   UNL     1      -9.909   7.527  62.525  1.00  0.00     1.805 OA 
HETATM    3  C   UNL     1      -7.991   5.012  64.655  1.00  0.00    -0.102 C  
HETATM    4  C   UNL     1      -9.246   5.565  63.873  1.00  0.00     0.612 C  
HETATM    5  C   UNL     1      -8.306   9.280  64.126  1.00  0.00    -0.178 C  
HETATM    6  C   UNL     1      -8.887   6.975  63.374  1.00  0.00     0.970 C  
HETATM    7  C   UNL     1      -9.601   4.666  62.644  1.00  0.00     0.014 C  
HETATM    8  O   UNL     1      -7.369   7.384  65.317  1.00  0.00    -0.070 OA 
HETATM    9  H   UNL     1      -9.688   8.398  62.217  1.00  0.00     0.000 HD 
HETATM   10  C   UNL     1      -8.536   7.834  64.597  1.00  0.00     0.179 C  
ENDROOT
BRANCH   1  11
HETATM   11  O   UNL     1      -7.073   5.497  67.111  1.00  0.00    -0.070 OA 
BRANCH  11  12
HETATM   12  C   UNL     1      -8.163   4.647  67.663  1.00  0.00    -0.100 C  
HETATM   13  C   UNL     1      -7.130   5.198  70.221  1.00  0.00    -0.054 C  
HETATM   14  C   UNL     1     -10.641   4.222  68.926  1.00  0.00     1.183 C  
HETATM   15  C   UNL     1      -7.608   4.116  69.027  1.00  0.00    -0.054 C  
HETATM   16  O   UNL     1     -10.784   6.686  66.240  1.00  0.00     0.090 OA 
HETATM   17  C   UNL     1      -9.937   4.868  67.695  1.00  0.00    -0.192 C  
HETATM   18  C   UNL     1      -8.222   2.700  69.250  1.00  0.00    -0.071 C  
HETATM   19  C   UNL     1      -7.664   4.734  71.695  1.00  0.00    -0.096 C  
HETATM   20  O   UNL     1      -9.085   4.624  71.864  1.00  0.00    -0.127 OA 
HETATM   21  C   UNL     1      -7.074   3.307  71.931  1.00  0.00    -0.038 C  
HETATM   22  C   UNL     1     -10.799   6.138  67.348  1.00  0.00    -0.343 C  
HETATM   23  C   UNL     1      -7.122   5.734  72.723  1.00  0.00    -0.089 C  
HETATM   24  C   UNL     1      -9.534   3.868  73.006  1.00  0.00    -0.114 C  
HETATM   25  C   UNL     1      -7.993   6.624  73.657  1.00  0.00    -0.104 C  
HETATM   26  H   UNL     1     -13.581   6.852  69.933  1.00  0.00     0.000 HD 
HETATM   27  O   UNL     1     -11.714   6.578  68.341  1.00  0.00     0.138 OA 
HETATM   28  C   UNL     1      -9.023   7.756  73.196  1.00  0.00    -0.213 C  
HETATM   29  C   UNL     1      -6.833   7.329  74.470  1.00  0.00    -0.102 C  
HETATM   30  O   UNL     1     -13.097   7.074  70.720  1.00  0.00    -0.164 OA 
HETATM   31  C   UNL     1     -13.220   9.430  70.259  1.00  0.00     0.769 C  
HETATM   32  O   UNL     1      -8.627   8.932  73.323  1.00  0.00    -0.250 OA 
HETATM   33  C   UNL     1     -10.596   7.626  72.883  1.00  0.00    -0.411 C  
HETATM   34  C   UNL     1     -11.325   6.317  72.993  1.00  0.00    -0.115 C  
HETATM   35  C   UNL     1     -11.626   7.972  68.883  1.00  0.00     1.172 C  
HETATM   36  C   UNL     1     -11.389   8.603  71.832  1.00  0.00    -0.347 C  
HETATM   37  C   UNL     1     -12.254   8.206  70.427  1.00  0.00     0.376 C  
HETATM   38  O   UNL     1     -10.892   9.949  71.854  1.00  0.00     0.279 OA 
HETATM   39  H   UNL     1     -11.352  10.515  71.245  1.00  0.00     0.000 HD 
BRANCH  13  40
HETATM   40  O   UNL     1      -7.238   6.592  69.794  1.00  0.00    -0.073 OA 
BRANCH  40  41
HETATM   41  C   UNL     1      -7.123   7.970  70.305  1.00  0.00    -0.048 C  
HETATM   42  C   UNL     1      -6.243   9.590  72.180  1.00  0.00     0.292 C  
HETATM   43  C   UNL     1      -7.691  11.467  69.186  1.00  0.00    -0.010 C  
HETATM   44  O   UNL     1      -5.136   7.572  71.984  1.00  0.00    -0.034 OA 
HETATM   45  C   UNL     1      -6.519  10.747  71.244  1.00  0.00     0.997 C  
HETATM   46  H   UNL     1      -4.394   7.855  72.507  1.00  0.00     0.000 HD 
HETATM   47  C   UNL     1      -7.578  10.323  70.178  1.00  0.00    -0.022 C  
HETATM   48  C   UNL     1      -5.865   8.450  71.190  1.00  0.00    -0.034 C  
HETATM   49  O   UNL     1      -7.340   9.089  69.422  1.00  0.00    -0.072 OA 
BRANCH  42  50
HETATM   50  N   UNL     1      -5.297   9.813  73.326  1.00  0.00    -0.312 NA 
HETATM   51  C   UNL     1      -5.127  11.171  73.840  1.00  0.00     0.371 C  
HETATM   52  C   UNL     1      -5.438   8.873  74.437  1.00  0.00    -0.119 C  
ENDBRANCH  42  50
ENDBRANCH  40  41
ENDBRANCH  13  40
BRANCH  35  53
HETATM   53  C   UNL     1     -10.166   8.250  68.889  1.00  0.00    -0.222 C  
HETATM   54  C   UNL     1     -10.080   9.268  67.762  1.00  0.00    -0.253 C  
ENDBRANCH  35  53
ENDBRANCH  11  12
ENDBRANCH   1  11
BRANCH   4  55
HETATM   55  O   UNL     1     -10.339   5.546  64.812  1.00  0.00     1.064 OA 
HETATM   56  C   UNL     1     -11.474   4.741  64.516  1.00  0.00     1.311 C  
ENDBRANCH   4  55
TORSDOF 7
ENDMDL
MODEL       63
REMARK 921   NORMALIZED FREE ENERGY PREDICTED BY IDOCK:   12.25 KCAL/MOL
REMARK 922        TOTAL FREE ENERGY PREDICTED BY IDOCK:   14.57 KCAL/MOL
REMARK 923 INTER-LIGAND FREE ENERGY PREDICTED BY IDOCK:   16.27 KCAL/MOL
REMARK 924 INTRA-LIGAND FREE ENERGY PREDICTED BY IDOCK:   -1.70 KCAL/MOL
REMARK 927      BINDING AFFINITY PREDICTED BY RF-SCORE:    0.00 PKD
ROOT
HETATM    1  C   UNL     1      -9.767  16.939  67.546  1.00  0.00    -0.249 C  
HETATM    2  O   UNL     1     -11.143  19.822  64.509  1.00  0.00     0.080 OA 
HETATM    3  C   UNL     1      -9.539  18.505  67.707  1.00  0.00    -0.311 C  
HETATM    4  C   UNL     1      -9.644  19.434  66.436  1.00  0.00    -0.377 C  
HETATM    5  C   UNL     1     -11.784  17.036  64.332  1.00  0.00     1.424 C  
HETATM    6  C   UNL     1     -10.863  18.958  65.625  1.00  0.00    -0.051 C  
HETATM    7  C   UNL     1      -9.852  20.932  66.832  1.00  0.00    -0.096 C  
HETATM    8  O   UNL     1     -10.575  16.596  66.390  1.00  0.00    -0.284 OA 
HETATM    9  H   UNL     1     -11.895  19.529  64.008  1.00  0.00     0.000 HD 
HETATM   10  C   UNL     1     -10.638  17.486  65.255  1.00  0.00     0.132 C  
ENDROOT
BRANCH   1  11
HETATM   11  O   UNL     1      -8.607  16.026  68.024  1.00  0.00    -0.163 OA 
BRANCH  11  12
HETATM   12  C   UNL     1      -8.590  15.615  69.454  1.00  0.00    -0.248 C  
HETATM   13  C   UNL     1     -10.714  13.871  68.849  1.00  0.00    -0.236 C  
HETATM   14  C   UNL     1      -7.968  13.871  71.574  1.00  0.00     6.425 C  
HETATM   15  C   UNL     1     -10.047  15.125  69.749  1.00  0.00    -0.175 C  
HETATM   16  O   UNL     1      -5.162  14.482  69.324  1.00  0.00    -0.083 OA 
HETATM   17  C   UNL     1      -7.371  14.731  70.418  1.00  0.00     0.517 C  
HETATM   18  C   UNL     1     -10.347  15.456  71.244  1.00  0.00     0.718 C  
HETATM   19  C   UNL     1     -11.508  12.808  69.804  1.00  0.00    -0.129 C  
HETATM   20  O   UNL     1     -10.738  12.146  70.818  1.00  0.00     2.328 OA 
HETATM   21  C   UNL     1     -12.603  13.639  70.546  1.00  0.00    -0.337 C  
HETATM   22  C   UNL     1      -6.089  13.950  69.947  1.00  0.00    -0.140 C  
HETATM   23  C   UNL     1     -12.140  11.747  68.895  1.00  0.00    -0.238 C  
HETATM   24  C   UNL     1     -11.485  11.518  71.879  1.00  0.00     3.616 C  
HETATM   25  C   UNL     1     -11.835  10.222  68.948  1.00  0.00     0.057 C  
HETATM   26  H   UNL     1      -5.686  10.501  71.642  1.00  0.00     0.000 HD 
HETATM   27  O   UNL     1      -5.969  12.602  70.376  1.00  0.00    -0.167 OA 
HETATM   28  C   UNL     1     -10.422   9.529  68.665  1.00  0.00    -0.211 C  
HETATM   29  C   UNL     1     -12.843   9.735  67.830  1.00  0.00     7.747 C  
HETATM   30  O   UNL     1      -6.426  10.007  71.311  1.00  0.00    -0.319 OA 
HETATM   31  C   UNL     1      -5.126   9.043  69.533  1.00  0.00    -0.035 C  
HETATM   32  O   UNL     1     -10.303   8.976  67.554  1.00  0.00    -0.231 OA 
HETATM   33  C   UNL     1      -9.246   9.168  69.703  1.00  0.00    -0.172 C  
HETATM   34  C   UNL     1      -9.355   9.477  71.170  1.00  0.00     0.022 C  
HETATM   35  C   UNL     1      -5.835  11.500  69.371  1.00  0.00    -0.065 C  
HETATM   36  C   UNL     1      -7.664   9.092  69.280  1.00  0.00    -0.080 C  
HETATM   37  C   UNL     1      -6.341   9.975  69.872  1.00  0.00    -0.066 C  
HETATM   38  O   UNL     1      -7.476   8.569  67.958  1.00  0.00    -0.094 OA 
HETATM   39  H   UNL     1      -6.559   8.524  67.713  1.00  0.00     0.000 HD 
BRANCH  13  40
HETATM   40  O   UNL     1      -9.820  13.400  67.792  1.00  0.00    -0.221 OA 
BRANCH  40  41
HETATM   41  C   UNL     1      -9.810  13.038  66.364  1.00  0.00    -0.270 C  
HETATM   42  C   UNL     1      -8.759  11.595  64.432  1.00  0.00     0.691 C  
HETATM   43  C   UNL     1     -11.862  13.513  63.303  1.00  0.00    -0.085 C  
HETATM   44  O   UNL     1      -8.506  10.762  66.572  1.00  0.00    -0.136 OA 
HETATM   45  C   UNL     1      -9.947  11.968  63.571  1.00  0.00    -0.393 C  
HETATM   46  H   UNL     1      -8.254   9.895  66.274  1.00  0.00     0.000 HD 
HETATM   47  C   UNL     1     -10.596  13.283  64.109  1.00  0.00    -0.309 C  
HETATM   48  C   UNL     1      -9.384  11.569  65.858  1.00  0.00    -0.226 C  
HETATM   49  O   UNL     1     -10.947  13.346  65.532  1.00  0.00    -0.280 OA 
BRANCH  42  50
HETATM   50  N   UNL     1      -7.950  10.391  64.042  1.00  0.00    -0.118 NA 
HETATM   51  C   UNL     1      -8.652   9.162  63.676  1.00  0.00    -0.166 C  
HETATM   52  C   UNL     1      -6.873  10.652  63.088  1.00  0.00     0.093 C  
ENDBRANCH  42  50
ENDBRANCH  40  41
ENDBRANCH  13  40
BRANCH  35  53
HETATM   53  C   UNL     1      -6.680  11.960  68.237  1.00  0.00    -0.063 C  
HETATM   54  C   UNL     1      -5.601  12.374  67.247  1.00  0.00    -0.099 C  
ENDBRANCH  35  53
ENDBRANCH  11  12
ENDBRANCH   1  11
BRANCH   4  55
HETATM   55  O   UNL     1      -8.394  19.292  65.734  1.00  0.00    -0.428 OA 
HETATM   56  C   UNL     1      -7.212  19.064  66.492  1.00  0.00    -0.228 C  
ENDBRANCH   4  55
TORSDOF 7
ENDMDL
MODEL       64
REMARK 921   NORMALIZED FREE ENERGY PREDICTED BY IDOCK:   12.28 KCAL/MOL
REMARK 922        TOTAL FREE ENERGY PREDICTED BY IDOCK:   14.61 KCAL/MOL
REMARK 923 INTER-LIGAND FREE ENERGY PREDICTED BY IDOCK:   13.09 KCAL/MOL
REMARK 924 INTRA-LIGAND FREE ENERGY PREDICTED BY IDOCK:    1.52 KCAL/MOL
REMARK 927      BINDING AFFINITY PREDICTED BY RF-SCORE:    0.00 PKD
ROOT
HETATM    1  C   UNL     1      -9.138  11.648  68.973  1.00  0.00     0.198 C  
HETATM    2  O   UNL     1      -8.604   7.438  70.166  1.00  0.00    -0.136 OA 
HETATM    3  C   UNL     1     -10.179  10.901  69.915  1.00  0.00     0.222 C  
HETATM    4  C   UNL     1     -10.188   9.324  69.956  1.00  0.00    -0.215 C  
HETATM    5  C   UNL     1      -6.597   8.843  68.683  1.00  0.00    -0.054 C  
HETATM    6  C   UNL     1      -8.721   8.861  69.987  1.00  0.00    -0.147 C  
HETATM    7  C   UNL     1     -10.918   8.784  71.230  1.00  0.00    -0.345 C  
HETATM    8  O   UNL     1      -7.962  10.849  68.677  1.00  0.00    -0.123 OA 
HETATM    9  H   UNL     1      -7.699   7.152  70.186  1.00  0.00     0.000 HD 
HETATM   10  C   UNL     1      -8.026   9.408  68.733  1.00  0.00    -0.092 C  
ENDROOT
BRANCH   1  11
HETATM   11  O   UNL     1      -9.739  12.624  67.928  1.00  0.00    -0.203 OA 
BRANCH  11  12
HETATM   12  C   UNL     1      -8.805  13.283  66.975  1.00  0.00    -0.212 C  
HETATM   13  C   UNL     1     -10.599  15.449  66.907  1.00  0.00    -0.309 C  
HETATM   14  C   UNL     1      -6.797  15.125  66.273  1.00  0.00     2.988 C  
HETATM   15  C   UNL     1      -9.702  14.253  66.137  1.00  0.00    -0.325 C  
HETATM   16  O   UNL     1      -6.039  13.234  69.299  1.00  0.00    -0.087 OA 
HETATM   17  C   UNL     1      -7.144  13.912  67.187  1.00  0.00     0.280 C  
HETATM   18  C   UNL     1      -9.079  14.335  64.710  1.00  0.00     2.646 C  
HETATM   19  C   UNL     1     -10.499  16.874  66.111  1.00  0.00    -0.272 C  
HETATM   20  O   UNL     1      -9.191  17.447  65.969  1.00  0.00    -0.483 OA 
HETATM   21  C   UNL     1     -11.023  16.592  64.667  1.00  0.00    -0.012 C  
HETATM   22  C   UNL     1      -6.317  14.142  68.506  1.00  0.00    -0.093 C  
HETATM   23  C   UNL     1     -11.400  17.879  66.840  1.00  0.00     0.874 C  
HETATM   24  C   UNL     1      -9.051  18.474  64.967  1.00  0.00     3.138 C  
HETATM   25  C   UNL     1     -10.920  19.210  67.488  1.00  0.00    -0.405 C  
HETATM   26  H   UNL     1      -4.504  17.553  68.601  1.00  0.00     0.000 HD 
HETATM   27  O   UNL     1      -5.779  15.441  68.703  1.00  0.00    -0.088 OA 
HETATM   28  C   UNL     1      -9.888  19.355  68.701  1.00  0.00    -0.443 C  
HETATM   29  C   UNL     1     -12.320  19.758  67.980  1.00  0.00     4.131 C  
HETATM   30  O   UNL     1      -5.218  18.179  68.631  1.00  0.00    -0.157 OA 
HETATM   31  C   UNL     1      -5.141  18.316  71.030  1.00  0.00    -0.260 C  
HETATM   32  O   UNL     1     -10.391  19.611  69.812  1.00  0.00    -0.025 OA 
HETATM   33  C   UNL     1      -8.288  19.526  68.652  1.00  0.00    -0.364 C  
HETATM   34  C   UNL     1      -7.529  19.562  67.356  1.00  0.00    -0.276 C  
HETATM   35  C   UNL     1      -6.131  16.224  69.930  1.00  0.00    -0.180 C  
HETATM   36  C   UNL     1      -7.292  19.017  69.851  1.00  0.00     0.436 C  
HETATM   37  C   UNL     1      -6.017  17.898  69.798  1.00  0.00    -0.230 C  
HETATM   38  O   UNL     1      -7.873  19.183  71.152  1.00  0.00     2.889 OA 
HETATM   39  H   UNL     1      -7.295  18.888  71.847  1.00  0.00     0.000 HD 
BRANCH  13  40
HETATM   40  O   UNL     1     -10.472  15.398  68.363  1.00  0.00    -0.232 OA 
BRANCH  40  41
HETATM   41  C   UNL     1     -11.112  14.821  69.558  1.00  0.00    -0.279 C  
HETATM   42  C   UNL     1     -11.808  15.110  72.079  1.00  0.00    -0.416 C  
HETATM   43  C   UNL     1     -13.224  11.922  70.525  1.00  0.00     0.608 C  
HETATM   44  O   UNL     1     -11.501  17.062  70.882  1.00  0.00    -0.279 OA 
HETATM   45  C   UNL     1     -12.699  13.897  71.922  1.00  0.00    -0.364 C  
HETATM   46  H   UNL     1     -11.940  17.603  71.529  1.00  0.00     0.000 HD 
HETATM   47  C   UNL     1     -12.204  13.028  70.722  1.00  0.00    -0.272 C  
HETATM   48  C   UNL     1     -11.857  15.738  70.655  1.00  0.00    -0.385 C  
HETATM   49  O   UNL     1     -11.999  13.691  69.430  1.00  0.00    -0.314 OA 
BRANCH  42  50
HETATM   50  N   UNL     1     -12.075  16.044  73.224  1.00  0.00    -0.489 NA 
HETATM   51  C   UNL     1     -11.721  17.454  73.075  1.00  0.00     1.063 C  
HETATM   52  C   UNL     1     -13.403  15.924  73.824  1.00  0.00    -0.117 C  
ENDBRANCH  42  50
ENDBRANCH  40  41
ENDBRANCH  13  40
BRANCH  35  53
HETATM   53  C   UNL     1      -7.542  15.839  70.195  1.00  0.00     0.610 C  
HETATM   54  C   UNL     1      -7.331  14.715  71.198  1.00  0.00     1.829 C  
ENDBRANCH  35  53
ENDBRANCH  11  12
ENDBRANCH   1  11
BRANCH   4  55
HETATM   55  O   UNL     1     -10.902   8.899  68.779  1.00  0.00    -0.135 OA 
HETATM   56  C   UNL     1     -11.244   9.875  67.803  1.00  0.00    -0.003 C  
ENDBRANCH   4  55
TORSDOF 7
ENDMDL
MODEL       65
REMARK 921   NORMALIZED FREE ENERGY PREDICTED BY IDOCK:   12.44 KCAL/MOL
REMARK 922        TOTAL FREE ENERGY PREDICTED BY IDOCK:   14.84 KCAL/MOL
REMARK 923 INTER-LIGAND FREE ENERGY PREDICTED BY IDOCK:   13.86 KCAL/MOL
REMARK 924 INTRA-LIGAND FREE ENERGY PREDICTED BY IDOCK:    0.98 KCAL/MOL
REMARK 927      BINDING AFFINITY PREDICTED BY RF-SCORE:    0.00 PKD
ROOT
HETATM    1  C   UNL     1      -8.748   8.530  67.944  1.00  0.00    -0.138 C  
HETATM    2  O   UNL     1     -10.280   4.398  68.047  1.00  0.00     0.007 OA 
HETATM    3  C   UNL     1      -8.931   7.734  69.309  1.00  0.00    -0.139 C  
HETATM    4  C   UNL     1      -9.867   6.464  69.341  1.00  0.00    -0.149 C  
HETATM    5  C   UNL     1      -9.717   5.728  65.574  1.00  0.00     0.292 C  
HETATM    6  C   UNL     1      -9.582   5.656  68.062  1.00  0.00    -0.120 C  
HETATM    7  C   UNL     1      -9.575   5.563  70.585  1.00  0.00    -0.221 C  
HETATM    8  O   UNL     1      -9.006   7.717  66.770  1.00  0.00    -0.131 OA 
HETATM    9  H   UNL     1     -10.104   3.900  67.258  1.00  0.00     0.000 HD 
HETATM   10  C   UNL     1      -9.868   6.562  66.857  1.00  0.00    -0.164 C  
ENDROOT
BRANCH   1  11
HETATM   11  O   UNL     1      -9.109  10.039  67.980  1.00  0.00    -0.131 OA 
BRANCH  11  12
HETATM   12  C   UNL     1     -10.474  10.437  67.542  1.00  0.00    -0.245 C  
HETATM   13  C   UNL     1     -10.756  11.737  70.021  1.00  0.00     0.765 C  
HETATM   14  C   UNL     1     -12.378  12.256  66.548  1.00  0.00     0.443 C  
HETATM   15  C   UNL     1     -11.282  10.632  68.868  1.00  0.00    -0.333 C  
HETATM   16  O   UNL     1      -9.271  12.218  64.638  1.00  0.00     0.289 OA 
HETATM   17  C   UNL     1     -11.029  11.536  66.245  1.00  0.00    -0.328 C  
HETATM   18  C   UNL     1     -12.761  10.240  68.564  1.00  0.00     2.915 C  
HETATM   19  C   UNL     1     -12.000  12.619  70.612  1.00  0.00    -0.106 C  
HETATM   20  O   UNL     1     -12.737  13.412  69.670  1.00  0.00     0.014 OA 
HETATM   21  C   UNL     1     -13.007  11.586  71.212  1.00  0.00    -0.397 C  
HETATM   22  C   UNL     1     -10.209  12.555  65.370  1.00  0.00    -0.283 C  
HETATM   23  C   UNL     1     -11.440  13.542  71.701  1.00  0.00     2.060 C  
HETATM   24  C   UNL     1     -14.032  13.875  70.103  1.00  0.00     2.401 C  
HETATM   25  C   UNL     1     -11.498  15.097  71.678  1.00  0.00    -0.445 C  
HETATM   26  H   UNL     1     -11.914  16.006  65.033  1.00  0.00     0.000 HD 
HETATM   27  O   UNL     1     -10.669  13.897  65.354  1.00  0.00    -0.298 OA 
HETATM   28  C   UNL     1     -10.803  16.054  70.602  1.00  0.00    -0.162 C  
HETATM   29  C   UNL     1     -10.828  15.384  73.082  1.00  0.00     1.710 C  
HETATM   30  O   UNL     1     -11.892  16.348  65.919  1.00  0.00     0.959 OA 
HETATM   31  C   UNL     1      -9.854  17.557  65.515  1.00  0.00     0.350 C  
HETATM   32  O   UNL     1      -9.761  16.625  70.978  1.00  0.00     2.588 OA 
HETATM   33  C   UNL     1     -11.404  16.630  69.224  1.00  0.00    -0.025 C  
HETATM   34  C   UNL     1     -12.793  16.297  68.759  1.00  0.00     2.180 C  
HETATM   35  C   UNL     1      -9.762  15.011  65.779  1.00  0.00    -0.340 C  
HETATM   36  C   UNL     1     -10.475  17.016  67.929  1.00  0.00    -0.354 C  
HETATM   37  C   UNL     1     -10.516  16.405  66.347  1.00  0.00    -0.286 C  
HETATM   38  O   UNL     1      -9.210  17.574  68.311  1.00  0.00    -0.261 OA 
HETATM   39  H   UNL     1      -8.672  17.798  67.560  1.00  0.00     0.000 HD 
BRANCH  13  40
HETATM   40  O   UNL     1      -9.496  12.379  69.651  1.00  0.00     1.233 OA 
BRANCH  40  41
HETATM   41  C   UNL     1      -8.058  12.099  69.500  1.00  0.00     1.065 C  
HETATM   42  C   UNL     1      -5.922  10.840  70.380  1.00  0.00    -0.128 C  
HETATM   43  C   UNL     1      -5.311  12.606  67.050  1.00  0.00     0.210 C  
HETATM   44  O   UNL     1      -7.957   9.908  70.954  1.00  0.00    -0.379 OA 
HETATM   45  C   UNL     1      -5.241  11.181  69.072  1.00  0.00    -0.040 C  
HETATM   46  H   UNL     1      -7.575   9.078  71.217  1.00  0.00     0.000 HD 
HETATM   47  C   UNL     1      -5.938  12.417  68.419  1.00  0.00    -0.056 C  
HETATM   48  C   UNL     1      -7.410  10.692  69.945  1.00  0.00    -0.064 C  
HETATM   49  O   UNL     1      -7.395  12.376  68.250  1.00  0.00    -0.097 OA 
BRANCH  42  50
HETATM   50  N   UNL     1      -5.359   9.717  71.203  1.00  0.00    -0.060 NA 
HETATM   51  C   UNL     1      -5.345   9.853  72.658  1.00  0.00     0.107 C  
HETATM   52  C   UNL     1      -5.826   8.382  70.831  1.00  0.00    -0.033 C  
ENDBRANCH  42  50
ENDBRANCH  40  41
ENDBRANCH  13  40
BRANCH  35  53
HETATM   53  C   UNL     1      -8.952  14.402  66.868  1.00  0.00    -0.263 C  
HETATM   54  C   UNL     1      -7.582  14.975  66.538  1.00  0.00     0.835 C  
ENDBRANCH  35  53
ENDBRANCH  11  12
ENDBRANCH   1  11
BRANCH   4  55
HETATM   55  O   UNL     1     -11.215   6.964  69.417  1.00  0.00    -0.228 OA 
HETATM   56  C   UNL     1     -12.060   6.484  70.456  1.00  0.00    -0.160 C  
ENDBRANCH   4  55
TORSDOF 7
ENDMDL
MODEL       66
REMARK 921   NORMALIZED FREE ENERGY PREDICTED BY IDOCK:   13.10 KCAL/MOL
REMARK 922        TOTAL FREE ENERGY PREDICTED BY IDOCK:   15.78 KCAL/MOL
REMARK 923 INTER-LIGAND FREE ENERGY PREDICTED BY IDOCK:    4.20 KCAL/MOL
REMARK 924 INTRA-LIGAND FREE ENERGY PREDICTED BY IDOCK:   11.58 KCAL/MOL
REMARK 927      BINDING AFFINITY PREDICTED BY RF-SCORE:    0.00 PKD
ROOT
HETATM    1  C   UNL     1      -8.975  11.082  66.503  1.00  0.00    -0.173 C  
HETATM    2  O   UNL     1      -8.137  15.353  67.204  1.00  0.00    -0.182 OA 
HETATM    3  C   UNL     1      -9.976  12.225  66.031  1.00  0.00    -0.270 C  
HETATM    4  C   UNL     1      -9.861  13.663  66.671  1.00  0.00    -0.284 C  
HETATM    5  C   UNL     1      -6.214  13.324  67.829  1.00  0.00    -0.159 C  
HETATM    6  C   UNL     1      -8.362  14.002  66.762  1.00  0.00     0.105 C  
HETATM    7  C   UNL     1     -10.574  14.744  65.795  1.00  0.00    -0.338 C  
HETATM    8  O   UNL     1      -7.734  11.600  67.049  1.00  0.00    -0.148 OA 
HETATM    9  H   UNL     1      -7.213  15.562  67.260  1.00  0.00     0.000 HD 
HETATM   10  C   UNL     1      -7.685  12.925  67.620  1.00  0.00    -0.162 C  
ENDROOT
BRANCH   1  11
HETATM   11  O   UNL     1      -9.628   9.789  67.060  1.00  0.00    -0.161 OA 
BRANCH  11  12
HETATM   12  C   UNL     1      -8.824   8.538  67.033  1.00  0.00    -0.133 C  
HETATM   13  C   UNL     1      -7.631   9.399  69.432  1.00  0.00    -0.083 C  
HETATM   14  C   UNL     1      -8.202   5.917  67.847  1.00  0.00    -0.108 C  
HETATM   15  C   UNL     1      -7.524   8.877  67.837  1.00  0.00    -0.092 C  
HETATM   16  O   UNL     1     -11.734   6.397  67.069  1.00  0.00     0.259 OA 
HETATM   17  C   UNL     1      -9.296   6.822  67.204  1.00  0.00    -0.154 C  
HETATM   18  C   UNL     1      -6.367   8.039  67.210  1.00  0.00    -0.056 C  
HETATM   19  C   UNL     1      -6.515   8.665  70.375  1.00  0.00    -0.036 C  
HETATM   20  O   UNL     1      -6.582   7.235  70.465  1.00  0.00    -0.045 OA 
HETATM   21  C   UNL     1      -5.130   9.010  69.741  1.00  0.00    -0.030 C  
HETATM   22  C   UNL     1     -10.666   6.196  67.661  1.00  0.00    -0.308 C  
HETATM   23  C   UNL     1      -6.639   9.253  71.786  1.00  0.00     0.101 C  
HETATM   24  C   UNL     1      -5.404   6.573  70.968  1.00  0.00    -0.022 C  
HETATM   25  C   UNL     1      -6.978   8.443  73.071  1.00  0.00    -0.108 C  
HETATM   26  H   UNL     1     -10.262   3.324  70.214  1.00  0.00     0.000 HD 
HETATM   27  O   UNL     1     -10.617   5.269  68.735  1.00  0.00    -0.160 OA 
HETATM   28  C   UNL     1      -8.332   7.642  73.355  1.00  0.00    -0.158 C  
HETATM   29  C   UNL     1      -6.879   9.614  74.129  1.00  0.00     1.033 C  
HETATM   30  O   UNL     1      -9.909   3.760  70.980  1.00  0.00    -0.183 OA 
HETATM   31  C   UNL     1     -12.086   4.036  71.961  1.00  0.00     3.170 C  
HETATM   32  O   UNL     1      -9.135   8.196  74.132  1.00  0.00    -0.059 OA 
HETATM   33  C   UNL     1      -8.683   6.103  73.041  1.00  0.00    -0.121 C  
HETATM   34  C   UNL     1      -7.697   5.178  72.385  1.00  0.00    -0.097 C  
HETATM   35  C   UNL     1     -11.414   5.514  69.979  1.00  0.00     0.873 C  
HETATM   36  C   UNL     1     -10.205   5.567  72.752  1.00  0.00    -0.186 C  
HETATM   37  C   UNL     1     -10.837   4.787  71.383  1.00  0.00     0.228 C  
HETATM   38  O   UNL     1     -11.186   6.256  73.540  1.00  0.00    -0.450 OA 
HETATM   39  H   UNL     1     -12.068   5.946  73.372  1.00  0.00     0.000 HD 
BRANCH  13  40
HETATM   40  O   UNL     1      -9.014   9.541  69.886  1.00  0.00    -0.177 OA 
BRANCH  40  41
HETATM   41  C   UNL     1     -10.314  10.099  69.473  1.00  0.00    -0.240 C  
HETATM   42  C   UNL     1     -12.705  10.944  70.170  1.00  0.00    -0.161 C  
HETATM   43  C   UNL     1     -11.934  11.610  66.490  1.00  0.00     0.349 C  
HETATM   44  O   UNL     1     -11.091  10.994  71.822  1.00  0.00     1.643 OA 
HETATM   45  C   UNL     1     -12.836  11.560  68.794  1.00  0.00     1.656 C  
HETATM   46  H   UNL     1     -11.600  11.561  72.391  1.00  0.00     0.000 HD 
HETATM   47  C   UNL     1     -11.865  10.847  67.801  1.00  0.00     0.205 C  
HETATM   48  C   UNL     1     -11.176  11.061  70.436  1.00  0.00    -0.015 C  
HETATM   49  O   UNL     1     -10.454  10.728  68.183  1.00  0.00    -0.169 OA 
BRANCH  42  50
HETATM   50  N   UNL     1     -13.608  11.444  71.262  1.00  0.00     0.379 NA 
HETATM   51  C   UNL     1     -13.937  10.546  72.366  1.00  0.00     0.566 C  
HETATM   52  C   UNL     1     -13.275  12.770  71.780  1.00  0.00    -0.374 C  
ENDBRANCH  42  50
ENDBRANCH  40  41
ENDBRANCH  13  40
BRANCH  35  53
HETATM   53  C   UNL     1     -11.377   6.993  70.129  1.00  0.00    -0.321 C  
HETATM   54  C   UNL     1     -12.787   7.249  70.638  1.00  0.00     0.070 C  
ENDBRANCH  35  53
ENDBRANCH  11  12
ENDBRANCH   1  11
BRANCH   4  55
HETATM   55  O   UNL     1     -10.511  13.581  67.954  1.00  0.00    -0.241 OA 
HETATM   56  C   UNL     1     -11.263  14.700  68.407  1.00  0.00    -0.274 C  
ENDBRANCH   4  55
TORSDOF 7
ENDMDL
MODEL       67
REMARK 921   NORMALIZED FREE ENERGY PREDICTED BY IDOCK:   13.30 KCAL/MOL
REMARK 922        TOTAL FREE ENERGY PREDICTED BY IDOCK:   16.05 KCAL/MOL
REMARK 923 INTER-LIGAND FREE ENERGY PREDICTED BY IDOCK:   16.07 KCAL/MOL
REMARK 924 INTRA-LIGAND FREE ENERGY PREDICTED BY IDOCK:   -0.02 KCAL/MOL
REMARK 927      BINDING AFFINITY PREDICTED BY RF-SCORE:    0.00 PKD
ROOT
HETATM    1  C   UNL     1     -10.110   9.780  70.109  1.00  0.00    -0.265 C  
HETATM    2  O   UNL     1     -11.092   6.087  72.307  1.00  0.00    -0.248 OA 
HETATM    3  C   UNL     1     -11.172   9.761  71.293  1.00  0.00    -0.417 C  
HETATM    4  C   UNL     1     -11.802   8.386  71.742  1.00  0.00    -0.316 C  
HETATM    5  C   UNL     1      -8.997   6.159  70.354  1.00  0.00    -0.151 C  
HETATM    6  C   UNL     1     -10.662   7.353  71.775  1.00  0.00    -0.214 C  
HETATM    7  C   UNL     1     -12.441   8.481  73.166  1.00  0.00     0.767 C  
HETATM    8  O   UNL     1      -9.426   8.511  69.937  1.00  0.00    -0.161 OA 
HETATM    9  H   UNL     1     -10.388   5.449  72.327  1.00  0.00     0.000 HD 
HETATM   10  C   UNL     1     -10.048   7.282  70.370  1.00  0.00    -0.192 C  
ENDROOT
BRANCH   1  11
HETATM   11  O   UNL     1     -10.451  10.687  68.898  1.00  0.00    -0.187 OA 
BRANCH  11  12
HETATM   12  C   UNL     1     -11.573  11.654  69.048  1.00  0.00    -0.316 C  
HETATM   13  C   UNL     1      -9.668  13.540  69.904  1.00  0.00     1.953 C  
HETATM   14  C   UNL     1     -13.147  13.841  68.240  1.00  0.00     2.614 C  
HETATM   15  C   UNL     1     -11.087  12.668  70.137  1.00  0.00     0.616 C  
HETATM   16  O   UNL     1     -12.533  11.429  65.573  1.00  0.00     0.739 OA 
HETATM   17  C   UNL     1     -12.646  12.421  67.841  1.00  0.00     1.363 C  
HETATM   18  C   UNL     1     -12.352  13.144  70.915  1.00  0.00    -0.393 C  
HETATM   19  C   UNL     1      -9.856  15.108  70.327  1.00  0.00     0.237 C  
HETATM   20  O   UNL     1     -10.854  15.856  69.617  1.00  0.00    -0.260 OA 
HETATM   21  C   UNL     1     -10.291  15.094  71.827  1.00  0.00     1.435 C  
HETATM   22  C   UNL     1     -12.536  12.450  66.272  1.00  0.00     0.574 C  
HETATM   23  C   UNL     1      -8.501  15.804  70.151  1.00  0.00     0.843 C  
HETATM   24  C   UNL     1     -11.279  17.091  70.227  1.00  0.00     0.629 C  
HETATM   25  C   UNL     1      -8.224  17.005  69.201  1.00  0.00    -0.034 C  
HETATM   26  H   UNL     1     -13.154  15.951  64.758  1.00  0.00     0.000 HD 
HETATM   27  O   UNL     1     -12.560  13.728  65.654  1.00  0.00    -0.491 OA 
HETATM   28  C   UNL     1      -8.356  17.001  67.607  1.00  0.00    -0.190 C  
HETATM   29  C   UNL     1      -6.703  17.250  69.558  1.00  0.00    -0.130 C  
HETATM   30  O   UNL     1     -12.420  16.461  65.079  1.00  0.00     1.272 OA 
HETATM   31  C   UNL     1     -11.135  16.064  63.086  1.00  0.00     4.912 C  
HETATM   32  O   UNL     1      -7.283  16.937  66.976  1.00  0.00    -0.160 OA 
HETATM   33  C   UNL     1      -9.629  17.376  66.697  1.00  0.00    -0.283 C  
HETATM   34  C   UNL     1     -10.942  17.796  67.295  1.00  0.00    -0.033 C  
HETATM   35  C   UNL     1     -11.424  14.166  64.782  1.00  0.00    -0.383 C  
HETATM   36  C   UNL     1      -9.890  16.739  65.209  1.00  0.00     0.490 C  
HETATM   37  C   UNL     1     -11.203  15.829  64.635  1.00  0.00    -0.363 C  
HETATM   38  O   UNL     1      -8.671  16.536  64.479  1.00  0.00     3.837 OA 
HETATM   39  H   UNL     1      -8.823  16.167  63.617  1.00  0.00     0.000 HD 
BRANCH  13  40
HETATM   40  O   UNL     1      -8.984  13.180  68.663  1.00  0.00    -0.091 OA 
BRANCH  40  41
HETATM   41  C   UNL     1      -7.871  12.359  68.154  1.00  0.00    -0.146 C  
HETATM   42  C   UNL     1      -5.853  10.756  68.683  1.00  0.00    -0.039 C  
HETATM   43  C   UNL     1      -6.575  11.014  64.943  1.00  0.00     0.555 C  
HETATM   44  O   UNL     1      -7.506  10.870  70.294  1.00  0.00    -0.415 OA 
HETATM   45  C   UNL     1      -5.824  10.387  67.216  1.00  0.00    -0.052 C  
HETATM   46  H   UNL     1      -7.209  10.088  70.746  1.00  0.00     0.000 HD 
HETATM   47  C   UNL     1      -6.501  11.515  66.374  1.00  0.00     0.032 C  
HETATM   48  C   UNL     1      -7.367  11.033  68.920  1.00  0.00    -0.111 C  
HETATM   49  O   UNL     1      -7.841  11.959  66.769  1.00  0.00    -0.146 OA 
BRANCH  42  50
HETATM   50  N   UNL     1      -5.189   9.830  69.662  1.00  0.00    -0.034 NA 
HETATM   51  C   UNL     1      -5.317  10.111  71.091  1.00  0.00    -0.081 C  
HETATM   52  C   UNL     1      -5.407   8.406  69.413  1.00  0.00    -0.031 C  
ENDBRANCH  42  50
ENDBRANCH  40  41
ENDBRANCH  13  40
BRANCH  35  53
HETATM   53  C   UNL     1     -10.233  13.559  65.433  1.00  0.00    -0.316 C  
HETATM   54  C   UNL     1      -9.778  12.612  64.333  1.00  0.00     0.065 C  
ENDBRANCH  35  53
ENDBRANCH  11  12
ENDBRANCH   1  11
BRANCH   4  55
HETATM   55  O   UNL     1     -12.827   8.082  70.776  1.00  0.00     0.046 OA 
HETATM   56  C   UNL     1     -14.123   7.737  71.248  1.00  0.00    -0.259 C  
ENDBRANCH   4  55
TORSDOF 7
ENDMDL
MODEL       68
REMARK 921   NORMALIZED FREE ENERGY PREDICTED BY IDOCK:   14.19 KCAL/MOL
REMARK 922        TOTAL FREE ENERGY PREDICTED BY IDOCK:   17.31 KCAL/MOL
REMARK 923 INTER-LIGAND FREE ENERGY PREDICTED BY IDOCK:   19.18 KCAL/MOL
REMARK 924 INTRA-LIGAND FREE ENERGY PREDICTED BY IDOCK:   -1.87 KCAL/MOL
REMARK 927      BINDING AFFINITY PREDICTED BY RF-SCORE:    0.00 PKD
ROOT
HETATM    1  C   UNL     1     -11.604  11.730  66.478  1.00  0.00    -0.181 C  
HETATM    2  O   UNL     1     -12.715  13.999  62.866  1.00  0.00    -0.802 OA 
HETATM    3  C   UNL     1     -11.812  13.307  66.505  1.00  0.00    -0.450 C  
HETATM    4  C   UNL     1     -11.774  14.112  65.148  1.00  0.00    -0.361 C  
HETATM    5  C   UNL     1     -12.594  11.137  62.862  1.00  0.00     1.460 C  
HETATM    6  C   UNL     1     -12.563  13.294  64.111  1.00  0.00    -0.158 C  
HETATM    7  C   UNL     1     -12.438  15.521  65.295  1.00  0.00     0.815 C  
HETATM    8  O   UNL     1     -11.946  11.131  65.201  1.00  0.00     0.357 OA 
HETATM    9  H   UNL     1     -13.203  13.494  62.226  1.00  0.00     0.000 HD 
HETATM   10  C   UNL     1     -11.898  11.917  63.990  1.00  0.00    -0.364 C  
ENDROOT
BRANCH   1  11
HETATM   11  O   UNL     1     -10.442  11.179  67.346  1.00  0.00    -0.201 OA 
BRANCH  11  12
HETATM   12  C   UNL     1     -10.317  11.683  68.741  1.00  0.00    -0.195 C  
HETATM   13  C   UNL     1     -11.871   9.480  69.545  1.00  0.00     0.448 C  
HETATM   14  C   UNL     1      -9.244  11.678  71.342  1.00  0.00    11.553 C  
HETATM   15  C   UNL     1     -11.582  11.135  69.482  1.00  0.00    -0.392 C  
HETATM   16  O   UNL     1      -6.709  11.505  68.724  1.00  0.00    -0.066 OA 
HETATM   17  C   UNL     1      -8.904  11.824  69.827  1.00  0.00     1.842 C  
HETATM   18  C   UNL     1     -11.967  12.186  70.568  1.00  0.00    -0.308 C  
HETATM   19  C   UNL     1     -12.342   9.014  71.040  1.00  0.00    -0.193 C  
HETATM   20  O   UNL     1     -11.422   9.255  72.114  1.00  0.00    -0.301 OA 
HETATM   21  C   UNL     1     -13.628   9.842  71.358  1.00  0.00    -0.297 C  
HETATM   22  C   UNL     1      -7.454  11.233  69.673  1.00  0.00     0.178 C  
HETATM   23  C   UNL     1     -12.651   7.513  70.984  1.00  0.00    -0.223 C  
HETATM   24  C   UNL     1     -11.970   9.201  73.447  1.00  0.00     3.035 C  
HETATM   25  C   UNL     1     -11.935   6.416  71.824  1.00  0.00    -0.370 C  
HETATM   26  H   UNL     1      -6.115   9.596  72.907  1.00  0.00     0.000 HD 
HETATM   27  O   UNL     1      -6.966  10.450  70.752  1.00  0.00    -0.313 OA 
HETATM   28  C   UNL     1     -10.384   6.033  71.755  1.00  0.00    -0.215 C  
HETATM   29  C   UNL     1     -12.763   5.159  71.338  1.00  0.00     3.855 C  
HETATM   30  O   UNL     1      -6.688   8.848  73.026  1.00  0.00    -0.315 OA 
HETATM   31  C   UNL     1      -5.165   7.366  71.903  1.00  0.00    -0.035 C  
HETATM   32  O   UNL     1     -10.112   4.987  71.134  1.00  0.00    -0.204 OA 
HETATM   33  C   UNL     1      -9.158   6.617  72.619  1.00  0.00    -0.140 C  
HETATM   34  C   UNL     1      -9.354   7.679  73.664  1.00  0.00    -0.344 C  
HETATM   35  C   UNL     1      -6.527   9.037  70.520  1.00  0.00    -0.051 C  
HETATM   36  C   UNL     1      -7.615   6.677  72.067  1.00  0.00    -0.096 C  
HETATM   37  C   UNL     1      -6.592   8.013  71.854  1.00  0.00    -0.055 C  
HETATM   38  O   UNL     1      -7.284   5.547  71.246  1.00  0.00    -0.068 OA 
HETATM   39  H   UNL     1      -6.390   5.581  70.927  1.00  0.00     0.000 HD 
BRANCH  13  40
HETATM   40  O   UNL     1     -10.878   8.706  68.802  1.00  0.00    -0.116 OA 
BRANCH  40  41
HETATM   41  C   UNL     1     -10.635   8.106  67.478  1.00  0.00    -0.221 C  
HETATM   42  C   UNL     1      -9.605   8.349  65.070  1.00  0.00     1.014 C  
HETATM   43  C   UNL     1     -10.883   4.818  65.765  1.00  0.00    -0.123 C  
HETATM   44  O   UNL     1      -8.688   9.699  66.705  1.00  0.00    -0.132 OA 
HETATM   45  C   UNL     1      -9.776   6.855  64.898  1.00  0.00     2.154 C  
HETATM   46  H   UNL     1      -7.922   9.916  66.186  1.00  0.00     0.000 HD 
HETATM   47  C   UNL     1     -10.873   6.332  65.879  1.00  0.00     1.226 C  
HETATM   48  C   UNL     1      -9.336   8.474  66.598  1.00  0.00    -0.189 C  
HETATM   49  O   UNL     1     -10.751   6.680  67.299  1.00  0.00    -0.266 OA 
BRANCH  42  50
HETATM   50  N   UNL     1      -8.639   9.062  64.167  1.00  0.00    -0.177 NA 
HETATM   51  C   UNL     1      -7.237   8.650  64.175  1.00  0.00    -0.092 C  
HETATM   52  C   UNL     1      -9.097   9.244  62.791  1.00  0.00    -0.005 C  
ENDBRANCH  42  50
ENDBRANCH  40  41
ENDBRANCH  13  40
BRANCH  35  53
HETATM   53  C   UNL     1      -7.462   8.552  69.471  1.00  0.00    -0.080 C  
HETATM   54  C   UNL     1      -6.479   7.884  68.521  1.00  0.00    -0.053 C  
ENDBRANCH  35  53
ENDBRANCH  11  12
ENDBRANCH   1  11
BRANCH   4  55
HETATM   55  O   UNL     1     -10.381  14.271  64.818  1.00  0.00    -0.433 OA 
HETATM   56  C   UNL     1      -9.494  14.743  65.825  1.00  0.00    -0.174 C  
ENDBRANCH   4  55
TORSDOF 7
ENDMDL
MODEL       69
REMARK 921   NORMALIZED FREE ENERGY PREDICTED BY IDOCK:   14.56 KCAL/MOL
REMARK 922        TOTAL FREE ENERGY PREDICTED BY IDOCK:   17.83 KCAL/MOL
REMARK 923 INTER-LIGAND FREE ENERGY PREDICTED BY IDOCK:   13.42 KCAL/MOL
REMARK 924 INTRA-LIGAND FREE ENERGY PREDICTED BY IDOCK:    4.41 KCAL/MOL
REMARK 927      BINDING AFFINITY PREDICTED BY RF-SCORE:    0.00 PKD
ROOT
HETATM    1  C   UNL     1      -7.878   7.753  67.643  1.00  0.00    -0.123 C  
HETATM    2  O   UNL     1      -8.311   3.371  67.840  1.00  0.00    -0.082 OA 
HETATM    3  C   UNL     1      -7.478   6.925  68.940  1.00  0.00    -0.096 C  
HETATM    4  C   UNL     1      -8.044   5.464  69.127  1.00  0.00    -0.094 C  
HETATM    5  C   UNL     1      -8.793   4.819  65.416  1.00  0.00    -0.146 C  
HETATM    6  C   UNL     1      -7.950   4.762  67.761  1.00  0.00    -0.093 C  
HETATM    7  C   UNL     1      -7.211   4.652  70.173  1.00  0.00    -0.050 C  
HETATM    8  O   UNL     1      -8.259   6.912  66.523  1.00  0.00    -0.111 OA 
HETATM    9  H   UNL     1      -8.253   2.938  66.996  1.00  0.00     0.000 HD 
HETATM   10  C   UNL     1      -8.768   5.580  66.752  1.00  0.00    -0.114 C  
ENDROOT
BRANCH   1  11
HETATM   11  O   UNL     1      -8.556   9.127  67.891  1.00  0.00    -0.121 OA 
BRANCH  11  12
HETATM   12  C   UNL     1     -10.007   9.251  67.585  1.00  0.00    -0.196 C  
HETATM   13  C   UNL     1     -10.177  11.066  69.728  1.00  0.00     0.245 C  
HETATM   14  C   UNL     1     -12.260  10.550  66.509  1.00  0.00     3.905 C  
HETATM   15  C   UNL     1     -10.671   9.665  68.941  1.00  0.00    -0.230 C  
HETATM   16  O   UNL     1      -9.430  10.409  64.212  1.00  0.00    -0.244 OA 
HETATM   17  C   UNL     1     -10.866   9.937  66.175  1.00  0.00     0.218 C  
HETATM   18  C   UNL     1     -12.102   9.046  68.956  1.00  0.00     1.964 C  
HETATM   19  C   UNL     1     -11.457  11.917  70.288  1.00  0.00     0.066 C  
HETATM   20  O   UNL     1     -12.408  12.372  69.315  1.00  0.00    -0.098 OA 
HETATM   21  C   UNL     1     -12.224  10.950  71.245  1.00  0.00    -0.395 C  
HETATM   22  C   UNL     1     -10.313  10.803  64.983  1.00  0.00    -0.287 C  
HETATM   23  C   UNL     1     -10.911  13.132  71.049  1.00  0.00     3.018 C  
HETATM   24  C   UNL     1     -13.695  12.776  69.823  1.00  0.00     3.840 C  
HETATM   25  C   UNL     1     -11.196  14.619  70.690  1.00  0.00    -0.110 C  
HETATM   26  H   UNL     1     -12.529  13.856  64.148  1.00  0.00     0.000 HD 
HETATM   27  O   UNL     1     -10.962  12.041  64.739  1.00  0.00    -0.292 OA 
HETATM   28  C   UNL     1     -10.781  15.362  69.337  1.00  0.00    -0.258 C  
HETATM   29  C   UNL     1     -10.413  15.308  71.878  1.00  0.00     1.171 C  
HETATM   30  O   UNL     1     -12.452  14.401  64.923  1.00  0.00    -0.487 OA 
HETATM   31  C   UNL     1     -10.674  15.701  63.960  1.00  0.00     1.407 C  
HETATM   32  O   UNL     1      -9.796  16.122  69.417  1.00  0.00    -0.242 OA 
HETATM   33  C   UNL     1     -11.619  15.520  67.972  1.00  0.00    -0.276 C  
HETATM   34  C   UNL     1     -12.991  14.930  67.805  1.00  0.00     2.189 C  
HETATM   35  C   UNL     1     -10.182  13.320  64.765  1.00  0.00    -0.304 C  
HETATM   36  C   UNL     1     -10.918  15.687  66.499  1.00  0.00    -0.206 C  
HETATM   37  C   UNL     1     -11.058  14.714  65.116  1.00  0.00    -0.377 C  
HETATM   38  O   UNL     1      -9.710  16.460  66.553  1.00  0.00    -0.241 OA 
HETATM   39  H   UNL     1      -9.304  16.558  65.700  1.00  0.00     0.000 HD 
BRANCH  13  40
HETATM   40  O   UNL     1      -9.077  11.740  69.040  1.00  0.00     0.053 OA 
BRANCH  40  41
HETATM   41  C   UNL     1      -8.097  12.826  69.217  1.00  0.00     0.710 C  
HETATM   42  C   UNL     1      -6.256  13.951  70.721  1.00  0.00    -0.039 C  
HETATM   43  C   UNL     1      -6.481  15.536  67.254  1.00  0.00    -0.049 C  
HETATM   44  O   UNL     1      -6.646  11.707  71.106  1.00  0.00     0.176 OA 
HETATM   45  C   UNL     1      -5.836  14.765  69.516  1.00  0.00    -0.102 C  
HETATM   46  H   UNL     1      -5.847  11.588  71.607  1.00  0.00     0.000 HD 
HETATM   47  C   UNL     1      -7.016  14.844  68.495  1.00  0.00    -0.107 C  
HETATM   48  C   UNL     1      -6.743  12.625  70.067  1.00  0.00     0.366 C  
HETATM   49  O   UNL     1      -7.650  13.589  68.078  1.00  0.00    -0.113 OA 
BRANCH  42  50
HETATM   50  N   UNL     1      -5.283  13.811  71.857  1.00  0.00    -0.183 NA 
HETATM   51  C   UNL     1      -5.312  14.801  72.932  1.00  0.00    -0.024 C  
HETATM   52  C   UNL     1      -5.180  12.465  72.421  1.00  0.00     0.340 C  
ENDBRANCH  42  50
ENDBRANCH  40  41
ENDBRANCH  13  40
BRANCH  35  53
HETATM   53  C   UNL     1      -9.168  13.085  65.828  1.00  0.00     0.246 C  
HETATM   54  C   UNL     1     -10.080  12.821  67.017  1.00  0.00    -0.240 C  
ENDBRANCH  35  53
ENDBRANCH  11  12
ENDBRANCH   1  11
BRANCH   4  55
HETATM   55  O   UNL     1      -9.394   5.618  69.605  1.00  0.00    -0.133 OA 
HETATM   56  C   UNL     1      -9.880   4.697  70.574  1.00  0.00    -0.231 C  
ENDBRANCH   4  55
TORSDOF 7
ENDMDL
MODEL       70
REMARK 921   NORMALIZED FREE ENERGY PREDICTED BY IDOCK:   16.01 KCAL/MOL
REMARK 922        TOTAL FREE ENERGY PREDICTED BY IDOCK:   19.87 KCAL/MOL
REMARK 923 INTER-LIGAND FREE ENERGY PREDICTED BY IDOCK:    7.23 KCAL/MOL
REMARK 924 INTRA-LIGAND FREE ENERGY PREDICTED BY IDOCK:   12.65 KCAL/MOL
REMARK 927      BINDING AFFINITY PREDICTED BY RF-SCORE:    0.00 PKD
ROOT
HETATM    1  C   UNL     1      -6.128  10.672  66.670  1.00  0.00    -0.081 C  
HETATM    2  O   UNL     1      -6.851   7.667  63.528  1.00  0.00    -0.057 OA 
HETATM    3  C   UNL     1      -6.769  11.059  65.267  1.00  0.00     0.353 C  
HETATM    4  C   UNL     1      -6.607  10.071  64.047  1.00  0.00    -0.130 C  
HETATM    5  C   UNL     1      -5.935   6.919  66.137  1.00  0.00    -0.035 C  
HETATM    6  C   UNL     1      -6.837   8.647  64.582  1.00  0.00    -0.073 C  
HETATM    7  C   UNL     1      -7.653  10.366  62.923  1.00  0.00    -0.120 C  
HETATM    8  O   UNL     1      -5.944   9.243  66.839  1.00  0.00    -0.057 OA 
HETATM    9  H   UNL     1      -6.993   6.788  63.857  1.00  0.00     0.000 HD 
HETATM   10  C   UNL     1      -5.805   8.384  65.686  1.00  0.00    -0.044 C  
ENDROOT
BRANCH   1  11
HETATM   11  O   UNL     1      -5.126  11.695  67.269  1.00  0.00    -0.057 OA 
BRANCH  11  12
HETATM   12  C   UNL     1      -5.481  12.339  68.563  1.00  0.00    -0.054 C  
HETATM   13  C   UNL     1      -7.797  13.317  67.300  1.00  0.00    -0.108 C  
HETATM   14  C   UNL     1      -6.906  12.533  70.982  1.00  0.00     2.999 C  
HETATM   15  C   UNL     1      -6.380  13.559  68.172  1.00  0.00    -0.124 C  
HETATM   16  O   UNL     1      -5.530   9.210  70.369  1.00  0.00    -0.029 OA 
HETATM   17  C   UNL     1      -5.934  11.645  70.148  1.00  0.00    -0.161 C  
HETATM   18  C   UNL     1      -6.121  14.676  69.230  1.00  0.00    -0.107 C  
HETATM   19  C   UNL     1      -9.027  14.209  67.902  1.00  0.00    -0.185 C  
HETATM   20  O   UNL     1      -9.403  13.959  69.265  1.00  0.00     0.224 OA 
HETATM   21  C   UNL     1      -8.549  15.694  67.835  1.00  0.00    -0.163 C  
HETATM   22  C   UNL     1      -6.302  10.164  70.528  1.00  0.00    -0.117 C  
HETATM   23  C   UNL     1     -10.251  13.981  67.005  1.00  0.00    -0.261 C  
HETATM   24  C   UNL     1     -10.202  14.976  69.902  1.00  0.00    -0.079 C  
HETATM   25  C   UNL     1     -11.611  13.389  67.475  1.00  0.00    -0.382 C  
HETATM   26  H   UNL     1      -9.428   9.894  72.783  1.00  0.00     0.000 HD 
HETATM   27  O   UNL     1      -7.540   9.965  71.193  1.00  0.00    -0.197 OA 
HETATM   28  C   UNL     1     -11.852  11.922  68.065  1.00  0.00    -0.253 C  
HETATM   29  C   UNL     1     -12.405  13.495  66.111  1.00  0.00    -0.463 C  
HETATM   30  O   UNL     1     -10.131  10.199  72.220  1.00  0.00     2.628 OA 
HETATM   31  C   UNL     1     -10.698   7.965  71.536  1.00  0.00    -0.267 C  
HETATM   32  O   UNL     1     -12.368  11.101  67.282  1.00  0.00     0.393 OA 
HETATM   33  C   UNL     1     -11.817  11.431  69.598  1.00  0.00    -0.431 C  
HETATM   34  C   UNL     1     -11.522  12.372  70.731  1.00  0.00     0.990 C  
HETATM   35  C   UNL     1      -8.574   9.053  70.605  1.00  0.00    -0.210 C  
HETATM   36  C   UNL     1     -11.422   9.903  70.044  1.00  0.00    -0.217 C  
HETATM   37  C   UNL     1     -10.168   9.358  71.049  1.00  0.00    -0.299 C  
HETATM   38  O   UNL     1     -11.895   8.921  69.110  1.00  0.00     0.249 OA 
HETATM   39  H   UNL     1     -11.667   8.036  69.369  1.00  0.00     0.000 HD 
BRANCH  13  40
HETATM   40  O   UNL     1      -8.000  11.915  66.935  1.00  0.00    -0.162 OA 
BRANCH  40  41
HETATM   41  C   UNL     1      -8.881  11.046  66.135  1.00  0.00    -0.190 C  
HETATM   42  C   UNL     1      -9.869   8.645  65.717  1.00  0.00     0.123 C  
HETATM   43  C   UNL     1     -11.524  11.307  63.537  1.00  0.00     0.004 C  
HETATM   44  O   UNL     1      -9.105   9.068  67.856  1.00  0.00    -0.135 OA 
HETATM   45  C   UNL     1     -10.904   9.279  64.814  1.00  0.00     4.393 C  
HETATM   46  H   UNL     1      -9.542   8.312  68.231  1.00  0.00     0.000 HD 
HETATM   47  C   UNL     1     -10.384  10.661  64.304  1.00  0.00    -0.255 C  
HETATM   48  C   UNL     1      -9.623   9.765  66.770  1.00  0.00    -0.177 C  
HETATM   49  O   UNL     1      -9.902  11.626  65.298  1.00  0.00    -0.239 OA 
BRANCH  42  50
HETATM   50  N   UNL     1     -10.148   7.273  66.263  1.00  0.00     0.036 NA 
HETATM   51  C   UNL     1     -11.503   6.958  66.709  1.00  0.00     0.846 C  
HETATM   52  C   UNL     1      -9.617   6.170  65.463  1.00  0.00     0.442 C  
ENDBRANCH  42  50
ENDBRANCH  40  41
ENDBRANCH  13  40
BRANCH  35  53
HETATM   53  C   UNL     1      -8.416   9.250  69.140  1.00  0.00    -0.133 C  
HETATM   54  C   UNL     1      -8.112   7.824  68.707  1.00  0.00    -0.126 C  
ENDBRANCH  35  53
ENDBRANCH  11  12
ENDBRANCH   1  11
BRANCH   4  55
HETATM   55  O   UNL     1      -5.278  10.287  63.534  1.00  0.00    -0.098 OA 
HETATM   56  C   UNL     1      -5.127  11.036  62.335  1.00  0.00    -0.179 C  
ENDBRANCH   4  55
TORSDOF 7
ENDMDL
MODEL       71
REMARK 921   NORMALIZED FREE ENERGY PREDICTED BY IDOCK:   16.11 KCAL/MOL
REMARK 922        TOTAL FREE ENERGY PREDICTED BY IDOCK:   20.01 KCAL/MOL
REMARK 923 INTER-LIGAND FREE ENERGY PREDICTED BY IDOCK:   20.03 KCAL/MOL
REMARK 924 INTRA-LIGAND FREE ENERGY PREDICTED BY IDOCK:   -0.02 KCAL/MOL
REMARK 927      BINDING AFFINITY PREDICTED BY RF-SCORE:    0.00 PKD
ROOT
HETATM    1  C   UNL     1     -10.891   8.205  67.511  1.00  0.00    -0.039 C  
HETATM    2  O   UNL     1      -8.212   4.727  67.900  1.00  0.00    -0.096 OA 
HETATM    3  C   UNL     1     -10.759   7.112  66.364  1.00  0.00     0.412 C  
HETATM    4  C   UNL     1      -9.504   6.155  66.351  1.00  0.00    -0.144 C  
HETATM    5  C   UNL     1      -8.632   6.548  70.071  1.00  0.00    -0.140 C  
HETATM    6  C   UNL     1      -9.253   5.716  67.805  1.00  0.00    -0.106 C  
HETATM    7  C   UNL     1      -9.755   4.886  65.474  1.00  0.00    -0.129 C  
HETATM    8  O   UNL     1     -10.157   7.862  68.714  1.00  0.00    -0.183 OA 
HETATM    9  H   UNL     1      -8.057   4.456  68.797  1.00  0.00     0.000 HD 
HETATM   10  C   UNL     1      -9.017   6.978  68.645  1.00  0.00    -0.130 C  
ENDROOT
BRANCH   1  11
HETATM   11  O   UNL     1     -11.031   9.677  67.040  1.00  0.00    -0.148 OA 
BRANCH  11  12
HETATM   12  C   UNL     1     -11.647  10.652  67.980  1.00  0.00    -0.099 C  
HETATM   13  C   UNL     1      -9.037  11.452  68.664  1.00  0.00    -0.135 C  
HETATM   14  C   UNL     1     -12.474  13.223  68.770  1.00  0.00     0.312 C  
HETATM   15  C   UNL     1     -10.563  10.885  69.086  1.00  0.00    -0.253 C  
HETATM   16  O   UNL     1     -13.487  12.350  65.376  1.00  0.00     0.497 OA 
HETATM   17  C   UNL     1     -12.643  12.109  67.693  1.00  0.00     1.644 C  
HETATM   18  C   UNL     1     -11.322  11.167  70.418  1.00  0.00    -0.147 C  
HETATM   19  C   UNL     1      -8.528  12.615  69.693  1.00  0.00     1.902 C  
HETATM   20  O   UNL     1      -9.334  13.799  69.783  1.00  0.00     1.044 OA 
HETATM   21  C   UNL     1      -8.535  11.961  71.111  1.00  0.00    10.131 C  
HETATM   22  C   UNL     1     -12.939  12.877  66.352  1.00  0.00     1.460 C  
HETATM   23  C   UNL     1      -7.108  13.018  69.277  1.00  0.00     0.097 C  
HETATM   24  C   UNL     1      -9.110  14.637  70.935  1.00  0.00     2.887 C  
HETATM   25  C   UNL     1      -6.671  14.445  68.836  1.00  0.00    -0.098 C  
HETATM   26  H   UNL     1     -12.617  16.713  66.679  1.00  0.00     0.000 HD 
HETATM   27  O   UNL     1     -12.658  14.268  66.337  1.00  0.00    -0.396 OA 
HETATM   28  C   UNL     1      -7.203  15.245  67.557  1.00  0.00    -0.197 C  
HETATM   29  C   UNL     1      -5.128  14.171  68.625  1.00  0.00    -0.091 C  
HETATM   30  O   UNL     1     -11.692  16.841  66.851  1.00  0.00     0.843 OA 
HETATM   31  C   UNL     1     -11.200  17.215  64.528  1.00  0.00     0.840 C  
HETATM   32  O   UNL     1      -6.428  15.281  66.581  1.00  0.00     0.247 OA 
HETATM   33  C   UNL     1      -8.443  16.265  67.446  1.00  0.00    -0.190 C  
HETATM   34  C   UNL     1      -9.312  16.596  68.627  1.00  0.00    -0.247 C  
HETATM   35  C   UNL     1     -11.707  14.835  65.328  1.00  0.00    -0.311 C  
HETATM   36  C   UNL     1      -9.292  16.502  66.064  1.00  0.00    -0.267 C  
HETATM   37  C   UNL     1     -10.945  16.274  65.756  1.00  0.00    -0.062 C  
HETATM   38  O   UNL     1      -8.463  16.437  64.894  1.00  0.00     2.180 OA 
HETATM   39  H   UNL     1      -8.955  16.575  64.094  1.00  0.00     0.000 HD 
BRANCH  13  40
HETATM   40  O   UNL     1      -8.875  11.611  67.219  1.00  0.00    -0.155 OA 
BRANCH  40  41
HETATM   41  C   UNL     1      -8.088  11.103  66.082  1.00  0.00    -0.111 C  
HETATM   42  C   UNL     1      -6.119   9.581  65.230  1.00  0.00    -0.067 C  
HETATM   43  C   UNL     1      -8.187  11.036  62.369  1.00  0.00    -0.246 C  
HETATM   44  O   UNL     1      -7.030   9.010  67.275  1.00  0.00    -0.076 OA 
HETATM   45  C   UNL     1      -6.669   9.736  63.829  1.00  0.00    -0.120 C  
HETATM   46  H   UNL     1      -6.630   8.148  67.285  1.00  0.00     0.000 HD 
HETATM   47  C   UNL     1      -7.547  11.026  63.745  1.00  0.00     0.667 C  
HETATM   48  C   UNL     1      -7.411   9.641  66.097  1.00  0.00    -0.098 C  
HETATM   49  O   UNL     1      -8.609  11.202  64.741  1.00  0.00     0.002 OA 
BRANCH  42  50
HETATM   50  N   UNL     1      -5.190   8.434  65.506  1.00  0.00    -0.031 NA 
HETATM   51  C   UNL     1      -5.219   7.810  66.827  1.00  0.00    -0.027 C  
HETATM   52  C   UNL     1      -5.154   7.404  64.468  1.00  0.00    -0.029 C  
ENDBRANCH  42  50
ENDBRANCH  40  41
ENDBRANCH  13  40
BRANCH  35  53
HETATM   53  C   UNL     1     -10.692  13.760  65.166  1.00  0.00    -0.365 C  
HETATM   54  C   UNL     1     -10.923  13.389  63.709  1.00  0.00     0.001 C  
ENDBRANCH  35  53
ENDBRANCH  11  12
ENDBRANCH   1  11
BRANCH   4  55
HETATM   55  O   UNL     1      -8.424   6.923  65.786  1.00  0.00    -0.141 OA 
HETATM   56  C   UNL     1      -8.157   6.797  64.395  1.00  0.00    -0.058 C  
ENDBRANCH   4  55
TORSDOF 7
ENDMDL
MODEL       72
REMARK 921   NORMALIZED FREE ENERGY PREDICTED BY IDOCK:   16.30 KCAL/MOL
REMARK 922        TOTAL FREE ENERGY PREDICTED BY IDOCK:   20.28 KCAL/MOL
REMARK 923 INTER-LIGAND FREE ENERGY PREDICTED BY IDOCK:    6.86 KCAL/MOL
REMARK 924 INTRA-LIGAND FREE ENERGY PREDICTED BY IDOCK:   13.42 KCAL/MOL
REMARK 927      BINDING AFFINITY PREDICTED BY RF-SCORE:    0.00 PKD
ROOT
HETATM    1  C   UNL     1     -11.689  11.572  66.260  1.00  0.00     0.235 C  
HETATM    2  O   UNL     1     -10.930  15.256  63.961  1.00  0.00    -0.342 OA 
HETATM    3  C   UNL     1     -12.422  11.869  64.880  1.00  0.00     0.183 C  
HETATM    4  C   UNL     1     -12.458  13.348  64.329  1.00  0.00    -0.257 C  
HETATM    5  C   UNL     1      -9.420  14.614  66.309  1.00  0.00    -0.322 C  
HETATM    6  C   UNL     1     -11.060  13.951  64.553  1.00  0.00    -0.366 C  
HETATM    7  C   UNL     1     -12.789  13.387  62.801  1.00  0.00     1.447 C  
HETATM    8  O   UNL     1     -10.675  12.556  66.591  1.00  0.00    -0.232 OA 
HETATM    9  H   UNL     1     -10.067  15.628  64.099  1.00  0.00     0.000 HD 
HETATM   10  C   UNL     1     -10.756  13.895  66.056  1.00  0.00    -0.287 C  
ENDROOT
BRANCH   1  11
HETATM   11  O   UNL     1     -12.550  10.893  67.359  1.00  0.00     1.699 OA 
BRANCH  11  12
HETATM   12  C   UNL     1     -12.365  11.346  68.764  1.00  0.00     0.183 C  
HETATM   13  C   UNL     1     -11.304   8.800  69.315  1.00  0.00     0.393 C  
HETATM   14  C   UNL     1     -10.841  12.281  70.937  1.00  0.00     3.417 C  
HETATM   15  C   UNL     1     -12.403  10.035  69.618  1.00  0.00     0.286 C  
HETATM   16  O   UNL     1     -10.212  14.095  67.836  1.00  0.00    -0.229 OA 
HETATM   17  C   UNL     1     -11.294  12.588  69.478  1.00  0.00    -0.240 C  
HETATM   18  C   UNL     1     -13.024  10.408  71.000  1.00  0.00    -0.490 C  
HETATM   19  C   UNL     1     -10.692   8.193  70.705  1.00  0.00    -0.224 C  
HETATM   20  O   UNL     1      -9.977   9.104  71.551  1.00  0.00    -0.312 OA 
HETATM   21  C   UNL     1     -11.922   7.690  71.526  1.00  0.00    -0.331 C  
HETATM   22  C   UNL     1     -10.092  13.371  68.832  1.00  0.00     0.003 C  
HETATM   23  C   UNL     1      -9.762   7.031  70.335  1.00  0.00    -0.178 C  
HETATM   24  C   UNL     1      -9.775   8.682  72.915  1.00  0.00     0.065 C  
HETATM   25  C   UNL     1      -8.242   6.958  70.663  1.00  0.00    -0.120 C  
HETATM   26  H   UNL     1      -6.974  13.542  71.107  1.00  0.00     0.000 HD 
HETATM   27  O   UNL     1      -8.852  13.317  69.519  1.00  0.00     0.977 OA 
HETATM   28  C   UNL     1      -7.109   7.950  70.126  1.00  0.00    -0.050 C  
HETATM   29  C   UNL     1      -7.938   5.519  70.080  1.00  0.00    -0.086 C  
HETATM   30  O   UNL     1      -6.693  12.635  71.162  1.00  0.00     1.278 OA 
HETATM   31  C   UNL     1      -5.125  12.901  69.359  1.00  0.00    -0.074 C  
HETATM   32  O   UNL     1      -6.392   7.507  69.208  1.00  0.00    -0.034 OA 
HETATM   33  C   UNL     1      -6.554   9.306  70.793  1.00  0.00    -0.084 C  
HETATM   34  C   UNL     1      -7.090   9.833  72.093  1.00  0.00     1.404 C  
HETATM   35  C   UNL     1      -7.629  12.795  68.828  1.00  0.00    -0.025 C  
HETATM   36  C   UNL     1      -5.927  10.546  69.922  1.00  0.00    -0.066 C  
HETATM   37  C   UNL     1      -6.428  12.164  69.825  1.00  0.00    -0.050 C  
HETATM   38  O   UNL     1      -5.185  10.092  68.780  1.00  0.00    -0.036 OA 
HETATM   39  H   UNL     1      -4.821  10.810  68.276  1.00  0.00     0.000 HD 
BRANCH  13  40
HETATM   40  O   UNL     1     -10.429   9.090  68.180  1.00  0.00    -0.215 OA 
BRANCH  40  41
HETATM   41  C   UNL     1      -9.691   8.427  67.091  1.00  0.00    -0.190 C  
HETATM   42  C   UNL     1      -8.803   8.514  64.616  1.00  0.00     0.111 C  
HETATM   43  C   UNL     1      -7.475   5.496  66.542  1.00  0.00    -0.087 C  
HETATM   44  O   UNL     1      -9.227  10.555  65.614  1.00  0.00    -0.170 OA 
HETATM   45  C   UNL     1      -7.912   7.336  64.945  1.00  0.00    -0.127 C  
HETATM   46  H   UNL     1      -8.745  11.047  64.958  1.00  0.00     0.000 HD 
HETATM   47  C   UNL     1      -8.490   6.562  66.173  1.00  0.00    -0.137 C  
HETATM   48  C   UNL     1      -8.874   9.261  65.981  1.00  0.00    -0.160 C  
HETATM   49  O   UNL     1      -8.804   7.328  67.384  1.00  0.00    -0.120 OA 
BRANCH  42  50
HETATM   50  N   UNL     1      -8.459   9.353  63.419  1.00  0.00    -0.189 NA 
HETATM   51  C   UNL     1      -8.534  10.808  63.537  1.00  0.00    -0.022 C  
HETATM   52  C   UNL     1      -7.227   8.972  62.730  1.00  0.00    -0.094 C  
ENDBRANCH  42  50
ENDBRANCH  40  41
ENDBRANCH  13  40
BRANCH  35  53
HETATM   53  C   UNL     1      -8.160  11.723  67.945  1.00  0.00    -0.144 C  
HETATM   54  C   UNL     1      -7.575  12.158  66.611  1.00  0.00     0.152 C  
ENDBRANCH  35  53
ENDBRANCH  11  12
ENDBRANCH   1  11
BRANCH   4  55
HETATM   55  O   UNL     1     -13.499  14.021  65.063  1.00  0.00    -0.381 OA 
HETATM   56  C   UNL     1     -13.260  14.363  66.422  1.00  0.00     1.497 C  
ENDBRANCH   4  55
TORSDOF 7
ENDMDL
MODEL       73
REMARK 921   NORMALIZED FREE ENERGY PREDICTED BY IDOCK:   17.52 KCAL/MOL
REMARK 922        TOTAL FREE ENERGY PREDICTED BY IDOCK:   22.00 KCAL/MOL
REMARK 923 INTER-LIGAND FREE ENERGY PREDICTED BY IDOCK:   12.59 KCAL/MOL
REMARK 924 INTRA-LIGAND FREE ENERGY PREDICTED BY IDOCK:    9.41 KCAL/MOL
REMARK 927      BINDING AFFINITY PREDICTED BY RF-SCORE:    0.00 PKD
ROOT
HETATM    1  C   UNL     1     -11.224  15.419  67.395  1.00  0.00    -0.287 C  
HETATM    2  O   UNL     1      -8.406  18.541  66.076  1.00  0.00    -0.476 OA 
HETATM    3  C   UNL     1     -11.560  16.401  66.190  1.00  0.00     0.951 C  
HETATM    4  C   UNL     1     -10.746  17.745  66.041  1.00  0.00    -0.119 C  
HETATM    5  C   UNL     1      -7.687  16.617  68.073  1.00  0.00    -0.168 C  
HETATM    6  C   UNL     1      -9.268  17.415  66.319  1.00  0.00    -0.208 C  
HETATM    7  C   UNL     1     -10.871  18.340  64.601  1.00  0.00     2.587 C  
HETATM    8  O   UNL     1      -9.873  15.576  67.900  1.00  0.00    -0.215 OA 
HETATM    9  H   UNL     1      -7.494  18.337  66.246  1.00  0.00     0.000 HD 
HETATM   10  C   UNL     1      -9.173  16.827  67.733  1.00  0.00    -0.222 C  
ENDROOT
BRANCH   1  11
HETATM   11  O   UNL     1     -12.405  15.064  68.337  1.00  0.00    -0.065 OA 
BRANCH  11  12
HETATM   12  C   UNL     1     -12.087  14.716  69.748  1.00  0.00    -0.324 C  
HETATM   13  C   UNL     1     -12.545  12.027  69.059  1.00  0.00     0.742 C  
HETATM   14  C   UNL     1     -10.420  13.745  71.797  1.00  0.00     5.696 C  
HETATM   15  C   UNL     1     -12.851  13.376  70.015  1.00  0.00     0.216 C  
HETATM   16  O   UNL     1      -8.769  16.136  69.591  1.00  0.00    -0.079 OA 
HETATM   17  C   UNL     1     -10.566  14.824  70.682  1.00  0.00     0.256 C  
HETATM   18  C   UNL     1     -13.259  13.373  71.520  1.00  0.00    -0.395 C  
HETATM   19  C   UNL     1     -12.417  10.672  69.964  1.00  0.00    -0.225 C  
HETATM   20  O   UNL     1     -11.378  10.649  70.954  1.00  0.00    -0.253 OA 
HETATM   21  C   UNL     1     -13.770  10.545  70.733  1.00  0.00     0.569 C  
HETATM   22  C   UNL     1      -9.099  15.103  70.186  1.00  0.00     0.514 C  
HETATM   23  C   UNL     1     -12.212   9.490  69.008  1.00  0.00     1.602 C  
HETATM   24  C   UNL     1     -11.500   9.646  71.983  1.00  0.00     0.199 C  
HETATM   25  C   UNL     1     -10.975   8.546  68.998  1.00  0.00     0.082 C  
HETATM   26  H   UNL     1      -6.480  12.724  71.738  1.00  0.00     0.000 HD 
HETATM   27  O   UNL     1      -8.109  14.156  70.558  1.00  0.00     1.652 OA 
HETATM   28  C   UNL     1      -9.463   8.970  68.695  1.00  0.00    -0.147 C  
HETATM   29  C   UNL     1     -11.436   7.555  67.855  1.00  0.00     0.829 C  
HETATM   30  O   UNL     1      -6.717  11.875  71.382  1.00  0.00     1.929 OA 
HETATM   31  C   UNL     1      -5.146  12.074  69.573  1.00  0.00    -0.065 C  
HETATM   32  O   UNL     1      -9.035   8.674  67.562  1.00  0.00    -0.133 OA 
HETATM   33  C   UNL     1      -8.318   9.440  69.724  1.00  0.00    -0.161 C  
HETATM   34  C   UNL     1      -8.569   9.548  71.202  1.00  0.00     0.260 C  
HETATM   35  C   UNL     1      -7.304  13.454  69.509  1.00  0.00     0.404 C  
HETATM   36  C   UNL     1      -7.090  10.443  69.308  1.00  0.00    -0.090 C  
HETATM   37  C   UNL     1      -6.666  11.958  69.944  1.00  0.00     0.123 C  
HETATM   38  O   UNL     1      -6.634  10.221  67.965  1.00  0.00    -0.060 OA 
HETATM   39  H   UNL     1      -5.922  10.802  67.724  1.00  0.00     0.000 HD 
BRANCH  13  40
HETATM   40  O   UNL     1     -11.587  12.302  67.988  1.00  0.00    -0.306 OA 
BRANCH  40  41
HETATM   41  C   UNL     1     -11.416  12.172  66.530  1.00  0.00    -0.369 C  
HETATM   42  C   UNL     1      -9.987  11.253  64.522  1.00  0.00    -0.284 C  
HETATM   43  C   UNL     1     -13.315  12.744  63.389  1.00  0.00     1.235 C  
HETATM   44  O   UNL     1      -9.722  10.158  66.539  1.00  0.00    -0.182 OA 
HETATM   45  C   UNL     1     -11.165  11.539  63.615  1.00  0.00    -0.451 C  
HETATM   46  H   UNL     1      -9.292   9.406  66.147  1.00  0.00     0.000 HD 
HETATM   47  C   UNL     1     -12.085  12.619  64.269  1.00  0.00    -0.426 C  
HETATM   48  C   UNL     1     -10.688  10.897  65.866  1.00  0.00    -0.124 C  
HETATM   49  O   UNL     1     -12.534  12.399  65.648  1.00  0.00    -0.640 OA 
BRANCH  42  50
HETATM   50  N   UNL     1      -8.942  10.286  64.044  1.00  0.00    -0.216 NA 
HETATM   51  C   UNL     1      -8.933   9.903  62.634  1.00  0.00    -0.268 C  
HETATM   52  C   UNL     1      -7.580  10.577  64.490  1.00  0.00     0.052 C  
ENDBRANCH  42  50
ENDBRANCH  40  41
ENDBRANCH  13  40
BRANCH  35  53
HETATM   53  C   UNL     1      -8.268  13.280  68.391  1.00  0.00    -0.134 C  
HETATM   54  C   UNL     1      -7.308  13.227  67.212  1.00  0.00    -0.050 C  
ENDBRANCH  35  53
ENDBRANCH  11  12
ENDBRANCH   1  11
BRANCH   4  55
HETATM   55  O   UNL     1     -11.318  18.665  66.991  1.00  0.00     0.173 OA 
HETATM   56  C   UNL     1     -10.738  19.957  67.119  1.00  0.00    -0.340 C  
ENDBRANCH   4  55
TORSDOF 7
ENDMDL
MODEL       74
REMARK 921   NORMALIZED FREE ENERGY PREDICTED BY IDOCK:   17.82 KCAL/MOL
REMARK 922        TOTAL FREE ENERGY PREDICTED BY IDOCK:   22.43 KCAL/MOL
REMARK 923 INTER-LIGAND FREE ENERGY PREDICTED BY IDOCK:   10.63 KCAL/MOL
REMARK 924 INTRA-LIGAND FREE ENERGY PREDICTED BY IDOCK:   11.79 KCAL/MOL
REMARK 927      BINDING AFFINITY PREDICTED BY RF-SCORE:    0.00 PKD
ROOT
HETATM    1  C   UNL     1      -8.026   8.784  69.373  1.00  0.00    -0.100 C  
HETATM    2  O   UNL     1     -11.329   5.940  70.026  1.00  0.00    -0.352 OA 
HETATM    3  C   UNL     1      -8.881   8.781  70.713  1.00  0.00    -0.228 C  
HETATM    4  C   UNL     1     -10.290   8.070  70.727  1.00  0.00    -0.199 C  
HETATM    5  C   UNL     1      -9.636   5.769  67.722  1.00  0.00    -0.121 C  
HETATM    6  C   UNL     1     -10.138   6.745  69.961  1.00  0.00    -0.184 C  
HETATM    7  C   UNL     1     -10.767   7.762  72.184  1.00  0.00    -0.302 C  
HETATM    8  O   UNL     1      -8.359   7.689  68.480  1.00  0.00    -0.127 OA 
HETATM    9  H   UNL     1     -11.236   5.122  69.553  1.00  0.00     0.000 HD 
HETATM   10  C   UNL     1      -9.664   7.073  68.539  1.00  0.00    -0.141 C  
ENDROOT
BRANCH   1  11
HETATM   11  O   UNL     1      -7.614  10.177  68.827  1.00  0.00    -0.081 OA 
BRANCH  11  12
HETATM   12  C   UNL     1      -8.118  10.574  67.484  1.00  0.00    -0.107 C  
HETATM   13  C   UNL     1     -10.371  11.648  68.783  1.00  0.00    -0.195 C  
HETATM   14  C   UNL     1      -8.623  12.418  65.419  1.00  0.00     1.182 C  
HETATM   15  C   UNL     1      -9.674  10.632  67.639  1.00  0.00    -0.186 C  
HETATM   16  O   UNL     1      -5.237  12.629  66.759  1.00  0.00    -0.308 OA 
HETATM   17  C   UNL     1      -7.512  11.765  66.296  1.00  0.00     0.288 C  
HETATM   18  C   UNL     1     -10.286  10.227  66.262  1.00  0.00    -0.256 C  
HETATM   19  C   UNL     1     -11.661  12.442  68.169  1.00  0.00    -0.353 C  
HETATM   20  O   UNL     1     -11.422  13.292  67.038  1.00  0.00    -0.308 OA 
HETATM   21  C   UNL     1     -12.654  11.334  67.693  1.00  0.00     2.495 C  
HETATM   22  C   UNL     1      -6.411  12.876  66.458  1.00  0.00     1.870 C  
HETATM   23  C   UNL     1     -12.271  13.283  69.297  1.00  0.00    -0.194 C  
HETATM   24  C   UNL     1     -12.582  13.681  66.276  1.00  0.00    -0.291 C  
HETATM   25  C   UNL     1     -12.419  14.832  69.283  1.00  0.00    -0.045 C  
HETATM   26  H   UNL     1      -7.458  16.295  64.994  1.00  0.00     0.000 HD 
HETATM   27  O   UNL     1      -6.788  14.202  66.120  1.00  0.00     2.832 OA 
HETATM   28  C   UNL     1     -11.228  15.896  69.222  1.00  0.00    -0.335 C  
HETATM   29  C   UNL     1     -13.159  15.017  70.669  1.00  0.00    -0.365 C  
HETATM   30  O   UNL     1      -8.179  16.561  65.553  1.00  0.00     0.100 OA 
HETATM   31  C   UNL     1      -6.738  17.856  66.976  1.00  0.00    -0.203 C  
HETATM   32  O   UNL     1     -10.951  16.462  70.298  1.00  0.00    -0.343 OA 
HETATM   33  C   UNL     1     -10.541  16.572  67.932  1.00  0.00    -0.329 C  
HETATM   34  C   UNL     1     -10.975  16.242  66.532  1.00  0.00    -0.007 C  
HETATM   35  C   UNL     1      -6.677  15.300  67.133  1.00  0.00     0.125 C  
HETATM   36  C   UNL     1      -8.986  17.093  67.910  1.00  0.00    -0.230 C  
HETATM   37  C   UNL     1      -7.699  16.619  66.911  1.00  0.00    -0.228 C  
HETATM   38  O   UNL     1      -8.578  17.651  69.168  1.00  0.00    -0.069 OA 
HETATM   39  H   UNL     1      -7.677  17.953  69.155  1.00  0.00     0.000 HD 
BRANCH  13  40
HETATM   40  O   UNL     1      -9.375  12.354  69.589  1.00  0.00     1.298 OA 
BRANCH  40  41
HETATM   41  C   UNL     1      -7.979  12.254  70.048  1.00  0.00     2.539 C  
HETATM   42  C   UNL     1      -5.778  13.488  70.791  1.00  0.00    -0.189 C  
HETATM   43  C   UNL     1      -5.582   9.710  71.305  1.00  0.00    -0.074 C  
HETATM   44  O   UNL     1      -7.739  14.688  71.020  1.00  0.00     0.871 OA 
HETATM   45  C   UNL     1      -5.273  12.165  71.325  1.00  0.00    -0.093 C  
HETATM   46  H   UNL     1      -7.346  15.344  71.586  1.00  0.00     0.000 HD 
HETATM   47  C   UNL     1      -6.020  10.990  70.618  1.00  0.00    -0.079 C  
HETATM   48  C   UNL     1      -7.314  13.365  71.009  1.00  0.00     3.830 C  
HETATM   49  O   UNL     1      -7.487  11.017  70.600  1.00  0.00     0.664 OA 
BRANCH  42  50
HETATM   50  N   UNL     1      -5.137  14.749  71.295  1.00  0.00    -0.133 NA 
HETATM   51  C   UNL     1      -5.453  16.012  70.630  1.00  0.00    -0.110 C  
HETATM   52  C   UNL     1      -5.177  14.926  72.746  1.00  0.00    -0.035 C  
ENDBRANCH  42  50
ENDBRANCH  40  41
ENDBRANCH  13  40
BRANCH  35  53
HETATM   53  C   UNL     1      -7.006  14.622  68.415  1.00  0.00    -0.113 C  
HETATM   54  C   UNL     1      -8.466  14.273  68.169  1.00  0.00    -0.167 C  
ENDBRANCH  35  53
ENDBRANCH  11  12
ENDBRANCH   1  11
BRANCH   4  55
HETATM   55  O   UNL     1     -11.208   8.992  70.107  1.00  0.00    -0.239 OA 
HETATM   56  C   UNL     1     -12.455   9.239  70.744  1.00  0.00    -0.043 C  
ENDBRANCH   4  55
TORSDOF 7
ENDMDL
MODEL       75
REMARK 921   NORMALIZED FREE ENERGY PREDICTED BY IDOCK:   17.88 KCAL/MOL
REMARK 922        TOTAL FREE ENERGY PREDICTED BY IDOCK:   22.50 KCAL/MOL
REMARK 923 INTER-LIGAND FREE ENERGY PREDICTED BY IDOCK:   19.43 KCAL/MOL
REMARK 924 INTRA-LIGAND FREE ENERGY PREDICTED BY IDOCK:    3.07 KCAL/MOL
REMARK 927      BINDING AFFINITY PREDICTED BY RF-SCORE:    0.00 PKD
ROOT
HETATM    1  C   UNL     1     -10.852  10.346  69.917  1.00  0.00    -0.298 C  
HETATM    2  O   UNL     1     -10.767   6.596  72.232  1.00  0.00    -0.211 OA 
HETATM    3  C   UNL     1     -11.898  10.049  71.078  1.00  0.00    -0.476 C  
HETATM    4  C   UNL     1     -12.107   8.563  71.566  1.00  0.00    -0.304 C  
HETATM    5  C   UNL     1      -8.728   7.227  70.322  1.00  0.00    -0.147 C  
HETATM    6  C   UNL     1     -10.714   7.916  71.661  1.00  0.00    -0.223 C  
HETATM    7  C   UNL     1     -12.790   8.508  72.972  1.00  0.00     0.386 C  
HETATM    8  O   UNL     1      -9.819   9.333  69.807  1.00  0.00    -0.171 OA 
HETATM    9  H   UNL     1      -9.908   6.196  72.291  1.00  0.00     0.000 HD 
HETATM   10  C   UNL     1     -10.064   7.988  70.274  1.00  0.00    -0.192 C  
ENDROOT
BRANCH   1  11
HETATM   11  O   UNL     1     -11.409  11.075  68.665  1.00  0.00    -0.235 OA 
BRANCH  11  12
HETATM   12  C   UNL     1     -12.274  12.266  68.882  1.00  0.00     0.042 C  
HETATM   13  C   UNL     1     -10.010  13.567  69.929  1.00  0.00     1.650 C  
HETATM   14  C   UNL     1     -13.257  14.824  68.244  1.00  0.00     3.128 C  
HETATM   15  C   UNL     1     -11.602  13.043  70.063  1.00  0.00    -0.195 C  
HETATM   16  O   UNL     1     -13.136  12.560  65.386  1.00  0.00    -0.365 OA 
HETATM   17  C   UNL     1     -13.092  13.362  67.731  1.00  0.00     2.884 C  
HETATM   18  C   UNL     1     -12.745  13.743  70.860  1.00  0.00    -0.394 C  
HETATM   19  C   UNL     1      -9.837  15.095  70.485  1.00  0.00     0.576 C  
HETATM   20  O   UNL     1     -10.602  16.115  69.827  1.00  0.00    -0.284 OA 
HETATM   21  C   UNL     1     -10.316  15.063  71.971  1.00  0.00     1.975 C  
HETATM   22  C   UNL     1     -12.922  13.492  66.172  1.00  0.00     0.234 C  
HETATM   23  C   UNL     1      -8.350  15.458  70.391  1.00  0.00     1.146 C  
HETATM   24  C   UNL     1     -10.745  17.361  70.537  1.00  0.00     1.151 C  
HETATM   25  C   UNL     1      -7.763  16.632  69.554  1.00  0.00     0.175 C  
HETATM   26  H   UNL     1     -12.640  17.150  64.961  1.00  0.00     0.000 HD 
HETATM   27  O   UNL     1     -12.621  14.784  65.668  1.00  0.00    -0.115 OA 
HETATM   28  C   UNL     1      -7.835  16.789  67.964  1.00  0.00    -0.176 C  
HETATM   29  C   UNL     1      -6.240  16.477  69.954  1.00  0.00    -0.159 C  
HETATM   30  O   UNL     1     -11.817  17.442  65.336  1.00  0.00     1.419 OA 
HETATM   31  C   UNL     1     -10.592  16.914  63.336  1.00  0.00     7.340 C  
HETATM   32  O   UNL     1      -6.785  16.523  67.346  1.00  0.00    -0.132 OA 
HETATM   33  C   UNL     1      -8.949  17.530  67.070  1.00  0.00    -0.250 C  
HETATM   34  C   UNL     1     -10.146  18.201  67.683  1.00  0.00    -0.367 C  
HETATM   35  C   UNL     1     -11.383  15.008  64.855  1.00  0.00    -0.417 C  
HETATM   36  C   UNL     1      -9.300  17.097  65.529  1.00  0.00     0.576 C  
HETATM   37  C   UNL     1     -10.769  16.576  64.858  1.00  0.00    -0.146 C  
HETATM   38  O   UNL     1      -8.139  16.668  64.803  1.00  0.00     3.444 OA 
HETATM   39  H   UNL     1      -8.342  16.418  63.909  1.00  0.00     0.000 HD 
BRANCH  13  40
HETATM   40  O   UNL     1      -9.386  13.155  68.672  1.00  0.00    -0.123 OA 
BRANCH  40  41
HETATM   41  C   UNL     1      -8.460  12.153  68.116  1.00  0.00    -0.175 C  
HETATM   42  C   UNL     1      -7.808  10.586  66.106  1.00  0.00    -0.145 C  
HETATM   43  C   UNL     1      -5.138  10.653  68.836  1.00  0.00    -0.041 C  
HETATM   44  O   UNL     1      -9.114  12.417  65.580  1.00  0.00    -0.433 OA 
HETATM   45  C   UNL     1      -6.453  10.399  66.754  1.00  0.00    -0.076 C  
HETATM   46  H   UNL     1      -8.948  12.349  64.647  1.00  0.00     0.000 HD 
HETATM   47  C   UNL     1      -6.550  10.709  68.282  1.00  0.00    -0.062 C  
HETATM   48  C   UNL     1      -8.177  12.037  66.534  1.00  0.00     0.014 C  
HETATM   49  O   UNL     1      -7.147  11.985  68.690  1.00  0.00    -0.091 OA 
BRANCH  42  50
HETATM   50  N   UNL     1      -7.946  10.271  64.644  1.00  0.00    -0.148 NA 
HETATM   51  C   UNL     1      -6.787  10.461  63.774  1.00  0.00     0.008 C  
HETATM   52  C   UNL     1      -8.590   8.993  64.345  1.00  0.00    -0.150 C  
ENDBRANCH  42  50
ENDBRANCH  40  41
ENDBRANCH  13  40
BRANCH  35  53
HETATM   53  C   UNL     1     -10.394  14.083  65.469  1.00  0.00    -0.354 C  
HETATM   54  C   UNL     1      -9.992  13.269  64.249  1.00  0.00     0.085 C  
ENDBRANCH  35  53
ENDBRANCH  11  12
ENDBRANCH   1  11
BRANCH   4  55
HETATM   55  O   UNL     1     -12.966   7.941  70.591  1.00  0.00     0.193 OA 
HETATM   56  C   UNL     1     -14.202   7.389  71.030  1.00  0.00     0.063 C  
ENDBRANCH   4  55
TORSDOF 7
ENDMDL
MODEL       76
REMARK 921   NORMALIZED FREE ENERGY PREDICTED BY IDOCK:   17.96 KCAL/MOL
REMARK 922        TOTAL FREE ENERGY PREDICTED BY IDOCK:   22.62 KCAL/MOL
REMARK 923 INTER-LIGAND FREE ENERGY PREDICTED BY IDOCK:   12.33 KCAL/MOL
REMARK 924 INTRA-LIGAND FREE ENERGY PREDICTED BY IDOCK:   10.29 KCAL/MOL
REMARK 927      BINDING AFFINITY PREDICTED BY RF-SCORE:    0.00 PKD
ROOT
HETATM    1  C   UNL     1     -10.092   7.890  70.301  1.00  0.00    -0.196 C  
HETATM    2  O   UNL     1     -10.315   3.559  69.508  1.00  0.00     0.758 OA 
HETATM    3  C   UNL     1      -9.689   6.811  71.398  1.00  0.00    -0.177 C  
HETATM    4  C   UNL     1     -10.188   5.323  71.235  1.00  0.00    -0.224 C  
HETATM    5  C   UNL     1     -10.799   5.489  67.447  1.00  0.00    -0.118 C  
HETATM    6  C   UNL     1     -10.021   4.947  69.752  1.00  0.00    -0.244 C  
HETATM    7  C   UNL     1      -9.347   4.334  72.107  1.00  0.00    -0.174 C  
HETATM    8  O   UNL     1     -10.399   7.303  69.009  1.00  0.00    -0.195 OA 
HETATM    9  H   UNL     1     -10.212   3.327  68.593  1.00  0.00     0.000 HD 
HETATM   10  C   UNL     1     -10.849   5.934  68.918  1.00  0.00    -0.303 C  
ENDROOT
BRANCH   1  11
HETATM   11  O   UNL     1     -10.843   9.145  70.819  1.00  0.00    -0.229 OA 
BRANCH  11  12
HETATM   12  C   UNL     1     -11.552   9.992  69.822  1.00  0.00    -0.134 C  
HETATM   13  C   UNL     1      -9.444  11.838  70.075  1.00  0.00     2.548 C  
HETATM   14  C   UNL     1     -11.966  11.054  67.249  1.00  0.00     0.717 C  
HETATM   15  C   UNL     1     -11.080  11.453  70.126  1.00  0.00     0.064 C  
HETATM   16  O   UNL     1     -11.488   7.438  67.268  1.00  0.00     0.243 OA 
HETATM   17  C   UNL     1     -11.897   9.741  68.085  1.00  0.00     1.335 C  
HETATM   18  C   UNL     1     -12.267  12.400  69.774  1.00  0.00    -0.198 C  
HETATM   19  C   UNL     1      -9.189  13.257  69.305  1.00  0.00     0.844 C  
HETATM   20  O   UNL     1      -9.615  13.338  67.937  1.00  0.00    -0.203 OA 
HETATM   21  C   UNL     1     -10.014  14.323  70.095  1.00  0.00     1.084 C  
HETATM   22  C   UNL     1     -11.336   8.653  67.096  1.00  0.00     1.365 C  
HETATM   23  C   UNL     1      -7.687  13.560  69.371  1.00  0.00     0.474 C  
HETATM   24  C   UNL     1      -9.742  14.665  67.387  1.00  0.00    -0.218 C  
HETATM   25  C   UNL     1      -6.750  13.731  68.140  1.00  0.00    -0.124 C  
HETATM   26  H   UNL     1     -10.239  10.105  63.687  1.00  0.00     0.000 HD 
HETATM   27  O   UNL     1     -10.737   9.127  65.900  1.00  0.00     0.454 OA 
HETATM   28  C   UNL     1      -6.411  12.615  67.047  1.00  0.00     0.188 C  
HETATM   29  C   UNL     1      -5.410  14.081  68.904  1.00  0.00    -0.079 C  
HETATM   30  O   UNL     1      -9.498  10.656  63.913  1.00  0.00    -0.232 OA 
HETATM   31  C   UNL     1      -7.916   8.911  63.435  1.00  0.00    -0.157 C  
HETATM   32  O   UNL     1      -5.293  12.073  67.156  1.00  0.00    -0.108 OA 
HETATM   33  C   UNL     1      -7.155  12.304  65.654  1.00  0.00     2.824 C  
HETATM   34  C   UNL     1      -8.353  13.088  65.198  1.00  0.00     3.271 C  
HETATM   35  C   UNL     1      -9.320   8.770  65.572  1.00  0.00    -0.095 C  
HETATM   36  C   UNL     1      -7.181  10.819  64.959  1.00  0.00     0.205 C  
HETATM   37  C   UNL     1      -8.503   9.835  64.557  1.00  0.00    -0.176 C  
HETATM   38  O   UNL     1      -5.954  10.102  65.156  1.00  0.00    -0.098 OA 
HETATM   39  H   UNL     1      -5.968   9.242  64.753  1.00  0.00     0.000 HD 
BRANCH  13  40
HETATM   40  O   UNL     1      -8.600  10.676  69.796  1.00  0.00     0.015 OA 
BRANCH  40  41
HETATM   41  C   UNL     1      -7.888   9.577  70.470  1.00  0.00    -0.157 C  
HETATM   42  C   UNL     1      -6.559   7.317  70.262  1.00  0.00    -0.047 C  
HETATM   43  C   UNL     1      -6.529   8.710  73.817  1.00  0.00    -0.082 C  
HETATM   44  O   UNL     1      -6.568   8.663  68.384  1.00  0.00    -0.058 OA 
HETATM   45  C   UNL     1      -6.117   7.500  71.698  1.00  0.00    -0.036 C  
HETATM   46  H   UNL     1      -5.852   8.197  67.968  1.00  0.00     0.000 HD 
HETATM   47  C   UNL     1      -7.112   8.448  72.440  1.00  0.00    -0.087 C  
HETATM   48  C   UNL     1      -6.672   8.788  69.765  1.00  0.00    -0.045 C  
HETATM   49  O   UNL     1      -7.419   9.742  71.824  1.00  0.00     0.231 OA 
BRANCH  42  50
HETATM   50  N   UNL     1      -5.770   6.382  69.390  1.00  0.00    -0.013 NA 
HETATM   51  C   UNL     1      -5.544   5.014  69.852  1.00  0.00    -0.015 C  
HETATM   52  C   UNL     1      -6.160   6.374  67.980  1.00  0.00    -0.027 C  
ENDBRANCH  42  50
ENDBRANCH  40  41
ENDBRANCH  13  40
BRANCH  35  53
HETATM   53  C   UNL     1      -8.655   8.737  66.902  1.00  0.00    -0.120 C  
HETATM   54  C   UNL     1      -8.011   7.360  66.848  1.00  0.00    -0.115 C  
ENDBRANCH  35  53
ENDBRANCH  11  12
ENDBRANCH   1  11
BRANCH   4  55
HETATM   55  O   UNL     1     -11.557   5.311  71.682  1.00  0.00     0.187 OA 
HETATM   56  C   UNL     1     -11.819   5.471  73.071  1.00  0.00     0.013 C  
ENDBRANCH   4  55
TORSDOF 7
ENDMDL
MODEL       77
REMARK 921   NORMALIZED FREE ENERGY PREDICTED BY IDOCK:   18.16 KCAL/MOL
REMARK 922        TOTAL FREE ENERGY PREDICTED BY IDOCK:   22.90 KCAL/MOL
REMARK 923 INTER-LIGAND FREE ENERGY PREDICTED BY IDOCK:   14.77 KCAL/MOL
REMARK 924 INTRA-LIGAND FREE ENERGY PREDICTED BY IDOCK:    8.13 KCAL/MOL
REMARK 927      BINDING AFFINITY PREDICTED BY RF-SCORE:    0.00 PKD
ROOT
HETATM    1  C   UNL     1     -10.111   5.122  71.764  1.00  0.00    -0.200 C  
HETATM    2  O   UNL     1      -7.384   3.069  74.553  1.00  0.00    -0.045 OA 
HETATM    3  C   UNL     1     -10.355   3.620  72.228  1.00  0.00    -0.141 C  
HETATM    4  C   UNL     1      -9.159   2.803  72.854  1.00  0.00    -0.086 C  
HETATM    5  C   UNL     1      -7.077   5.848  73.926  1.00  0.00    -0.081 C  
HETATM    6  C   UNL     1      -8.416   3.748  73.815  1.00  0.00    -0.090 C  
HETATM    7  C   UNL     1      -9.666   1.560  73.655  1.00  0.00    -0.095 C  
HETATM    8  O   UNL     1      -9.002   5.758  72.450  1.00  0.00    -0.140 OA 
HETATM    9  H   UNL     1      -6.926   3.652  75.146  1.00  0.00     0.000 HD 
HETATM   10  C   UNL     1      -7.935   4.961  73.008  1.00  0.00    -0.101 C  
ENDROOT
BRANCH   1  11
HETATM   11  O   UNL     1     -10.437   5.440  70.281  1.00  0.00    -0.271 OA 
BRANCH  11  12
HETATM   12  C   UNL     1     -11.283   6.631  69.995  1.00  0.00    -0.369 C  
HETATM   13  C   UNL     1      -9.153   8.215  70.927  1.00  0.00    -0.151 C  
HETATM   14  C   UNL     1     -12.073   8.862  68.474  1.00  0.00     2.989 C  
HETATM   15  C   UNL     1     -10.765   7.738  70.973  1.00  0.00    -0.241 C  
HETATM   16  O   UNL     1     -11.612   5.838  66.486  1.00  0.00     0.426 OA 
HETATM   17  C   UNL     1     -11.885   7.315  68.457  1.00  0.00     1.435 C  
HETATM   18  C   UNL     1     -11.988   8.633  71.340  1.00  0.00    -0.355 C  
HETATM   19  C   UNL     1      -9.011   9.842  71.015  1.00  0.00     0.609 C  
HETATM   20  O   UNL     1      -9.637  10.604  69.973  1.00  0.00     0.159 OA 
HETATM   21  C   UNL     1      -9.704  10.258  72.351  1.00  0.00     6.900 C  
HETATM   22  C   UNL     1     -11.484   6.967  66.976  1.00  0.00     0.497 C  
HETATM   23  C   UNL     1      -7.515  10.178  71.040  1.00  0.00     0.966 C  
HETATM   24  C   UNL     1      -9.840  12.006  70.242  1.00  0.00     3.509 C  
HETATM   25  C   UNL     1      -6.772  11.048  69.985  1.00  0.00    -0.097 C  
HETATM   26  H   UNL     1     -10.902  10.088  64.773  1.00  0.00     0.000 HD 
HETATM   27  O   UNL     1     -11.068   8.049  66.156  1.00  0.00     1.487 OA 
HETATM   28  C   UNL     1      -6.605  10.714  68.430  1.00  0.00    -0.055 C  
HETATM   29  C   UNL     1      -5.331  11.041  70.638  1.00  0.00    -0.114 C  
HETATM   30  O   UNL     1     -10.134  10.490  65.162  1.00  0.00    -0.291 OA 
HETATM   31  C   UNL     1      -8.648   9.393  63.622  1.00  0.00    -0.220 C  
HETATM   32  O   UNL     1      -5.486  10.285  68.087  1.00  0.00    -0.035 OA 
HETATM   33  C   UNL     1      -7.550  11.135  67.198  1.00  0.00    -0.125 C  
HETATM   34  C   UNL     1      -8.800  11.946  67.392  1.00  0.00    -0.171 C  
HETATM   35  C   UNL     1      -9.718   8.030  65.509  1.00  0.00     0.738 C  
HETATM   36  C   UNL     1      -7.686  10.250  65.825  1.00  0.00    -0.143 C  
HETATM   37  C   UNL     1      -9.058   9.532  65.130  1.00  0.00    -0.228 C  
HETATM   38  O   UNL     1      -6.446   9.635  65.445  1.00  0.00    -0.072 OA 
HETATM   39  H   UNL     1      -6.525   9.122  64.649  1.00  0.00     0.000 HD 
BRANCH  13  40
HETATM   40  O   UNL     1      -8.366   7.449  69.962  1.00  0.00    -0.132 OA 
BRANCH  40  41
HETATM   41  C   UNL     1      -7.618   6.187  69.824  1.00  0.00    -0.085 C  
HETATM   42  C   UNL     1      -6.658   4.321  68.238  1.00  0.00    -0.046 C  
HETATM   43  C   UNL     1      -5.477   3.923  71.847  1.00  0.00    -0.007 C  
HETATM   44  O   UNL     1      -7.047   6.379  67.262  1.00  0.00    -0.069 OA 
HETATM   45  C   UNL     1      -5.813   3.838  69.397  1.00  0.00    -0.022 C  
HETATM   46  H   UNL     1      -6.532   6.181  66.488  1.00  0.00     0.000 HD 
HETATM   47  C   UNL     1      -6.448   4.305  70.745  1.00  0.00    -0.026 C  
HETATM   48  C   UNL     1      -6.744   5.852  68.512  1.00  0.00    -0.057 C  
HETATM   49  O   UNL     1      -6.773   5.727  70.898  1.00  0.00    -0.049 OA 
BRANCH  42  50
HETATM   50  N   UNL     1      -6.254   3.920  66.848  1.00  0.00    -0.031 NA 
HETATM   51  C   UNL     1      -5.137   4.616  66.213  1.00  0.00    -0.008 C  
HETATM   52  C   UNL     1      -6.131   2.479  66.632  1.00  0.00    -0.024 C  
ENDBRANCH  42  50
ENDBRANCH  40  41
ENDBRANCH  13  40
BRANCH  35  53
HETATM   53  C   UNL     1      -8.861   7.347  66.515  1.00  0.00    -0.165 C  
HETATM   54  C   UNL     1      -8.808   5.949  65.919  1.00  0.00    -0.154 C  
ENDBRANCH  35  53
ENDBRANCH  11  12
ENDBRANCH   1  11
BRANCH   4  55
HETATM   55  O   UNL     1      -8.354   2.362  71.743  1.00  0.00    -0.055 OA 
HETATM   56  C   UNL     1      -8.931   2.365  70.443  1.00  0.00    -0.094 C  
ENDBRANCH   4  55
TORSDOF 7
ENDMDL
MODEL       78
REMARK 921   NORMALIZED FREE ENERGY PREDICTED BY IDOCK:   18.36 KCAL/MOL
REMARK 922        TOTAL FREE ENERGY PREDICTED BY IDOCK:   23.19 KCAL/MOL
REMARK 923 INTER-LIGAND FREE ENERGY PREDICTED BY IDOCK:   23.43 KCAL/MOL
REMARK 924 INTRA-LIGAND FREE ENERGY PREDICTED BY IDOCK:   -0.24 KCAL/MOL
REMARK 927      BINDING AFFINITY PREDICTED BY RF-SCORE:    0.00 PKD
ROOT
HETATM    1  C   UNL     1      -8.539  12.600  67.655  1.00  0.00    -0.180 C  
HETATM    2  O   UNL     1      -9.074   8.226  67.789  1.00  0.00    -0.132 OA 
HETATM    3  C   UNL     1      -9.130  11.863  68.934  1.00  0.00     0.150 C  
HETATM    4  C   UNL     1      -9.702  10.399  68.785  1.00  0.00    -0.183 C  
HETATM    5  C   UNL     1      -7.776   9.512  65.583  1.00  0.00    -0.101 C  
HETATM    6  C   UNL     1      -8.728   9.620  67.884  1.00  0.00    -0.119 C  
HETATM    7  C   UNL     1      -9.803   9.676  70.168  1.00  0.00    -0.310 C  
HETATM    8  O   UNL     1      -8.085  11.682  66.626  1.00  0.00    -0.165 OA 
HETATM    9  H   UNL     1      -8.473   7.745  67.233  1.00  0.00     0.000 HD 
HETATM   10  C   UNL     1      -8.640  10.352  66.539  1.00  0.00    -0.130 C  
ENDROOT
BRANCH   1  11
HETATM   11  O   UNL     1      -9.182  13.966  67.295  1.00  0.00    -0.215 OA 
BRANCH  11  12
HETATM   12  C   UNL     1      -8.355  14.944  66.537  1.00  0.00     0.106 C  
HETATM   13  C   UNL     1     -10.377  16.839  67.020  1.00  0.00    -0.300 C  
HETATM   14  C   UNL     1      -6.585  17.119  66.315  1.00  0.00    -0.190 C  
HETATM   15  C   UNL     1      -9.380  15.984  65.971  1.00  0.00    -0.380 C  
HETATM   16  O   UNL     1      -5.530  14.632  68.766  1.00  0.00    -0.083 OA 
HETATM   17  C   UNL     1      -6.768  15.685  66.896  1.00  0.00     0.235 C  
HETATM   18  C   UNL     1      -8.813  16.490  64.609  1.00  0.00     5.084 C  
HETATM   19  C   UNL     1     -10.459  18.419  66.608  1.00  0.00    -0.385 C  
HETATM   20  O   UNL     1      -9.227  19.155  66.611  1.00  0.00    -0.308 OA 
HETATM   21  C   UNL     1     -10.994  18.449  65.141  1.00  0.00     0.942 C  
HETATM   22  C   UNL     1      -5.930  15.671  68.228  1.00  0.00    -0.114 C  
HETATM   23  C   UNL     1     -11.442  19.101  67.569  1.00  0.00     0.616 C  
HETATM   24  C   UNL     1      -9.232  20.409  65.900  1.00  0.00     0.104 C  
HETATM   25  C   UNL     1     -11.091  20.274  68.529  1.00  0.00     0.998 C  
HETATM   26  H   UNL     1      -4.501  19.134  69.174  1.00  0.00     0.000 HD 
HETATM   27  O   UNL     1      -5.533  16.932  68.744  1.00  0.00    -0.129 OA 
HETATM   28  C   UNL     1     -10.044  20.228  69.737  1.00  0.00     0.351 C  
HETATM   29  C   UNL     1     -12.527  20.518  69.146  1.00  0.00     6.475 C  
HETATM   30  O   UNL     1      -5.278  19.647  69.362  1.00  0.00    -0.183 OA 
HETATM   31  C   UNL     1      -5.142  19.188  71.718  1.00  0.00    -0.257 C  
HETATM   32  O   UNL     1     -10.538  20.140  70.878  1.00  0.00     1.316 OA 
HETATM   33  C   UNL     1      -8.475  20.586  69.729  1.00  0.00     1.560 C  
HETATM   34  C   UNL     1      -7.765  21.032  68.482  1.00  0.00     0.965 C  
HETATM   35  C   UNL     1      -5.930  17.339  70.130  1.00  0.00    -0.116 C  
HETATM   36  C   UNL     1      -7.392  19.911  70.759  1.00  0.00     0.909 C  
HETATM   37  C   UNL     1      -6.004  18.995  70.423  1.00  0.00    -0.114 C  
HETATM   38  O   UNL     1      -7.947  19.680  72.062  1.00  0.00     2.709 OA 
HETATM   39  H   UNL     1      -7.320  19.289  72.658  1.00  0.00     0.000 HD 
BRANCH  13  40
HETATM   40  O   UNL     1     -10.201  16.441  68.416  1.00  0.00    -0.239 OA 
BRANCH  40  41
HETATM   41  C   UNL     1     -10.967  16.164  69.644  1.00  0.00    -0.346 C  
HETATM   42  C   UNL     1     -12.645  14.595  70.924  1.00  0.00    -0.342 C  
HETATM   43  C   UNL     1     -11.202  17.331  73.163  1.00  0.00     1.675 C  
HETATM   44  O   UNL     1     -11.449  13.614  69.208  1.00  0.00    -0.261 OA 
HETATM   45  C   UNL     1     -12.272  15.318  72.201  1.00  0.00    -0.457 C  
HETATM   46  H   UNL     1     -11.658  12.728  69.483  1.00  0.00     0.000 HD 
HETATM   47  C   UNL     1     -11.695  16.728  71.860  1.00  0.00     0.212 C  
HETATM   48  C   UNL     1     -11.319  14.663  70.111  1.00  0.00    -0.225 C  
HETATM   49  O   UNL     1     -10.605  16.809  70.882  1.00  0.00     0.546 OA 
BRANCH  42  50
HETATM   50  N   UNL     1     -13.285  13.240  71.036  1.00  0.00    -0.068 NA 
HETATM   51  C   UNL     1     -12.479  12.058  70.738  1.00  0.00    -0.279 C  
HETATM   52  C   UNL     1     -14.061  13.021  72.256  1.00  0.00    -0.194 C  
ENDBRANCH  42  50
ENDBRANCH  40  41
ENDBRANCH  13  40
BRANCH  35  53
HETATM   53  C   UNL     1      -7.282  16.741  70.293  1.00  0.00     1.526 C  
HETATM   54  C   UNL     1      -6.990  15.701  71.363  1.00  0.00     2.523 C  
ENDBRANCH  35  53
ENDBRANCH  11  12
ENDBRANCH   1  11
BRANCH   4  55
HETATM   55  O   UNL     1     -11.020  10.542  68.221  1.00  0.00    -0.224 OA 
HETATM   56  C   UNL     1     -11.511   9.511  67.375  1.00  0.00     1.162 C  
ENDBRANCH   4  55
TORSDOF 7
ENDMDL
MODEL       79
REMARK 921   NORMALIZED FREE ENERGY PREDICTED BY IDOCK:   18.49 KCAL/MOL
REMARK 922        TOTAL FREE ENERGY PREDICTED BY IDOCK:   23.37 KCAL/MOL
REMARK 923 INTER-LIGAND FREE ENERGY PREDICTED BY IDOCK:   15.66 KCAL/MOL
REMARK 924 INTRA-LIGAND FREE ENERGY PREDICTED BY IDOCK:    7.71 KCAL/MOL
REMARK 927      BINDING AFFINITY PREDICTED BY RF-SCORE:    0.00 PKD
ROOT
HETATM    1  C   UNL     1      -6.969   6.199  68.150  1.00  0.00    -0.080 C  
HETATM    2  O   UNL     1      -8.455   2.839  65.714  1.00  0.00    -0.094 OA 
HETATM    3  C   UNL     1      -8.316   5.431  68.507  1.00  0.00    -0.097 C  
HETATM    4  C   UNL     1      -9.021   4.557  67.398  1.00  0.00    -0.114 C  
HETATM    5  C   UNL     1      -5.906   4.045  65.211  1.00  0.00    -0.022 C  
HETATM    6  C   UNL     1      -7.917   3.780  66.660  1.00  0.00    -0.096 C  
HETATM    7  C   UNL     1     -10.028   3.536  68.023  1.00  0.00     0.286 C  
HETATM    8  O   UNL     1      -6.243   5.595  67.048  1.00  0.00    -0.032 OA 
HETATM    9  H   UNL     1      -7.773   2.359  65.258  1.00  0.00     0.000 HD 
HETATM   10  C   UNL     1      -6.939   4.801  66.063  1.00  0.00    -0.066 C  
ENDROOT
BRANCH   1  11
HETATM   11  O   UNL     1      -6.980   7.735  68.369  1.00  0.00    -0.068 OA 
BRANCH  11  12
HETATM   12  C   UNL     1      -6.148   8.572  67.462  1.00  0.00    -0.052 C  
HETATM   13  C   UNL     1      -8.471   9.011  65.937  1.00  0.00    -0.140 C  
HETATM   14  C   UNL     1      -5.202  11.017  66.441  1.00  0.00    -0.109 C  
HETATM   15  C   UNL     1      -6.872   8.507  66.076  1.00  0.00    -0.061 C  
HETATM   16  O   UNL     1      -5.187  10.862  70.086  1.00  0.00    -0.046 OA 
HETATM   17  C   UNL     1      -5.319  10.135  67.720  1.00  0.00    -0.038 C  
HETATM   18  C   UNL     1      -5.769   8.606  64.978  1.00  0.00    -0.048 C  
HETATM   19  C   UNL     1      -8.694   9.922  64.597  1.00  0.00    -0.194 C  
HETATM   20  O   UNL     1      -7.930  11.133  64.503  1.00  0.00     0.348 OA 
HETATM   21  C   UNL     1      -8.259   9.024  63.396  1.00  0.00    -0.182 C  
HETATM   22  C   UNL     1      -5.445  11.155  68.912  1.00  0.00    -0.040 C  
HETATM   23  C   UNL     1     -10.185  10.272  64.515  1.00  0.00    -0.161 C  
HETATM   24  C   UNL     1      -7.836  11.726  63.192  1.00  0.00     1.784 C  
HETATM   25  C   UNL     1     -10.771  11.713  64.526  1.00  0.00    -0.378 C  
HETATM   26  H   UNL     1      -5.769  14.828  67.756  1.00  0.00     0.000 HD 
HETATM   27  O   UNL     1      -5.758  12.497  68.572  1.00  0.00    -0.053 OA 
HETATM   28  C   UNL     1     -10.654  12.774  65.717  1.00  0.00    -0.273 C  
HETATM   29  C   UNL     1     -12.301  11.353  64.350  1.00  0.00     0.518 C  
HETATM   30  O   UNL     1      -6.609  14.844  67.311  1.00  0.00    -0.297 OA 
HETATM   31  C   UNL     1      -7.761  15.590  69.285  1.00  0.00    -0.223 C  
HETATM   32  O   UNL     1     -11.679  12.921  66.413  1.00  0.00    -0.355 OA 
HETATM   33  C   UNL     1      -9.529  13.898  65.964  1.00  0.00    -0.145 C  
HETATM   34  C   UNL     1      -8.367  14.081  65.030  1.00  0.00     5.434 C  
HETATM   35  C   UNL     1      -6.976  13.156  69.145  1.00  0.00    -0.028 C  
HETATM   36  C   UNL     1      -9.123  14.452  67.452  1.00  0.00    -0.198 C  
HETATM   37  C   UNL     1      -7.623  14.424  68.246  1.00  0.00    -0.124 C  
HETATM   38  O   UNL     1     -10.252  14.531  68.334  1.00  0.00    -0.226 OA 
HETATM   39  H   UNL     1     -10.016  14.853  69.196  1.00  0.00     0.000 HD 
BRANCH  13  40
HETATM   40  O   UNL     1      -9.047   9.416  67.218  1.00  0.00    -0.132 OA 
BRANCH  40  41
HETATM   41  C   UNL     1      -8.823   9.310  68.671  1.00  0.00    -0.132 C  
HETATM   42  C   UNL     1      -9.795   9.545  71.104  1.00  0.00    -0.107 C  
HETATM   43  C   UNL     1      -6.312   7.982  71.064  1.00  0.00    -0.037 C  
HETATM   44  O   UNL     1     -11.344   9.208  69.423  1.00  0.00    -0.442 OA 
HETATM   45  C   UNL     1      -8.591   8.780  71.608  1.00  0.00    -0.228 C  
HETATM   46  H   UNL     1     -12.043   8.982  70.025  1.00  0.00     0.000 HD 
HETATM   47  C   UNL     1      -7.424   8.891  70.575  1.00  0.00    -0.089 C  
HETATM   48  C   UNL     1     -10.010   8.925  69.692  1.00  0.00    -0.191 C  
HETATM   49  O   UNL     1      -7.706   8.551  69.177  1.00  0.00    -0.088 OA 
BRANCH  42  50
HETATM   50  N   UNL     1     -11.009   9.619  71.985  1.00  0.00     0.254 NA 
HETATM   51  C   UNL     1     -10.856   9.353  73.414  1.00  0.00     4.991 C  
HETATM   52  C   UNL     1     -11.847  10.801  71.786  1.00  0.00     0.715 C  
ENDBRANCH  42  50
ENDBRANCH  40  41
ENDBRANCH  13  40
BRANCH  35  53
HETATM   53  C   UNL     1      -7.963  12.047  69.228  1.00  0.00     0.440 C  
HETATM   54  C   UNL     1      -8.650  12.395  70.539  1.00  0.00     6.436 C  
ENDBRANCH  35  53
ENDBRANCH  11  12
ENDBRANCH   1  11
BRANCH   4  55
HETATM   55  O   UNL     1      -9.736   5.482  66.556  1.00  0.00    -0.146 OA 
HETATM   56  C   UNL     1     -11.122   5.689  66.800  1.00  0.00     0.083 C  
ENDBRANCH   4  55
TORSDOF 7
ENDMDL
MODEL       80
REMARK 921   NORMALIZED FREE ENERGY PREDICTED BY IDOCK:   19.49 KCAL/MOL
REMARK 922        TOTAL FREE ENERGY PREDICTED BY IDOCK:   24.78 KCAL/MOL
REMARK 923 INTER-LIGAND FREE ENERGY PREDICTED BY IDOCK:   13.16 KCAL/MOL
REMARK 924 INTRA-LIGAND FREE ENERGY PREDICTED BY IDOCK:   11.63 KCAL/MOL
REMARK 927      BINDING AFFINITY PREDICTED BY RF-SCORE:    0.00 PKD
ROOT
HETATM    1  C   UNL     1      -9.882  10.648  65.990  1.00  0.00    -0.228 C  
HETATM    2  O   UNL     1      -6.305  10.087  63.476  1.00  0.00    -0.119 OA 
HETATM    3  C   UNL     1      -8.470  11.265  66.385  1.00  0.00    -0.169 C  
HETATM    4  C   UNL     1      -7.163  10.689  65.714  1.00  0.00    -0.104 C  
HETATM    5  C   UNL     1      -8.890   9.191  62.628  1.00  0.00    -0.170 C  
HETATM    6  C   UNL     1      -7.471  10.481  64.221  1.00  0.00     0.093 C  
HETATM    7  C   UNL     1      -5.960  11.679  65.851  1.00  0.00     0.679 C  
HETATM    8  O   UNL     1      -9.884  10.018  64.682  1.00  0.00    -0.318 OA 
HETATM    9  H   UNL     1      -6.495   9.959  62.554  1.00  0.00     0.000 HD 
HETATM   10  C   UNL     1      -8.657   9.512  64.114  1.00  0.00    -0.201 C  
ENDROOT
BRANCH   1  11
HETATM   11  O   UNL     1     -10.735  10.088  67.160  1.00  0.00    -0.250 OA 
BRANCH  11  12
HETATM   12  C   UNL     1     -10.728  10.838  68.445  1.00  0.00    -0.217 C  
HETATM   13  C   UNL     1     -12.079   8.650  69.586  1.00  0.00     1.280 C  
HETATM   14  C   UNL     1      -9.783  11.406  71.034  1.00  0.00     6.278 C  
HETATM   15  C   UNL     1     -11.962  10.291  69.237  1.00  0.00    -0.005 C  
HETATM   16  O   UNL     1      -7.124  11.061  68.560  1.00  0.00    -0.069 OA 
HETATM   17  C   UNL     1      -9.390  11.322  69.528  1.00  0.00     0.556 C  
HETATM   18  C   UNL     1     -12.505  11.466  70.107  1.00  0.00    -0.271 C  
HETATM   19  C   UNL     1     -12.569   8.403  71.126  1.00  0.00    -0.143 C  
HETATM   20  O   UNL     1     -11.730   8.927  72.166  1.00  0.00    -0.363 OA 
HETATM   21  C   UNL     1     -13.947   9.126  71.256  1.00  0.00    -0.165 C  
HETATM   22  C   UNL     1      -7.880  10.879  69.521  1.00  0.00     0.027 C  
HETATM   23  C   UNL     1     -12.717   6.890  71.330  1.00  0.00    -0.384 C  
HETATM   24  C   UNL     1     -12.331   9.046  73.471  1.00  0.00     3.075 C  
HETATM   25  C   UNL     1     -11.930   6.042  72.372  1.00  0.00    -0.232 C  
HETATM   26  H   UNL     1      -6.531   9.988  73.031  1.00  0.00     0.000 HD 
HETATM   27  O   UNL     1      -7.364  10.354  70.735  1.00  0.00    -0.117 OA 
HETATM   28  C   UNL     1     -10.346   5.828  72.415  1.00  0.00    -0.200 C  
HETATM   29  C   UNL     1     -12.599   4.636  72.095  1.00  0.00     2.570 C  
HETATM   30  O   UNL     1      -7.027   9.213  73.266  1.00  0.00    -0.259 OA 
HETATM   31  C   UNL     1      -5.307   7.736  72.467  1.00  0.00    -0.036 C  
HETATM   32  O   UNL     1      -9.937   4.726  71.998  1.00  0.00    -0.172 OA 
HETATM   33  C   UNL     1      -9.230   6.686  73.195  1.00  0.00    -0.142 C  
HETATM   34  C   UNL     1      -9.584   7.885  74.028  1.00  0.00     0.274 C  
HETATM   35  C   UNL     1      -6.770   8.980  70.771  1.00  0.00    -0.067 C  
HETATM   36  C   UNL     1      -7.677   6.819  72.684  1.00  0.00    -0.099 C  
HETATM   37  C   UNL     1      -6.790   8.203  72.264  1.00  0.00    -0.083 C  
HETATM   38  O   UNL     1      -7.192   5.608  72.087  1.00  0.00    -0.084 OA 
HETATM   39  H   UNL     1      -6.293   5.685  71.791  1.00  0.00     0.000 HD 
BRANCH  13  40
HETATM   40  O   UNL     1     -10.977   7.874  69.020  1.00  0.00    -0.072 OA 
BRANCH  40  41
HETATM   41  C   UNL     1     -10.471   7.351  67.739  1.00  0.00    -0.232 C  
HETATM   42  C   UNL     1      -8.420   6.958  66.140  1.00  0.00    -0.136 C  
HETATM   43  C   UNL     1     -11.596   5.243  64.893  1.00  0.00     2.380 C  
HETATM   44  O   UNL     1      -7.923   7.208  68.383  1.00  0.00    -0.119 OA 
HETATM   45  C   UNL     1      -9.284   6.005  65.343  1.00  0.00     0.166 C  
HETATM   46  H   UNL     1      -7.040   6.868  68.291  1.00  0.00     0.000 HD 
HETATM   47  C   UNL     1     -10.792   6.325  65.593  1.00  0.00     1.993 C  
HETATM   48  C   UNL     1      -8.974   6.774  67.583  1.00  0.00    -0.115 C  
HETATM   49  O   UNL     1     -11.258   6.409  66.982  1.00  0.00    -0.373 OA 
BRANCH  42  50
HETATM   50  N   UNL     1      -6.929   6.862  65.987  1.00  0.00    -0.063 NA 
HETATM   51  C   UNL     1      -6.274   5.588  66.278  1.00  0.00    -0.034 C  
HETATM   52  C   UNL     1      -6.397   7.423  64.746  1.00  0.00    -0.037 C  
ENDBRANCH  42  50
ENDBRANCH  40  41
ENDBRANCH  13  40
BRANCH  35  53
HETATM   53  C   UNL     1      -7.599   8.218  69.800  1.00  0.00    -0.092 C  
HETATM   54  C   UNL     1      -8.944   8.251  70.510  1.00  0.00    -0.151 C  
ENDBRANCH  35  53
ENDBRANCH  11  12
ENDBRANCH   1  11
BRANCH   4  55
HETATM   55  O   UNL     1      -6.859   9.468  66.416  1.00  0.00    -0.081 OA 
HETATM   56  C   UNL     1      -5.649   9.394  67.159  1.00  0.00    -0.040 C  
ENDBRANCH   4  55
TORSDOF 7
ENDMDL
MODEL       81
REMARK 921   NORMALIZED FREE ENERGY PREDICTED BY IDOCK:   20.12 KCAL/MOL
REMARK 922        TOTAL FREE ENERGY PREDICTED BY IDOCK:   25.66 KCAL/MOL
REMARK 923 INTER-LIGAND FREE ENERGY PREDICTED BY IDOCK:   18.33 KCAL/MOL
REMARK 924 INTRA-LIGAND FREE ENERGY PREDICTED BY IDOCK:    7.34 KCAL/MOL
REMARK 927      BINDING AFFINITY PREDICTED BY RF-SCORE:    0.00 PKD
ROOT
HETATM    1  C   UNL     1      -8.216  10.193  68.998  1.00  0.00    -0.132 C  
HETATM    2  O   UNL     1      -9.272  12.698  65.528  1.00  0.00    -0.438 OA 
HETATM    3  C   UNL     1      -9.693  10.739  68.772  1.00  0.00    -0.197 C  
HETATM    4  C   UNL     1      -9.924  11.956  67.794  1.00  0.00    -0.186 C  
HETATM    5  C   UNL     1      -6.678  11.513  65.789  1.00  0.00     0.679 C  
HETATM    6  C   UNL     1      -9.041  11.718  66.556  1.00  0.00    -0.203 C  
HETATM    7  C   UNL     1     -11.417  12.056  67.340  1.00  0.00    -0.406 C  
HETATM    8  O   UNL     1      -7.322  10.492  67.894  1.00  0.00    -0.087 OA 
HETATM    9  H   UNL     1      -8.728  12.552  64.764  1.00  0.00     0.000 HD 
HETATM   10  C   UNL     1      -7.584  11.616  67.028  1.00  0.00    -0.154 C  
ENDROOT
BRANCH   1  11
HETATM   11  O   UNL     1      -7.713  10.171  70.466  1.00  0.00    -0.232 OA 
BRANCH  11  12
HETATM   12  C   UNL     1      -8.619   9.609  71.503  1.00  0.00     1.152 C  
HETATM   13  C   UNL     1     -10.230   8.655  69.403  1.00  0.00    -0.210 C  
HETATM   14  C   UNL     1      -9.689   7.525  73.063  1.00  0.00    -0.278 C  
HETATM   15  C   UNL     1     -10.024   9.542  70.817  1.00  0.00    -0.334 C  
HETATM   16  O   UNL     1      -6.042   7.537  72.958  1.00  0.00    -0.054 OA 
HETATM   17  C   UNL     1      -8.386   8.298  72.696  1.00  0.00    -0.235 C  
HETATM   18  C   UNL     1     -11.090   9.769  71.932  1.00  0.00     0.380 C  
HETATM   19  C   UNL     1     -11.604   7.771  69.448  1.00  0.00     0.625 C  
HETATM   20  O   UNL     1     -11.714   6.797  70.497  1.00  0.00    -0.351 OA 
HETATM   21  C   UNL     1     -12.762   8.796  69.666  1.00  0.00     2.494 C  
HETATM   22  C   UNL     1      -7.233   7.234  72.808  1.00  0.00    -0.072 C  
HETATM   23  C   UNL     1     -11.744   7.058  68.098  1.00  0.00     0.983 C  
HETATM   24  C   UNL     1     -13.040   6.300  70.767  1.00  0.00     1.547 C  
HETATM   25  C   UNL     1     -11.798   5.515  67.898  1.00  0.00     3.422 C  
HETATM   26  H   UNL     1      -8.516   3.647  73.455  1.00  0.00     0.000 HD 
HETATM   27  O   UNL     1      -7.625   5.870  72.855  1.00  0.00    -0.097 OA 
HETATM   28  C   UNL     1     -10.639   4.473  68.254  1.00  0.00     0.701 C  
HETATM   29  C   UNL     1     -12.010   5.482  66.330  1.00  0.00     2.799 C  
HETATM   30  O   UNL     1      -8.987   3.436  72.658  1.00  0.00    -0.087 OA 
HETATM   31  C   UNL     1      -7.075   2.345  71.690  1.00  0.00    -0.031 C  
HETATM   32  O   UNL     1      -9.981   4.044  67.286  1.00  0.00    -0.149 OA 
HETATM   33  C   UNL     1     -10.393   3.663  69.623  1.00  0.00     1.209 C  
HETATM   34  C   UNL     1     -11.296   3.817  70.814  1.00  0.00     4.563 C  
HETATM   35  C   UNL     1      -7.112   4.903  71.833  1.00  0.00    -0.062 C  
HETATM   36  C   UNL     1      -8.912   3.172  70.124  1.00  0.00    -0.105 C  
HETATM   37  C   UNL     1      -8.071   3.548  71.550  1.00  0.00    -0.061 C  
HETATM   38  O   UNL     1      -8.069   2.774  69.033  1.00  0.00    -0.054 OA 
HETATM   39  H   UNL     1      -7.210   2.489  69.324  1.00  0.00     0.000 HD 
BRANCH  13  40
HETATM   40  O   UNL     1      -8.981   8.068  68.920  1.00  0.00    -0.141 OA 
BRANCH  40  41
HETATM   41  C   UNL     1      -8.433   7.270  67.809  1.00  0.00    -0.121 C  
HETATM   42  C   UNL     1      -8.819   6.149  65.461  1.00  0.00    -0.051 C  
HETATM   43  C   UNL     1      -5.172   5.982  66.581  1.00  0.00    -0.009 C  
HETATM   44  O   UNL     1     -10.214   7.915  65.982  1.00  0.00    -0.382 OA 
HETATM   45  C   UNL     1      -7.319   5.977  65.350  1.00  0.00    -0.076 C  
HETATM   46  H   UNL     1     -10.512   8.028  65.087  1.00  0.00     0.000 HD 
HETATM   47  C   UNL     1      -6.677   6.002  66.774  1.00  0.00    -0.057 C  
HETATM   48  C   UNL     1      -8.937   7.461  66.291  1.00  0.00    -0.162 C  
HETATM   49  O   UNL     1      -7.006   7.126  67.658  1.00  0.00    -0.074 OA 
BRANCH  42  50
HETATM   50  N   UNL     1      -9.636   6.085  64.203  1.00  0.00     1.578 NA 
HETATM   51  C   UNL     1      -8.952   6.192  62.916  1.00  0.00     0.639 C  
HETATM   52  C   UNL     1     -10.618   5.003  64.157  1.00  0.00     1.328 C  
ENDBRANCH  42  50
ENDBRANCH  40  41
ENDBRANCH  13  40
BRANCH  35  53
HETATM   53  C   UNL     1      -7.024   5.721  70.594  1.00  0.00    -0.058 C  
HETATM   54  C   UNL     1      -5.526   5.662  70.338  1.00  0.00    -0.009 C  
ENDBRANCH  35  53
ENDBRANCH  11  12
ENDBRANCH   1  11
BRANCH   4  55
HETATM   55  O   UNL     1      -9.568  13.137  68.538  1.00  0.00    -0.200 OA 
HETATM   56  C   UNL     1      -9.426  14.365  67.834  1.00  0.00    -0.214 C  
ENDBRANCH   4  55
TORSDOF 7
ENDMDL
MODEL       82
REMARK 921   NORMALIZED FREE ENERGY PREDICTED BY IDOCK:   20.59 KCAL/MOL
REMARK 922        TOTAL FREE ENERGY PREDICTED BY IDOCK:   26.33 KCAL/MOL
REMARK 923 INTER-LIGAND FREE ENERGY PREDICTED BY IDOCK:   21.04 KCAL/MOL
REMARK 924 INTRA-LIGAND FREE ENERGY PREDICTED BY IDOCK:    5.30 KCAL/MOL
REMARK 927      BINDING AFFINITY PREDICTED BY RF-SCORE:    0.00 PKD
ROOT
HETATM    1  C   UNL     1      -7.850   7.834  66.989  1.00  0.00    -0.112 C  
HETATM    2  O   UNL     1     -11.603   5.629  66.294  1.00  0.00    -0.355 OA 
HETATM    3  C   UNL     1      -8.773   7.346  68.188  1.00  0.00    -0.122 C  
HETATM    4  C   UNL     1     -10.277   6.965  67.896  1.00  0.00    -0.174 C  
HETATM    5  C   UNL     1      -9.823   6.278  64.144  1.00  0.00     3.090 C  
HETATM    6  C   UNL     1     -10.295   6.153  66.589  1.00  0.00    -0.187 C  
HETATM    7  C   UNL     1     -10.884   6.093  69.044  1.00  0.00    -0.416 C  
HETATM    8  O   UNL     1      -8.301   7.364  65.692  1.00  0.00    -0.131 OA 
HETATM    9  H   UNL     1     -11.614   5.128  65.487  1.00  0.00     0.000 HD 
HETATM   10  C   UNL     1      -9.689   7.026  65.482  1.00  0.00     0.986 C  
ENDROOT
BRANCH   1  11
HETATM   11  O   UNL     1      -7.186   9.226  67.160  1.00  0.00    -0.085 OA 
BRANCH  11  12
HETATM   12  C   UNL     1      -7.571  10.301  66.205  1.00  0.00    -0.117 C  
HETATM   13  C   UNL     1     -10.167  10.156  67.279  1.00  0.00    -0.222 C  
HETATM   14  C   UNL     1      -8.178  12.958  65.503  1.00  0.00     2.484 C  
HETATM   15  C   UNL     1      -9.107  10.105  65.975  1.00  0.00    -0.185 C  
HETATM   16  O   UNL     1      -5.149  12.642  67.512  1.00  0.00    -0.108 OA 
HETATM   17  C   UNL     1      -7.084  12.018  66.096  1.00  0.00     0.881 C  
HETATM   18  C   UNL     1      -9.411  10.555  64.513  1.00  0.00    -0.299 C  
HETATM   19  C   UNL     1     -11.502  11.032  66.927  1.00  0.00     0.113 C  
HETATM   20  O   UNL     1     -11.301  12.410  66.580  1.00  0.00    -0.299 OA 
HETATM   21  C   UNL     1     -12.145  10.345  65.680  1.00  0.00     4.293 C  
HETATM   22  C   UNL     1      -6.294  12.907  67.126  1.00  0.00     0.162 C  
HETATM   23  C   UNL     1     -12.438  10.962  68.140  1.00  0.00     1.486 C  
HETATM   24  C   UNL     1     -12.399  13.066  65.915  1.00  0.00    -0.368 C  
HETATM   25  C   UNL     1     -12.926  12.184  68.971  1.00  0.00     1.936 C  
HETATM   26  H   UNL     1      -7.861  16.399  67.655  1.00  0.00     0.000 HD 
HETATM   27  O   UNL     1      -6.906  14.126  67.519  1.00  0.00    -0.179 OA 
HETATM   28  C   UNL     1     -12.006  13.179  69.820  1.00  0.00    -0.314 C  
HETATM   29  C   UNL     1     -13.877  11.425  69.982  1.00  0.00     3.328 C  
HETATM   30  O   UNL     1      -8.695  16.205  68.067  1.00  0.00    -0.173 OA 
HETATM   31  C   UNL     1      -7.796  16.512  70.275  1.00  0.00     1.990 C  
HETATM   32  O   UNL     1     -12.018  13.006  71.055  1.00  0.00    -0.135 OA 
HETATM   33  C   UNL     1     -11.312  14.556  69.360  1.00  0.00    -0.314 C  
HETATM   34  C   UNL     1     -11.458  15.096  67.965  1.00  0.00    -0.355 C  
HETATM   35  C   UNL     1      -7.188  14.397  68.965  1.00  0.00    -0.129 C  
HETATM   36  C   UNL     1      -9.926  15.130  70.022  1.00  0.00    -0.030 C  
HETATM   37  C   UNL     1      -8.437  15.479  69.285  1.00  0.00    -0.265 C  
HETATM   38  O   UNL     1      -9.835  14.854  71.427  1.00  0.00     0.869 OA 
HETATM   39  H   UNL     1      -9.033  15.188  71.810  1.00  0.00     0.000 HD 
BRANCH  13  40
HETATM   40  O   UNL     1      -9.480  10.326  68.558  1.00  0.00    -0.148 OA 
BRANCH  40  41
HETATM   41  C   UNL     1      -9.369   9.725  69.899  1.00  0.00    -0.231 C  
HETATM   42  C   UNL     1      -7.823   8.732  71.782  1.00  0.00    -0.044 C  
HETATM   43  C   UNL     1     -11.444   9.140  72.925  1.00  0.00     1.305 C  
HETATM   44  O   UNL     1      -6.805  10.174  70.291  1.00  0.00    -0.130 OA 
HETATM   45  C   UNL     1      -8.994   8.842  72.734  1.00  0.00     0.142 C  
HETATM   46  H   UNL     1      -6.037  10.298  70.837  1.00  0.00     0.000 HD 
HETATM   47  C   UNL     1     -10.331   8.875  71.927  1.00  0.00    -0.337 C  
HETATM   48  C   UNL     1      -8.067   9.936  70.825  1.00  0.00     0.483 C  
HETATM   49  O   UNL     1     -10.455   9.852  70.840  1.00  0.00    -0.286 OA 
BRANCH  42  50
HETATM   50  N   UNL     1      -6.443   8.617  72.363  1.00  0.00    -0.142 NA 
HETATM   51  C   UNL     1      -6.251   8.920  73.779  1.00  0.00     0.005 C  
HETATM   52  C   UNL     1      -5.725   7.392  72.013  1.00  0.00    -0.037 C  
ENDBRANCH  42  50
ENDBRANCH  40  41
ENDBRANCH  13  40
BRANCH  35  53
HETATM   53  C   UNL     1      -7.535  13.057  69.507  1.00  0.00     0.589 C  
HETATM   54  C   UNL     1      -6.346  12.821  70.426  1.00  0.00     0.240 C  
ENDBRANCH  35  53
ENDBRANCH  11  12
ENDBRANCH   1  11
BRANCH   4  55
HETATM   55  O   UNL     1     -10.995   8.211  67.810  1.00  0.00    -0.057 OA 
HETATM   56  C   UNL     1     -12.143   8.391  68.630  1.00  0.00     3.137 C  
ENDBRANCH   4  55
TORSDOF 7
ENDMDL
MODEL       83
REMARK 921   NORMALIZED FREE ENERGY PREDICTED BY IDOCK:   21.05 KCAL/MOL
REMARK 922        TOTAL FREE ENERGY PREDICTED BY IDOCK:   26.98 KCAL/MOL
REMARK 923 INTER-LIGAND FREE ENERGY PREDICTED BY IDOCK:    1.10 KCAL/MOL
REMARK 924 INTRA-LIGAND FREE ENERGY PREDICTED BY IDOCK:   25.88 KCAL/MOL
REMARK 927      BINDING AFFINITY PREDICTED BY RF-SCORE:    0.00 PKD
ROOT
HETATM    1  C   UNL     1      -5.330  10.514  70.516  1.00  0.00    -0.069 C  
HETATM    2  O   UNL     1      -6.787  14.200  68.587  1.00  0.00    -0.088 OA 
HETATM    3  C   UNL     1      -5.733  10.557  68.978  1.00  0.00    -0.040 C  
HETATM    4  C   UNL     1      -6.639  11.737  68.451  1.00  0.00    -0.055 C  
HETATM    5  C   UNL     1      -5.825  14.198  71.285  1.00  0.00    -0.206 C  
HETATM    6  C   UNL     1      -6.123  13.032  69.102  1.00  0.00    -0.095 C  
HETATM    7  C   UNL     1      -6.552  11.881  66.896  1.00  0.00    -0.083 C  
HETATM    8  O   UNL     1      -5.366  11.818  71.152  1.00  0.00    -0.233 OA 
HETATM    9  H   UNL     1      -6.469  15.000  68.989  1.00  0.00     0.000 HD 
HETATM   10  C   UNL     1      -6.211  12.863  70.625  1.00  0.00     0.293 C  
ENDROOT
BRANCH   1  11
HETATM   11  O   UNL     1      -5.716   9.225  71.288  1.00  0.00    -0.052 OA 
BRANCH  11  12
HETATM   12  C   UNL     1      -7.145   9.043  71.664  1.00  0.00     0.023 C  
HETATM   13  C   UNL     1      -7.766   9.265  68.930  1.00  0.00    -0.079 C  
HETATM   14  C   UNL     1      -9.518   7.554  71.924  1.00  0.00    -0.173 C  
HETATM   15  C   UNL     1      -7.955   9.751  70.528  1.00  0.00    -0.059 C  
HETATM   16  O   UNL     1      -6.568   5.815  73.182  1.00  0.00    -0.066 OA 
HETATM   17  C   UNL     1      -8.020   7.641  72.346  1.00  0.00    -0.127 C  
HETATM   18  C   UNL     1      -9.253  10.319  71.178  1.00  0.00     2.380 C  
HETATM   19  C   UNL     1      -9.208   9.157  68.166  1.00  0.00    -0.131 C  
HETATM   20  O   UNL     1     -10.161   8.232  68.708  1.00  0.00    -0.202 OA 
HETATM   21  C   UNL     1      -9.851  10.577  68.271  1.00  0.00    -0.162 C  
HETATM   22  C   UNL     1      -7.554   6.147  72.512  1.00  0.00    -0.099 C  
HETATM   23  C   UNL     1      -8.933   8.781  66.704  1.00  0.00    -0.168 C  
HETATM   24  C   UNL     1     -11.529   8.407  68.286  1.00  0.00     1.223 C  
HETATM   25  C   UNL     1      -9.452   7.498  65.994  1.00  0.00    -0.011 C  
HETATM   26  H   UNL     1     -10.216   3.578  71.398  1.00  0.00     0.000 HD 
HETATM   27  O   UNL     1      -8.394   5.150  71.951  1.00  0.00    -0.117 OA 
HETATM   28  C   UNL     1      -9.090   5.989  66.382  1.00  0.00    -0.150 C  
HETATM   29  C   UNL     1      -8.878   7.774  64.546  1.00  0.00     0.516 C  
HETATM   30  O   UNL     1     -10.284   3.725  70.462  1.00  0.00     0.086 OA 
HETATM   31  C   UNL     1      -8.705   1.981  69.964  1.00  0.00    -0.110 C  
HETATM   32  O   UNL     1      -8.261   5.424  65.642  1.00  0.00    -0.114 OA 
HETATM   33  C   UNL     1      -9.855   4.992  67.388  1.00  0.00    -0.207 C  
HETATM   34  C   UNL     1     -11.088   5.408  68.139  1.00  0.00     0.547 C  
HETATM   35  C   UNL     1      -7.854   4.196  70.930  1.00  0.00    -0.059 C  
HETATM   36  C   UNL     1      -9.103   3.786  68.205  1.00  0.00    -0.144 C  
HETATM   37  C   UNL     1      -8.982   3.523  69.877  1.00  0.00    -0.107 C  
HETATM   38  O   UNL     1      -8.056   3.175  67.437  1.00  0.00    -0.080 OA 
HETATM   39  H   UNL     1      -7.620   2.476  67.911  1.00  0.00     0.000 HD 
BRANCH  13  40
HETATM   40  O   UNL     1      -6.760   8.215  68.776  1.00  0.00    -0.055 OA 
BRANCH  40  41
HETATM   41  C   UNL     1      -6.454   7.017  67.975  1.00  0.00    -0.047 C  
HETATM   42  C   UNL     1      -5.906   5.985  65.618  1.00  0.00    -0.024 C  
HETATM   43  C   UNL     1      -5.547   3.445  68.446  1.00  0.00    -0.018 C  
HETATM   44  O   UNL     1      -5.430   8.231  65.876  1.00  0.00    -0.031 OA 
HETATM   45  C   UNL     1      -5.474   4.719  66.325  1.00  0.00    -0.013 C  
HETATM   46  H   UNL     1      -4.886   8.271  65.098  1.00  0.00     0.000 HD 
HETATM   47  C   UNL     1      -6.139   4.649  67.737  1.00  0.00    -0.031 C  
HETATM   48  C   UNL     1      -5.531   7.084  66.655  1.00  0.00    -0.022 C  
HETATM   49  O   UNL     1      -6.001   5.811  68.622  1.00  0.00    -0.018 OA 
BRANCH  42  50
HETATM   50  N   UNL     1      -5.428   6.212  64.212  1.00  0.00    -0.017 NA 
HETATM   51  C   UNL     1      -5.285   5.059  63.325  1.00  0.00    -0.009 C  
HETATM   52  C   UNL     1      -6.089   7.306  63.502  1.00  0.00    -0.045 C  
ENDBRANCH  42  50
ENDBRANCH  40  41
ENDBRANCH  13  40
BRANCH  35  53
HETATM   53  C   UNL     1      -6.884   5.022  70.163  1.00  0.00    -0.044 C  
HETATM   54  C   UNL     1      -5.628   4.803  70.993  1.00  0.00    -0.012 C  
ENDBRANCH  35  53
ENDBRANCH  11  12
ENDBRANCH   1  11
BRANCH   4  55
HETATM   55  O   UNL     1      -7.989  11.401  68.827  1.00  0.00    -0.143 OA 
HETATM   56  C   UNL     1      -9.047  12.237  68.375  1.00  0.00    -0.146 C  
ENDBRANCH   4  55
TORSDOF 7
ENDMDL
MODEL       84
REMARK 921   NORMALIZED FREE ENERGY PREDICTED BY IDOCK:   21.62 KCAL/MOL
REMARK 922        TOTAL FREE ENERGY PREDICTED BY IDOCK:   27.78 KCAL/MOL
REMARK 923 INTER-LIGAND FREE ENERGY PREDICTED BY IDOCK:    6.68 KCAL/MOL
REMARK 924 INTRA-LIGAND FREE ENERGY PREDICTED BY IDOCK:   21.10 KCAL/MOL
REMARK 927      BINDING AFFINITY PREDICTED BY RF-SCORE:    0.00 PKD
ROOT
HETATM    1  C   UNL     1     -12.221  13.227  69.503  1.00  0.00    -0.178 C  
HETATM    2  O   UNL     1     -11.077  17.319  70.677  1.00  0.00    -0.109 OA 
HETATM    3  C   UNL     1     -12.229  13.701  71.022  1.00  0.00    -0.374 C  
HETATM    4  C   UNL     1     -11.416  14.990  71.431  1.00  0.00    -0.318 C  
HETATM    5  C   UNL     1     -11.303  16.555  67.925  1.00  0.00    -0.049 C  
HETATM    6  C   UNL     1     -11.659  16.048  70.340  1.00  0.00    -0.348 C  
HETATM    7  C   UNL     1     -11.894  15.561  72.806  1.00  0.00    -0.575 C  
HETATM    8  O   UNL     1     -11.935  14.303  68.571  1.00  0.00    -0.341 OA 
HETATM    9  H   UNL     1     -11.227  17.972  70.004  1.00  0.00     0.000 HD 
HETATM   10  C   UNL     1     -11.190  15.462  69.002  1.00  0.00    -0.291 C  
ENDROOT
BRANCH   1  11
HETATM   11  O   UNL     1     -11.732  11.778  69.242  1.00  0.00    -0.283 OA 
BRANCH  11  12
HETATM   12  C   UNL     1     -10.558  11.291  70.017  1.00  0.00     0.482 C  
HETATM   13  C   UNL     1     -11.239   8.693  69.177  1.00  0.00     0.321 C  
HETATM   14  C   UNL     1      -7.920  10.347  70.279  1.00  0.00     0.424 C  
HETATM   15  C   UNL     1     -10.907   9.811  70.388  1.00  0.00    -0.370 C  
HETATM   16  O   UNL     1      -8.204  13.291  68.144  1.00  0.00    -0.144 OA 
HETATM   17  C   UNL     1      -8.802  11.533  69.785  1.00  0.00     1.492 C  
HETATM   18  C   UNL     1     -10.239   9.515  71.766  1.00  0.00     0.281 C  
HETATM   19  C   UNL     1     -10.495   7.266  69.463  1.00  0.00    -0.230 C  
HETATM   20  O   UNL     1      -9.063   7.285  69.545  1.00  0.00    -0.143 OA 
HETATM   21  C   UNL     1     -11.017   6.787  70.856  1.00  0.00    -0.303 C  
HETATM   22  C   UNL     1      -8.024  12.140  68.559  1.00  0.00    -0.119 C  
HETATM   23  C   UNL     1     -10.911   6.293  68.353  1.00  0.00    -0.409 C  
HETATM   24  C   UNL     1      -8.444   6.138  70.161  1.00  0.00    -0.133 C  
HETATM   25  C   UNL     1      -9.939   5.598  67.356  1.00  0.00    -0.180 C  
HETATM   26  H   UNL     1      -4.926  10.070  67.535  1.00  0.00     0.000 HD 
HETATM   27  O   UNL     1      -6.990  11.343  68.002  1.00  0.00    -0.065 OA 
HETATM   28  C   UNL     1      -9.007   6.326  66.280  1.00  0.00    -0.155 C  
HETATM   29  C   UNL     1     -10.989   4.718  66.567  1.00  0.00     0.496 C  
HETATM   30  O   UNL     1      -5.301   9.253  67.225  1.00  0.00    -0.036 OA 
HETATM   31  C   UNL     1      -5.294   9.994  64.938  1.00  0.00    -0.079 C  
HETATM   32  O   UNL     1      -9.406   6.280  65.099  1.00  0.00     0.334 OA 
HETATM   33  C   UNL     1      -7.490   6.839  66.437  1.00  0.00    -0.074 C  
HETATM   34  C   UNL     1      -6.724   6.683  67.721  1.00  0.00    -0.071 C  
HETATM   35  C   UNL     1      -7.031  10.957  66.555  1.00  0.00    -0.139 C  
HETATM   36  C   UNL     1      -6.871   8.096  65.586  1.00  0.00    -0.066 C  
HETATM   37  C   UNL     1      -6.201   9.553  66.139  1.00  0.00    -0.068 C  
HETATM   38  O   UNL     1      -7.389   8.158  64.249  1.00  0.00    -0.085 OA 
HETATM   39  H   UNL     1      -7.030   8.887  63.755  1.00  0.00     0.000 HD 
BRANCH  13  40
HETATM   40  O   UNL     1     -11.221   9.289  67.841  1.00  0.00     0.004 OA 
BRANCH  40  41
HETATM   41  C   UNL     1     -11.370  10.581  67.151  1.00  0.00     0.108 C  
HETATM   42  C   UNL     1     -10.832  12.066  65.047  1.00  0.00    -0.304 C  
HETATM   43  C   UNL     1     -13.347  13.717  67.398  1.00  0.00     4.001 C  
HETATM   44  O   UNL     1     -10.721   9.780  64.729  1.00  0.00     0.319 OA 
HETATM   45  C   UNL     1     -11.910  13.023  65.506  1.00  0.00    -0.438 C  
HETATM   46  H   UNL     1     -10.725   9.847  63.781  1.00  0.00     0.000 HD 
HETATM   47  C   UNL     1     -12.158  12.846  67.038  1.00  0.00    -0.230 C  
HETATM   48  C   UNL     1     -11.379  10.695  65.543  1.00  0.00     0.760 C  
HETATM   49  O   UNL     1     -12.417  11.493  67.542  1.00  0.00     0.158 OA 
BRANCH  42  50
HETATM   50  N   UNL     1     -10.395  12.124  63.611  1.00  0.00    -0.433 NA 
HETATM   51  C   UNL     1      -9.120  11.512  63.241  1.00  0.00    -0.034 C  
HETATM   52  C   UNL     1     -11.423  11.763  62.636  1.00  0.00     0.988 C  
ENDBRANCH  42  50
ENDBRANCH  40  41
ENDBRANCH  13  40
BRANCH  35  53
HETATM   53  C   UNL     1      -8.483  10.779  66.286  1.00  0.00    -0.161 C  
HETATM   54  C   UNL     1      -8.540   9.269  66.110  1.00  0.00    -0.146 C  
ENDBRANCH  35  53
ENDBRANCH  11  12
ENDBRANCH   1  11
BRANCH   4  55
HETATM   55  O   UNL     1     -10.040  14.577  71.536  1.00  0.00     2.092 OA 
HETATM   56  C   UNL     1      -9.075  15.213  70.707  1.00  0.00     1.898 C  
ENDBRANCH   4  55
TORSDOF 7
ENDMDL
MODEL       85
REMARK 921   NORMALIZED FREE ENERGY PREDICTED BY IDOCK:   22.12 KCAL/MOL
REMARK 922        TOTAL FREE ENERGY PREDICTED BY IDOCK:   28.49 KCAL/MOL
REMARK 923 INTER-LIGAND FREE ENERGY PREDICTED BY IDOCK:   21.20 KCAL/MOL
REMARK 924 INTRA-LIGAND FREE ENERGY PREDICTED BY IDOCK:    7.29 KCAL/MOL
REMARK 927      BINDING AFFINITY PREDICTED BY RF-SCORE:    0.00 PKD
ROOT
HETATM    1  C   UNL     1     -11.245  14.209  67.247  1.00  0.00    -0.316 C  
HETATM    2  O   UNL     1     -12.119  17.638  69.876  1.00  0.00     3.027 OA 
HETATM    3  C   UNL     1     -12.479  14.207  68.251  1.00  0.00     0.218 C  
HETATM    4  C   UNL     1     -12.497  15.233  69.451  1.00  0.00    -0.037 C  
HETATM    5  C   UNL     1     -10.053  17.754  67.896  1.00  0.00    -0.342 C  
HETATM    6  C   UNL     1     -12.012  16.585  68.901  1.00  0.00     0.420 C  
HETATM    7  C   UNL     1     -13.937  15.410  70.036  1.00  0.00     1.598 C  
HETATM    8  O   UNL     1     -10.548  15.482  67.201  1.00  0.00    -0.289 OA 
HETATM    9  H   UNL     1     -11.819  18.473  69.537  1.00  0.00     0.000 HD 
HETATM   10  C   UNL     1     -10.603  16.384  68.327  1.00  0.00    -0.318 C  
ENDROOT
BRANCH   1  11
HETATM   11  O   UNL     1     -10.487  12.864  67.093  1.00  0.00    -0.236 OA 
BRANCH  11  12
HETATM   12  C   UNL     1     -11.281  11.655  66.745  1.00  0.00    -0.308 C  
HETATM   13  C   UNL     1      -8.839  10.331  66.298  1.00  0.00    -0.146 C  
HETATM   14  C   UNL     1     -12.381   9.118  67.269  1.00  0.00     7.507 C  
HETATM   15  C   UNL     1     -10.360  10.831  65.785  1.00  0.00    -0.295 C  
HETATM   16  O   UNL     1     -12.907  11.516  69.968  1.00  0.00     0.028 OA 
HETATM   17  C   UNL     1     -12.337  10.605  67.735  1.00  0.00     2.203 C  
HETATM   18  C   UNL     1     -11.295  10.082  64.786  1.00  0.00     3.386 C  
HETATM   19  C   UNL     1      -8.545   8.781  65.870  1.00  0.00    -0.154 C  
HETATM   20  O   UNL     1      -9.439   7.785  66.387  1.00  0.00    -0.199 OA 
HETATM   21  C   UNL     1      -8.678   8.737  64.314  1.00  0.00    -0.038 C  
HETATM   22  C   UNL     1     -12.521  10.551  69.297  1.00  0.00     0.345 C  
HETATM   23  C   UNL     1      -7.117   8.439  66.313  1.00  0.00    -0.077 C  
HETATM   24  C   UNL     1      -9.418   6.505  65.725  1.00  0.00     0.241 C  
HETATM   25  C   UNL     1      -6.733   7.312  67.316  1.00  0.00    -0.068 C  
HETATM   26  H   UNL     1     -12.518   6.957  70.716  1.00  0.00     0.000 HD 
HETATM   27  O   UNL     1     -12.341   9.287  69.917  1.00  0.00     0.479 OA 
HETATM   28  C   UNL     1      -7.161   7.229  68.855  1.00  0.00    -0.084 C  
HETATM   29  C   UNL     1      -5.160   7.465  67.261  1.00  0.00    -0.021 C  
HETATM   30  O   UNL     1     -11.632   6.656  70.549  1.00  0.00    -0.345 OA 
HETATM   31  C   UNL     1     -10.889   7.292  72.745  1.00  0.00    -0.356 C  
HETATM   32  O   UNL     1      -6.277   7.536  69.679  1.00  0.00    -0.030 OA 
HETATM   33  C   UNL     1      -8.448   6.519  69.510  1.00  0.00    -0.131 C  
HETATM   34  C   UNL     1      -9.476   5.807  68.677  1.00  0.00    -0.144 C  
HETATM   35  C   UNL     1     -11.318   9.115  70.997  1.00  0.00    -0.309 C  
HETATM   36  C   UNL     1      -9.137   7.020  70.911  1.00  0.00    -0.153 C  
HETATM   37  C   UNL     1     -10.719   7.556  71.209  1.00  0.00    -0.225 C  
HETATM   38  O   UNL     1      -8.168   7.495  71.857  1.00  0.00    -0.102 OA 
HETATM   39  H   UNL     1      -8.567   7.785  72.669  1.00  0.00     0.000 HD 
BRANCH  13  40
HETATM   40  O   UNL     1      -8.514  10.808  67.642  1.00  0.00    -0.119 OA 
BRANCH  40  41
HETATM   41  C   UNL     1      -8.187  12.039  68.383  1.00  0.00    -0.151 C  
HETATM   42  C   UNL     1      -6.575  14.093  68.701  1.00  0.00    -0.092 C  
HETATM   43  C   UNL     1      -9.708  14.342  70.870  1.00  0.00     2.795 C  
HETATM   44  O   UNL     1      -6.568  13.116  66.608  1.00  0.00    -0.114 OA 
HETATM   45  C   UNL     1      -7.635  14.729  69.574  1.00  0.00    -0.092 C  
HETATM   46  H   UNL     1      -6.122  13.848  66.197  1.00  0.00     0.000 HD 
HETATM   47  C   UNL     1      -8.587  13.627  70.138  1.00  0.00     2.922 C  
HETATM   48  C   UNL     1      -7.430  13.280  67.686  1.00  0.00    -0.171 C  
HETATM   49  O   UNL     1      -9.192  12.687  69.188  1.00  0.00     0.389 OA 
BRANCH  42  50
HETATM   50  N   UNL     1      -5.514  14.979  68.113  1.00  0.00    -0.119 NA 
HETATM   51  C   UNL     1      -5.488  15.175  66.665  1.00  0.00     2.144 C  
HETATM   52  C   UNL     1      -5.330  16.260  68.793  1.00  0.00    -0.105 C  
ENDBRANCH  42  50
ENDBRANCH  40  41
ENDBRANCH  13  40
BRANCH  35  53
HETATM   53  C   UNL     1     -10.216  10.021  70.577  1.00  0.00    -0.160 C  
HETATM   54  C   UNL     1      -9.477   9.115  69.604  1.00  0.00    -0.178 C  
ENDBRANCH  35  53
ENDBRANCH  11  12
ENDBRANCH   1  11
BRANCH   4  55
HETATM   55  O   UNL     1     -11.634  14.678  70.462  1.00  0.00    -0.277 OA 
HETATM   56  C   UNL     1     -12.226  14.011  71.569  1.00  0.00    -0.199 C  
ENDBRANCH   4  55
TORSDOF 7
ENDMDL
MODEL       86
REMARK 921   NORMALIZED FREE ENERGY PREDICTED BY IDOCK:   23.72 KCAL/MOL
REMARK 922        TOTAL FREE ENERGY PREDICTED BY IDOCK:   30.74 KCAL/MOL
REMARK 923 INTER-LIGAND FREE ENERGY PREDICTED BY IDOCK:   23.34 KCAL/MOL
REMARK 924 INTRA-LIGAND FREE ENERGY PREDICTED BY IDOCK:    7.40 KCAL/MOL
REMARK 927      BINDING AFFINITY PREDICTED BY RF-SCORE:    0.00 PKD
ROOT
HETATM    1  C   UNL     1      -5.147  14.321  68.813  1.00  0.00    -0.089 C  
HETATM    2  O   UNL     1      -6.621  18.456  69.212  1.00  0.00    -0.261 OA 
HETATM    3  C   UNL     1      -5.178  15.326  67.581  1.00  0.00    -0.008 C  
HETATM    4  C   UNL     1      -6.094  16.609  67.656  1.00  0.00    -0.142 C  
HETATM    5  C   UNL     1      -6.331  16.741  71.487  1.00  0.00     2.697 C  
HETATM    6  C   UNL     1      -5.937  17.198  69.069  1.00  0.00    -0.174 C  
HETATM    7  C   UNL     1      -5.666  17.686  66.606  1.00  0.00    -0.216 C  
HETATM    8  O   UNL     1      -5.518  14.946  70.070  1.00  0.00    -0.104 OA 
HETATM    9  H   UNL     1      -6.523  18.820  70.083  1.00  0.00     0.000 HD 
HETATM   10  C   UNL     1      -6.356  16.122  70.079  1.00  0.00    -0.077 C  
ENDROOT
BRANCH   1  11
HETATM   11  O   UNL     1      -5.516  12.846  68.503  1.00  0.00    -0.056 OA 
BRANCH  11  12
HETATM   12  C   UNL     1      -6.204  12.063  69.565  1.00  0.00    -0.117 C  
HETATM   13  C   UNL     1      -8.598  13.295  68.750  1.00  0.00     0.136 C  
HETATM   14  C   UNL     1      -7.797   9.946  70.512  1.00  0.00     0.046 C  
HETATM   15  C   UNL     1      -7.468  12.909  69.934  1.00  0.00     1.270 C  
HETATM   16  O   UNL     1      -5.192   8.879  68.192  1.00  0.00    -0.034 OA 
HETATM   17  C   UNL     1      -6.488  10.308  69.747  1.00  0.00    -0.080 C  
HETATM   18  C   UNL     1      -7.755  12.666  71.448  1.00  0.00     9.074 C  
HETATM   19  C   UNL     1     -10.126  13.091  69.296  1.00  0.00     0.492 C  
HETATM   20  O   UNL     1     -10.492  11.769  69.718  1.00  0.00     0.281 OA 
HETATM   21  C   UNL     1     -10.257  14.013  70.550  1.00  0.00     1.990 C  
HETATM   22  C   UNL     1      -6.284   9.143  68.709  1.00  0.00    -0.044 C  
HETATM   23  C   UNL     1     -11.082  13.534  68.181  1.00  0.00    -0.283 C  
HETATM   24  C   UNL     1     -11.675  11.666  70.535  1.00  0.00    -0.098 C  
HETATM   25  C   UNL     1     -12.141  12.625  67.493  1.00  0.00    -0.170 C  
HETATM   26  H   UNL     1      -9.245   6.662  68.590  1.00  0.00     0.000 HD 
HETATM   27  O   UNL     1      -7.401   8.301  68.467  1.00  0.00    -0.089 OA 
HETATM   28  C   UNL     1     -11.845  11.313  66.628  1.00  0.00     0.670 C  
HETATM   29  C   UNL     1     -12.792  13.699  66.531  1.00  0.00     0.205 C  
HETATM   30  O   UNL     1      -9.958   7.190  68.251  1.00  0.00    -0.148 OA 
HETATM   31  C   UNL     1      -9.553   6.478  65.991  1.00  0.00     0.056 C  
HETATM   32  O   UNL     1     -11.932  11.449  65.392  1.00  0.00     0.024 OA 
HETATM   33  C   UNL     1     -11.756   9.781  67.113  1.00  0.00     2.163 C  
HETATM   34  C   UNL     1     -11.948   9.387  68.550  1.00  0.00     1.797 C  
HETATM   35  C   UNL     1      -7.945   8.149  67.080  1.00  0.00    -0.105 C  
HETATM   36  C   UNL     1     -10.840   8.650  66.358  1.00  0.00     0.808 C  
HETATM   37  C   UNL     1      -9.565   7.708  66.964  1.00  0.00    -0.175 C  
HETATM   38  O   UNL     1     -10.811   8.830  64.935  1.00  0.00     3.144 OA 
HETATM   39  H   UNL     1     -10.281   8.175  64.497  1.00  0.00     0.000 HD 
BRANCH  13  40
HETATM   40  O   UNL     1      -8.210  12.818  67.424  1.00  0.00    -0.168 OA 
BRANCH  40  41
HETATM   41  C   UNL     1      -8.775  12.491  66.103  1.00  0.00     0.258 C  
HETATM   42  C   UNL     1     -10.577  12.999  64.256  1.00  0.00    -0.412 C  
HETATM   43  C   UNL     1      -7.964  10.468  63.094  1.00  0.00    -0.083 C  
HETATM   44  O   UNL     1     -10.091  14.734  65.702  1.00  0.00    -0.322 OA 
HETATM   45  C   UNL     1      -9.764  12.155  63.298  1.00  0.00    -0.007 C  
HETATM   46  H   UNL     1     -10.504  15.392  65.154  1.00  0.00     0.000 HD 
HETATM   47  C   UNL     1      -8.857  11.169  64.102  1.00  0.00     0.119 C  
HETATM   48  C   UNL     1      -9.475  13.605  65.174  1.00  0.00     0.449 C  
HETATM   49  O   UNL     1      -8.003  11.723  65.157  1.00  0.00     0.916 OA 
BRANCH  42  50
HETATM   50  N   UNL     1     -11.568  13.971  63.681  1.00  0.00     0.090 NA 
HETATM   51  C   UNL     1     -12.666  13.453  62.868  1.00  0.00     0.980 C  
HETATM   52  C   UNL     1     -12.072  14.970  64.622  1.00  0.00    -0.323 C  
ENDBRANCH  42  50
ENDBRANCH  40  41
ENDBRANCH  13  40
BRANCH  35  53
HETATM   53  C   UNL     1      -7.750   9.496  66.482  1.00  0.00    -0.097 C  
HETATM   54  C   UNL     1      -6.543   9.225  65.596  1.00  0.00    -0.069 C  
ENDBRANCH  35  53
ENDBRANCH  11  12
ENDBRANCH   1  11
BRANCH   4  55
HETATM   55  O   UNL     1      -7.432  16.161  67.365  1.00  0.00    -0.139 OA 
HETATM   56  C   UNL     1      -8.342  17.080  66.772  1.00  0.00    -0.234 C  
ENDBRANCH   4  55
TORSDOF 7
ENDMDL
MODEL       87
REMARK 921   NORMALIZED FREE ENERGY PREDICTED BY IDOCK:   24.71 KCAL/MOL
REMARK 922        TOTAL FREE ENERGY PREDICTED BY IDOCK:   32.14 KCAL/MOL
REMARK 923 INTER-LIGAND FREE ENERGY PREDICTED BY IDOCK:   25.16 KCAL/MOL
REMARK 924 INTRA-LIGAND FREE ENERGY PREDICTED BY IDOCK:    6.98 KCAL/MOL
REMARK 927      BINDING AFFINITY PREDICTED BY RF-SCORE:    0.00 PKD
ROOT
HETATM    1  C   UNL     1     -10.558   8.852  67.509  1.00  0.00    -0.237 C  
HETATM    2  O   UNL     1      -8.169   5.188  68.058  1.00  0.00    -0.098 OA 
HETATM    3  C   UNL     1      -8.981   8.898  67.709  1.00  0.00    -0.140 C  
HETATM    4  C   UNL     1      -8.246   7.644  68.325  1.00  0.00    -0.125 C  
HETATM    5  C   UNL     1     -10.965   5.079  67.446  1.00  0.00     0.650 C  
HETATM    6  C   UNL     1      -8.859   6.392  67.675  1.00  0.00    -0.112 C  
HETATM    7  C   UNL     1      -6.711   7.672  68.027  1.00  0.00    -0.063 C  
HETATM    8  O   UNL     1     -11.081   7.502  67.395  1.00  0.00    -0.159 OA 
HETATM    9  H   UNL     1      -8.547   4.415  67.656  1.00  0.00     0.000 HD 
HETATM   10  C   UNL     1     -10.363   6.392  67.975  1.00  0.00    -0.193 C  
ENDROOT
BRANCH   1  11
HETATM   11  O   UNL     1     -11.368   9.978  68.205  1.00  0.00    -0.192 OA 
BRANCH  11  12
HETATM   12  C   UNL     1     -10.953  10.389  69.574  1.00  0.00    -0.262 C  
HETATM   13  C   UNL     1      -8.512  11.220  68.449  1.00  0.00    -0.153 C  
HETATM   14  C   UNL     1     -10.476  12.271  71.611  1.00  0.00     9.312 C  
HETATM   15  C   UNL     1      -9.389  10.313  69.560  1.00  0.00    -0.200 C  
HETATM   16  O   UNL     1     -13.702  12.700  69.962  1.00  0.00     2.232 OA 
HETATM   17  C   UNL     1     -11.558  11.673  70.660  1.00  0.00     0.132 C  
HETATM   18  C   UNL     1      -8.937   9.918  70.999  1.00  0.00     0.868 C  
HETATM   19  C   UNL     1      -7.217  11.931  69.151  1.00  0.00    -0.020 C  
HETATM   20  O   UNL     1      -7.483  12.845  70.224  1.00  0.00     1.424 OA 
HETATM   21  C   UNL     1      -6.368  10.767  69.753  1.00  0.00    -0.104 C  
HETATM   22  C   UNL     1     -12.542  12.863  70.360  1.00  0.00    -0.074 C  
HETATM   23  C   UNL     1      -6.442  12.672  68.054  1.00  0.00    -0.093 C  
HETATM   24  C   UNL     1      -6.365  13.170  71.075  1.00  0.00     0.901 C  
HETATM   25  C   UNL     1      -6.164  14.203  68.027  1.00  0.00    -0.150 C  
HETATM   26  H   UNL     1     -11.341  16.244  71.794  1.00  0.00     0.000 HD 
HETATM   27  O   UNL     1     -12.085  14.167  70.685  1.00  0.00    -0.314 OA 
HETATM   28  C   UNL     1      -7.262  15.362  67.943  1.00  0.00    -0.145 C  
HETATM   29  C   UNL     1      -5.293  14.268  66.709  1.00  0.00     2.162 C  
HETATM   30  O   UNL     1     -10.554  16.427  71.294  1.00  0.00     0.684 OA 
HETATM   31  C   UNL     1     -11.749  17.774  69.701  1.00  0.00     3.702 C  
HETATM   32  O   UNL     1      -7.394  15.903  66.827  1.00  0.00    -0.203 OA 
HETATM   33  C   UNL     1      -8.000  16.145  69.140  1.00  0.00    -0.233 C  
HETATM   34  C   UNL     1      -7.720  15.841  70.584  1.00  0.00     1.899 C  
HETATM   35  C   UNL     1     -12.013  15.227  69.628  1.00  0.00    -0.338 C  
HETATM   36  C   UNL     1      -9.501  16.791  69.002  1.00  0.00    -0.217 C  
HETATM   37  C   UNL     1     -10.906  16.466  69.896  1.00  0.00    -0.333 C  
HETATM   38  O   UNL     1      -9.748  17.327  67.694  1.00  0.00    -0.262 OA 
HETATM   39  H   UNL     1     -10.617  17.702  67.615  1.00  0.00     0.000 HD 
BRANCH  13  40
HETATM   40  O   UNL     1      -9.369  11.970  67.532  1.00  0.00    -0.172 OA 
BRANCH  40  41
HETATM   41  C   UNL     1      -9.548  12.267  66.100  1.00  0.00    -0.240 C  
HETATM   42  C   UNL     1     -10.775  13.673  64.247  1.00  0.00    -0.262 C  
HETATM   43  C   UNL     1      -7.936  11.548  62.831  1.00  0.00     0.698 C  
HETATM   44  O   UNL     1     -10.710  14.614  66.355  1.00  0.00    -0.298 OA 
HETATM   45  C   UNL     1      -9.728  13.200  63.262  1.00  0.00     2.871 C  
HETATM   46  H   UNL     1     -10.959  15.478  66.047  1.00  0.00     0.000 HD 
HETATM   47  C   UNL     1      -9.074  11.879  63.779  1.00  0.00     0.405 C  
HETATM   48  C   UNL     1      -9.969  13.732  65.578  1.00  0.00    -0.238 C  
HETATM   49  O   UNL     1      -8.544  11.863  65.147  1.00  0.00     0.465 OA 
BRANCH  42  50
HETATM   50  N   UNL     1     -11.573  14.898  63.901  1.00  0.00     0.016 NA 
HETATM   51  C   UNL     1     -13.027  14.783  63.804  1.00  0.00     1.355 C  
HETATM   52  C   UNL     1     -11.217  16.101  64.653  1.00  0.00    -0.298 C  
ENDBRANCH  42  50
ENDBRANCH  40  41
ENDBRANCH  13  40
BRANCH  35  53
HETATM   53  C   UNL     1     -11.631  14.471  68.405  1.00  0.00    -0.356 C  
HETATM   54  C   UNL     1     -12.998  14.289  67.763  1.00  0.00     1.887 C  
ENDBRANCH  35  53
ENDBRANCH  11  12
ENDBRANCH   1  11
BRANCH   4  55
HETATM   55  O   UNL     1      -8.459   7.717  69.748  1.00  0.00    -0.130 OA 
HETATM   56  C   UNL     1      -7.776   6.792  70.585  1.00  0.00    -0.097 C  
ENDBRANCH   4  55
TORSDOF 7
ENDMDL
MODEL       88
REMARK 921   NORMALIZED FREE ENERGY PREDICTED BY IDOCK:   25.20 KCAL/MOL
REMARK 922        TOTAL FREE ENERGY PREDICTED BY IDOCK:   32.82 KCAL/MOL
REMARK 923 INTER-LIGAND FREE ENERGY PREDICTED BY IDOCK:   15.88 KCAL/MOL
REMARK 924 INTRA-LIGAND FREE ENERGY PREDICTED BY IDOCK:   16.94 KCAL/MOL
REMARK 927      BINDING AFFINITY PREDICTED BY RF-SCORE:    0.00 PKD
ROOT
HETATM    1  C   UNL     1     -11.555  12.815  71.042  1.00  0.00     1.243 C  
HETATM    2  O   UNL     1     -12.252  17.018  69.913  1.00  0.00     0.962 OA 
HETATM    3  C   UNL     1     -10.367  13.776  70.601  1.00  0.00     2.648 C  
HETATM    4  C   UNL     1     -10.700  15.098  69.805  1.00  0.00    -0.274 C  
HETATM    5  C   UNL     1     -14.357  15.373  70.947  1.00  0.00     0.034 C  
HETATM    6  C   UNL     1     -11.936  15.729  70.469  1.00  0.00    -0.371 C  
HETATM    7  C   UNL     1      -9.517  16.119  69.861  1.00  0.00     0.302 C  
HETATM    8  O   UNL     1     -12.830  13.498  71.157  1.00  0.00    -0.338 OA 
HETATM    9  H   UNL     1     -13.015  17.408  70.323  1.00  0.00     0.000 HD 
HETATM   10  C   UNL     1     -13.080  14.707  70.408  1.00  0.00    -0.115 C  
ENDROOT
BRANCH   1  11
HETATM   11  O   UNL     1     -11.465  11.346  70.548  1.00  0.00    -0.201 OA 
BRANCH  11  12
HETATM   12  C   UNL     1     -10.314  10.526  71.014  1.00  0.00     1.474 C  
HETATM   13  C   UNL     1     -11.123   8.565  69.166  1.00  0.00     0.200 C  
HETATM   14  C   UNL     1      -7.724   9.449  70.788  1.00  0.00    -0.144 C  
HETATM   15  C   UNL     1     -10.733   9.045  70.730  1.00  0.00    -0.301 C  
HETATM   16  O   UNL     1      -7.872  13.031  70.114  1.00  0.00     1.853 OA 
HETATM   17  C   UNL     1      -8.549  10.769  70.866  1.00  0.00     3.695 C  
HETATM   18  C   UNL     1     -10.075   8.163  71.834  1.00  0.00    -0.285 C  
HETATM   19  C   UNL     1     -10.448   7.121  68.801  1.00  0.00    -0.202 C  
HETATM   20  O   UNL     1      -9.016   7.043  68.849  1.00  0.00    -0.130 OA 
HETATM   21  C   UNL     1     -10.988   6.118  69.870  1.00  0.00    -0.458 C  
HETATM   22  C   UNL     1      -7.746  11.807  69.996  1.00  0.00     1.692 C  
HETATM   23  C   UNL     1     -10.915   6.732  67.392  1.00  0.00    -0.407 C  
HETATM   24  C   UNL     1      -8.452   5.718  68.904  1.00  0.00    -0.104 C  
HETATM   25  C   UNL     1      -9.981   6.487  66.172  1.00  0.00     0.111 C  
HETATM   26  H   UNL     1      -4.756  10.240  68.116  1.00  0.00     0.000 HD 
HETATM   27  O   UNL     1      -6.754  11.279  69.128  1.00  0.00    -0.079 OA 
HETATM   28  C   UNL     1      -9.018   7.564  65.486  1.00  0.00     0.099 C  
HETATM   29  C   UNL     1     -11.075   6.072  65.109  1.00  0.00     3.507 C  
HETATM   30  O   UNL     1      -5.172   9.650  67.497  1.00  0.00    -0.036 OA 
HETATM   31  C   UNL     1      -5.136  11.292  65.742  1.00  0.00    -0.007 C  
HETATM   32  O   UNL     1      -9.423   8.041  64.407  1.00  0.00     1.369 OA 
HETATM   33  C   UNL     1      -7.477   7.896  65.810  1.00  0.00    -0.078 C  
HETATM   34  C   UNL     1      -6.716   7.176  66.887  1.00  0.00    -0.060 C  
HETATM   35  C   UNL     1      -6.819  11.549  67.656  1.00  0.00    -0.083 C  
HETATM   36  C   UNL     1      -6.802   9.368  65.559  1.00  0.00    -0.078 C  
HETATM   37  C   UNL     1      -6.059  10.421  66.663  1.00  0.00    -0.068 C  
HETATM   38  O   UNL     1      -7.320  10.016  64.388  1.00  0.00    -0.134 OA 
HETATM   39  H   UNL     1      -6.928  10.869  64.243  1.00  0.00     0.000 HD 
BRANCH  13  40
HETATM   40  O   UNL     1     -11.080   9.671  68.210  1.00  0.00    -0.168 OA 
BRANCH  40  41
HETATM   41  C   UNL     1     -11.088   9.948  66.763  1.00  0.00     0.242 C  
HETATM   42  C   UNL     1     -12.030  11.381  64.768  1.00  0.00     0.418 C  
HETATM   43  C   UNL     1      -9.177   9.078  63.698  1.00  0.00     0.490 C  
HETATM   44  O   UNL     1     -12.139  12.359  66.858  1.00  0.00    -0.564 OA 
HETATM   45  C   UNL     1     -10.911  10.832  63.909  1.00  0.00     0.157 C  
HETATM   46  H   UNL     1     -12.305  13.229  66.513  1.00  0.00     0.000 HD 
HETATM   47  C   UNL     1     -10.390   9.489  64.513  1.00  0.00     1.816 C  
HETATM   48  C   UNL     1     -11.369  11.423  66.178  1.00  0.00    -0.043 C  
HETATM   49  O   UNL     1     -10.012   9.472  65.930  1.00  0.00    -0.291 OA 
BRANCH  42  50
HETATM   50  N   UNL     1     -12.717  12.639  64.321  1.00  0.00    -0.712 NA 
HETATM   51  C   UNL     1     -13.054  13.648  65.324  1.00  0.00    -0.104 C  
HETATM   52  C   UNL     1     -12.129  13.282  63.147  1.00  0.00    -0.153 C  
ENDBRANCH  42  50
ENDBRANCH  40  41
ENDBRANCH  13  40
BRANCH  35  53
HETATM   53  C   UNL     1      -8.278  11.563  67.371  1.00  0.00    -0.149 C  
HETATM   54  C   UNL     1      -8.374  12.821  66.520  1.00  0.00     0.220 C  
ENDBRANCH  35  53
ENDBRANCH  11  12
ENDBRANCH   1  11
BRANCH   4  55
HETATM   55  O   UNL     1     -10.922  14.695  68.440  1.00  0.00    -0.238 OA 
HETATM   56  C   UNL     1     -10.503  15.569  67.398  1.00  0.00    -0.281 C  
ENDBRANCH   4  55
TORSDOF 7
ENDMDL
MODEL       89
REMARK 921   NORMALIZED FREE ENERGY PREDICTED BY IDOCK:   25.56 KCAL/MOL
REMARK 922        TOTAL FREE ENERGY PREDICTED BY IDOCK:   33.33 KCAL/MOL
REMARK 923 INTER-LIGAND FREE ENERGY PREDICTED BY IDOCK:   14.31 KCAL/MOL
REMARK 924 INTRA-LIGAND FREE ENERGY PREDICTED BY IDOCK:   19.02 KCAL/MOL
REMARK 927      BINDING AFFINITY PREDICTED BY RF-SCORE:    0.00 PKD
ROOT
HETATM    1  C   UNL     1     -10.334  14.364  68.321  1.00  0.00    -0.239 C  
HETATM    2  O   UNL     1     -11.916  14.356  72.435  1.00  0.00    -0.115 OA 
HETATM    3  C   UNL     1     -10.256  15.648  69.255  1.00  0.00    -0.250 C  
HETATM    4  C   UNL     1     -11.198  15.741  70.518  1.00  0.00    -0.374 C  
HETATM    5  C   UNL     1     -11.833  11.968  70.855  1.00  0.00     0.209 C  
HETATM    6  C   UNL     1     -11.198  14.356  71.188  1.00  0.00     0.424 C  
HETATM    7  C   UNL     1     -10.682  16.801  71.546  1.00  0.00     1.611 C  
HETATM    8  O   UNL     1     -10.845  13.190  69.005  1.00  0.00    -0.234 OA 
HETATM    9  H   UNL     1     -11.916  13.501  72.849  1.00  0.00     0.000 HD 
HETATM   10  C   UNL     1     -11.700  13.334  70.160  1.00  0.00    -0.184 C  
ENDROOT
BRANCH   1  11
HETATM   11  O   UNL     1     -10.642  14.626  66.823  1.00  0.00    -0.281 OA 
BRANCH  11  12
HETATM   12  C   UNL     1     -11.384  13.577  66.072  1.00  0.00    -0.312 C  
HETATM   13  C   UNL     1      -8.887  12.497  65.356  1.00  0.00     0.891 C  
HETATM   14  C   UNL     1     -12.431  10.989  65.715  1.00  0.00     3.749 C  
HETATM   15  C   UNL     1     -10.399  13.111  64.949  1.00  0.00    -0.352 C  
HETATM   16  O   UNL     1     -13.145  12.404  69.001  1.00  0.00     1.354 OA 
HETATM   17  C   UNL     1     -12.451  12.253  66.627  1.00  0.00     0.857 C  
HETATM   18  C   UNL     1     -11.266  12.702  63.720  1.00  0.00    -0.519 C  
HETATM   19  C   UNL     1      -8.529  11.165  64.478  1.00  0.00     0.317 C  
HETATM   20  O   UNL     1      -9.415  10.044  64.609  1.00  0.00    -0.270 OA 
HETATM   21  C   UNL     1      -8.593  11.612  62.982  1.00  0.00     0.425 C  
HETATM   22  C   UNL     1     -12.702  11.706  68.081  1.00  0.00     2.140 C  
HETATM   23  C   UNL     1      -7.112  10.720  64.862  1.00  0.00     0.248 C  
HETATM   24  C   UNL     1      -9.328   9.038  63.580  1.00  0.00     0.860 C  
HETATM   25  C   UNL     1      -6.740   9.341  65.478  1.00  0.00    -0.073 C  
HETATM   26  H   UNL     1     -12.655   7.848  68.296  1.00  0.00     0.000 HD 
HETATM   27  O   UNL     1     -12.512  10.314  68.281  1.00  0.00     0.842 OA 
HETATM   28  C   UNL     1      -7.231   8.771  66.889  1.00  0.00    -0.079 C  
HETATM   29  C   UNL     1      -5.171   9.526  65.554  1.00  0.00    -0.042 C  
HETATM   30  O   UNL     1     -11.754   7.629  68.088  1.00  0.00     1.118 OA 
HETATM   31  C   UNL     1     -11.126   7.549  70.408  1.00  0.00    -0.277 C  
HETATM   32  O   UNL     1      -6.394   8.814  67.812  1.00  0.00    -0.055 OA 
HETATM   33  C   UNL     1      -8.524   7.872  67.221  1.00  0.00    -0.121 C  
HETATM   34  C   UNL     1      -9.494   7.444  66.156  1.00  0.00    -0.076 C  
HETATM   35  C   UNL     1     -11.532   9.825  69.302  1.00  0.00     0.072 C  
HETATM   36  C   UNL     1      -9.288   7.895  68.672  1.00  0.00    -0.145 C  
HETATM   37  C   UNL     1     -10.897   8.287  69.043  1.00  0.00     0.012 C  
HETATM   38  O   UNL     1      -8.376   8.061  69.768  1.00  0.00    -0.119 OA 
HETATM   39  H   UNL     1      -8.819   8.075  70.608  1.00  0.00     0.000 HD 
BRANCH  13  40
HETATM   40  O   UNL     1      -8.635  12.530  66.796  1.00  0.00    -0.183 OA 
BRANCH  40  41
HETATM   41  C   UNL     1      -8.022  13.367  67.842  1.00  0.00    -0.155 C  
HETATM   42  C   UNL     1      -7.108  13.555  70.302  1.00  0.00     0.973 C  
HETATM   43  C   UNL     1      -6.385  16.680  68.228  1.00  0.00    -0.136 C  
HETATM   44  O   UNL     1      -7.154  11.430  69.398  1.00  0.00    -0.190 OA 
HETATM   45  C   UNL     1      -6.456  14.863  69.908  1.00  0.00    -0.171 C  
HETATM   46  H   UNL     1      -6.582  11.065  70.065  1.00  0.00     0.000 HD 
HETATM   47  C   UNL     1      -7.180  15.460  68.660  1.00  0.00    -0.121 C  
HETATM   48  C   UNL     1      -7.052  12.749  68.971  1.00  0.00    -0.025 C  
HETATM   49  O   UNL     1      -7.358  14.597  67.488  1.00  0.00    -0.175 OA 
BRANCH  42  50
HETATM   50  N   UNL     1      -6.601  12.849  71.526  1.00  0.00     1.909 NA 
HETATM   51  C   UNL     1      -5.636  11.764  71.361  1.00  0.00     0.232 C  
HETATM   52  C   UNL     1      -6.181  13.727  72.618  1.00  0.00     1.358 C  
ENDBRANCH  42  50
ENDBRANCH  40  41
ENDBRANCH  13  40
BRANCH  35  53
HETATM   53  C   UNL     1     -10.440  10.832  69.245  1.00  0.00    -0.243 C  
HETATM   54  C   UNL     1      -9.225   9.918  69.302  1.00  0.00    -0.207 C  
ENDBRANCH  35  53
ENDBRANCH  11  12
ENDBRANCH   1  11
BRANCH   4  55
HETATM   55  O   UNL     1     -12.490  16.142  70.023  1.00  0.00    -0.152 OA 
HETATM   56  C   UNL     1     -13.588  15.255  70.196  1.00  0.00     0.583 C  
ENDBRANCH   4  55
TORSDOF 7
ENDMDL
MODEL       90
REMARK 921   NORMALIZED FREE ENERGY PREDICTED BY IDOCK:   26.42 KCAL/MOL
REMARK 922        TOTAL FREE ENERGY PREDICTED BY IDOCK:   34.55 KCAL/MOL
REMARK 923 INTER-LIGAND FREE ENERGY PREDICTED BY IDOCK:   21.05 KCAL/MOL
REMARK 924 INTRA-LIGAND FREE ENERGY PREDICTED BY IDOCK:   13.50 KCAL/MOL
REMARK 927      BINDING AFFINITY PREDICTED BY RF-SCORE:    0.00 PKD
ROOT
HETATM    1  C   UNL     1     -10.848  10.665  67.744  1.00  0.00    -0.286 C  
HETATM    2  O   UNL     1      -9.670   8.433  71.358  1.00  0.00    -0.169 OA 
HETATM    3  C   UNL     1     -11.834  10.480  68.978  1.00  0.00    -0.183 C  
HETATM    4  C   UNL     1     -11.547   9.339  70.030  1.00  0.00     0.025 C  
HETATM    5  C   UNL     1      -7.803   8.976  69.255  1.00  0.00    -0.095 C  
HETATM    6  C   UNL     1     -10.034   9.344  70.305  1.00  0.00    -0.237 C  
HETATM    7  C   UNL     1     -12.309   9.587  71.373  1.00  0.00    -0.451 C  
HETATM    8  O   UNL     1      -9.515  10.149  67.997  1.00  0.00    -0.143 OA 
HETATM    9  H   UNL     1      -8.736   8.436  71.529  1.00  0.00     0.000 HD 
HETATM   10  C   UNL     1      -9.310   9.106  68.973  1.00  0.00    -0.151 C  
ENDROOT
BRANCH   1  11
HETATM   11  O   UNL     1     -11.494  10.588  66.335  1.00  0.00     0.131 OA 
BRANCH  11  12
HETATM   12  C   UNL     1     -10.840  11.339  65.229  1.00  0.00    -0.194 C  
HETATM   13  C   UNL     1     -12.275  13.603  66.084  1.00  0.00    -0.444 C  
HETATM   14  C   UNL     1      -8.950  13.131  64.164  1.00  0.00     3.102 C  
HETATM   15  C   UNL     1     -11.830  12.503  64.892  1.00  0.00    -0.438 C  
HETATM   16  O   UNL     1      -7.504  10.683  66.450  1.00  0.00    -0.125 OA 
HETATM   17  C   UNL     1      -9.135  11.802  64.957  1.00  0.00     0.205 C  
HETATM   18  C   UNL     1     -11.693  12.793  63.366  1.00  0.00    -0.556 C  
HETATM   19  C   UNL     1     -12.258  15.136  65.516  1.00  0.00     0.281 C  
HETATM   20  O   UNL     1     -11.004  15.632  65.025  1.00  0.00    -0.406 OA 
HETATM   21  C   UNL     1     -13.250  15.152  64.309  1.00  0.00     1.558 C  
HETATM   22  C   UNL     1      -7.906  11.735  65.938  1.00  0.00     0.566 C  
HETATM   23  C   UNL     1     -12.744  16.055  66.643  1.00  0.00     3.168 C  
HETATM   24  C   UNL     1     -11.066  16.808  64.194  1.00  0.00     1.115 C  
HETATM   25  C   UNL     1     -11.919  17.213  67.277  1.00  0.00     2.054 C  
HETATM   26  H   UNL     1      -5.746  14.939  65.907  1.00  0.00     0.000 HD 
HETATM   27  O   UNL     1      -7.175  12.937  66.128  1.00  0.00     1.388 OA 
HETATM   28  C   UNL     1     -10.543  17.067  68.077  1.00  0.00    -0.373 C  
HETATM   29  C   UNL     1     -13.007  17.761  68.285  1.00  0.00     7.013 C  
HETATM   30  O   UNL     1      -6.328  15.599  66.266  1.00  0.00     0.986 OA 
HETATM   31  C   UNL     1      -5.469  15.300  68.492  1.00  0.00    -0.097 C  
HETATM   32  O   UNL     1     -10.626  17.157  69.318  1.00  0.00    -0.326 OA 
HETATM   33  C   UNL     1      -9.035  17.131  67.517  1.00  0.00    -0.221 C  
HETATM   34  C   UNL     1      -8.734  17.344  66.060  1.00  0.00    -0.097 C  
HETATM   35  C   UNL     1      -7.013  13.512  67.501  1.00  0.00    -0.145 C  
HETATM   36  C   UNL     1      -7.779  16.349  68.222  1.00  0.00    -0.162 C  
HETATM   37  C   UNL     1      -6.739  15.171  67.581  1.00  0.00    -0.176 C  
HETATM   38  O   UNL     1      -7.886  16.321  69.653  1.00  0.00    -0.061 OA 
HETATM   39  H   UNL     1      -7.157  15.868  70.062  1.00  0.00     0.000 HD 
BRANCH  13  40
HETATM   40  O   UNL     1     -11.695  13.284  67.388  1.00  0.00    -0.333 OA 
BRANCH  40  41
HETATM   41  C   UNL     1     -11.997  13.333  68.830  1.00  0.00    -0.300 C  
HETATM   42  C   UNL     1     -11.876  14.668  71.093  1.00  0.00    -0.323 C  
HETATM   43  C   UNL     1     -13.978  11.492  71.377  1.00  0.00     1.457 C  
HETATM   44  O   UNL     1     -11.765  15.934  69.164  1.00  0.00    -0.376 OA 
HETATM   45  C   UNL     1     -12.880  13.692  71.667  1.00  0.00    -0.427 C  
HETATM   46  H   UNL     1     -11.938  16.752  69.615  1.00  0.00     0.000 HD 
HETATM   47  C   UNL     1     -12.849  12.360  70.852  1.00  0.00    -0.090 C  
HETATM   48  C   UNL     1     -12.292  14.721  69.594  1.00  0.00    -0.215 C  
HETATM   49  O   UNL     1     -12.981  12.442  69.393  1.00  0.00     0.877 OA 
BRANCH  42  50
HETATM   50  N   UNL     1     -11.701  15.993  71.779  1.00  0.00    -0.487 NA 
HETATM   51  C   UNL     1     -12.864  16.616  72.408  1.00  0.00     1.010 C  
HETATM   52  C   UNL     1     -10.545  16.079  72.671  1.00  0.00     2.945 C  
ENDBRANCH  42  50
ENDBRANCH  40  41
ENDBRANCH  13  40
BRANCH  35  53
HETATM   53  C   UNL     1      -8.301  13.186  68.168  1.00  0.00    -0.161 C  
HETATM   54  C   UNL     1      -7.795  12.371  69.348  1.00  0.00     0.685 C  
ENDBRANCH  35  53
ENDBRANCH  11  12
ENDBRANCH   1  11
BRANCH   4  55
HETATM   55  O   UNL     1     -12.020   8.117  69.430  1.00  0.00     0.981 OA 
HETATM   56  C   UNL     1     -11.737   6.886  70.084  1.00  0.00    -0.253 C  
ENDBRANCH   4  55
TORSDOF 7
ENDMDL
MODEL       91
REMARK 921   NORMALIZED FREE ENERGY PREDICTED BY IDOCK:   26.83 KCAL/MOL
REMARK 922        TOTAL FREE ENERGY PREDICTED BY IDOCK:   35.13 KCAL/MOL
REMARK 923 INTER-LIGAND FREE ENERGY PREDICTED BY IDOCK:   30.27 KCAL/MOL
REMARK 924 INTRA-LIGAND FREE ENERGY PREDICTED BY IDOCK:    4.85 KCAL/MOL
REMARK 927      BINDING AFFINITY PREDICTED BY RF-SCORE:    0.00 PKD
ROOT
HETATM    1  C   UNL     1     -10.685  13.090  66.118  1.00  0.00    -0.273 C  
HETATM    2  O   UNL     1     -12.678  11.678  62.449  1.00  0.00    -0.055 OA 
HETATM    3  C   UNL     1     -11.092  14.084  64.945  1.00  0.00    -0.378 C  
HETATM    4  C   UNL     1     -11.390  13.501  63.509  1.00  0.00     0.203 C  
HETATM    5  C   UNL     1     -12.181   9.922  64.657  1.00  0.00     8.784 C  
HETATM    6  C   UNL     1     -12.226  12.224  63.701  1.00  0.00    -0.567 C  
HETATM    7  C   UNL     1     -12.199  14.512  62.632  1.00  0.00     2.934 C  
HETATM    8  O   UNL     1     -11.154  11.733  65.905  1.00  0.00    -0.309 OA 
HETATM    9  H   UNL     1     -13.195  10.890  62.567  1.00  0.00     0.000 HD 
HETATM   10  C   UNL     1     -11.414  11.253  64.568  1.00  0.00     0.075 C  
ENDROOT
BRANCH   1  11
HETATM   11  O   UNL     1      -9.330  13.378  66.819  1.00  0.00    -0.246 OA 
BRANCH  11  12
HETATM   12  C   UNL     1      -9.364  13.818  68.240  1.00  0.00    -0.209 C  
HETATM   13  C   UNL     1     -11.305  11.830  68.681  1.00  0.00    -0.270 C  
HETATM   14  C   UNL     1      -8.730  13.585  70.972  1.00  0.00     7.945 C  
HETATM   15  C   UNL     1     -10.792  13.430  68.748  1.00  0.00    -0.275 C  
HETATM   16  O   UNL     1      -5.855  13.137  68.770  1.00  0.00    -0.069 OA 
HETATM   17  C   UNL     1      -8.136  13.727  69.537  1.00  0.00     0.738 C  
HETATM   18  C   UNL     1     -11.202  14.492  69.814  1.00  0.00    -0.276 C  
HETATM   19  C   UNL     1     -12.067  11.390  70.059  1.00  0.00    -0.340 C  
HETATM   20  O   UNL     1     -11.307  11.468  71.274  1.00  0.00     1.137 OA 
HETATM   21  C   UNL     1     -13.265  12.380  70.217  1.00  0.00     0.986 C  
HETATM   22  C   UNL     1      -6.772  12.945  69.578  1.00  0.00     0.031 C  
HETATM   23  C   UNL     1     -12.561   9.949  69.879  1.00  0.00     0.373 C  
HETATM   24  C   UNL     1     -12.063  11.452  72.501  1.00  0.00     3.304 C  
HETATM   25  C   UNL     1     -12.140   8.739  70.762  1.00  0.00    -0.110 C  
HETATM   26  H   UNL     1      -6.197  11.040  72.891  1.00  0.00     0.000 HD 
HETATM   27  O   UNL     1      -6.571  12.069  70.677  1.00  0.00     0.126 OA 
HETATM   28  C   UNL     1     -10.663   8.145  70.913  1.00  0.00    -0.221 C  
HETATM   29  C   UNL     1     -13.041   7.625  70.090  1.00  0.00     1.513 C  
HETATM   30  O   UNL     1      -6.876  10.376  72.882  1.00  0.00     2.242 OA 
HETATM   31  C   UNL     1      -5.404   8.730  71.931  1.00  0.00    -0.046 C  
HETATM   32  O   UNL     1     -10.438   7.090  70.288  1.00  0.00    -0.201 OA 
HETATM   33  C   UNL     1      -9.525   8.526  71.985  1.00  0.00    -0.364 C  
HETATM   34  C   UNL     1      -9.741   9.574  73.040  1.00  0.00     3.845 C  
HETATM   35  C   UNL     1      -6.293  10.616  70.443  1.00  0.00    -0.117 C  
HETATM   36  C   UNL     1      -7.920   8.386  71.681  1.00  0.00    -0.134 C  
HETATM   37  C   UNL     1      -6.706   9.572  71.697  1.00  0.00     0.275 C  
HETATM   38  O   UNL     1      -7.615   7.246  70.864  1.00  0.00    -0.082 OA 
HETATM   39  H   UNL     1      -6.685   7.165  70.688  1.00  0.00     0.000 HD 
BRANCH  13  40
HETATM   40  O   UNL     1     -10.318  10.948  68.060  1.00  0.00    -0.174 OA 
BRANCH  40  41
HETATM   41  C   UNL     1     -10.199   9.649  67.376  1.00  0.00    -0.227 C  
HETATM   42  C   UNL     1      -9.236   8.269  65.354  1.00  0.00     0.157 C  
HETATM   43  C   UNL     1     -10.901   6.050  67.978  1.00  0.00    -0.374 C  
HETATM   44  O   UNL     1      -8.105  10.212  65.885  1.00  0.00    -0.125 OA 
HETATM   45  C   UNL     1      -9.591   7.006  66.108  1.00  0.00    -0.006 C  
HETATM   46  H   UNL     1      -7.338   9.981  65.373  1.00  0.00     0.000 HD 
HETATM   47  C   UNL     1     -10.706   7.313  67.158  1.00  0.00    -0.343 C  
HETATM   48  C   UNL     1      -8.898   9.257  66.509  1.00  0.00    -0.133 C  
HETATM   49  O   UNL     1     -10.490   8.428  68.086  1.00  0.00    -0.212 OA 
BRANCH  42  50
HETATM   50  N   UNL     1      -8.226   8.175  64.246  1.00  0.00    -0.131 NA 
HETATM   51  C   UNL     1      -7.899   6.857  63.705  1.00  0.00    -0.107 C  
HETATM   52  C   UNL     1      -8.414   9.130  63.154  1.00  0.00    -0.199 C  
ENDBRANCH  42  50
ENDBRANCH  40  41
ENDBRANCH  13  40
BRANCH  35  53
HETATM   53  C   UNL     1      -7.105  10.298  69.239  1.00  0.00    -0.083 C  
HETATM   54  C   UNL     1      -6.030   9.711  68.336  1.00  0.00    -0.043 C  
ENDBRANCH  35  53
ENDBRANCH  11  12
ENDBRANCH   1  11
BRANCH   4  55
HETATM   55  O   UNL     1     -10.105  13.262  62.902  1.00  0.00     1.971 OA 
HETATM   56  C   UNL     1      -9.649  11.920  62.784  1.00  0.00     0.336 C  
ENDBRANCH   4  55
TORSDOF 7
ENDMDL
MODEL       92
REMARK 921   NORMALIZED FREE ENERGY PREDICTED BY IDOCK:   28.47 KCAL/MOL
REMARK 922        TOTAL FREE ENERGY PREDICTED BY IDOCK:   37.43 KCAL/MOL
REMARK 923 INTER-LIGAND FREE ENERGY PREDICTED BY IDOCK:   17.15 KCAL/MOL
REMARK 924 INTRA-LIGAND FREE ENERGY PREDICTED BY IDOCK:   20.28 KCAL/MOL
REMARK 927      BINDING AFFINITY PREDICTED BY RF-SCORE:    0.00 PKD
ROOT
HETATM    1  C   UNL     1     -11.750  10.593  66.223  1.00  0.00     1.529 C  
HETATM    2  O   UNL     1     -10.234  14.603  65.197  1.00  0.00    -0.383 OA 
HETATM    3  C   UNL     1     -12.480  11.522  65.159  1.00  0.00     1.346 C  
HETATM    4  C   UNL     1     -12.172  13.070  65.147  1.00  0.00    -0.459 C  
HETATM    5  C   UNL     1      -8.773  12.842  66.920  1.00  0.00    -0.169 C  
HETATM    6  C   UNL     1     -10.653  13.233  65.331  1.00  0.00    -0.296 C  
HETATM    7  C   UNL     1     -12.593  13.732  63.794  1.00  0.00    -0.057 C  
HETATM    8  O   UNL     1     -10.494  11.146  66.697  1.00  0.00    -0.232 OA 
HETATM    9  H   UNL     1      -9.296  14.703  65.310  1.00  0.00     0.000 HD 
HETATM   10  C   UNL     1     -10.264  12.570  66.659  1.00  0.00    -0.230 C  
ENDROOT
BRANCH   1  11
HETATM   11  O   UNL     1     -12.674   9.765  67.156  1.00  0.00     6.502 OA 
BRANCH  11  12
HETATM   12  C   UNL     1     -12.372   9.767  68.613  1.00  0.00     2.393 C  
HETATM   13  C   UNL     1     -10.830   7.456  68.171  1.00  0.00    -0.037 C  
HETATM   14  C   UNL     1     -10.736  10.241  70.853  1.00  0.00     0.125 C  
HETATM   15  C   UNL     1     -12.068   8.272  68.963  1.00  0.00     2.455 C  
HETATM   16  O   UNL     1     -10.865  13.050  68.528  1.00  0.00    -0.243 OA 
HETATM   17  C   UNL     1     -11.435  10.903  69.628  1.00  0.00    -0.377 C  
HETATM   18  C   UNL     1     -12.541   8.041  70.431  1.00  0.00     0.635 C  
HETATM   19  C   UNL     1      -9.935   6.572  69.215  1.00  0.00    -0.153 C  
HETATM   20  O   UNL     1      -9.271   7.287  70.267  1.00  0.00    -0.155 OA 
HETATM   21  C   UNL     1     -10.934   5.588  69.904  1.00  0.00    -0.192 C  
HETATM   22  C   UNL     1     -10.486  12.084  69.202  1.00  0.00     0.033 C  
HETATM   23  C   UNL     1      -8.883   5.810  68.399  1.00  0.00    -0.109 C  
HETATM   24  C   UNL     1      -8.811   6.498  71.382  1.00  0.00    -0.137 C  
HETATM   25  C   UNL     1      -7.342   5.950  68.565  1.00  0.00    -0.085 C  
HETATM   26  H   UNL     1      -7.152  12.148  71.154  1.00  0.00     0.000 HD 
HETATM   27  O   UNL     1      -9.170  12.067  69.732  1.00  0.00     1.473 OA 
HETATM   28  C   UNL     1      -6.480   7.274  68.319  1.00  0.00    -0.045 C  
HETATM   29  C   UNL     1      -6.885   4.873  67.501  1.00  0.00    -0.060 C  
HETATM   30  O   UNL     1      -6.718  11.352  70.871  1.00  0.00     0.297 OA 
HETATM   31  C   UNL     1      -5.487  12.504  69.157  1.00  0.00    -0.069 C  
HETATM   32  O   UNL     1      -5.835   7.310  67.253  1.00  0.00    -0.027 OA 
HETATM   33  C   UNL     1      -6.073   8.425  69.368  1.00  0.00    -0.037 C  
HETATM   34  C   UNL     1      -6.502   8.381  70.807  1.00  0.00    -0.038 C  
HETATM   35  C   UNL     1      -7.986  12.061  68.814  1.00  0.00    -0.014 C  
HETATM   36  C   UNL     1      -5.793   9.981  68.933  1.00  0.00    -0.034 C  
HETATM   37  C   UNL     1      -6.568  11.403  69.438  1.00  0.00    -0.119 C  
HETATM   38  O   UNL     1      -5.154  10.084  67.652  1.00  0.00    -0.035 OA 
HETATM   39  H   UNL     1      -4.991  10.985  67.400  1.00  0.00     0.000 HD 
BRANCH  13  40
HETATM   40  O   UNL     1     -10.186   8.271  67.142  1.00  0.00    -0.237 OA 
BRANCH  40  41
HETATM   41  C   UNL     1      -9.580   8.175  65.803  1.00  0.00     0.181 C  
HETATM   42  C   UNL     1      -8.669   6.643  63.868  1.00  0.00     0.635 C  
HETATM   43  C   UNL     1      -8.834  10.324  62.865  1.00  0.00    -0.229 C  
HETATM   44  O   UNL     1     -10.188   5.662  65.307  1.00  0.00    -0.067 OA 
HETATM   45  C   UNL     1      -8.694   7.854  62.961  1.00  0.00     0.428 C  
HETATM   46  H   UNL     1     -10.355   4.925  64.730  1.00  0.00     0.000 HD 
HETATM   47  C   UNL     1      -8.651   9.158  63.820  1.00  0.00    -0.169 C  
HETATM   48  C   UNL     1      -9.864   6.926  64.825  1.00  0.00     2.908 C  
HETATM   49  O   UNL     1      -9.628   9.302  64.904  1.00  0.00    -0.117 OA 
BRANCH  42  50
HETATM   50  N   UNL     1      -8.637   5.281  63.234  1.00  0.00    -0.095 NA 
HETATM   51  C   UNL     1      -7.484   4.418  63.485  1.00  0.00    -0.055 C  
HETATM   52  C   UNL     1      -9.873   4.511  63.358  1.00  0.00     0.148 C  
ENDBRANCH  42  50
ENDBRANCH  40  41
ENDBRANCH  13  40
BRANCH  35  53
HETATM   53  C   UNL     1      -8.449  11.247  67.658  1.00  0.00    -0.124 C  
HETATM   54  C   UNL     1      -7.347  11.552  66.655  1.00  0.00    -0.069 C  
ENDBRANCH  35  53
ENDBRANCH  11  12
ENDBRANCH   1  11
BRANCH   4  55
HETATM   55  O   UNL     1     -12.947  13.639  66.220  1.00  0.00    -0.143 OA 
HETATM   56  C   UNL     1     -12.712  14.994  66.583  1.00  0.00     1.158 C  
ENDBRANCH   4  55
TORSDOF 7
ENDMDL
MODEL       93
REMARK 921   NORMALIZED FREE ENERGY PREDICTED BY IDOCK:   29.59 KCAL/MOL
REMARK 922        TOTAL FREE ENERGY PREDICTED BY IDOCK:   39.01 KCAL/MOL
REMARK 923 INTER-LIGAND FREE ENERGY PREDICTED BY IDOCK:   16.23 KCAL/MOL
REMARK 924 INTRA-LIGAND FREE ENERGY PREDICTED BY IDOCK:   22.79 KCAL/MOL
REMARK 927      BINDING AFFINITY PREDICTED BY RF-SCORE:    0.00 PKD
ROOT
HETATM    1  C   UNL     1     -11.396   8.982  66.893  1.00  0.00     1.483 C  
HETATM    2  O   UNL     1      -8.312  11.325  64.787  1.00  0.00    -0.351 OA 
HETATM    3  C   UNL     1     -11.587   9.467  65.390  1.00  0.00     5.441 C  
HETATM    4  C   UNL     1     -10.686  10.640  64.838  1.00  0.00    -0.002 C  
HETATM    5  C   UNL     1      -7.851  10.242  67.399  1.00  0.00    -0.102 C  
HETATM    6  C   UNL     1      -9.254  10.391  65.344  1.00  0.00    -0.193 C  
HETATM    7  C   UNL     1     -10.674  10.672  63.275  1.00  0.00     0.463 C  
HETATM    8  O   UNL     1     -10.076   9.273  67.423  1.00  0.00    -0.191 OA 
HETATM    9  H   UNL     1      -7.428  11.171  65.099  1.00  0.00     0.000 HD 
HETATM   10  C   UNL     1      -9.294  10.357  66.877  1.00  0.00    -0.162 C  
ENDROOT
BRANCH   1  11
HETATM   11  O   UNL     1     -12.659   9.030  67.792  1.00  0.00     5.692 OA 
BRANCH  11  12
HETATM   12  C   UNL     1     -12.474   9.346  69.235  1.00  0.00     2.052 C  
HETATM   13  C   UNL     1     -11.492   6.729  69.554  1.00  0.00    -0.190 C  
HETATM   14  C   UNL     1     -10.942  10.029  71.494  1.00  0.00     0.248 C  
HETATM   15  C   UNL     1     -12.557   7.963  69.963  1.00  0.00     1.327 C  
HETATM   16  O   UNL     1     -10.234  12.103  68.578  1.00  0.00    -0.216 OA 
HETATM   17  C   UNL     1     -11.373  10.483  70.067  1.00  0.00    -0.392 C  
HETATM   18  C   UNL     1     -13.178   8.224  71.370  1.00  0.00    -0.241 C  
HETATM   19  C   UNL     1     -10.910   5.978  70.884  1.00  0.00    -0.285 C  
HETATM   20  O   UNL     1     -10.176   6.785  71.816  1.00  0.00    -0.191 OA 
HETATM   21  C   UNL     1     -12.161   5.437  71.648  1.00  0.00     1.052 C  
HETATM   22  C   UNL     1     -10.144  11.287  69.503  1.00  0.00     0.233 C  
HETATM   23  C   UNL     1     -10.010   4.828  70.414  1.00  0.00    -0.315 C  
HETATM   24  C   UNL     1      -9.998   6.233  73.136  1.00  0.00    -0.174 C  
HETATM   25  C   UNL     1      -8.496   4.680  70.743  1.00  0.00    -0.109 C  
HETATM   26  H   UNL     1      -7.042  11.154  71.803  1.00  0.00     0.000 HD 
HETATM   27  O   UNL     1      -8.911  11.132  70.190  1.00  0.00     1.224 OA 
HETATM   28  C   UNL     1      -7.331   5.684  70.307  1.00  0.00    -0.076 C  
HETATM   29  C   UNL     1      -8.229   3.293  70.030  1.00  0.00    -0.066 C  
HETATM   30  O   UNL     1      -6.788  10.238  71.775  1.00  0.00     0.527 OA 
HETATM   31  C   UNL     1      -5.197  10.623  70.014  1.00  0.00    -0.041 C  
HETATM   32  O   UNL     1      -6.619   5.306  69.355  1.00  0.00    -0.043 OA 
HETATM   33  C   UNL     1      -6.742   6.955  71.099  1.00  0.00    -0.057 C  
HETATM   34  C   UNL     1      -7.274   7.375  72.440  1.00  0.00    -0.072 C  
HETATM   35  C   UNL     1      -7.698  10.641  69.461  1.00  0.00    -0.106 C  
HETATM   36  C   UNL     1      -6.072   8.250  70.351  1.00  0.00    -0.032 C  
HETATM   37  C   UNL     1      -6.525   9.885  70.402  1.00  0.00    -0.115 C  
HETATM   38  O   UNL     1      -5.334   7.883  69.177  1.00  0.00    -0.025 OA 
HETATM   39  H   UNL     1      -4.945   8.633  68.743  1.00  0.00     0.000 HD 
BRANCH  13  40
HETATM   40  O   UNL     1     -10.599   7.097  68.455  1.00  0.00    -0.201 OA 
BRANCH  40  41
HETATM   41  C   UNL     1      -9.905   6.523  67.289  1.00  0.00    -0.140 C  
HETATM   42  C   UNL     1      -9.817   4.658  65.437  1.00  0.00    -0.156 C  
HETATM   43  C   UNL     1      -7.191   7.378  64.900  1.00  0.00    -0.067 C  
HETATM   44  O   UNL     1     -11.896   5.080  66.351  1.00  0.00     1.276 OA 
HETATM   45  C   UNL     1      -8.786   5.494  64.711  1.00  0.00    -0.040 C  
HETATM   46  H   UNL     1     -12.363   4.620  65.662  1.00  0.00     0.000 HD 
HETATM   47  C   UNL     1      -8.093   6.469  65.716  1.00  0.00    -0.128 C  
HETATM   48  C   UNL     1     -10.697   5.744  66.121  1.00  0.00     0.096 C  
HETATM   49  O   UNL     1      -8.949   7.315  66.556  1.00  0.00    -0.140 OA 
BRANCH  42  50
HETATM   50  N   UNL     1     -10.552   3.604  64.659  1.00  0.00    -0.099 NA 
HETATM   51  C   UNL     1     -11.523   4.026  63.651  1.00  0.00     0.920 C  
HETATM   52  C   UNL     1      -9.714   2.531  64.125  1.00  0.00    -0.138 C  
ENDBRANCH  42  50
ENDBRANCH  40  41
ENDBRANCH  13  40
BRANCH  35  53
HETATM   53  C   UNL     1      -8.253   9.672  68.479  1.00  0.00    -0.105 C  
HETATM   54  C   UNL     1      -8.885   8.662  69.425  1.00  0.00    -0.144 C  
ENDBRANCH  35  53
ENDBRANCH  11  12
ENDBRANCH   1  11
BRANCH   4  55
HETATM   55  O   UNL     1     -11.270  11.859  65.338  1.00  0.00    -0.317 OA 
HETATM   56  C   UNL     1     -11.802  12.789  64.403  1.00  0.00    -0.384 C  
ENDBRANCH   4  55
TORSDOF 7
ENDMDL
MODEL       94
REMARK 921   NORMALIZED FREE ENERGY PREDICTED BY IDOCK:   29.89 KCAL/MOL
REMARK 922        TOTAL FREE ENERGY PREDICTED BY IDOCK:   39.43 KCAL/MOL
REMARK 923 INTER-LIGAND FREE ENERGY PREDICTED BY IDOCK:   31.40 KCAL/MOL
REMARK 924 INTRA-LIGAND FREE ENERGY PREDICTED BY IDOCK:    8.03 KCAL/MOL
REMARK 927      BINDING AFFINITY PREDICTED BY RF-SCORE:    0.00 PKD
ROOT
HETATM    1  C   UNL     1     -11.238  17.164  68.500  1.00  0.00     0.055 C  
HETATM    2  O   UNL     1      -8.579  19.923  66.321  1.00  0.00    -0.350 OA 
HETATM    3  C   UNL     1     -11.794  18.195  67.424  1.00  0.00     2.188 C  
HETATM    4  C   UNL     1     -10.902  19.428  67.005  1.00  0.00    -0.432 C  
HETATM    5  C   UNL     1      -7.540  17.903  68.065  1.00  0.00    -0.238 C  
HETATM    6  C   UNL     1      -9.462  18.912  66.839  1.00  0.00    -0.317 C  
HETATM    7  C   UNL     1     -11.377  20.050  65.651  1.00  0.00     0.580 C  
HETATM    8  O   UNL     1      -9.789  17.145  68.577  1.00  0.00    -0.268 OA 
HETATM    9  H   UNL     1      -7.690  19.605  66.219  1.00  0.00     0.000 HD 
HETATM   10  C   UNL     1      -9.022  18.301  68.176  1.00  0.00    -0.302 C  
ENDROOT
BRANCH   1  11
HETATM   11  O   UNL     1     -12.118  16.950  69.760  1.00  0.00     0.946 OA 
BRANCH  11  12
HETATM   12  C   UNL     1     -11.596  16.056  70.829  1.00  0.00    -0.400 C  
HETATM   13  C   UNL     1     -12.467  13.884  69.268  1.00  0.00     0.010 C  
HETATM   14  C   UNL     1      -9.711  14.293  71.950  1.00  0.00     6.176 C  
HETATM   15  C   UNL     1     -12.445  14.747  70.711  1.00  0.00    -0.402 C  
HETATM   16  O   UNL     1      -8.221  17.312  70.545  1.00  0.00     3.092 OA 
HETATM   17  C   UNL     1      -9.931  15.733  71.394  1.00  0.00     2.106 C  
HETATM   18  C   UNL     1     -12.577  14.155  72.148  1.00  0.00    -0.328 C  
HETATM   19  C   UNL     1     -12.333  12.276  69.533  1.00  0.00     0.048 C  
HETATM   20  O   UNL     1     -11.144  11.826  70.198  1.00  0.00     0.052 OA 
HETATM   21  C   UNL     1     -13.534  11.896  70.457  1.00  0.00     1.320 C  
HETATM   22  C   UNL     1      -8.553  16.139  70.750  1.00  0.00     3.341 C  
HETATM   23  C   UNL     1     -12.435  11.570  68.175  1.00  0.00     1.002 C  
HETATM   24  C   UNL     1     -11.193  10.500  70.762  1.00  0.00    -0.105 C  
HETATM   25  C   UNL     1     -11.333  10.669  67.546  1.00  0.00    -0.241 C  
HETATM   26  H   UNL     1      -5.983  13.254  70.685  1.00  0.00     0.000 HD 
HETATM   27  O   UNL     1      -7.625  15.091  70.515  1.00  0.00     0.412 OA 
HETATM   28  C   UNL     1      -9.861  11.130  67.123  1.00  0.00    -0.187 C  
HETATM   29  C   UNL     1     -12.098  10.233  66.232  1.00  0.00     4.233 C  
HETATM   30  O   UNL     1      -6.374  12.627  70.088  1.00  0.00    -0.081 OA 
HETATM   31  C   UNL     1      -5.137  13.482  68.212  1.00  0.00    -0.101 C  
HETATM   32  O   UNL     1      -9.677  11.297  65.901  1.00  0.00    -0.207 OA 
HETATM   33  C   UNL     1      -8.507  11.111  67.991  1.00  0.00    -0.135 C  
HETATM   34  C   UNL     1      -8.477  10.628  69.413  1.00  0.00    -0.058 C  
HETATM   35  C   UNL     1      -7.103  14.841  69.134  1.00  0.00    -0.143 C  
HETATM   36  C   UNL     1      -7.267  12.157  67.748  1.00  0.00    -0.113 C  
HETATM   37  C   UNL     1      -6.570  13.277  68.816  1.00  0.00    -0.099 C  
HETATM   38  O   UNL     1      -7.085  12.476  66.361  1.00  0.00    -0.071 OA 
HETATM   39  H   UNL     1      -6.367  13.082  66.220  1.00  0.00     0.000 HD 
BRANCH  13  40
HETATM   40  O   UNL     1     -11.691  14.533  68.212  1.00  0.00    -0.312 OA 
BRANCH  40  41
HETATM   41  C   UNL     1     -11.339  14.397  66.788  1.00  0.00    -0.352 C  
HETATM   42  C   UNL     1     -11.774  13.208  64.482  1.00  0.00    -0.371 C  
HETATM   43  C   UNL     1      -9.339  16.134  64.182  1.00  0.00     6.601 C  
HETATM   44  O   UNL     1     -13.530  13.182  65.983  1.00  0.00     0.440 OA 
HETATM   45  C   UNL     1     -10.958  14.297  63.820  1.00  0.00     0.994 C  
HETATM   46  H   UNL     1     -14.170  12.927  65.328  1.00  0.00     0.000 HD 
HETATM   47  C   UNL     1     -10.009  14.958  64.870  1.00  0.00    -0.046 C  
HETATM   48  C   UNL     1     -12.423  13.966  65.677  1.00  0.00    -0.505 C  
HETATM   49  O   UNL     1     -10.598  15.441  66.124  1.00  0.00    -0.298 OA 
BRANCH  42  50
HETATM   50  N   UNL     1     -12.705  12.398  63.626  1.00  0.00    -0.771 NA 
HETATM   51  C   UNL     1     -13.628  13.100  62.736  1.00  0.00     3.952 C  
HETATM   52  C   UNL     1     -12.081  11.282  62.917  1.00  0.00     0.924 C  
ENDBRANCH  42  50
ENDBRANCH  40  41
ENDBRANCH  13  40
BRANCH  35  53
HETATM   53  C   UNL     1      -8.264  15.161  68.262  1.00  0.00    -0.144 C  
HETATM   54  C   UNL     1      -7.554  15.375  66.934  1.00  0.00    -0.111 C  
ENDBRANCH  35  53
ENDBRANCH  11  12
ENDBRANCH   1  11
BRANCH   4  55
HETATM   55  O   UNL     1     -11.048  20.401  68.057  1.00  0.00     0.328 OA 
HETATM   56  C   UNL     1     -10.382  20.170  69.293  1.00  0.00     0.087 C  
ENDBRANCH   4  55
TORSDOF 7
ENDMDL
MODEL       95
REMARK 921   NORMALIZED FREE ENERGY PREDICTED BY IDOCK:   30.37 KCAL/MOL
REMARK 922        TOTAL FREE ENERGY PREDICTED BY IDOCK:   40.10 KCAL/MOL
REMARK 923 INTER-LIGAND FREE ENERGY PREDICTED BY IDOCK:   36.71 KCAL/MOL
REMARK 924 INTRA-LIGAND FREE ENERGY PREDICTED BY IDOCK:    3.39 KCAL/MOL
REMARK 927      BINDING AFFINITY PREDICTED BY RF-SCORE:    0.00 PKD
ROOT
HETATM    1  C   UNL     1      -7.433  10.795  69.439  1.00  0.00    -0.124 C  
HETATM    2  O   UNL     1      -9.123   6.866  68.374  1.00  0.00    -0.128 OA 
HETATM    3  C   UNL     1      -8.572  10.105  70.308  1.00  0.00     0.229 C  
HETATM    4  C   UNL     1      -9.434   8.948  69.670  1.00  0.00    -0.168 C  
HETATM    5  C   UNL     1      -6.900   7.977  66.952  1.00  0.00    -0.073 C  
HETATM    6  C   UNL     1      -8.469   8.040  68.888  1.00  0.00    -0.131 C  
HETATM    7  C   UNL     1     -10.158   8.096  70.764  1.00  0.00    -0.211 C  
HETATM    8  O   UNL     1      -6.936   9.946  68.372  1.00  0.00    -0.066 OA 
HETATM    9  H   UNL     1      -8.527   6.305  67.892  1.00  0.00     0.000 HD 
HETATM   10  C   UNL     1      -7.767   8.898  67.827  1.00  0.00    -0.101 C  
ENDROOT
BRANCH   1  11
HETATM   11  O   UNL     1      -7.541  12.333  69.266  1.00  0.00     0.122 OA 
BRANCH  11  12
HETATM   12  C   UNL     1      -6.563  13.002  68.365  1.00  0.00    -0.090 C  
HETATM   13  C   UNL     1      -8.761  13.943  66.883  1.00  0.00    -0.158 C  
HETATM   14  C   UNL     1      -5.145  15.224  67.381  1.00  0.00     0.213 C  
HETATM   15  C   UNL     1      -7.299  13.119  66.989  1.00  0.00     0.210 C  
HETATM   16  O   UNL     1      -5.127  14.986  71.021  1.00  0.00    -0.127 OA 
HETATM   17  C   UNL     1      -5.429  14.355  68.644  1.00  0.00    -0.094 C  
HETATM   18  C   UNL     1      -6.210  13.014  65.878  1.00  0.00     5.112 C  
HETATM   19  C   UNL     1      -8.805  14.910  65.565  1.00  0.00     1.260 C  
HETATM   20  O   UNL     1      -7.810  15.941  65.484  1.00  0.00     1.520 OA 
HETATM   21  C   UNL     1      -8.576  13.970  64.339  1.00  0.00     6.876 C  
HETATM   22  C   UNL     1      -5.331  15.352  69.857  1.00  0.00    -0.106 C  
HETATM   23  C   UNL     1     -10.193  15.561  65.511  1.00  0.00    -0.415 C  
HETATM   24  C   UNL     1      -7.609  16.532  64.184  1.00  0.00    12.799 C  
HETATM   25  C   UNL     1     -10.470  17.091  65.559  1.00  0.00    -0.181 C  
HETATM   26  H   UNL     1      -4.904  19.038  68.781  1.00  0.00     0.000 HD 
HETATM   27  O   UNL     1      -5.364  16.737  69.549  1.00  0.00    -0.138 OA 
HETATM   28  C   UNL     1     -10.127  18.078  66.770  1.00  0.00    -0.356 C  
HETATM   29  C   UNL     1     -12.043  17.057  65.398  1.00  0.00     3.167 C  
HETATM   30  O   UNL     1      -5.727  19.237  68.348  1.00  0.00    -0.205 OA 
HETATM   31  C   UNL     1      -6.682  20.159  70.353  1.00  0.00    -0.030 C  
HETATM   32  O   UNL     1     -11.092  18.416  67.483  1.00  0.00    -0.256 OA 
HETATM   33  C   UNL     1      -8.792  18.941  67.024  1.00  0.00    -0.306 C  
HETATM   34  C   UNL     1      -7.626  18.903  66.077  1.00  0.00    -0.259 C  
HETATM   35  C   UNL     1      -6.415  17.619  70.152  1.00  0.00     0.370 C  
HETATM   36  C   UNL     1      -8.266  19.366  68.517  1.00  0.00    -0.357 C  
HETATM   37  C   UNL     1      -6.796  19.013  69.289  1.00  0.00    -0.283 C  
HETATM   38  O   UNL     1      -9.346  19.655  69.416  1.00  0.00    -0.201 OA 
HETATM   39  H   UNL     1      -9.041  19.902  70.281  1.00  0.00     0.000 HD 
BRANCH  13  40
HETATM   40  O   UNL     1      -9.229  14.428  68.180  1.00  0.00    -0.185 OA 
BRANCH  40  41
HETATM   41  C   UNL     1     -10.454  14.848  68.882  1.00  0.00    -0.242 C  
HETATM   42  C   UNL     1     -12.648  14.153  70.158  1.00  0.00    -0.268 C  
HETATM   43  C   UNL     1     -12.009  17.915  70.289  1.00  0.00     6.522 C  
HETATM   44  O   UNL     1     -10.947  12.588  70.139  1.00  0.00    -0.151 OA 
HETATM   45  C   UNL     1     -12.769  15.585  70.632  1.00  0.00    -0.487 C  
HETATM   46  H   UNL     1     -11.331  12.069  70.837  1.00  0.00     0.000 HD 
HETATM   47  C   UNL     1     -11.975  16.528  69.673  1.00  0.00     0.583 C  
HETATM   48  C   UNL     1     -11.104  13.968  70.066  1.00  0.00     0.080 C  
HETATM   49  O   UNL     1     -10.577  16.195  69.381  1.00  0.00    -0.254 OA 
BRANCH  42  50
HETATM   50  N   UNL     1     -13.398  13.090  70.908  1.00  0.00     0.192 NA 
HETATM   51  C   UNL     1     -13.416  11.731  70.370  1.00  0.00     1.493 C  
HETATM   52  C   UNL     1     -13.144  13.053  72.348  1.00  0.00    -0.275 C  
ENDBRANCH  42  50
ENDBRANCH  40  41
ENDBRANCH  13  40
BRANCH  35  53
HETATM   53  C   UNL     1      -7.608  16.734  70.227  1.00  0.00     2.015 C  
HETATM   54  C   UNL     1      -7.940  16.604  68.748  1.00  0.00    -0.239 C  
ENDBRANCH  35  53
ENDBRANCH  11  12
ENDBRANCH   1  11
BRANCH   4  55
HETATM   55  O   UNL     1     -10.417   9.595  68.838  1.00  0.00    -0.203 OA 
HETATM   56  C   UNL     1     -11.376   8.787  68.168  1.00  0.00     0.815 C  
ENDBRANCH   4  55
TORSDOF 7
ENDMDL
MODEL       96
REMARK 921   NORMALIZED FREE ENERGY PREDICTED BY IDOCK:   31.06 KCAL/MOL
REMARK 922        TOTAL FREE ENERGY PREDICTED BY IDOCK:   41.08 KCAL/MOL
REMARK 923 INTER-LIGAND FREE ENERGY PREDICTED BY IDOCK:   19.20 KCAL/MOL
REMARK 924 INTRA-LIGAND FREE ENERGY PREDICTED BY IDOCK:   21.88 KCAL/MOL
REMARK 927      BINDING AFFINITY PREDICTED BY RF-SCORE:    0.00 PKD
ROOT
HETATM    1  C   UNL     1      -8.776  10.629  68.634  1.00  0.00    -0.148 C  
HETATM    2  O   UNL     1      -5.937   7.698  70.302  1.00  0.00    -0.026 OA 
HETATM    3  C   UNL     1      -9.148   9.710  69.878  1.00  0.00    -0.250 C  
HETATM    4  C   UNL     1      -8.300   8.408  70.156  1.00  0.00    -0.120 C  
HETATM    5  C   UNL     1      -5.168   9.521  68.231  1.00  0.00    -0.033 C  
HETATM    6  C   UNL     1      -6.821   8.775  69.941  1.00  0.00    -0.042 C  
HETATM    7  C   UNL     1      -8.489   7.898  71.622  1.00  0.00    -0.140 C  
HETATM    8  O   UNL     1      -7.393  10.491  68.216  1.00  0.00    -0.085 OA 
HETATM    9  H   UNL     1      -5.024   7.924  70.170  1.00  0.00     0.000 HD 
HETATM   10  C   UNL     1      -6.663   9.278  68.500  1.00  0.00    -0.058 C  
ENDROOT
BRANCH   1  11
HETATM   11  O   UNL     1      -9.911  10.882  67.607  1.00  0.00    -0.169 OA 
BRANCH  11  12
HETATM   12  C   UNL     1     -11.056  11.733  68.032  1.00  0.00    -0.242 C  
HETATM   13  C   UNL     1      -9.184  13.388  69.326  1.00  0.00     0.789 C  
HETATM   14  C   UNL     1     -12.714  14.000  67.870  1.00  0.00     0.891 C  
HETATM   15  C   UNL     1     -10.570  12.436  69.344  1.00  0.00     0.200 C  
HETATM   16  O   UNL     1     -12.105  12.411  64.643  1.00  0.00    -0.398 OA 
HETATM   17  C   UNL     1     -12.184  12.756  67.095  1.00  0.00    -0.058 C  
HETATM   18  C   UNL     1     -11.826  12.642  70.245  1.00  0.00    -0.295 C  
HETATM   19  C   UNL     1      -9.405  14.778  70.157  1.00  0.00     0.753 C  
HETATM   20  O   UNL     1     -10.443  15.653  69.692  1.00  0.00    -0.241 OA 
HETATM   21  C   UNL     1      -9.798  14.349  71.607  1.00  0.00     4.587 C  
HETATM   22  C   UNL     1     -12.117  13.207  65.589  1.00  0.00    -0.449 C  
HETATM   23  C   UNL     1      -8.076  15.543  70.148  1.00  0.00     0.607 C  
HETATM   24  C   UNL     1     -10.887  16.664  70.619  1.00  0.00     0.249 C  
HETATM   25  C   UNL     1      -7.860  16.963  69.550  1.00  0.00     0.332 C  
HETATM   26  H   UNL     1     -12.879  16.961  65.081  1.00  0.00     0.000 HD 
HETATM   27  O   UNL     1     -12.196  14.602  65.337  1.00  0.00    -0.318 OA 
HETATM   28  C   UNL     1      -8.036  17.381  68.016  1.00  0.00    -0.224 C  
HETATM   29  C   UNL     1      -6.337  17.157  69.931  1.00  0.00    -0.049 C  
HETATM   30  O   UNL     1     -12.150  17.393  65.513  1.00  0.00     2.496 OA 
HETATM   31  C   UNL     1     -10.910  17.589  63.463  1.00  0.00     7.980 C  
HETATM   32  O   UNL     1      -6.979  17.526  67.371  1.00  0.00    -0.159 OA 
HETATM   33  C   UNL     1      -9.344  17.940  67.264  1.00  0.00    -0.258 C  
HETATM   34  C   UNL     1     -10.651  18.138  67.977  1.00  0.00    -0.359 C  
HETATM   35  C   UNL     1     -11.097  15.298  64.593  1.00  0.00    -0.332 C  
HETATM   36  C   UNL     1      -9.627  17.715  65.664  1.00  0.00     0.373 C  
HETATM   37  C   UNL     1     -10.928  16.945  64.893  1.00  0.00    -0.001 C  
HETATM   38  O   UNL     1      -8.424  17.757  64.884  1.00  0.00     2.213 OA 
HETATM   39  H   UNL     1      -8.588  17.627  63.958  1.00  0.00     0.000 HD 
BRANCH  13  40
HETATM   40  O   UNL     1      -8.523  13.396  68.021  1.00  0.00    -0.153 OA 
BRANCH  40  41
HETATM   41  C   UNL     1      -8.146  12.504  66.912  1.00  0.00    -0.036 C  
HETATM   42  C   UNL     1      -8.917  10.896  64.977  1.00  0.00    -0.168 C  
HETATM   43  C   UNL     1      -5.161  11.581  64.901  1.00  0.00     1.222 C  
HETATM   44  O   UNL     1     -10.467  12.462  65.671  1.00  0.00    -0.250 OA 
HETATM   45  C   UNL     1      -7.511  10.966  64.423  1.00  0.00     0.500 C  
HETATM   46  H   UNL     1     -11.023  12.344  64.909  1.00  0.00     0.000 HD 
HETATM   47  C   UNL     1      -6.517  11.380  65.555  1.00  0.00     0.759 C  
HETATM   48  C   UNL     1      -9.087  12.305  65.618  1.00  0.00     0.204 C  
HETATM   49  O   UNL     1      -6.826  12.581  66.338  1.00  0.00     0.485 OA 
BRANCH  42  50
HETATM   50  N   UNL     1     -10.020  10.447  64.062  1.00  0.00    -0.300 NA 
HETATM   51  C   UNL     1     -10.822  11.462  63.380  1.00  0.00    -0.297 C  
HETATM   52  C   UNL     1      -9.653   9.389  63.122  1.00  0.00     0.898 C  
ENDBRANCH  42  50
ENDBRANCH  40  41
ENDBRANCH  13  40
BRANCH  35  53
HETATM   53  C   UNL     1      -9.872  14.580  65.035  1.00  0.00    -0.056 C  
HETATM   54  C   UNL     1      -9.668  15.213  66.404  1.00  0.00    -0.300 C  
ENDBRANCH  35  53
ENDBRANCH  11  12
ENDBRANCH   1  11
BRANCH   4  55
HETATM   55  O   UNL     1      -8.786   7.412  69.235  1.00  0.00    -0.136 OA 
HETATM   56  C   UNL     1     -10.139   7.490  68.803  1.00  0.00    -0.185 C  
ENDBRANCH   4  55
TORSDOF 7
ENDMDL
MODEL       97
REMARK 921   NORMALIZED FREE ENERGY PREDICTED BY IDOCK:   31.48 KCAL/MOL
REMARK 922        TOTAL FREE ENERGY PREDICTED BY IDOCK:   41.68 KCAL/MOL
REMARK 923 INTER-LIGAND FREE ENERGY PREDICTED BY IDOCK:   34.46 KCAL/MOL
REMARK 924 INTRA-LIGAND FREE ENERGY PREDICTED BY IDOCK:    7.22 KCAL/MOL
REMARK 927      BINDING AFFINITY PREDICTED BY RF-SCORE:    0.00 PKD
ROOT
HETATM    1  C   UNL     1      -5.302  12.716  67.744  1.00  0.00    -0.112 C  
HETATM    2  O   UNL     1      -5.565   9.303  70.520  1.00  0.00    -0.032 OA 
HETATM    3  C   UNL     1      -5.383  12.917  69.319  1.00  0.00    -0.074 C  
HETATM    4  C   UNL     1      -5.906  11.732  70.221  1.00  0.00    -0.163 C  
HETATM    5  C   UNL     1      -5.163   8.923  67.710  1.00  0.00    -0.035 C  
HETATM    6  C   UNL     1      -5.269  10.438  69.687  1.00  0.00    -0.038 C  
HETATM    7  C   UNL     1      -5.493  11.921  71.718  1.00  0.00     0.375 C  
HETATM    8  O   UNL     1      -5.190  11.323  67.351  1.00  0.00    -0.039 OA 
HETATM    9  H   UNL     1      -5.171   8.504  70.191  1.00  0.00     0.000 HD 
HETATM   10  C   UNL     1      -5.682  10.279  68.218  1.00  0.00    -0.041 C  
ENDROOT
BRANCH   1  11
HETATM   11  O   UNL     1      -6.089  13.739  66.883  1.00  0.00     0.252 OA 
BRANCH  11  12
HETATM   12  C   UNL     1      -6.141  15.150  67.355  1.00  0.00     0.112 C  
HETATM   13  C   UNL     1      -8.523  15.425  65.882  1.00  0.00     0.727 C  
HETATM   14  C   UNL     1      -7.095  17.233  68.989  1.00  0.00    -0.233 C  
HETATM   15  C   UNL     1      -6.958  15.912  66.258  1.00  0.00     1.274 C  
HETATM   16  O   UNL     1      -6.213  14.218  70.845  1.00  0.00    -0.196 OA 
HETATM   17  C   UNL     1      -6.384  15.846  68.984  1.00  0.00    -0.133 C  
HETATM   18  C   UNL     1      -6.400  17.367  66.201  1.00  0.00    -0.212 C  
HETATM   19  C   UNL     1      -9.526  16.707  65.733  1.00  0.00    -0.069 C  
HETATM   20  O   UNL     1      -9.683  17.545  66.887  1.00  0.00    -0.269 OA 
HETATM   21  C   UNL     1      -8.909  17.602  64.611  1.00  0.00     5.821 C  
HETATM   22  C   UNL     1      -6.838  15.147  70.319  1.00  0.00     0.048 C  
HETATM   23  C   UNL     1     -10.904  16.175  65.320  1.00  0.00    -0.349 C  
HETATM   24  C   UNL     1     -10.245  18.852  66.654  1.00  0.00    -0.405 C  
HETATM   25  C   UNL     1     -12.218  16.355  66.134  1.00  0.00     2.520 C  
HETATM   26  H   UNL     1      -9.535  17.132  72.246  1.00  0.00     0.000 HD 
HETATM   27  O   UNL     1      -7.956  15.712  70.986  1.00  0.00     2.168 OA 
HETATM   28  C   UNL     1     -12.509  15.786  67.600  1.00  0.00     1.472 C  
HETATM   29  C   UNL     1     -13.220  15.649  65.135  1.00  0.00     1.971 C  
HETATM   30  O   UNL     1     -10.287  17.098  71.667  1.00  0.00     2.741 OA 
HETATM   31  C   UNL     1     -11.203  15.181  72.793  1.00  0.00     0.155 C  
HETATM   32  O   UNL     1     -13.239  14.777  67.653  1.00  0.00     2.012 OA 
HETATM   33  C   UNL     1     -12.262  16.490  69.026  1.00  0.00     0.918 C  
HETATM   34  C   UNL     1     -11.674  17.868  69.144  1.00  0.00     3.177 C  
HETATM   35  C   UNL     1      -9.168  14.877  71.266  1.00  0.00     3.307 C  
HETATM   36  C   UNL     1     -11.962  15.652  70.403  1.00  0.00    -0.376 C  
HETATM   37  C   UNL     1     -10.619  15.714  71.438  1.00  0.00     0.528 C  
HETATM   38  O   UNL     1     -12.693  14.419  70.463  1.00  0.00    -0.343 OA 
HETATM   39  H   UNL     1     -12.520  13.934  71.261  1.00  0.00     0.000 HD 
BRANCH  13  40
HETATM   40  O   UNL     1      -8.937  14.236  66.626  1.00  0.00    -0.245 OA 
BRANCH  40  41
HETATM   41  C   UNL     1      -9.766  13.025  66.500  1.00  0.00    -0.266 C  
HETATM   42  C   UNL     1      -9.973  10.535  65.677  1.00  0.00    -0.270 C  
HETATM   43  C   UNL     1     -12.983  11.647  67.747  1.00  0.00     4.097 C  
HETATM   44  O   UNL     1      -7.827  11.298  66.068  1.00  0.00    -0.336 OA 
HETATM   45  C   UNL     1     -11.226  10.412  66.517  1.00  0.00     0.283 C  
HETATM   46  H   UNL     1      -7.449  10.426  66.069  1.00  0.00     0.000 HD 
HETATM   47  C   UNL     1     -11.828  11.829  66.779  1.00  0.00     0.019 C  
HETATM   48  C   UNL     1      -9.124  11.547  66.502  1.00  0.00    -0.194 C  
HETATM   49  O   UNL     1     -10.942  12.865  67.320  1.00  0.00    -0.251 OA 
BRANCH  42  50
HETATM   50  N   UNL     1      -9.274   9.274  65.255  1.00  0.00    -0.228 NA 
HETATM   51  C   UNL     1      -8.876   8.315  66.283  1.00  0.00    -0.161 C  
HETATM   52  C   UNL     1      -9.891   8.572  64.130  1.00  0.00     3.057 C  
ENDBRANCH  42  50
ENDBRANCH  40  41
ENDBRANCH  13  40
BRANCH  35  53
HETATM   53  C   UNL     1      -9.248  13.975  70.086  1.00  0.00     2.170 C  
HETATM   54  C   UNL     1      -9.824  14.932  69.053  1.00  0.00    -0.220 C  
ENDBRANCH  35  53
ENDBRANCH  11  12
ENDBRANCH   1  11
BRANCH   4  55
HETATM   55  O   UNL     1      -7.343  11.754  70.114  1.00  0.00     0.557 OA 
HETATM   56  C   UNL     1      -8.003  10.601  69.607  1.00  0.00    -0.003 C  
ENDBRANCH   4  55
TORSDOF 7
ENDMDL
MODEL       98
REMARK 921   NORMALIZED FREE ENERGY PREDICTED BY IDOCK:   32.07 KCAL/MOL
REMARK 922        TOTAL FREE ENERGY PREDICTED BY IDOCK:   42.51 KCAL/MOL
REMARK 923 INTER-LIGAND FREE ENERGY PREDICTED BY IDOCK:   30.74 KCAL/MOL
REMARK 924 INTRA-LIGAND FREE ENERGY PREDICTED BY IDOCK:   11.76 KCAL/MOL
REMARK 927      BINDING AFFINITY PREDICTED BY RF-SCORE:    0.00 PKD
ROOT
HETATM    1  C   UNL     1     -10.048  12.334  68.438  1.00  0.00    -0.215 C  
HETATM    2  O   UNL     1     -12.802  15.757  68.079  1.00  0.00     0.847 OA 
HETATM    3  C   UNL     1     -10.433  13.240  69.688  1.00  0.00     0.617 C  
HETATM    4  C   UNL     1     -11.048  14.672  69.441  1.00  0.00    -0.268 C  
HETATM    5  C   UNL     1     -12.318  13.983  65.882  1.00  0.00    -0.515 C  
HETATM    6  C   UNL     1     -12.072  14.537  68.300  1.00  0.00    -0.199 C  
HETATM    7  C   UNL     1     -11.776  15.215  70.714  1.00  0.00    -0.370 C  
HETATM    8  O   UNL     1     -10.792  12.671  67.238  1.00  0.00    -0.239 OA 
HETATM    9  H   UNL     1     -13.434  15.673  67.375  1.00  0.00     0.000 HD 
HETATM   10  C   UNL     1     -11.337  13.997  67.066  1.00  0.00    -0.330 C  
ENDROOT
BRANCH   1  11
HETATM   11  O   UNL     1      -8.574  11.854  68.370  1.00  0.00    -0.164 OA 
BRANCH  11  12
HETATM   12  C   UNL     1      -7.910  11.467  69.644  1.00  0.00     0.533 C  
HETATM   13  C   UNL     1     -10.274  10.100  70.319  1.00  0.00    -0.120 C  
HETATM   14  C   UNL     1      -6.571   9.676  71.352  1.00  0.00     0.144 C  
HETATM   15  C   UNL     1      -9.081  11.236  70.656  1.00  0.00     4.509 C  
HETATM   16  O   UNL     1      -5.193   9.767  67.976  1.00  0.00    -0.039 OA 
HETATM   17  C   UNL     1      -6.511  10.404  69.975  1.00  0.00    -0.126 C  
HETATM   18  C   UNL     1      -8.552  11.636  72.067  1.00  0.00    16.548 C  
HETATM   19  C   UNL     1     -10.631   9.202  71.638  1.00  0.00    -0.357 C  
HETATM   20  O   UNL     1      -9.561   8.435  72.208  1.00  0.00    -0.249 OA 
HETATM   21  C   UNL     1     -11.087  10.218  72.733  1.00  0.00     5.387 C  
HETATM   22  C   UNL     1      -5.754   9.410  69.019  1.00  0.00    -0.036 C  
HETATM   23  C   UNL     1     -11.772   8.250  71.258  1.00  0.00    -0.318 C  
HETATM   24  C   UNL     1      -9.766   7.959  73.554  1.00  0.00    -0.180 C  
HETATM   25  C   UNL     1     -11.698   6.696  71.304  1.00  0.00    -0.386 C  
HETATM   26  H   UNL     1      -5.052   5.969  70.630  1.00  0.00     0.000 HD 
HETATM   27  O   UNL     1      -5.628   8.068  69.464  1.00  0.00    -0.026 OA 
HETATM   28  C   UNL     1     -10.723   5.769  70.439  1.00  0.00    -0.302 C  
HETATM   29  C   UNL     1     -13.184   6.371  70.869  1.00  0.00     0.995 C  
HETATM   30  O   UNL     1      -5.920   5.602  70.751  1.00  0.00    -0.026 OA 
HETATM   31  C   UNL     1      -5.820   4.405  68.668  1.00  0.00    -0.025 C  
HETATM   32  O   UNL     1     -11.249   5.188  69.469  1.00  0.00     0.538 OA 
HETATM   33  C   UNL     1      -9.252   5.230  70.805  1.00  0.00    -0.191 C  
HETATM   34  C   UNL     1      -8.575   5.575  72.102  1.00  0.00    -0.126 C  
HETATM   35  C   UNL     1      -6.164   6.943  68.632  1.00  0.00    -0.027 C  
HETATM   36  C   UNL     1      -8.115   4.880  69.676  1.00  0.00    -0.073 C  
HETATM   37  C   UNL     1      -6.564   5.534  69.462  1.00  0.00    -0.050 C  
HETATM   38  O   UNL     1      -8.682   4.312  68.487  1.00  0.00    -0.092 OA 
HETATM   39  H   UNL     1      -8.023   4.109  67.833  1.00  0.00     0.000 HD 
BRANCH  13  40
HETATM   40  O   UNL     1     -10.097   9.468  69.012  1.00  0.00    -0.179 OA 
BRANCH  40  41
HETATM   41  C   UNL     1      -9.925   9.794  67.586  1.00  0.00    -0.174 C  
HETATM   42  C   UNL     1      -8.285  10.191  65.568  1.00  0.00    -0.156 C  
HETATM   43  C   UNL     1     -11.946  10.123  64.486  1.00  0.00     5.777 C  
HETATM   44  O   UNL     1      -7.462   8.908  67.304  1.00  0.00    -0.084 OA 
HETATM   45  C   UNL     1      -9.476  10.086  64.641  1.00  0.00    -0.367 C  
HETATM   46  H   UNL     1      -6.731   8.575  66.796  1.00  0.00     0.000 HD 
HETATM   47  C   UNL     1     -10.788  10.396  65.429  1.00  0.00     0.283 C  
HETATM   48  C   UNL     1      -8.685   9.229  66.725  1.00  0.00    -0.127 C  
HETATM   49  O   UNL     1     -11.034   9.661  66.674  1.00  0.00    -0.005 OA 
BRANCH  42  50
HETATM   50  N   UNL     1      -6.913   9.994  64.987  1.00  0.00    -0.131 NA 
HETATM   51  C   UNL     1      -6.658   8.802  64.180  1.00  0.00    -0.075 C  
HETATM   52  C   UNL     1      -6.344  11.171  64.333  1.00  0.00     1.049 C  
ENDBRANCH  42  50
ENDBRANCH  40  41
ENDBRANCH  13  40
BRANCH  35  53
HETATM   53  C   UNL     1      -7.386   7.523  68.013  1.00  0.00    -0.096 C  
HETATM   54  C   UNL     1      -7.732   6.424  67.020  1.00  0.00    -0.100 C  
ENDBRANCH  35  53
ENDBRANCH  11  12
ENDBRANCH   1  11
BRANCH   4  55
HETATM   55  O   UNL     1      -9.938  15.533  69.119  1.00  0.00    -0.215 OA 
HETATM   56  C   UNL     1      -9.845  16.793  69.772  1.00  0.00     0.274 C  
ENDBRANCH   4  55
TORSDOF 7
ENDMDL
MODEL       99
REMARK 921   NORMALIZED FREE ENERGY PREDICTED BY IDOCK:   32.69 KCAL/MOL
REMARK 922        TOTAL FREE ENERGY PREDICTED BY IDOCK:   43.38 KCAL/MOL
REMARK 923 INTER-LIGAND FREE ENERGY PREDICTED BY IDOCK:   44.90 KCAL/MOL
REMARK 924 INTRA-LIGAND FREE ENERGY PREDICTED BY IDOCK:   -1.52 KCAL/MOL
REMARK 927      BINDING AFFINITY PREDICTED BY RF-SCORE:    0.00 PKD
ROOT
HETATM    1  C   UNL     1     -11.017   7.177  70.458  1.00  0.00    -0.262 C  
HETATM    2  O   UNL     1      -9.860   6.067  74.565  1.00  0.00    -0.220 OA 
HETATM    3  C   UNL     1      -9.503   6.905  70.862  1.00  0.00    -0.157 C  
HETATM    4  C   UNL     1      -9.092   6.945  72.385  1.00  0.00    -0.133 C  
HETATM    5  C   UNL     1     -12.608   6.304  73.792  1.00  0.00     4.386 C  
HETATM    6  C   UNL     1     -10.195   6.216  73.173  1.00  0.00    -0.199 C  
HETATM    7  C   UNL     1      -7.728   6.222  72.635  1.00  0.00    -0.101 C  
HETATM    8  O   UNL     1     -11.953   6.892  71.530  1.00  0.00    -0.303 OA 
HETATM    9  H   UNL     1     -10.540   5.617  75.051  1.00  0.00     0.000 HD 
HETATM   10  C   UNL     1     -11.522   6.939  72.907  1.00  0.00    -0.091 C  
ENDROOT
BRANCH   1  11
HETATM   11  O   UNL     1     -11.260   8.337  69.458  1.00  0.00    -0.032 OA 
BRANCH  11  12
HETATM   12  C   UNL     1     -10.887   8.117  68.034  1.00  0.00     0.058 C  
HETATM   13  C   UNL     1     -12.223  10.520  67.440  1.00  0.00     2.775 C  
HETATM   14  C   UNL     1      -9.349   8.582  65.724  1.00  0.00    -0.187 C  
HETATM   15  C   UNL     1     -11.982   8.872  67.209  1.00  0.00     4.707 C  
HETATM   16  O   UNL     1      -7.342   8.085  68.730  1.00  0.00    -0.081 OA 
HETATM   17  C   UNL     1      -9.300   8.117  67.211  1.00  0.00    -0.174 C  
HETATM   18  C   UNL     1     -12.178   8.083  65.878  1.00  0.00    10.768 C  
HETATM   19  C   UNL     1     -12.400  11.302  66.015  1.00  0.00     2.547 C  
HETATM   20  O   UNL     1     -11.301  11.230  65.095  1.00  0.00    -0.089 OA 
HETATM   21  C   UNL     1     -13.619  10.628  65.309  1.00  0.00    11.289 C  
HETATM   22  C   UNL     1      -7.893   8.582  67.740  1.00  0.00    -0.103 C  
HETATM   23  C   UNL     1     -12.686  12.777  66.325  1.00  0.00     0.675 C  
HETATM   24  C   UNL     1     -11.590  11.580  63.727  1.00  0.00    -0.233 C  
HETATM   25  C   UNL     1     -11.806  13.977  65.872  1.00  0.00    -0.395 C  
HETATM   26  H   UNL     1      -5.946  10.756  65.208  1.00  0.00     0.000 HD 
HETATM   27  O   UNL     1      -7.198   9.537  66.952  1.00  0.00    -0.085 OA 
HETATM   28  C   UNL     1     -10.288  14.251  66.294  1.00  0.00    -0.294 C  
HETATM   29  C   UNL     1     -12.687  15.156  66.453  1.00  0.00     1.202 C  
HETATM   30  O   UNL     1      -6.473  11.545  65.146  1.00  0.00     0.781 OA 
HETATM   31  C   UNL     1      -5.158  12.683  66.805  1.00  0.00     0.556 C  
HETATM   32  O   UNL     1     -10.117  15.134  67.157  1.00  0.00    -0.236 OA 
HETATM   33  C   UNL     1      -8.934  13.783  65.560  1.00  0.00     1.091 C  
HETATM   34  C   UNL     1      -8.952  12.965  64.300  1.00  0.00     2.210 C  
HETATM   35  C   UNL     1      -6.784  10.848  67.546  1.00  0.00    -0.074 C  
HETATM   36  C   UNL     1      -7.522  13.528  66.353  1.00  0.00     1.996 C  
HETATM   37  C   UNL     1      -6.581  12.120  66.463  1.00  0.00     0.511 C  
HETATM   38  O   UNL     1      -7.329  14.449  67.436  1.00  0.00    -0.184 OA 
HETATM   39  H   UNL     1      -6.510  14.302  67.895  1.00  0.00     0.000 HD 
BRANCH  13  40
HETATM   40  O   UNL     1     -11.371  11.072  68.493  1.00  0.00    -0.241 OA 
BRANCH  40  41
HETATM   41  C   UNL     1     -11.199  12.273  69.328  1.00  0.00    -0.213 C  
HETATM   42  C   UNL     1     -12.203  13.902  71.133  1.00  0.00    -0.308 C  
HETATM   43  C   UNL     1      -8.536  14.645  70.370  1.00  0.00     1.505 C  
HETATM   44  O   UNL     1     -13.090  11.769  71.088  1.00  0.00    -0.248 OA 
HETATM   45  C   UNL     1     -10.814  14.472  71.323  1.00  0.00     0.904 C  
HETATM   46  H   UNL     1     -13.505  11.855  71.939  1.00  0.00     0.000 HD 
HETATM   47  C   UNL     1      -9.949  14.190  70.053  1.00  0.00     1.092 C  
HETATM   48  C   UNL     1     -11.902  12.418  70.771  1.00  0.00     0.218 C  
HETATM   49  O   UNL     1      -9.881  12.811  69.558  1.00  0.00     0.746 OA 
BRANCH  42  50
HETATM   50  N   UNL     1     -13.217  14.127  72.218  1.00  0.00    -0.408 NA 
HETATM   51  C   UNL     1     -12.749  14.288  73.593  1.00  0.00     0.418 C  
HETATM   52  C   UNL     1     -14.234  15.133  71.916  1.00  0.00    -0.579 C  
ENDBRANCH  42  50
ENDBRANCH  40  41
ENDBRANCH  13  40
BRANCH  35  53
HETATM   53  C   UNL     1      -7.889  11.165  68.489  1.00  0.00    -0.136 C  
HETATM   54  C   UNL     1      -7.091  11.689  69.673  1.00  0.00     0.128 C  
ENDBRANCH  35  53
ENDBRANCH  11  12
ENDBRANCH   1  11
BRANCH   4  55
HETATM   55  O   UNL     1      -8.965   8.339  72.727  1.00  0.00    -0.219 OA 
HETATM   56  C   UNL     1      -7.911   8.731  73.598  1.00  0.00     0.319 C  
ENDBRANCH   4  55
TORSDOF 7
ENDMDL
MODEL      100
REMARK 921   NORMALIZED FREE ENERGY PREDICTED BY IDOCK:   33.97 KCAL/MOL
REMARK 922        TOTAL FREE ENERGY PREDICTED BY IDOCK:   45.18 KCAL/MOL
REMARK 923 INTER-LIGAND FREE ENERGY PREDICTED BY IDOCK:    5.00 KCAL/MOL
REMARK 924 INTRA-LIGAND FREE ENERGY PREDICTED BY IDOCK:   40.18 KCAL/MOL
REMARK 927      BINDING AFFINITY PREDICTED BY RF-SCORE:    0.00 PKD
ROOT
HETATM    1  C   UNL     1     -10.055   8.180  66.436  1.00  0.00    -0.126 C  
HETATM    2  O   UNL     1      -7.630   5.184  68.574  1.00  0.00    -0.077 OA 
HETATM    3  C   UNL     1      -8.589   7.789  65.961  1.00  0.00    -0.166 C  
HETATM    4  C   UNL     1      -7.617   7.066  66.973  1.00  0.00    -0.102 C  
HETATM    5  C   UNL     1     -10.357   5.692  69.287  1.00  0.00    -0.340 C  
HETATM    6  C   UNL     1      -8.445   6.005  67.719  1.00  0.00    -0.107 C  
HETATM    7  C   UNL     1      -6.434   6.360  66.233  1.00  0.00    -0.043 C  
HETATM    8  O   UNL     1     -10.536   7.363  67.536  1.00  0.00    -0.222 OA 
HETATM    9  H   UNL     1      -8.140   4.529  69.034  1.00  0.00     0.000 HD 
HETATM   10  C   UNL     1      -9.601   6.721  68.430  1.00  0.00    -0.125 C  
ENDROOT
BRANCH   1  11
HETATM   11  O   UNL     1     -10.437   9.679  66.314  1.00  0.00    -0.191 OA 
BRANCH  11  12
HETATM   12  C   UNL     1      -9.551  10.558  65.503  1.00  0.00    -0.230 C  
HETATM   13  C   UNL     1     -11.181  12.714  66.285  1.00  0.00    -0.311 C  
HETATM   14  C   UNL     1      -7.489  12.442  65.162  1.00  0.00     4.251 C  
HETATM   15  C   UNL     1     -10.451  11.773  65.098  1.00  0.00    -0.330 C  
HETATM   16  O   UNL     1      -6.590   9.691  67.382  1.00  0.00    -0.068 OA 
HETATM   17  C   UNL     1      -7.837  11.023  65.706  1.00  0.00     0.011 C  
HETATM   18  C   UNL     1      -9.960  12.259  63.700  1.00  0.00    -0.289 C  
HETATM   19  C   UNL     1     -11.053  14.307  65.944  1.00  0.00    -0.310 C  
HETATM   20  O   UNL     1      -9.726  14.842  65.834  1.00  0.00    -0.307 OA 
HETATM   21  C   UNL     1     -11.730  14.500  64.549  1.00  0.00    -0.421 C  
HETATM   22  C   UNL     1      -6.874  10.807  66.932  1.00  0.00    -0.101 C  
HETATM   23  C   UNL     1     -11.805  15.079  67.035  1.00  0.00    -0.124 C  
HETATM   24  C   UNL     1      -9.606  16.119  65.174  1.00  0.00     0.666 C  
HETATM   25  C   UNL     1     -11.171  16.129  67.992  1.00  0.00    -0.291 C  
HETATM   26  H   UNL     1      -4.817  13.950  67.836  1.00  0.00     0.000 HD 
HETATM   27  O   UNL     1      -6.227  11.961  67.446  1.00  0.00    -0.093 OA 
HETATM   28  C   UNL     1     -10.021  15.856  69.070  1.00  0.00    -0.233 C  
HETATM   29  C   UNL     1     -12.475  16.559  68.778  1.00  0.00     1.611 C  
HETATM   30  O   UNL     1      -5.477  14.567  68.131  1.00  0.00    -0.108 OA 
HETATM   31  C   UNL     1      -5.165  13.964  70.437  1.00  0.00    -0.104 C  
HETATM   32  O   UNL     1     -10.398  15.783  70.256  1.00  0.00    -0.286 OA 
HETATM   33  C   UNL     1      -8.425  15.968  68.896  1.00  0.00    -0.232 C  
HETATM   34  C   UNL     1      -7.791  16.365  67.593  1.00  0.00    -0.160 C  
HETATM   35  C   UNL     1      -6.404  12.348  68.882  1.00  0.00    -0.085 C  
HETATM   36  C   UNL     1      -7.360  15.078  69.769  1.00  0.00    -0.132 C  
HETATM   37  C   UNL     1      -6.181  13.977  69.243  1.00  0.00    -0.105 C  
HETATM   38  O   UNL     1      -7.802  14.864  71.117  1.00  0.00     1.106 OA 
HETATM   39  H   UNL     1      -7.185  14.349  71.624  1.00  0.00     0.000 HD 
BRANCH  13  40
HETATM   40  O   UNL     1     -10.922  12.217  67.635  1.00  0.00    -0.222 OA 
BRANCH  40  41
HETATM   41  C   UNL     1     -10.683  10.969  68.381  1.00  0.00    -0.203 C  
HETATM   42  C   UNL     1      -9.059   9.535  69.873  1.00  0.00    -0.216 C  
HETATM   43  C   UNL     1     -12.539   7.988  69.594  1.00  0.00     2.376 C  
HETATM   44  O   UNL     1      -8.693  11.816  69.882  1.00  0.00     0.980 OA 
HETATM   45  C   UNL     1     -10.235   8.646  70.215  1.00  0.00    -0.213 C  
HETATM   46  H   UNL     1      -8.137  11.788  70.652  1.00  0.00     0.000 HD 
HETATM   47  C   UNL     1     -11.335   8.779  69.114  1.00  0.00     0.452 C  
HETATM   48  C   UNL     1      -9.740  10.922  69.688  1.00  0.00     0.247 C  
HETATM   49  O   UNL     1     -11.791  10.126  68.755  1.00  0.00    -0.035 OA 
BRANCH  42  50
HETATM   50  N   UNL     1      -7.858   9.502  70.775  1.00  0.00    -0.296 NA 
HETATM   51  C   UNL     1      -8.032   9.067  72.159  1.00  0.00     0.364 C  
HETATM   52  C   UNL     1      -6.670   8.872  70.200  1.00  0.00    -0.041 C  
ENDBRANCH  42  50
ENDBRANCH  40  41
ENDBRANCH  13  40
BRANCH  35  53
HETATM   53  C   UNL     1      -7.808  11.959  69.176  1.00  0.00     0.206 C  
HETATM   54  C   UNL     1      -7.783  10.504  68.732  1.00  0.00    -0.109 C  
ENDBRANCH  35  53
ENDBRANCH  11  12
ENDBRANCH   1  11
BRANCH   4  55
HETATM   55  O   UNL     1      -7.096   8.099  67.831  1.00  0.00    -0.079 OA 
HETATM   56  C   UNL     1      -5.988   7.792  68.668  1.00  0.00    -0.035 C  
ENDBRANCH   4  55
TORSDOF 7
ENDMDL
MODEL      101
REMARK 921   NORMALIZED FREE ENERGY PREDICTED BY IDOCK:   34.18 KCAL/MOL
REMARK 922        TOTAL FREE ENERGY PREDICTED BY IDOCK:   45.47 KCAL/MOL
REMARK 923 INTER-LIGAND FREE ENERGY PREDICTED BY IDOCK:   28.94 KCAL/MOL
REMARK 924 INTRA-LIGAND FREE ENERGY PREDICTED BY IDOCK:   16.54 KCAL/MOL
REMARK 927      BINDING AFFINITY PREDICTED BY RF-SCORE:    0.00 PKD
ROOT
HETATM    1  C   UNL     1     -10.498   8.774  70.160  1.00  0.00    -0.213 C  
HETATM    2  O   UNL     1     -11.464   4.607  69.095  1.00  0.00     3.117 OA 
HETATM    3  C   UNL     1     -10.316   7.578  71.192  1.00  0.00    -0.208 C  
HETATM    4  C   UNL     1     -11.066   6.214  70.931  1.00  0.00    -0.307 C  
HETATM    5  C   UNL     1     -11.554   6.712  67.154  1.00  0.00     0.572 C  
HETATM    6  C   UNL     1     -10.936   5.903  69.429  1.00  0.00    -0.350 C  
HETATM    7  C   UNL     1     -10.432   5.041  71.748  1.00  0.00    -0.246 C  
HETATM    8  O   UNL     1     -10.875   8.329  68.831  1.00  0.00    -0.116 OA 
HETATM    9  H   UNL     1     -11.384   4.415  68.169  1.00  0.00     0.000 HD 
HETATM   10  C   UNL     1     -11.557   7.070  68.650  1.00  0.00     0.560 C  
ENDROOT
BRANCH   1  11
HETATM   11  O   UNL     1     -11.027  10.109  70.748  1.00  0.00    -0.320 OA 
BRANCH  11  12
HETATM   12  C   UNL     1     -11.955  10.918  69.911  1.00  0.00    -0.353 C  
HETATM   13  C   UNL     1     -10.226  13.099  70.319  1.00  0.00     2.797 C  
HETATM   14  C   UNL     1     -12.751  12.192  67.532  1.00  0.00     2.262 C  
HETATM   15  C   UNL     1     -11.750  12.393  70.392  1.00  0.00    -0.113 C  
HETATM   16  O   UNL     1     -11.590   8.771  67.029  1.00  0.00     1.500 OA 
HETATM   17  C   UNL     1     -12.371  10.824  68.175  1.00  0.00     1.168 C  
HETATM   18  C   UNL     1     -13.119  13.121  70.230  1.00  0.00     0.489 C  
HETATM   19  C   UNL     1     -10.304  14.626  69.741  1.00  0.00     0.065 C  
HETATM   20  O   UNL     1     -10.837  14.793  68.419  1.00  0.00    -0.234 OA 
HETATM   21  C   UNL     1     -11.258  15.398  70.708  1.00  0.00    -0.378 C  
HETATM   22  C   UNL     1     -11.687  10.004  67.019  1.00  0.00     1.964 C  
HETATM   23  C   UNL     1      -8.887  15.212  69.778  1.00  0.00     0.051 C  
HETATM   24  C   UNL     1     -11.254  16.127  68.064  1.00  0.00    -0.291 C  
HETATM   25  C   UNL     1      -8.092  15.720  68.541  1.00  0.00    -0.153 C  
HETATM   26  H   UNL     1     -11.138  12.064  63.797  1.00  0.00     0.000 HD 
HETATM   27  O   UNL     1     -11.278  10.735  65.874  1.00  0.00     0.080 OA 
HETATM   28  C   UNL     1      -7.626  14.841  67.289  1.00  0.00    -0.165 C  
HETATM   29  C   UNL     1      -6.791  16.230  69.282  1.00  0.00    -0.211 C  
HETATM   30  O   UNL     1     -10.502  12.719  64.061  1.00  0.00    -0.406 OA 
HETATM   31  C   UNL     1      -8.654  11.398  63.273  1.00  0.00     0.255 C  
HETATM   32  O   UNL     1      -6.421  14.523  67.270  1.00  0.00    -0.298 OA 
HETATM   33  C   UNL     1      -8.397  14.567  65.903  1.00  0.00     1.655 C  
HETATM   34  C   UNL     1      -9.753  15.147  65.616  1.00  0.00    -0.351 C  
HETATM   35  C   UNL     1      -9.846  10.711  65.434  1.00  0.00    -0.267 C  
HETATM   36  C   UNL     1      -8.189  13.207  65.012  1.00  0.00     4.470 C  
HETATM   37  C   UNL     1      -9.325  12.038  64.539  1.00  0.00     0.266 C  
HETATM   38  O   UNL     1      -6.836  12.729  65.049  1.00  0.00     5.365 OA 
HETATM   39  H   UNL     1      -6.716  11.941  64.532  1.00  0.00     0.000 HD 
BRANCH  13  40
HETATM   40  O   UNL     1      -9.199  12.173  69.843  1.00  0.00     1.963 OA 
BRANCH  40  41
HETATM   41  C   UNL     1      -8.203  11.203  70.329  1.00  0.00     2.164 C  
HETATM   42  C   UNL     1      -7.491   9.466  72.172  1.00  0.00     0.928 C  
HETATM   43  C   UNL     1      -5.150   9.441  69.156  1.00  0.00    -0.036 C  
HETATM   44  O   UNL     1      -9.755   9.893  72.003  1.00  0.00     0.855 OA 
HETATM   45  C   UNL     1      -6.431   8.960  71.218  1.00  0.00    -0.077 C  
HETATM   46  H   UNL     1     -10.002   9.132  72.517  1.00  0.00     0.000 HD 
HETATM   47  C   UNL     1      -6.096  10.064  70.165  1.00  0.00    -0.070 C  
HETATM   48  C   UNL     1      -8.622   9.913  71.199  1.00  0.00     1.247 C  
HETATM   49  O   UNL     1      -7.209  10.674  69.429  1.00  0.00    -0.099 OA 
BRANCH  42  50
HETATM   50  N   UNL     1      -7.908   8.576  73.308  1.00  0.00    -0.387 NA 
HETATM   51  C   UNL     1      -7.129   8.604  74.544  1.00  0.00    -0.122 C  
HETATM   52  C   UNL     1      -9.337   8.598  73.619  1.00  0.00     0.863 C  
ENDBRANCH  42  50
ENDBRANCH  40  41
ENDBRANCH  13  40
BRANCH  35  53
HETATM   53  C   UNL     1      -9.093  10.644  66.714  1.00  0.00    -0.167 C  
HETATM   54  C   UNL     1      -9.071   9.139  66.936  1.00  0.00    -0.163 C  
ENDBRANCH  35  53
ENDBRANCH  11  12
ENDBRANCH   1  11
BRANCH   4  55
HETATM   55  O   UNL     1     -12.425   6.418  71.361  1.00  0.00    -0.217 OA 
HETATM   56  C   UNL     1     -12.871   5.756  72.538  1.00  0.00     0.601 C  
ENDBRANCH   4  55
TORSDOF 7
ENDMDL
MODEL      102
REMARK 921   NORMALIZED FREE ENERGY PREDICTED BY IDOCK:   34.22 KCAL/MOL
REMARK 922        TOTAL FREE ENERGY PREDICTED BY IDOCK:   45.54 KCAL/MOL
REMARK 923 INTER-LIGAND FREE ENERGY PREDICTED BY IDOCK:   24.29 KCAL/MOL
REMARK 924 INTRA-LIGAND FREE ENERGY PREDICTED BY IDOCK:   21.25 KCAL/MOL
REMARK 927      BINDING AFFINITY PREDICTED BY RF-SCORE:    0.00 PKD
ROOT
HETATM    1  C   UNL     1      -8.457   9.532  71.394  1.00  0.00     0.637 C  
HETATM    2  O   UNL     1      -8.690   5.589  69.439  1.00  0.00    -0.106 OA 
HETATM    3  C   UNL     1      -9.824   8.956  70.823  1.00  0.00    -0.278 C  
HETATM    4  C   UNL     1      -9.785   7.779  69.771  1.00  0.00    -0.176 C  
HETATM    5  C   UNL     1      -6.280   6.504  70.689  1.00  0.00    -0.039 C  
HETATM    6  C   UNL     1      -8.719   6.778  70.249  1.00  0.00    -0.144 C  
HETATM    7  C   UNL     1     -11.163   7.046  69.674  1.00  0.00    -0.222 C  
HETATM    8  O   UNL     1      -7.362   8.582  71.322  1.00  0.00    -0.074 OA 
HETATM    9  H   UNL     1      -8.032   4.970  69.734  1.00  0.00     0.000 HD 
HETATM   10  C   UNL     1      -7.380   7.522  70.342  1.00  0.00    -0.072 C  
ENDROOT
BRANCH   1  11
HETATM   11  O   UNL     1      -8.223  11.054  71.201  1.00  0.00     3.596 OA 
BRANCH  11  12
HETATM   12  C   UNL     1      -7.022  11.480  70.431  1.00  0.00     1.088 C  
HETATM   13  C   UNL     1      -8.146  10.187  68.200  1.00  0.00    -0.105 C  
HETATM   14  C   UNL     1      -5.644  13.110  68.598  1.00  0.00    -0.074 C  
HETATM   15  C   UNL     1      -6.883  10.424  69.285  1.00  0.00    -0.073 C  
HETATM   16  O   UNL     1      -7.605  14.995  71.030  1.00  0.00     1.180 OA 
HETATM   17  C   UNL     1      -6.446  13.098  69.934  1.00  0.00     0.029 C  
HETATM   18  C   UNL     1      -5.360  10.274  68.983  1.00  0.00    -0.038 C  
HETATM   19  C   UNL     1      -7.598  10.071  66.664  1.00  0.00    -0.104 C  
HETATM   20  O   UNL     1      -6.890  11.205  66.141  1.00  0.00    -0.100 OA 
HETATM   21  C   UNL     1      -6.594   8.875  66.659  1.00  0.00    -0.064 C  
HETATM   22  C   UNL     1      -7.184  14.487  69.983  1.00  0.00     0.125 C  
HETATM   23  C   UNL     1      -8.803   9.785  65.760  1.00  0.00    -0.180 C  
HETATM   24  C   UNL     1      -6.095  10.971  64.962  1.00  0.00     0.365 C  
HETATM   25  C   UNL     1      -9.285  10.691  64.590  1.00  0.00    -0.262 C  
HETATM   26  H   UNL     1      -6.786  16.547  66.738  1.00  0.00     0.000 HD 
HETATM   27  O   UNL     1      -7.247  15.219  68.769  1.00  0.00    -0.115 OA 
HETATM   28  C   UNL     1      -9.818  12.194  64.714  1.00  0.00    -0.133 C  
HETATM   29  C   UNL     1     -10.481   9.797  64.068  1.00  0.00     2.037 C  
HETATM   30  O   UNL     1      -7.252  16.029  66.092  1.00  0.00     0.192 OA 
HETATM   31  C   UNL     1      -9.279  17.288  66.386  1.00  0.00    -0.278 C  
HETATM   32  O   UNL     1     -11.054  12.338  64.633  1.00  0.00    -0.293 OA 
HETATM   33  C   UNL     1      -8.991  13.571  64.618  1.00  0.00     2.746 C  
HETATM   34  C   UNL     1      -7.506  13.596  64.391  1.00  0.00    15.335 C  
HETATM   35  C   UNL     1      -8.572  15.620  68.198  1.00  0.00    -0.159 C  
HETATM   36  C   UNL     1      -9.447  14.949  65.380  1.00  0.00     0.120 C  
HETATM   37  C   UNL     1      -8.615  15.875  66.534  1.00  0.00    -0.310 C  
HETATM   38  O   UNL     1     -10.873  15.108  65.418  1.00  0.00    -0.334 OA 
HETATM   39  H   UNL     1     -11.137  15.907  65.859  1.00  0.00     0.000 HD 
BRANCH  13  40
HETATM   40  O   UNL     1      -9.319  11.001  68.514  1.00  0.00    -0.174 OA 
BRANCH  40  41
HETATM   41  C   UNL     1     -10.298  11.252  69.587  1.00  0.00     0.217 C  
HETATM   42  C   UNL     1     -11.433  12.975  71.217  1.00  0.00     2.050 C  
HETATM   43  C   UNL     1     -13.106   9.544  71.319  1.00  0.00    -0.402 C  
HETATM   44  O   UNL     1     -10.495  13.861  69.300  1.00  0.00    -0.420 OA 
HETATM   45  C   UNL     1     -12.498  11.937  71.497  1.00  0.00    -0.185 C  
HETATM   46  H   UNL     1     -10.941  14.695  69.390  1.00  0.00     0.000 HD 
HETATM   47  C   UNL     1     -11.948  10.513  71.165  1.00  0.00    -0.336 C  
HETATM   48  C   UNL     1     -11.055  12.666  69.739  1.00  0.00     0.196 C  
HETATM   49  O   UNL     1     -11.347  10.297  69.845  1.00  0.00    -0.254 OA 
BRANCH  42  50
HETATM   50  N   UNL     1     -11.740  14.411  71.535  1.00  0.00    -0.151 NA 
HETATM   51  C   UNL     1     -13.066  14.747  72.049  1.00  0.00    -0.337 C  
HETATM   52  C   UNL     1     -10.714  15.105  72.312  1.00  0.00     1.090 C  
ENDBRANCH  42  50
ENDBRANCH  40  41
ENDBRANCH  13  40
BRANCH  35  53
HETATM   53  C   UNL     1      -9.461  14.482  68.553  1.00  0.00    -0.211 C  
HETATM   54  C   UNL     1      -9.523  13.760  67.215  1.00  0.00    -0.236 C  
ENDBRANCH  35  53
ENDBRANCH  11  12
ENDBRANCH   1  11
BRANCH   4  55
HETATM   55  O   UNL     1      -9.477   8.389  68.503  1.00  0.00    -0.145 OA 
HETATM   56  C   UNL     1      -9.257   7.544  67.380  1.00  0.00    -0.132 C  
ENDBRANCH   4  55
TORSDOF 7
ENDMDL
MODEL      103
REMARK 921   NORMALIZED FREE ENERGY PREDICTED BY IDOCK:   34.24 KCAL/MOL
REMARK 922        TOTAL FREE ENERGY PREDICTED BY IDOCK:   45.56 KCAL/MOL
REMARK 923 INTER-LIGAND FREE ENERGY PREDICTED BY IDOCK:   20.46 KCAL/MOL
REMARK 924 INTRA-LIGAND FREE ENERGY PREDICTED BY IDOCK:   25.10 KCAL/MOL
REMARK 927      BINDING AFFINITY PREDICTED BY RF-SCORE:    0.00 PKD
ROOT
HETATM    1  C   UNL     1     -11.793  10.590  66.217  1.00  0.00     2.244 C  
HETATM    2  O   UNL     1     -10.053  14.561  65.425  1.00  0.00    -0.345 OA 
HETATM    3  C   UNL     1     -12.447  11.604  65.181  1.00  0.00     1.012 C  
HETATM    4  C   UNL     1     -12.063  13.133  65.252  1.00  0.00    -0.429 C  
HETATM    5  C   UNL     1      -8.729  12.649  67.097  1.00  0.00    -0.201 C  
HETATM    6  C   UNL     1     -10.543  13.209  65.482  1.00  0.00    -0.288 C  
HETATM    7  C   UNL     1     -12.413  13.878  63.922  1.00  0.00    -0.221 C  
HETATM    8  O   UNL     1     -10.525  11.055  66.749  1.00  0.00    -0.231 OA 
HETATM    9  H   UNL     1      -9.115  14.609  65.567  1.00  0.00     0.000 HD 
HETATM   10  C   UNL     1     -10.224  12.466  66.786  1.00  0.00    -0.219 C  
ENDROOT
BRANCH   1  11
HETATM   11  O   UNL     1     -12.782   9.766  67.084  1.00  0.00     6.502 OA 
BRANCH  11  12
HETATM   12  C   UNL     1     -12.498   9.649  68.540  1.00  0.00     3.578 C  
HETATM   13  C   UNL     1     -11.130   7.261  67.956  1.00  0.00     0.092 C  
HETATM   14  C   UNL     1     -10.858   9.849  70.818  1.00  0.00    -0.387 C  
HETATM   15  C   UNL     1     -12.312   8.116  68.793  1.00  0.00     3.931 C  
HETATM   16  O   UNL     1     -10.747  12.806  68.684  1.00  0.00    -0.245 OA 
HETATM   17  C   UNL     1     -11.491  10.642  69.635  1.00  0.00    -0.361 C  
HETATM   18  C   UNL     1     -12.819   7.825  70.239  1.00  0.00     0.976 C  
HETATM   19  C   UNL     1     -10.317   6.245  68.946  1.00  0.00    -0.204 C  
HETATM   20  O   UNL     1      -9.614   6.837  70.047  1.00  0.00    -0.157 OA 
HETATM   21  C   UNL     1     -11.396   5.297  69.560  1.00  0.00     1.445 C  
HETATM   22  C   UNL     1     -10.450  11.772  69.295  1.00  0.00     0.060 C  
HETATM   23  C   UNL     1      -9.317   5.461  68.087  1.00  0.00    -0.131 C  
HETATM   24  C   UNL     1      -9.228   5.943  71.111  1.00  0.00    -0.150 C  
HETATM   25  C   UNL     1      -7.772   5.471  68.273  1.00  0.00    -0.085 C  
HETATM   26  H   UNL     1      -7.144  11.453  71.269  1.00  0.00     0.000 HD 
HETATM   27  O   UNL     1      -9.145  11.620  69.831  1.00  0.00     1.432 OA 
HETATM   28  C   UNL     1      -6.809   6.739  68.122  1.00  0.00    -0.078 C  
HETATM   29  C   UNL     1      -7.385   4.435  67.143  1.00  0.00    -0.073 C  
HETATM   30  O   UNL     1      -6.768  10.646  70.937  1.00  0.00    -0.283 OA 
HETATM   31  C   UNL     1      -5.433  11.811  69.312  1.00  0.00    -0.053 C  
HETATM   32  O   UNL     1      -6.151   6.795  67.064  1.00  0.00    -0.029 OA 
HETATM   33  C   UNL     1      -6.328   7.784  69.247  1.00  0.00    -0.035 C  
HETATM   34  C   UNL     1      -6.776   7.678  70.677  1.00  0.00    -0.042 C  
HETATM   35  C   UNL     1      -7.955  11.584  68.923  1.00  0.00    -0.057 C  
HETATM   36  C   UNL     1      -5.926   9.339  68.918  1.00  0.00    -0.043 C  
HETATM   37  C   UNL     1      -6.598  10.780  69.511  1.00  0.00    -0.099 C  
HETATM   38  O   UNL     1      -5.266   9.477  67.651  1.00  0.00    -0.036 OA 
HETATM   39  H   UNL     1      -5.033  10.378  67.461  1.00  0.00     0.000 HD 
BRANCH  13  40
HETATM   40  O   UNL     1     -10.414   8.091  66.988  1.00  0.00    -0.316 OA 
BRANCH  40  41
HETATM   41  C   UNL     1      -9.818   8.042  65.642  1.00  0.00     0.718 C  
HETATM   42  C   UNL     1      -8.753   9.347  63.622  1.00  0.00    -0.202 C  
HETATM   43  C   UNL     1      -8.515   5.558  63.205  1.00  0.00    -0.029 C  
HETATM   44  O   UNL     1      -8.641  10.396  65.677  1.00  0.00    -0.154 OA 
HETATM   45  C   UNL     1      -8.272   8.018  63.079  1.00  0.00    -0.073 C  
HETATM   46  H   UNL     1      -7.987  11.024  65.392  1.00  0.00     0.000 HD 
HETATM   47  C   UNL     1      -9.144   6.862  63.664  1.00  0.00     1.618 C  
HETATM   48  C   UNL     1      -8.709   9.107  65.159  1.00  0.00    -0.195 C  
HETATM   49  O   UNL     1      -9.315   6.796  65.119  1.00  0.00     0.498 OA 
BRANCH  42  50
HETATM   50  N   UNL     1      -8.087  10.599  63.127  1.00  0.00    -0.095 NA 
HETATM   51  C   UNL     1      -8.890  11.582  62.404  1.00  0.00     0.183 C  
HETATM   52  C   UNL     1      -7.235  11.274  64.106  1.00  0.00     1.457 C  
ENDBRANCH  42  50
ENDBRANCH  40  41
ENDBRANCH  13  40
BRANCH  35  53
HETATM   53  C   UNL     1      -8.464  10.885  67.713  1.00  0.00    -0.124 C  
HETATM   54  C   UNL     1      -7.862   9.504  67.925  1.00  0.00    -0.091 C  
ENDBRANCH  35  53
ENDBRANCH  11  12
ENDBRANCH   1  11
BRANCH   4  55
HETATM   55  O   UNL     1     -12.838  13.689  66.331  1.00  0.00    -0.203 OA 
HETATM   56  C   UNL     1     -12.523  14.999  66.788  1.00  0.00     0.675 C  
ENDBRANCH   4  55
TORSDOF 7
ENDMDL
MODEL      104
REMARK 921   NORMALIZED FREE ENERGY PREDICTED BY IDOCK:   35.04 KCAL/MOL
REMARK 922        TOTAL FREE ENERGY PREDICTED BY IDOCK:   46.69 KCAL/MOL
REMARK 923 INTER-LIGAND FREE ENERGY PREDICTED BY IDOCK:   30.14 KCAL/MOL
REMARK 924 INTRA-LIGAND FREE ENERGY PREDICTED BY IDOCK:   16.55 KCAL/MOL
REMARK 927      BINDING AFFINITY PREDICTED BY RF-SCORE:    0.00 PKD
ROOT
HETATM    1  C   UNL     1      -8.043  12.350  67.213  1.00  0.00    -0.182 C  
HETATM    2  O   UNL     1      -6.031  15.584  69.432  1.00  0.00    -0.109 OA 
HETATM    3  C   UNL     1      -8.209  13.879  66.807  1.00  0.00     0.184 C  
HETATM    4  C   UNL     1      -7.844  14.999  67.858  1.00  0.00    -0.138 C  
HETATM    5  C   UNL     1      -5.525  12.825  70.013  1.00  0.00    -0.113 C  
HETATM    6  C   UNL     1      -6.538  14.569  68.547  1.00  0.00    -0.093 C  
HETATM    7  C   UNL     1      -7.622  16.386  67.169  1.00  0.00    -0.224 C  
HETATM    8  O   UNL     1      -7.077  12.143  68.276  1.00  0.00    -0.072 OA 
HETATM    9  H   UNL     1      -5.225  15.319  69.857  1.00  0.00     0.000 HD 
HETATM   10  C   UNL     1      -6.779  13.205  69.208  1.00  0.00    -0.061 C  
ENDROOT
BRANCH   1  11
HETATM   11  O   UNL     1      -9.315  11.469  67.091  1.00  0.00    -0.168 OA 
BRANCH  11  12
HETATM   12  C   UNL     1      -9.146  10.066  66.625  1.00  0.00    -0.147 C  
HETATM   13  C   UNL     1      -7.473   9.658  68.849  1.00  0.00    -0.075 C  
HETATM   14  C   UNL     1      -9.659   7.300  66.699  1.00  0.00    -0.236 C  
HETATM   15  C   UNL     1      -7.759   9.617  67.193  1.00  0.00    -0.091 C  
HETATM   16  O   UNL     1     -12.681   9.342  66.801  1.00  0.00     8.858 OA 
HETATM   17  C   UNL     1     -10.303   8.708  66.512  1.00  0.00    -0.237 C  
HETATM   18  C   UNL     1      -7.151   8.607  66.171  1.00  0.00    -0.084 C  
HETATM   19  C   UNL     1      -6.706   8.306  69.355  1.00  0.00    -0.042 C  
HETATM   20  O   UNL     1      -7.383   7.058  69.143  1.00  0.00    -0.087 OA 
HETATM   21  C   UNL     1      -5.377   8.239  68.536  1.00  0.00    -0.033 C  
HETATM   22  C   UNL     1     -11.758   8.574  67.098  1.00  0.00     3.293 C  
HETATM   23  C   UNL     1      -6.424   8.464  70.855  1.00  0.00    -0.040 C  
HETATM   24  C   UNL     1      -6.571   5.870  69.232  1.00  0.00    -0.051 C  
HETATM   25  C   UNL     1      -6.958   7.522  71.973  1.00  0.00    -0.063 C  
HETATM   26  H   UNL     1     -12.409   5.177  68.821  1.00  0.00     0.000 HD 
HETATM   27  O   UNL     1     -12.017   7.439  67.909  1.00  0.00     1.579 OA 
HETATM   28  C   UNL     1      -8.492   7.279  72.353  1.00  0.00    -0.111 C  
HETATM   29  C   UNL     1      -6.255   8.202  73.217  1.00  0.00    -0.092 C  
HETATM   30  O   UNL     1     -11.828   5.198  69.572  1.00  0.00     2.924 OA 
HETATM   31  C   UNL     1     -13.560   6.021  71.023  1.00  0.00     2.508 C  
HETATM   32  O   UNL     1      -8.893   7.858  73.383  1.00  0.00    -0.207 OA 
HETATM   33  C   UNL     1      -9.509   6.166  71.792  1.00  0.00    -0.162 C  
HETATM   34  C   UNL     1      -9.095   5.157  70.758  1.00  0.00    -0.171 C  
HETATM   35  C   UNL     1     -12.503   7.612  69.315  1.00  0.00     2.804 C  
HETATM   36  C   UNL     1     -11.132   6.385  71.717  1.00  0.00    -0.265 C  
HETATM   37  C   UNL     1     -12.170   6.347  70.375  1.00  0.00     0.197 C  
HETATM   38  O   UNL     1     -11.632   7.149  72.824  1.00  0.00    -0.481 OA 
HETATM   39  H   UNL     1     -12.573   7.275  72.781  1.00  0.00     0.000 HD 
BRANCH  13  40
HETATM   40  O   UNL     1      -8.603  10.200  69.602  1.00  0.00    -0.176 OA 
BRANCH  40  41
HETATM   41  C   UNL     1      -9.903  10.867  69.414  1.00  0.00    -0.027 C  
HETATM   42  C   UNL     1     -11.785  12.414  70.407  1.00  0.00    -0.025 C  
HETATM   43  C   UNL     1     -12.336  11.628  66.711  1.00  0.00     1.464 C  
HETATM   44  O   UNL     1      -9.686  12.643  71.345  1.00  0.00     9.190 OA 
HETATM   45  C   UNL     1     -12.344  12.551  69.007  1.00  0.00     0.167 C  
HETATM   46  H   UNL     1      -9.896  13.466  71.771  1.00  0.00     0.000 HD 
HETATM   47  C   UNL     1     -11.872  11.349  68.129  1.00  0.00    -0.218 C  
HETATM   48  C   UNL     1     -10.259  12.263  70.136  1.00  0.00     2.460 C  
HETATM   49  O   UNL     1     -10.438  11.048  68.087  1.00  0.00    -0.175 OA 
BRANCH  42  50
HETATM   50  N   UNL     1     -12.178  13.438  71.433  1.00  0.00    -0.117 NA 
HETATM   51  C   UNL     1     -11.802  14.833  71.211  1.00  0.00    -0.335 C  
HETATM   52  C   UNL     1     -13.567  13.362  71.883  1.00  0.00    -0.409 C  
ENDBRANCH  42  50
ENDBRANCH  40  41
ENDBRANCH  13  40
BRANCH  35  53
HETATM   53  C   UNL     1     -11.807   8.844  69.773  1.00  0.00     0.571 C  
HETATM   54  C   UNL     1     -11.885   8.653  71.280  1.00  0.00    -0.344 C  
ENDBRANCH  35  53
ENDBRANCH  11  12
ENDBRANCH   1  11
BRANCH   4  55
HETATM   55  O   UNL     1      -8.969  15.084  68.755  1.00  0.00    -0.181 OA 
HETATM   56  C   UNL     1     -10.280  15.021  68.208  1.00  0.00    -0.222 C  
ENDBRANCH   4  55
TORSDOF 7
ENDMDL
MODEL      105
REMARK 921   NORMALIZED FREE ENERGY PREDICTED BY IDOCK:   35.36 KCAL/MOL
REMARK 922        TOTAL FREE ENERGY PREDICTED BY IDOCK:   47.14 KCAL/MOL
REMARK 923 INTER-LIGAND FREE ENERGY PREDICTED BY IDOCK:   38.15 KCAL/MOL
REMARK 924 INTRA-LIGAND FREE ENERGY PREDICTED BY IDOCK:    9.00 KCAL/MOL
REMARK 927      BINDING AFFINITY PREDICTED BY RF-SCORE:    0.00 PKD
ROOT
HETATM    1  C   UNL     1      -9.593   9.456  69.091  1.00  0.00    -0.163 C  
HETATM    2  O   UNL     1      -9.123   9.454  73.474  1.00  0.00     1.688 OA 
HETATM    3  C   UNL     1     -10.264  10.567  70.010  1.00  0.00    -0.024 C  
HETATM    4  C   UNL     1     -10.437  10.289  71.554  1.00  0.00     1.795 C  
HETATM    5  C   UNL     1      -7.704   7.602  71.812  1.00  0.00    -0.089 C  
HETATM    6  C   UNL     1      -9.137   9.629  72.046  1.00  0.00     2.101 C  
HETATM    7  C   UNL     1     -10.670  11.611  72.356  1.00  0.00    11.337 C  
HETATM    8  O   UNL     1      -8.725   8.554  69.826  1.00  0.00    -0.129 OA 
HETATM    9  H   UNL     1      -8.320   9.047  73.777  1.00  0.00     0.000 HD 
HETATM   10  C   UNL     1      -8.927   8.340  71.240  1.00  0.00    -0.160 C  
ENDROOT
BRANCH   1  11
HETATM   11  O   UNL     1     -10.438   8.964  67.886  1.00  0.00    -0.228 OA 
BRANCH  11  12
HETATM   12  C   UNL     1      -9.733   8.712  66.600  1.00  0.00    -0.247 C  
HETATM   13  C   UNL     1      -7.709   7.457  68.098  1.00  0.00    -0.120 C  
HETATM   14  C   UNL     1      -8.916   7.104  64.440  1.00  0.00     0.966 C  
HETATM   15  C   UNL     1      -8.219   8.609  66.984  1.00  0.00    -0.106 C  
HETATM   16  O   UNL     1     -12.469   6.804  65.211  1.00  0.00     7.681 OA 
HETATM   17  C   UNL     1     -10.148   7.674  65.204  1.00  0.00     2.815 C  
HETATM   18  C   UNL     1      -7.402   9.155  65.773  1.00  0.00    -0.090 C  
HETATM   19  C   UNL     1      -6.339   6.715  67.602  1.00  0.00    -0.044 C  
HETATM   20  O   UNL     1      -6.402   6.002  66.359  1.00  0.00    -0.039 OA 
HETATM   21  C   UNL     1      -5.284   7.851  67.414  1.00  0.00    -0.032 C  
HETATM   22  C   UNL     1     -11.262   6.571  65.067  1.00  0.00     6.419 C  
HETATM   23  C   UNL     1      -5.911   5.741  68.707  1.00  0.00    -0.020 C  
HETATM   24  C   UNL     1      -5.138   5.680  65.744  1.00  0.00    -0.009 C  
HETATM   25  C   UNL     1      -5.763   4.201  68.539  1.00  0.00    -0.021 C  
HETATM   26  H   UNL     1     -10.003   3.321  63.401  1.00  0.00     0.000 HD 
HETATM   27  O   UNL     1     -10.838   5.285  64.642  1.00  0.00     1.125 OA 
HETATM   28  C   UNL     1      -6.932   3.172  68.175  1.00  0.00    -0.049 C  
HETATM   29  C   UNL     1      -5.247   3.848  69.992  1.00  0.00    -0.004 C  
HETATM   30  O   UNL     1      -9.377   2.981  64.030  1.00  0.00    -0.111 OA 
HETATM   31  C   UNL     1     -11.022   1.560  65.058  1.00  0.00     2.310 C  
HETATM   32  O   UNL     1      -7.372   2.494  69.124  1.00  0.00    -0.044 OA 
HETATM   33  C   UNL     1      -7.412   2.658  66.727  1.00  0.00    -0.070 C  
HETATM   34  C   UNL     1      -6.767   3.136  65.457  1.00  0.00    -0.044 C  
HETATM   35  C   UNL     1     -11.105   4.083  65.494  1.00  0.00     0.973 C  
HETATM   36  C   UNL     1      -8.945   2.172  66.407  1.00  0.00    -0.100 C  
HETATM   37  C   UNL     1     -10.061   2.779  65.283  1.00  0.00     0.541 C  
HETATM   38  O   UNL     1      -9.542   1.483  67.515  1.00  0.00    -0.373 OA 
HETATM   39  H   UNL     1     -10.430   1.201  67.330  1.00  0.00     0.000 HD 
BRANCH  13  40
HETATM   40  O   UNL     1      -8.817   6.683  68.655  1.00  0.00    -0.124 OA 
BRANCH  40  41
HETATM   41  C   UNL     1      -9.193   5.894  69.841  1.00  0.00    -0.146 C  
HETATM   42  C   UNL     1     -10.860   5.528  71.843  1.00  0.00    -0.223 C  
HETATM   43  C   UNL     1      -8.328   2.688  71.508  1.00  0.00    -0.080 C  
HETATM   44  O   UNL     1     -11.696   6.688  70.029  1.00  0.00    -0.541 OA 
HETATM   45  C   UNL     1     -10.249   4.157  72.038  1.00  0.00    -0.200 C  
HETATM   46  H   UNL     1     -12.601   6.591  70.302  1.00  0.00     0.000 HD 
HETATM   47  C   UNL     1      -8.817   4.123  71.416  1.00  0.00    -0.108 C  
HETATM   48  C   UNL     1     -10.728   5.729  70.305  1.00  0.00    -0.309 C  
HETATM   49  O   UNL     1      -8.657   4.569  70.028  1.00  0.00    -0.075 OA 
BRANCH  42  50
HETATM   50  N   UNL     1     -12.217   5.791  72.431  1.00  0.00    -0.093 NA 
HETATM   51  C   UNL     1     -12.838   4.754  73.253  1.00  0.00     1.625 C  
HETATM   52  C   UNL     1     -12.369   7.095  73.075  1.00  0.00     0.912 C  
ENDBRANCH  42  50
ENDBRANCH  40  41
ENDBRANCH  13  40
BRANCH  35  53
HETATM   53  C   UNL     1     -10.978   4.605  66.881  1.00  0.00     1.030 C  
HETATM   54  C   UNL     1      -9.487   4.905  66.920  1.00  0.00    -0.156 C  
ENDBRANCH  35  53
ENDBRANCH  11  12
ENDBRANCH   1  11
BRANCH   4  55
HETATM   55  O   UNL     1     -11.596   9.442  71.679  1.00  0.00    -0.362 OA 
HETATM   56  C   UNL     1     -12.884  10.038  71.592  1.00  0.00    -0.440 C  
ENDBRANCH   4  55
TORSDOF 7
ENDMDL
MODEL      106
REMARK 921   NORMALIZED FREE ENERGY PREDICTED BY IDOCK:   35.45 KCAL/MOL
REMARK 922        TOTAL FREE ENERGY PREDICTED BY IDOCK:   47.28 KCAL/MOL
REMARK 923 INTER-LIGAND FREE ENERGY PREDICTED BY IDOCK:   35.61 KCAL/MOL
REMARK 924 INTRA-LIGAND FREE ENERGY PREDICTED BY IDOCK:   11.66 KCAL/MOL
REMARK 927      BINDING AFFINITY PREDICTED BY RF-SCORE:    0.00 PKD
ROOT
HETATM    1  C   UNL     1      -6.846   6.184  68.384  1.00  0.00    -0.074 C  
HETATM    2  O   UNL     1      -7.407   3.282  65.114  1.00  0.00    -0.069 OA 
HETATM    3  C   UNL     1      -7.813   4.930  68.528  1.00  0.00    -0.081 C  
HETATM    4  C   UNL     1      -8.312   4.188  67.228  1.00  0.00    -0.099 C  
HETATM    5  C   UNL     1      -5.474   5.388  64.935  1.00  0.00    -0.013 C  
HETATM    6  C   UNL     1      -7.105   4.068  66.281  1.00  0.00    -0.064 C  
HETATM    7  C   UNL     1      -8.848   2.755  67.551  1.00  0.00    -0.164 C  
HETATM    8  O   UNL     1      -6.091   6.184  67.143  1.00  0.00    -0.020 OA 
HETATM    9  H   UNL     1      -6.662   3.207  64.530  1.00  0.00     0.000 HD 
HETATM   10  C   UNL     1      -6.594   5.484  65.985  1.00  0.00    -0.048 C  
ENDROOT
BRANCH   1  11
HETATM   11  O   UNL     1      -7.338   7.505  69.032  1.00  0.00    -0.082 OA 
BRANCH  11  12
HETATM   12  C   UNL     1      -6.734   8.780  68.556  1.00  0.00    -0.060 C  
HETATM   13  C   UNL     1      -8.068   8.356  66.115  1.00  0.00    -0.106 C  
HETATM   14  C   UNL     1      -6.790  11.523  67.931  1.00  0.00    -0.073 C  
HETATM   15  C   UNL     1      -6.665   8.636  66.999  1.00  0.00    -0.062 C  
HETATM   16  O   UNL     1      -8.249  10.743  71.183  1.00  0.00     2.619 OA 
HETATM   17  C   UNL     1      -6.987  10.474  69.067  1.00  0.00    -0.076 C  
HETATM   18  C   UNL     1      -5.410   9.430  66.522  1.00  0.00    -0.045 C  
HETATM   19  C   UNL     1      -8.118   9.282  64.768  1.00  0.00    -0.133 C  
HETATM   20  O   UNL     1      -8.097  10.704  64.958  1.00  0.00    -0.132 OA 
HETATM   21  C   UNL     1      -6.835   8.919  63.955  1.00  0.00    -0.087 C  
HETATM   22  C   UNL     1      -8.092  11.088  70.005  1.00  0.00     1.054 C  
HETATM   23  C   UNL     1      -9.388   8.908  63.993  1.00  0.00     0.767 C  
HETATM   24  C   UNL     1      -7.762  11.496  63.801  1.00  0.00     1.730 C  
HETATM   25  C   UNL     1     -10.549   9.884  63.647  1.00  0.00     2.315 C  
HETATM   26  H   UNL     1      -9.660  14.330  68.607  1.00  0.00     0.000 HD 
HETATM   27  O   UNL     1      -8.848  12.167  69.479  1.00  0.00     0.947 OA 
HETATM   28  C   UNL     1     -11.490  10.645  64.693  1.00  0.00     1.438 C  
HETATM   29  C   UNL     1     -11.458   8.893  62.814  1.00  0.00    12.984 C  
HETATM   30  O   UNL     1     -10.117  14.034  67.828  1.00  0.00    -0.233 OA 
HETATM   31  C   UNL     1     -12.197  13.794  69.009  1.00  0.00    -0.259 C  
HETATM   32  O   UNL     1     -12.635  10.173  64.834  1.00  0.00     6.103 OA 
HETATM   33  C   UNL     1     -11.295  12.099  65.357  1.00  0.00    -0.388 C  
HETATM   34  C   UNL     1     -10.107  12.964  65.047  1.00  0.00    -0.235 C  
HETATM   35  C   UNL     1     -10.340  12.071  69.391  1.00  0.00     0.342 C  
HETATM   36  C   UNL     1     -11.892  12.502  66.830  1.00  0.00    -0.346 C  
HETATM   37  C   UNL     1     -11.076  13.032  68.221  1.00  0.00    -0.263 C  
HETATM   38  O   UNL     1     -13.162  11.889  67.092  1.00  0.00     3.747 OA 
HETATM   39  H   UNL     1     -13.508  12.123  67.946  1.00  0.00     0.000 HD 
BRANCH  13  40
HETATM   40  O   UNL     1      -9.249   8.210  66.964  1.00  0.00    -0.141 OA 
BRANCH  40  41
HETATM   41  C   UNL     1      -9.643   7.972  68.364  1.00  0.00    -0.150 C  
HETATM   42  C   UNL     1     -11.576   7.750  70.133  1.00  0.00     0.043 C  
HETATM   43  C   UNL     1      -8.164   6.811  71.569  1.00  0.00    -0.111 C  
HETATM   44  O   UNL     1     -12.166   7.359  67.934  1.00  0.00     1.799 OA 
HETATM   45  C   UNL     1     -10.569   7.144  71.087  1.00  0.00    -0.240 C  
HETATM   46  H   UNL     1     -12.992   6.948  68.162  1.00  0.00     0.000 HD 
HETATM   47  C   UNL     1      -9.125   7.572  70.673  1.00  0.00    -0.155 C  
HETATM   48  C   UNL     1     -11.044   7.274  68.750  1.00  0.00     0.096 C  
HETATM   49  O   UNL     1      -8.715   7.357  69.282  1.00  0.00    -0.136 OA 
BRANCH  42  50
HETATM   50  N   UNL     1     -13.036   7.514  70.397  1.00  0.00     0.570 NA 
HETATM   51  C   UNL     1     -13.453   7.142  71.748  1.00  0.00    -0.273 C  
HETATM   52  C   UNL     1     -13.935   8.535  69.862  1.00  0.00     3.652 C  
ENDBRANCH  42  50
ENDBRANCH  40  41
ENDBRANCH  13  40
BRANCH  35  53
HETATM   53  C   UNL     1     -10.577  10.636  69.082  1.00  0.00    -0.256 C  
HETATM   54  C   UNL     1     -11.724  10.340  70.037  1.00  0.00    -0.330 C  
ENDBRANCH  35  53
ENDBRANCH  11  12
ENDBRANCH   1  11
BRANCH   4  55
HETATM   55  O   UNL     1      -9.384   4.992  66.697  1.00  0.00    -0.127 OA 
HETATM   56  C   UNL     1     -10.713   4.493  66.783  1.00  0.00     0.540 C  
ENDBRANCH   4  55
TORSDOF 7
ENDMDL
MODEL      107
REMARK 921   NORMALIZED FREE ENERGY PREDICTED BY IDOCK:   35.52 KCAL/MOL
REMARK 922        TOTAL FREE ENERGY PREDICTED BY IDOCK:   47.36 KCAL/MOL
REMARK 923 INTER-LIGAND FREE ENERGY PREDICTED BY IDOCK:   35.63 KCAL/MOL
REMARK 924 INTRA-LIGAND FREE ENERGY PREDICTED BY IDOCK:   11.73 KCAL/MOL
REMARK 927      BINDING AFFINITY PREDICTED BY RF-SCORE:    0.00 PKD
ROOT
HETATM    1  C   UNL     1     -12.837  10.200  69.094  1.00  0.00     1.876 C  
HETATM    2  O   UNL     1     -11.871  12.721  65.610  1.00  0.00    -0.378 OA 
HETATM    3  C   UNL     1     -12.638  11.773  69.222  1.00  0.00     0.395 C  
HETATM    4  C   UNL     1     -11.882  12.550  68.075  1.00  0.00    -0.325 C  
HETATM    5  C   UNL     1     -12.479   9.937  65.324  1.00  0.00     9.953 C  
HETATM    6  C   UNL     1     -12.390  11.990  66.735  1.00  0.00     0.919 C  
HETATM    7  C   UNL     1     -12.175  14.085  68.128  1.00  0.00    -0.191 C  
HETATM    8  O   UNL     1     -12.802   9.730  67.721  1.00  0.00     5.510 OA 
HETATM    9  H   UNL     1     -12.185  12.376  64.782  1.00  0.00     0.000 HD 
HETATM   10  C   UNL     1     -12.098  10.484  66.710  1.00  0.00     3.003 C  
ENDROOT
BRANCH   1  11
HETATM   11  O   UNL     1     -12.276   9.342  70.258  1.00  0.00     0.004 OA 
BRANCH  11  12
HETATM   12  C   UNL     1     -12.286   7.863  70.099  1.00  0.00     0.636 C  
HETATM   13  C   UNL     1     -10.401   8.195  68.037  1.00  0.00    -0.211 C  
HETATM   14  C   UNL     1     -11.226   5.278  70.439  1.00  0.00     0.546 C  
HETATM   15  C   UNL     1     -11.872   7.615  68.610  1.00  0.00     1.758 C  
HETATM   16  O   UNL     1     -11.229   7.261  73.501  1.00  0.00    -0.191 OA 
HETATM   17  C   UNL     1     -11.735   6.550  71.182  1.00  0.00    -0.392 C  
HETATM   18  C   UNL     1     -12.606   6.321  68.141  1.00  0.00     6.803 C  
HETATM   19  C   UNL     1      -9.637   7.079  67.119  1.00  0.00    -0.149 C  
HETATM   20  O   UNL     1      -9.304   5.836  67.754  1.00  0.00    -0.106 OA 
HETATM   21  C   UNL     1     -10.623   6.738  65.956  1.00  0.00     1.007 C  
HETATM   22  C   UNL     1     -10.878   6.627  72.499  1.00  0.00    -0.238 C  
HETATM   23  C   UNL     1      -8.350   7.718  66.584  1.00  0.00    -0.126 C  
HETATM   24  C   UNL     1      -8.988   4.737  66.876  1.00  0.00    -0.111 C  
HETATM   25  C   UNL     1      -6.908   7.200  66.857  1.00  0.00    -0.072 C  
HETATM   26  H   UNL     1      -8.058   3.989  72.647  1.00  0.00     0.000 HD 
HETATM   27  O   UNL     1      -9.709   5.823  72.547  1.00  0.00    -0.158 OA 
HETATM   28  C   UNL     1      -6.191   7.106  68.284  1.00  0.00    -0.035 C  
HETATM   29  C   UNL     1      -6.106   8.245  65.982  1.00  0.00    -0.045 C  
HETATM   30  O   UNL     1      -7.476   4.251  71.943  1.00  0.00    -0.065 OA 
HETATM   31  C   UNL     1      -6.074   5.517  73.431  1.00  0.00    -0.051 C  
HETATM   32  O   UNL     1      -5.349   7.993  68.525  1.00  0.00    -0.030 OA 
HETATM   33  C   UNL     1      -6.162   5.877  69.322  1.00  0.00    -0.033 C  
HETATM   34  C   UNL     1      -6.871   4.581  69.045  1.00  0.00    -0.050 C  
HETATM   35  C   UNL     1      -8.370   6.451  72.784  1.00  0.00    -0.118 C  
HETATM   36  C   UNL     1      -6.000   6.071  70.942  1.00  0.00    -0.026 C  
HETATM   37  C   UNL     1      -7.040   5.601  72.198  1.00  0.00    -0.087 C  
HETATM   38  O   UNL     1      -5.128   7.159  71.278  1.00  0.00    -0.026 OA 
HETATM   39  H   UNL     1      -5.033   7.271  72.217  1.00  0.00     0.000 HD 
BRANCH  13  40
HETATM   40  O   UNL     1      -9.668   8.963  69.042  1.00  0.00    -0.165 OA 
BRANCH  40  41
HETATM   41  C   UNL     1      -8.564   9.928  69.180  1.00  0.00    -0.157 C  
HETATM   42  C   UNL     1      -6.857  11.160  70.757  1.00  0.00     1.293 C  
HETATM   43  C   UNL     1      -6.181  11.833  67.060  1.00  0.00    -0.152 C  
HETATM   44  O   UNL     1      -7.690   9.152  71.538  1.00  0.00    -0.325 OA 
HETATM   45  C   UNL     1      -6.095  11.586  69.521  1.00  0.00    -0.100 C  
HETATM   46  H   UNL     1      -7.027   9.066  72.214  1.00  0.00     0.000 HD 
HETATM   47  C   UNL     1      -7.041  11.549  68.278  1.00  0.00    -0.080 C  
HETATM   48  C   UNL     1      -7.439   9.783  70.325  1.00  0.00    -0.164 C  
HETATM   49  O   UNL     1      -7.796  10.318  68.023  1.00  0.00    -0.098 OA 
BRANCH  42  50
HETATM   50  N   UNL     1      -6.143  11.192  72.078  1.00  0.00     0.886 NA 
HETATM   51  C   UNL     1      -6.516  12.216  73.053  1.00  0.00     5.534 C  
HETATM   52  C   UNL     1      -6.012   9.896  72.742  1.00  0.00     0.684 C  
ENDBRANCH  42  50
ENDBRANCH  40  41
ENDBRANCH  13  40
BRANCH  35  53
HETATM   53  C   UNL     1      -8.474   7.760  72.086  1.00  0.00    -0.159 C  
HETATM   54  C   UNL     1      -9.853   8.204  72.549  1.00  0.00    -0.363 C  
ENDBRANCH  35  53
ENDBRANCH  11  12
ENDBRANCH   1  11
BRANCH   4  55
HETATM   55  O   UNL     1     -10.477  12.322  68.299  1.00  0.00    -0.212 OA 
HETATM   56  C   UNL     1      -9.668  13.419  68.706  1.00  0.00     0.010 C  
ENDBRANCH   4  55
TORSDOF 7
ENDMDL
MODEL      108
REMARK 921   NORMALIZED FREE ENERGY PREDICTED BY IDOCK:   37.07 KCAL/MOL
REMARK 922        TOTAL FREE ENERGY PREDICTED BY IDOCK:   49.55 KCAL/MOL
REMARK 923 INTER-LIGAND FREE ENERGY PREDICTED BY IDOCK:    2.93 KCAL/MOL
REMARK 924 INTRA-LIGAND FREE ENERGY PREDICTED BY IDOCK:   46.62 KCAL/MOL
REMARK 927      BINDING AFFINITY PREDICTED BY RF-SCORE:    0.00 PKD
ROOT
HETATM    1  C   UNL     1      -6.039   4.194  67.446  1.00  0.00    -0.028 C  
HETATM    2  O   UNL     1      -8.399   6.523  64.541  1.00  0.00    -0.298 OA 
HETATM    3  C   UNL     1      -6.974   3.494  66.366  1.00  0.00    -0.058 C  
HETATM    4  C   UNL     1      -8.105   4.340  65.662  1.00  0.00    -0.105 C  
HETATM    5  C   UNL     1      -6.527   7.782  66.307  1.00  0.00    -0.046 C  
HETATM    6  C   UNL     1      -7.498   5.711  65.316  1.00  0.00    -0.074 C  
HETATM    7  C   UNL     1      -8.601   3.657  64.345  1.00  0.00    -0.097 C  
HETATM    8  O   UNL     1      -5.951   5.633  67.277  1.00  0.00    -0.017 OA 
HETATM    9  H   UNL     1      -8.024   7.369  64.327  1.00  0.00     0.000 HD 
HETATM   10  C   UNL     1      -7.014   6.356  66.621  1.00  0.00    -0.067 C  
ENDROOT
BRANCH   1  11
HETATM   11  O   UNL     1      -6.010   3.539  68.852  1.00  0.00    -0.022 OA 
BRANCH  11  12
HETATM   12  C   UNL     1      -7.278   2.963  69.377  1.00  0.00    -0.044 C  
HETATM   13  C   UNL     1      -6.925   4.575  71.655  1.00  0.00    -0.039 C  
HETATM   14  C   UNL     1     -10.031   3.021  69.953  1.00  0.00     0.447 C  
HETATM   15  C   UNL     1      -7.158   3.074  70.933  1.00  0.00    -0.033 C  
HETATM   16  O   UNL     1      -9.233   4.120  66.567  1.00  0.00    -0.135 OA 
HETATM   17  C   UNL     1      -8.969   3.113  68.816  1.00  0.00    -0.188 C  
HETATM   18  C   UNL     1      -7.930   1.862  71.539  1.00  0.00    -0.040 C  
HETATM   19  C   UNL     1      -7.873   4.755  72.974  1.00  0.00    -0.097 C  
HETATM   20  O   UNL     1      -9.291   4.676  72.769  1.00  0.00    -0.127 OA 
HETATM   21  C   UNL     1      -7.495   3.581  73.934  1.00  0.00    -0.061 C  
HETATM   22  C   UNL     1      -9.592   4.089  67.751  1.00  0.00    -0.150 C  
HETATM   23  C   UNL     1      -7.542   6.113  73.605  1.00  0.00    -0.095 C  
HETATM   24  C   UNL     1     -10.095   4.456  73.945  1.00  0.00    -0.167 C  
HETATM   25  C   UNL     1      -8.550   7.282  73.803  1.00  0.00    -0.204 C  
HETATM   26  H   UNL     1     -12.893   5.725  68.917  1.00  0.00     0.000 HD 
HETATM   27  O   UNL     1     -10.698   4.873  68.173  1.00  0.00     0.128 OA 
HETATM   28  C   UNL     1      -9.315   8.078  72.647  1.00  0.00    -0.248 C  
HETATM   29  C   UNL     1      -7.594   8.303  74.540  1.00  0.00    -0.287 C  
HETATM   30  O   UNL     1     -12.620   6.275  69.643  1.00  0.00     1.363 OA 
HETATM   31  C   UNL     1     -12.408   8.213  68.236  1.00  0.00     5.174 C  
HETATM   32  O   UNL     1      -8.868   9.211  72.383  1.00  0.00    -0.229 OA 
HETATM   33  C   UNL     1     -10.753   7.774  71.989  1.00  0.00    -0.282 C  
HETATM   34  C   UNL     1     -11.596   6.607  72.421  1.00  0.00    -0.281 C  
HETATM   35  C   UNL     1     -10.638   6.368  68.091  1.00  0.00    -0.255 C  
HETATM   36  C   UNL     1     -11.146   8.189  70.453  1.00  0.00    -0.239 C  
HETATM   37  C   UNL     1     -11.633   7.208  69.157  1.00  0.00     0.370 C  
HETATM   38  O   UNL     1     -10.558   9.436  70.056  1.00  0.00    -0.208 OA 
HETATM   39  H   UNL     1     -10.786   9.677  69.165  1.00  0.00     0.000 HD 
BRANCH  13  40
HETATM   40  O   UNL     1      -6.792   5.655  70.679  1.00  0.00    -0.049 OA 
BRANCH  40  41
HETATM   41  C   UNL     1      -6.972   7.110  70.535  1.00  0.00    -0.058 C  
HETATM   42  C   UNL     1      -6.663   9.512  71.563  1.00  0.00     0.194 C  
HETATM   43  C   UNL     1      -7.874   9.614  67.942  1.00  0.00    -0.087 C  
HETATM   44  O   UNL     1      -5.246   7.875  72.369  1.00  0.00    -0.036 OA 
HETATM   45  C   UNL     1      -6.955  10.084  70.192  1.00  0.00    -0.148 C  
HETATM   46  H   UNL     1      -4.650   8.498  72.769  1.00  0.00     0.000 HD 
HETATM   47  C   UNL     1      -7.751   9.042  69.343  1.00  0.00    -0.083 C  
HETATM   48  C   UNL     1      -5.961   8.166  71.213  1.00  0.00    -0.034 C  
HETATM   49  O   UNL     1      -7.209   7.684  69.233  1.00  0.00    -0.077 OA 
BRANCH  42  50
HETATM   50  N   UNL     1      -5.960  10.385  72.562  1.00  0.00     0.329 NA 
HETATM   51  C   UNL     1      -5.238   9.750  73.663  1.00  0.00    -0.009 C  
HETATM   52  C   UNL     1      -5.148  11.456  71.985  1.00  0.00     0.156 C  
ENDBRANCH  42  50
ENDBRANCH  40  41
ENDBRANCH  13  40
BRANCH  35  53
HETATM   53  C   UNL     1      -9.214   6.674  68.391  1.00  0.00    -0.122 C  
HETATM   54  C   UNL     1      -9.108   6.113  69.801  1.00  0.00    -0.144 C  
ENDBRANCH  35  53
ENDBRANCH  11  12
ENDBRANCH   1  11
BRANCH   4  55
HETATM   55  O   UNL     1      -9.194   4.413  66.603  1.00  0.00    -0.121 OA 
HETATM   56  C   UNL     1     -10.525   4.343  66.107  1.00  0.00    -0.046 C  
ENDBRANCH   4  55
TORSDOF 7
ENDMDL
MODEL      109
REMARK 921   NORMALIZED FREE ENERGY PREDICTED BY IDOCK:   37.87 KCAL/MOL
REMARK 922        TOTAL FREE ENERGY PREDICTED BY IDOCK:   50.69 KCAL/MOL
REMARK 923 INTER-LIGAND FREE ENERGY PREDICTED BY IDOCK:   44.21 KCAL/MOL
REMARK 924 INTRA-LIGAND FREE ENERGY PREDICTED BY IDOCK:    6.47 KCAL/MOL
REMARK 927      BINDING AFFINITY PREDICTED BY RF-SCORE:    0.00 PKD
ROOT
HETATM    1  C   UNL     1     -12.725  17.060  66.941  1.00  0.00     5.434 C  
HETATM    2  O   UNL     1     -12.216  14.002  63.807  1.00  0.00    -0.775 OA 
HETATM    3  C   UNL     1     -11.782  17.294  65.682  1.00  0.00     2.118 C  
HETATM    4  C   UNL     1     -11.296  16.050  64.841  1.00  0.00    -0.229 C  
HETATM    5  C   UNL     1     -14.108  13.673  65.933  1.00  0.00     4.762 C  
HETATM    6  C   UNL     1     -12.504  15.111  64.679  1.00  0.00    -0.050 C  
HETATM    7  C   UNL     1     -10.788  16.473  63.424  1.00  0.00     5.116 C  
HETATM    8  O   UNL     1     -13.478  15.821  66.869  1.00  0.00     4.156 OA 
HETATM    9  H   UNL     1     -12.962  13.423  63.707  1.00  0.00     0.000 HD 
HETATM   10  C   UNL     1     -12.987  14.715  66.081  1.00  0.00     0.669 C  
ENDROOT
BRANCH   1  11
HETATM   11  O   UNL     1     -12.208  17.616  68.295  1.00  0.00     1.858 OA 
BRANCH  11  12
HETATM   12  C   UNL     1     -11.595  18.972  68.300  1.00  0.00     1.925 C  
HETATM   13  C   UNL     1      -9.640  17.947  70.044  1.00  0.00     1.425 C  
HETATM   14  C   UNL     1      -9.680  20.882  67.525  1.00  0.00    -0.343 C  
HETATM   15  C   UNL     1     -10.837  19.066  69.666  1.00  0.00     1.709 C  
HETATM   16  O   UNL     1     -11.068  18.998  64.726  1.00  0.00    -0.190 OA 
HETATM   17  C   UNL     1     -10.787  19.913  67.012  1.00  0.00    -0.370 C  
HETATM   18  C   UNL     1     -10.887  20.558  70.116  1.00  0.00     1.610 C  
HETATM   19  C   UNL     1      -8.331  18.673  70.702  1.00  0.00     3.884 C  
HETATM   20  O   UNL     1      -7.660  19.652  69.896  1.00  0.00     0.019 OA 
HETATM   21  C   UNL     1      -8.853  19.419  71.971  1.00  0.00     5.258 C  
HETATM   22  C   UNL     1     -10.305  19.457  65.586  1.00  0.00    -0.216 C  
HETATM   23  C   UNL     1      -7.329  17.575  71.079  1.00  0.00     4.858 C  
HETATM   24  C   UNL     1      -6.767  20.546  70.592  1.00  0.00     0.585 C  
HETATM   25  C   UNL     1      -5.883  17.447  70.517  1.00  0.00     0.078 C  
HETATM   26  H   UNL     1      -6.754  20.697  64.700  1.00  0.00     0.000 HD 
HETATM   27  O   UNL     1      -8.946  19.707  65.261  1.00  0.00     0.096 OA 
HETATM   28  C   UNL     1      -5.480  17.200  68.990  1.00  0.00    -0.150 C  
HETATM   29  C   UNL     1      -5.412  16.187  71.349  1.00  0.00     0.243 C  
HETATM   30  O   UNL     1      -6.201  20.236  65.321  1.00  0.00    -0.219 OA 
HETATM   31  C   UNL     1      -5.738  18.468  63.758  1.00  0.00     0.505 C  
HETATM   32  O   UNL     1      -5.126  16.039  68.704  1.00  0.00    -0.092 OA 
HETATM   33  C   UNL     1      -5.164  18.282  67.840  1.00  0.00    -0.157 C  
HETATM   34  C   UNL     1      -5.229  19.761  68.097  1.00  0.00    -0.185 C  
HETATM   35  C   UNL     1      -8.043  18.578  64.871  1.00  0.00     3.140 C  
HETATM   36  C   UNL     1      -5.411  17.997  66.244  1.00  0.00    -0.172 C  
HETATM   37  C   UNL     1      -6.398  18.820  65.137  1.00  0.00    -0.247 C  
HETATM   38  O   UNL     1      -5.128  16.637  65.881  1.00  0.00     0.122 OA 
HETATM   39  H   UNL     1      -5.271  16.472  64.957  1.00  0.00     0.000 HD 
BRANCH  13  40
HETATM   40  O   UNL     1      -9.484  16.920  69.014  1.00  0.00    -0.256 OA 
BRANCH  40  41
HETATM   41  C   UNL     1      -9.253  15.474  68.851  1.00  0.00    -0.218 C  
HETATM   42  C   UNL     1     -10.217  13.030  68.979  1.00  0.00     0.119 C  
HETATM   43  C   UNL     1      -6.722  13.147  67.444  1.00  0.00    -0.107 C  
HETATM   44  O   UNL     1     -11.770  14.717  68.700  1.00  0.00    -0.308 OA 
HETATM   45  C   UNL     1      -9.005  12.562  68.203  1.00  0.00    -0.199 C  
HETATM   46  H   UNL     1     -12.465  14.122  68.444  1.00  0.00     0.000 HD 
HETATM   47  C   UNL     1      -7.843  13.594  68.365  1.00  0.00    -0.140 C  
HETATM   48  C   UNL     1     -10.432  14.465  68.416  1.00  0.00    -0.246 C  
HETATM   49  O   UNL     1      -8.129  15.004  68.080  1.00  0.00    -0.124 OA 
BRANCH  42  50
HETATM   50  N   UNL     1     -11.428  12.141  69.008  1.00  0.00    -0.274 NA 
HETATM   51  C   UNL     1     -11.527  11.059  68.031  1.00  0.00    -0.290 C  
HETATM   52  C   UNL     1     -11.804  11.652  70.334  1.00  0.00    -0.293 C  
ENDBRANCH  42  50
ENDBRANCH  40  41
ENDBRANCH  13  40
BRANCH  35  53
HETATM   53  C   UNL     1      -8.523  17.446  65.707  1.00  0.00     0.219 C  
HETATM   54  C   UNL     1      -7.947  17.844  67.057  1.00  0.00    -0.234 C  
ENDBRANCH  35  53
ENDBRANCH  11  12
ENDBRANCH   1  11
BRANCH   4  55
HETATM   55  O   UNL     1     -10.209  15.467  65.585  1.00  0.00    -0.318 OA 
HETATM   56  C   UNL     1      -9.471  14.406  64.990  1.00  0.00     0.706 C  
ENDBRANCH   4  55
TORSDOF 7
ENDMDL
MODEL      110
REMARK 921   NORMALIZED FREE ENERGY PREDICTED BY IDOCK:   40.04 KCAL/MOL
REMARK 922        TOTAL FREE ENERGY PREDICTED BY IDOCK:   53.73 KCAL/MOL
REMARK 923 INTER-LIGAND FREE ENERGY PREDICTED BY IDOCK:   39.38 KCAL/MOL
REMARK 924 INTRA-LIGAND FREE ENERGY PREDICTED BY IDOCK:   14.35 KCAL/MOL
REMARK 927      BINDING AFFINITY PREDICTED BY RF-SCORE:    0.00 PKD
ROOT
HETATM    1  C   UNL     1     -11.693  12.176  67.510  1.00  0.00    -0.315 C  
HETATM    2  O   UNL     1      -9.405  11.785  63.763  1.00  0.00    -0.474 OA 
HETATM    3  C   UNL     1     -12.256  11.370  66.261  1.00  0.00     1.629 C  
HETATM    4  C   UNL     1     -11.626  11.618  64.835  1.00  0.00    -0.084 C  
HETATM    5  C   UNL     1      -8.276  13.019  66.088  1.00  0.00     1.097 C  
HETATM    6  C   UNL     1     -10.100  11.698  65.020  1.00  0.00    -0.263 C  
HETATM    7  C   UNL     1     -11.957  10.453  63.846  1.00  0.00     4.248 C  
HETATM    8  O   UNL     1     -10.328  12.634  67.326  1.00  0.00    -0.223 OA 
HETATM    9  H   UNL     1      -8.463  11.833  63.877  1.00  0.00     0.000 HD 
HETATM   10  C   UNL     1      -9.801  12.842  65.998  1.00  0.00    -0.255 C  
ENDROOT
BRANCH   1  11
HETATM   11  O   UNL     1     -12.728  13.015  68.306  1.00  0.00     0.534 OA 
BRANCH  11  12
HETATM   12  C   UNL     1     -12.491  13.212  69.762  1.00  0.00     0.021 C  
HETATM   13  C   UNL     1     -12.202  10.421  69.967  1.00  0.00    -0.189 C  
HETATM   14  C   UNL     1     -10.871  13.393  72.056  1.00  0.00     6.133 C  
HETATM   15  C   UNL     1     -12.930  11.865  70.428  1.00  0.00     0.264 C  
HETATM   16  O   UNL     1      -9.622  15.343  69.237  1.00  0.00    -0.235 OA 
HETATM   17  C   UNL     1     -11.153  14.000  70.648  1.00  0.00     0.535 C  
HETATM   18  C   UNL     1     -13.487  12.215  71.842  1.00  0.00    -0.318 C  
HETATM   19  C   UNL     1     -11.848   9.493  71.266  1.00  0.00    -0.373 C  
HETATM   20  O   UNL     1     -10.949  10.050  72.235  1.00  0.00     1.330 OA 
HETATM   21  C   UNL     1     -13.205   9.252  72.000  1.00  0.00    -0.519 C  
HETATM   22  C   UNL     1      -9.753  14.493  70.126  1.00  0.00     0.913 C  
HETATM   23  C   UNL     1     -11.258   8.174  70.748  1.00  0.00    -0.275 C  
HETATM   24  C   UNL     1     -10.935   9.415  73.530  1.00  0.00     5.750 C  
HETATM   25  C   UNL     1      -9.835   7.637  71.076  1.00  0.00    -0.181 C  
HETATM   26  H   UNL     1      -6.819  13.487  72.430  1.00  0.00     0.000 HD 
HETATM   27  O   UNL     1      -8.609  14.004  70.810  1.00  0.00     3.183 OA 
HETATM   28  C   UNL     1      -8.448   8.333  70.690  1.00  0.00    -0.130 C  
HETATM   29  C   UNL     1      -9.914   6.259  70.304  1.00  0.00    -0.210 C  
HETATM   30  O   UNL     1      -6.802  12.539  72.362  1.00  0.00     4.896 OA 
HETATM   31  C   UNL     1      -5.139  12.586  70.626  1.00  0.00    -0.123 C  
HETATM   32  O   UNL     1      -7.840   7.829  69.725  1.00  0.00    -0.101 OA 
HETATM   33  C   UNL     1      -7.572   9.381  71.541  1.00  0.00     0.339 C  
HETATM   34  C   UNL     1      -8.001   9.865  72.897  1.00  0.00     4.348 C  
HETATM   35  C   UNL     1      -7.548  13.255  70.065  1.00  0.00     1.609 C  
HETATM   36  C   UNL     1      -6.586  10.497  70.853  1.00  0.00     0.342 C  
HETATM   37  C   UNL     1      -6.616  12.189  70.976  1.00  0.00     2.135 C  
HETATM   38  O   UNL     1      -5.947  10.005  69.667  1.00  0.00    -0.040 OA 
HETATM   39  H   UNL     1      -5.376  10.652  69.269  1.00  0.00     0.000 HD 
BRANCH  13  40
HETATM   40  O   UNL     1     -11.230  10.599  68.890  1.00  0.00    -0.239 OA 
BRANCH  40  41
HETATM   41  C   UNL     1     -10.529   9.852  67.832  1.00  0.00    -0.236 C  
HETATM   42  C   UNL     1      -8.287   9.382  66.538  1.00  0.00    -0.119 C  
HETATM   43  C   UNL     1     -11.068   6.948  65.577  1.00  0.00     4.454 C  
HETATM   44  O   UNL     1      -8.066  10.263  68.662  1.00  0.00    -0.102 OA 
HETATM   45  C   UNL     1      -8.933   8.139  65.966  1.00  0.00    -0.213 C  
HETATM   46  H   UNL     1      -7.142  10.049  68.724  1.00  0.00     0.000 HD 
HETATM   47  C   UNL     1     -10.488   8.280  66.018  1.00  0.00     1.074 C  
HETATM   48  C   UNL     1      -8.962   9.487  67.937  1.00  0.00    -0.123 C  
HETATM   49  O   UNL     1     -11.104   8.641  67.299  1.00  0.00     0.031 OA 
BRANCH  42  50
HETATM   50  N   UNL     1      -6.788   9.477  66.518  1.00  0.00    -0.082 NA 
HETATM   51  C   UNL     1      -6.031   8.470  65.778  1.00  0.00    -0.048 C  
HETATM   52  C   UNL     1      -6.256  10.809  66.233  1.00  0.00    -0.130 C  
ENDBRANCH  42  50
ENDBRANCH  40  41
ENDBRANCH  13  40
BRANCH  35  53
HETATM   53  C   UNL     1      -8.313  12.498  69.038  1.00  0.00     0.408 C  
HETATM   54  C   UNL     1      -7.503  12.834  67.796  1.00  0.00    -0.135 C  
ENDBRANCH  35  53
ENDBRANCH  11  12
ENDBRANCH   1  11
BRANCH   4  55
HETATM   55  O   UNL     1     -12.212  12.841  64.349  1.00  0.00    -0.386 OA 
HETATM   56  C   UNL     1     -11.508  13.585  63.361  1.00  0.00     0.232 C  
ENDBRANCH   4  55
TORSDOF 7
ENDMDL
MODEL      111
REMARK 921   NORMALIZED FREE ENERGY PREDICTED BY IDOCK:   40.25 KCAL/MOL
REMARK 922        TOTAL FREE ENERGY PREDICTED BY IDOCK:   54.04 KCAL/MOL
REMARK 923 INTER-LIGAND FREE ENERGY PREDICTED BY IDOCK:   45.23 KCAL/MOL
REMARK 924 INTRA-LIGAND FREE ENERGY PREDICTED BY IDOCK:    8.81 KCAL/MOL
REMARK 927      BINDING AFFINITY PREDICTED BY RF-SCORE:    0.00 PKD
ROOT
HETATM    1  C   UNL     1     -11.165   7.862  67.791  1.00  0.00     0.553 C  
HETATM    2  O   UNL     1      -7.893   5.099  68.836  1.00  0.00    -0.080 OA 
HETATM    3  C   UNL     1     -11.158   6.346  67.312  1.00  0.00    -0.416 C  
HETATM    4  C   UNL     1      -9.802   5.538  67.329  1.00  0.00    -0.150 C  
HETATM    5  C   UNL     1      -8.022   7.749  69.916  1.00  0.00    -0.110 C  
HETATM    6  C   UNL     1      -9.082   5.886  68.644  1.00  0.00    -0.115 C  
HETATM    7  C   UNL     1     -10.050   3.995  67.279  1.00  0.00     0.132 C  
HETATM    8  O   UNL     1     -10.076   8.179  68.697  1.00  0.00    -0.186 OA 
HETATM    9  H   UNL     1      -7.449   5.314  69.648  1.00  0.00     0.000 HD 
HETATM   10  C   UNL     1      -8.858   7.404  68.672  1.00  0.00    -0.126 C  
ENDROOT
BRANCH   1  11
HETATM   11  O   UNL     1     -11.697   8.901  66.768  1.00  0.00     2.248 OA 
BRANCH  11  12
HETATM   12  C   UNL     1     -12.630   9.949  67.264  1.00  0.00     7.692 C  
HETATM   13  C   UNL     1     -10.508  10.921  68.835  1.00  0.00    -0.203 C  
HETATM   14  C   UNL     1     -13.684  12.557  67.350  1.00  0.00     9.262 C  
HETATM   15  C   UNL     1     -12.080  10.344  68.674  1.00  0.00     0.416 C  
HETATM   16  O   UNL     1     -13.255  11.274  63.961  1.00  0.00     0.476 OA 
HETATM   17  C   UNL     1     -13.415  11.324  66.434  1.00  0.00    10.515 C  
HETATM   18  C   UNL     1     -13.308  10.742  69.549  1.00  0.00     1.560 C  
HETATM   19  C   UNL     1     -10.447  12.211  69.838  1.00  0.00     1.160 C  
HETATM   20  O   UNL     1     -11.211  13.364  69.459  1.00  0.00    -0.214 OA 
HETATM   21  C   UNL     1     -11.028  11.717  71.201  1.00  0.00     3.054 C  
HETATM   22  C   UNL     1     -13.141  11.927  65.006  1.00  0.00     1.755 C  
HETATM   23  C   UNL     1      -8.975  12.620  69.980  1.00  0.00     3.590 C  
HETATM   24  C   UNL     1     -11.462  14.332  70.497  1.00  0.00    -0.093 C  
HETATM   25  C   UNL     1      -8.386  14.006  69.587  1.00  0.00     0.853 C  
HETATM   26  H   UNL     1     -12.946  15.785  64.983  1.00  0.00     0.000 HD 
HETATM   27  O   UNL     1     -12.866  13.318  64.942  1.00  0.00    -0.695 OA 
HETATM   28  C   UNL     1      -8.353  14.638  68.118  1.00  0.00    -0.144 C  
HETATM   29  C   UNL     1      -6.891  13.771  70.044  1.00  0.00     0.225 C  
HETATM   30  O   UNL     1     -12.167  15.968  65.495  1.00  0.00     1.007 OA 
HETATM   31  C   UNL     1     -10.780  16.102  63.535  1.00  0.00     4.203 C  
HETATM   32  O   UNL     1      -7.251  14.597  67.536  1.00  0.00    -0.178 OA 
HETATM   33  C   UNL     1      -9.436  15.590  67.402  1.00  0.00    -0.213 C  
HETATM   34  C   UNL     1     -10.702  16.015  68.089  1.00  0.00    -0.311 C  
HETATM   35  C   UNL     1     -11.586  13.807  64.339  1.00  0.00    -0.395 C  
HETATM   36  C   UNL     1      -9.656  15.639  65.778  1.00  0.00    -0.326 C  
HETATM   37  C   UNL     1     -11.048  15.313  64.864  1.00  0.00    -0.424 C  
HETATM   38  O   UNL     1      -8.427  15.479  65.054  1.00  0.00     1.846 OA 
HETATM   39  H   UNL     1      -8.555  15.508  64.113  1.00  0.00     0.000 HD 
BRANCH  13  40
HETATM   40  O   UNL     1      -9.779  10.926  67.568  1.00  0.00    -0.165 OA 
BRANCH  40  41
HETATM   41  C   UNL     1      -8.628  10.299  66.895  1.00  0.00    -0.126 C  
HETATM   42  C   UNL     1      -7.332   9.834  64.653  1.00  0.00    -0.134 C  
HETATM   43  C   UNL     1      -5.398   8.664  67.732  1.00  0.00    -0.035 C  
HETATM   44  O   UNL     1      -8.706  11.691  64.662  1.00  0.00    -0.240 OA 
HETATM   45  C   UNL     1      -6.151   9.382  65.486  1.00  0.00    -0.063 C  
HETATM   46  H   UNL     1      -8.320  12.060  63.875  1.00  0.00     0.000 HD 
HETATM   47  C   UNL     1      -6.639   8.956  66.907  1.00  0.00    -0.061 C  
HETATM   48  C   UNL     1      -7.973  10.924  65.561  1.00  0.00     0.002 C  
HETATM   49  O   UNL     1      -7.473   9.898  67.660  1.00  0.00    -0.089 OA 
BRANCH  42  50
HETATM   50  N   UNL     1      -7.085  10.224  63.224  1.00  0.00    -0.127 NA 
HETATM   51  C   UNL     1      -8.010  11.156  62.582  1.00  0.00     0.094 C  
HETATM   52  C   UNL     1      -5.706  10.596  62.913  1.00  0.00    -0.137 C  
ENDBRANCH  42  50
ENDBRANCH  40  41
ENDBRANCH  13  40
BRANCH  35  53
HETATM   53  C   UNL     1     -10.600  12.762  64.723  1.00  0.00    -0.348 C  
HETATM   54  C   UNL     1      -9.814  12.642  63.426  1.00  0.00     0.593 C  
ENDBRANCH  35  53
ENDBRANCH  11  12
ENDBRANCH   1  11
BRANCH   4  55
HETATM   55  O   UNL     1      -9.080   5.946  66.151  1.00  0.00    -0.148 OA 
HETATM   56  C   UNL     1      -9.111   7.318  65.777  1.00  0.00     0.050 C  
ENDBRANCH   4  55
TORSDOF 7
ENDMDL
MODEL      112
REMARK 921   NORMALIZED FREE ENERGY PREDICTED BY IDOCK:   40.60 KCAL/MOL
REMARK 922        TOTAL FREE ENERGY PREDICTED BY IDOCK:   54.53 KCAL/MOL
REMARK 923 INTER-LIGAND FREE ENERGY PREDICTED BY IDOCK:    3.74 KCAL/MOL
REMARK 924 INTRA-LIGAND FREE ENERGY PREDICTED BY IDOCK:   50.79 KCAL/MOL
REMARK 927      BINDING AFFINITY PREDICTED BY RF-SCORE:    0.00 PKD
ROOT
HETATM    1  C   UNL     1     -10.552  10.301  66.454  1.00  0.00    -0.107 C  
HETATM    2  O   UNL     1     -10.248  13.698  63.662  1.00  0.00    -0.308 OA 
HETATM    3  C   UNL     1      -9.636  11.564  66.762  1.00  0.00    -0.203 C  
HETATM    4  C   UNL     1      -9.221  12.521  65.578  1.00  0.00     0.276 C  
HETATM    5  C   UNL     1     -12.093  11.552  63.219  1.00  0.00    -0.075 C  
HETATM    6  C   UNL     1     -10.469  12.727  64.701  1.00  0.00    -0.350 C  
HETATM    7  C   UNL     1      -8.736  13.912  66.104  1.00  0.00     0.532 C  
HETATM    8  O   UNL     1     -11.354  10.456  65.255  1.00  0.00     0.722 OA 
HETATM    9  H   UNL     1     -11.018  13.825  63.121  1.00  0.00     0.000 HD 
HETATM   10  C   UNL     1     -10.929  11.350  64.204  1.00  0.00    -0.341 C  
ENDROOT
BRANCH   1  11
HETATM   11  O   UNL     1      -9.978   8.921  66.872  1.00  0.00    -0.201 OA 
BRANCH  11  12
HETATM   12  C   UNL     1     -10.943   7.841  67.212  1.00  0.00     0.005 C  
HETATM   13  C   UNL     1      -8.828   6.016  66.878  1.00  0.00    -0.116 C  
HETATM   14  C   UNL     1     -12.105   5.941  68.932  1.00  0.00     2.968 C  
HETATM   15  C   UNL     1     -10.377   6.560  66.513  1.00  0.00    -0.132 C  
HETATM   16  O   UNL     1     -11.703   9.229  70.460  1.00  0.00    -0.257 OA 
HETATM   17  C   UNL     1     -11.806   7.457  68.731  1.00  0.00     1.363 C  
HETATM   18  C   UNL     1     -11.600   5.679  66.113  1.00  0.00     1.319 C  
HETATM   19  C   UNL     1      -8.798   4.393  67.074  1.00  0.00    -0.114 C  
HETATM   20  O   UNL     1      -9.620   3.849  68.117  1.00  0.00    -0.167 OA 
HETATM   21  C   UNL     1      -9.325   3.793  65.731  1.00  0.00    -0.164 C  
HETATM   22  C   UNL     1     -11.592   8.029  70.181  1.00  0.00     0.086 C  
HETATM   23  C   UNL     1      -7.342   3.982  67.329  1.00  0.00    -0.068 C  
HETATM   24  C   UNL     1      -9.887   2.435  68.046  1.00  0.00     0.475 C  
HETATM   25  C   UNL     1      -6.823   3.265  68.609  1.00  0.00    -0.045 C  
HETATM   26  H   UNL     1     -11.563   5.300  72.916  1.00  0.00     0.000 HD 
HETATM   27  O   UNL     1     -11.379   7.081  71.216  1.00  0.00    -0.255 OA 
HETATM   28  C   UNL     1      -6.852   3.847  70.098  1.00  0.00    -0.034 C  
HETATM   29  C   UNL     1      -5.308   3.089  68.190  1.00  0.00    -0.013 C  
HETATM   30  O   UNL     1     -10.780   4.799  72.717  1.00  0.00    -0.206 OA 
HETATM   31  C   UNL     1      -9.448   6.062  74.268  1.00  0.00    -0.167 C  
HETATM   32  O   UNL     1      -5.763   4.271  70.534  1.00  0.00    -0.012 OA 
HETATM   33  C   UNL     1      -7.991   3.689  71.224  1.00  0.00    -0.060 C  
HETATM   34  C   UNL     1      -9.258   2.922  70.975  1.00  0.00    -0.200 C  
HETATM   35  C   UNL     1     -10.135   7.140  72.049  1.00  0.00    -0.177 C  
HETATM   36  C   UNL     1      -8.252   4.799  72.402  1.00  0.00    -0.115 C  
HETATM   37  C   UNL     1      -9.650   5.693  72.758  1.00  0.00    -0.152 C  
HETATM   38  O   UNL     1      -7.035   5.406  72.862  1.00  0.00    -0.078 OA 
HETATM   39  H   UNL     1      -7.186   6.048  73.545  1.00  0.00     0.000 HD 
BRANCH  13  40
HETATM   40  O   UNL     1      -8.130   6.893  67.817  1.00  0.00    -0.112 OA 
BRANCH  40  41
HETATM   41  C   UNL     1      -7.494   6.890  69.145  1.00  0.00    -0.095 C  
HETATM   42  C   UNL     1      -6.052   8.171  70.935  1.00  0.00    -0.033 C  
HETATM   43  C   UNL     1      -7.471   4.889  72.276  1.00  0.00    -0.089 C  
HETATM   44  O   UNL     1      -7.167   9.489  69.400  1.00  0.00    -0.058 OA 
HETATM   45  C   UNL     1      -6.476   7.132  71.950  1.00  0.00    -0.044 C  
HETATM   46  H   UNL     1      -7.050  10.287  69.904  1.00  0.00     0.000 HD 
HETATM   47  C   UNL     1      -6.916   5.825  71.217  1.00  0.00    -0.067 C  
HETATM   48  C   UNL     1      -7.295   8.242  70.000  1.00  0.00    -0.063 C  
HETATM   49  O   UNL     1      -7.910   5.937  70.145  1.00  0.00    -0.096 OA 
BRANCH  42  50
HETATM   50  N   UNL     1      -5.527   9.484  71.439  1.00  0.00    -0.065 NA 
HETATM   51  C   UNL     1      -5.898  10.707  70.730  1.00  0.00    -0.084 C  
HETATM   52  C   UNL     1      -5.651   9.688  72.882  1.00  0.00     0.172 C  
ENDBRANCH  42  50
ENDBRANCH  40  41
ENDBRANCH  13  40
BRANCH  35  53
HETATM   53  C   UNL     1      -9.097   7.599  71.088  1.00  0.00    -0.152 C  
HETATM   54  C   UNL     1      -9.060   9.084  71.420  1.00  0.00    -0.271 C  
ENDBRANCH  35  53
ENDBRANCH  11  12
ENDBRANCH   1  11
BRANCH   4  55
HETATM   55  O   UNL     1      -8.138  11.863  64.894  1.00  0.00     1.243 OA 
HETATM   56  C   UNL     1      -7.583  10.688  65.473  1.00  0.00    -0.072 C  
ENDBRANCH   4  55
TORSDOF 7
ENDMDL
MODEL      113
REMARK 921   NORMALIZED FREE ENERGY PREDICTED BY IDOCK:   40.74 KCAL/MOL
REMARK 922        TOTAL FREE ENERGY PREDICTED BY IDOCK:   54.72 KCAL/MOL
REMARK 923 INTER-LIGAND FREE ENERGY PREDICTED BY IDOCK:   49.41 KCAL/MOL
REMARK 924 INTRA-LIGAND FREE ENERGY PREDICTED BY IDOCK:    5.30 KCAL/MOL
REMARK 927      BINDING AFFINITY PREDICTED BY RF-SCORE:    0.00 PKD
ROOT
HETATM    1  C   UNL     1     -10.975  14.316  64.517  1.00  0.00    -0.298 C  
HETATM    2  O   UNL     1     -13.367  10.649  65.030  1.00  0.00     6.019 OA 
HETATM    3  C   UNL     1     -11.287  13.338  63.302  1.00  0.00     0.230 C  
HETATM    4  C   UNL     1     -11.752  11.860  63.603  1.00  0.00    -0.474 C  
HETATM    5  C   UNL     1     -13.027  12.530  67.163  1.00  0.00     2.999 C  
HETATM    6  C   UNL     1     -12.766  11.928  64.759  1.00  0.00     0.460 C  
HETATM    7  C   UNL     1     -12.442  11.208  62.360  1.00  0.00     2.468 C  
HETATM    8  O   UNL     1     -11.662  13.945  65.740  1.00  0.00    -0.336 OA 
HETATM    9  H   UNL     1     -13.993  10.692  65.743  1.00  0.00     0.000 HD 
HETATM   10  C   UNL     1     -12.068  12.577  65.962  1.00  0.00    -0.321 C  
ENDROOT
BRANCH   1  11
HETATM   11  O   UNL     1      -9.555  14.942  64.543  1.00  0.00     0.464 OA 
BRANCH  11  12
HETATM   12  C   UNL     1      -9.443  16.398  64.831  1.00  0.00     1.906 C  
HETATM   13  C   UNL     1     -11.329  16.011  66.882  1.00  0.00     0.191 C  
HETATM   14  C   UNL     1      -8.533  18.620  66.298  1.00  0.00    -0.241 C  
HETATM   15  C   UNL     1     -10.812  16.786  65.482  1.00  0.00    -0.135 C  
HETATM   16  O   UNL     1      -5.899  16.223  65.509  1.00  0.00     2.402 OA 
HETATM   17  C   UNL     1      -8.090  17.379  65.465  1.00  0.00     0.900 C  
HETATM   18  C   UNL     1     -11.111  18.261  65.074  1.00  0.00     1.368 C  
HETATM   19  C   UNL     1     -11.946  17.076  67.959  1.00  0.00     1.291 C  
HETATM   20  O   UNL     1     -11.065  18.107  68.429  1.00  0.00     0.090 OA 
HETATM   21  C   UNL     1     -13.122  17.793  67.222  1.00  0.00     7.860 C  
HETATM   22  C   UNL     1      -6.728  16.920  66.106  1.00  0.00     0.155 C  
HETATM   23  C   UNL     1     -12.455  16.276  69.165  1.00  0.00     0.911 C  
HETATM   24  C   UNL     1     -11.692  19.241  69.061  1.00  0.00     4.473 C  
HETATM   25  C   UNL     1     -11.946  16.434  70.627  1.00  0.00     0.220 C  
HETATM   26  H   UNL     1      -5.817  18.859  69.322  1.00  0.00     0.000 HD 
HETATM   27  O   UNL     1      -6.416  17.446  67.386  1.00  0.00    -0.137 OA 
HETATM   28  C   UNL     1     -10.461  16.151  71.149  1.00  0.00     1.022 C  
HETATM   29  C   UNL     1     -12.910  15.397  71.332  1.00  0.00    -0.508 C  
HETATM   30  O   UNL     1      -6.494  18.596  69.935  1.00  0.00    -0.176 OA 
HETATM   31  C   UNL     1      -5.126  16.849  70.860  1.00  0.00    -0.209 C  
HETATM   32  O   UNL     1     -10.301  15.082  71.769  1.00  0.00     0.747 OA 
HETATM   33  C   UNL     1      -9.219  17.168  71.265  1.00  0.00     7.108 C  
HETATM   34  C   UNL     1      -9.327  18.609  70.855  1.00  0.00     4.170 C  
HETATM   35  C   UNL     1      -6.163  16.525  68.540  1.00  0.00    -0.130 C  
HETATM   36  C   UNL     1      -7.654  16.691  71.167  1.00  0.00     5.351 C  
HETATM   37  C   UNL     1      -6.445  17.162  70.072  1.00  0.00     0.190 C  
HETATM   38  O   UNL     1      -7.434  15.406  71.767  1.00  0.00     2.698 OA 
HETATM   39  H   UNL     1      -6.527  15.130  71.710  1.00  0.00     0.000 HD 
BRANCH  13  40
HETATM   40  O   UNL     1     -10.410  14.960  67.316  1.00  0.00    -0.248 OA 
BRANCH  40  41
HETATM   41  C   UNL     1     -10.393  13.570  67.803  1.00  0.00    -0.241 C  
HETATM   42  C   UNL     1      -9.364  11.155  67.631  1.00  0.00    -0.165 C  
HETATM   43  C   UNL     1     -11.731  11.529  70.605  1.00  0.00    -0.133 C  
HETATM   44  O   UNL     1      -8.036  12.879  66.856  1.00  0.00    -0.374 OA 
HETATM   45  C   UNL     1     -10.021  10.832  68.956  1.00  0.00    -0.214 C  
HETATM   46  H   UNL     1      -7.247  12.350  66.842  1.00  0.00     0.000 HD 
HETATM   47  C   UNL     1     -11.220  11.803  69.202  1.00  0.00    -0.264 C  
HETATM   48  C   UNL     1      -9.054  12.673  67.781  1.00  0.00    -0.192 C  
HETATM   49  O   UNL     1     -10.975  13.244  69.082  1.00  0.00    -0.236 OA 
BRANCH  42  50
HETATM   50  N   UNL     1      -8.226  10.288  67.173  1.00  0.00    -0.121 NA 
HETATM   51  C   UNL     1      -7.334   9.713  68.178  1.00  0.00    -0.081 C  
HETATM   52  C   UNL     1      -8.581   9.274  66.181  1.00  0.00    -0.134 C  
ENDBRANCH  42  50
ENDBRANCH  40  41
ENDBRANCH  13  40
BRANCH  35  53
HETATM   53  C   UNL     1      -7.093  15.393  68.289  1.00  0.00    -0.117 C  
HETATM   54  C   UNL     1      -6.246  14.231  68.786  1.00  0.00    -0.085 C  
ENDBRANCH  35  53
ENDBRANCH  11  12
ENDBRANCH   1  11
BRANCH   4  55
HETATM   55  O   UNL     1     -10.556  11.124  63.929  1.00  0.00    -0.354 OA 
HETATM   56  C   UNL     1      -9.529  11.032  62.950  1.00  0.00    -0.356 C  
ENDBRANCH   4  55
TORSDOF 7
ENDMDL
MODEL      114
REMARK 921   NORMALIZED FREE ENERGY PREDICTED BY IDOCK:   41.29 KCAL/MOL
REMARK 922        TOTAL FREE ENERGY PREDICTED BY IDOCK:   55.51 KCAL/MOL
REMARK 923 INTER-LIGAND FREE ENERGY PREDICTED BY IDOCK:   20.14 KCAL/MOL
REMARK 924 INTRA-LIGAND FREE ENERGY PREDICTED BY IDOCK:   35.37 KCAL/MOL
REMARK 927      BINDING AFFINITY PREDICTED BY RF-SCORE:    0.00 PKD
ROOT
HETATM    1  C   UNL     1      -6.469   6.374  69.749  1.00  0.00    -0.047 C  
HETATM    2  O   UNL     1      -8.911   3.440  67.544  1.00  0.00    -0.108 OA 
HETATM    3  C   UNL     1      -5.819   5.133  68.997  1.00  0.00    -0.020 C  
HETATM    4  C   UNL     1      -6.729   3.904  68.609  1.00  0.00    -0.046 C  
HETATM    5  C   UNL     1     -10.066   5.805  68.676  1.00  0.00    -0.227 C  
HETATM    6  C   UNL     1      -8.051   4.471  68.062  1.00  0.00    -0.091 C  
HETATM    7  C   UNL     1      -6.062   3.018  67.505  1.00  0.00    -0.028 C  
HETATM    8  O   UNL     1      -7.897   6.499  69.516  1.00  0.00    -0.101 OA 
HETATM    9  H   UNL     1      -9.727   3.790  67.207  1.00  0.00     0.000 HD 
HETATM   10  C   UNL     1      -8.681   5.340  69.159  1.00  0.00    -0.100 C  
ENDROOT
BRANCH   1  11
HETATM   11  O   UNL     1      -5.835   6.757  71.112  1.00  0.00    -0.027 OA 
BRANCH  11  12
HETATM   12  C   UNL     1      -6.432   7.896  71.861  1.00  0.00    -0.046 C  
HETATM   13  C   UNL     1      -6.030   9.461  69.557  1.00  0.00    -0.033 C  
HETATM   14  C   UNL     1      -8.511   9.675  72.517  1.00  0.00     2.964 C  
HETATM   15  C   UNL     1      -5.820   9.177  71.202  1.00  0.00    -0.056 C  
HETATM   16  O   UNL     1      -9.563   6.184  72.421  1.00  0.00    -0.152 OA 
HETATM   17  C   UNL     1      -8.090   8.175  72.469  1.00  0.00    -0.204 C  
HETATM   18  C   UNL     1      -5.700  10.256  72.321  1.00  0.00     0.502 C  
HETATM   19  C   UNL     1      -6.412  11.023  69.267  1.00  0.00    -0.079 C  
HETATM   20  O   UNL     1      -7.616  11.519  69.869  1.00  0.00     0.402 OA 
HETATM   21  C   UNL     1      -5.237  11.866  69.857  1.00  0.00    -0.080 C  
HETATM   22  C   UNL     1      -9.418   7.386  72.169  1.00  0.00    -0.139 C  
HETATM   23  C   UNL     1      -6.512  11.203  67.747  1.00  0.00    -0.063 C  
HETATM   24  C   UNL     1      -7.753  12.953  69.932  1.00  0.00     1.703 C  
HETATM   25  C   UNL     1      -7.784  11.664  66.978  1.00  0.00    -0.159 C  
HETATM   26  H   UNL     1     -12.429   9.686  71.413  1.00  0.00     0.000 HD 
HETATM   27  O   UNL     1     -10.519   8.146  71.697  1.00  0.00    -0.209 OA 
HETATM   28  C   UNL     1      -9.182  10.890  66.913  1.00  0.00    -0.161 C  
HETATM   29  C   UNL     1      -7.184  11.698  65.515  1.00  0.00     1.193 C  
HETATM   30  O   UNL     1     -12.185  10.103  70.595  1.00  0.00    -0.285 OA 
HETATM   31  C   UNL     1     -13.376   8.476  69.285  1.00  0.00     6.416 C  
HETATM   32  O   UNL     1      -9.410  10.273  65.854  1.00  0.00    -0.164 OA 
HETATM   33  C   UNL     1     -10.466  11.037  67.873  1.00  0.00    -0.223 C  
HETATM   34  C   UNL     1     -10.487  11.990  69.035  1.00  0.00    -0.087 C  
HETATM   35  C   UNL     1     -11.159   7.813  70.384  1.00  0.00    -0.251 C  
HETATM   36  C   UNL     1     -11.527   9.819  68.150  1.00  0.00     0.339 C  
HETATM   37  C   UNL     1     -11.963   9.074  69.611  1.00  0.00     0.853 C  
HETATM   38  O   UNL     1     -11.738   9.003  66.989  1.00  0.00     1.232 OA 
HETATM   39  H   UNL     1     -12.354   8.297  67.149  1.00  0.00     0.000 HD 
BRANCH  13  40
HETATM   40  O   UNL     1      -6.751   8.379  68.887  1.00  0.00    -0.051 OA 
BRANCH  40  41
HETATM   41  C   UNL     1      -7.087   7.873  67.545  1.00  0.00    -0.083 C  
HETATM   42  C   UNL     1      -8.943   7.095  65.851  1.00  0.00    -0.065 C  
HETATM   43  C   UNL     1      -5.497   7.362  64.226  1.00  0.00    -0.033 C  
HETATM   44  O   UNL     1      -9.644   8.495  67.549  1.00  0.00    -0.145 OA 
HETATM   45  C   UNL     1      -7.911   7.196  64.748  1.00  0.00    -0.126 C  
HETATM   46  H   UNL     1     -10.471   8.699  67.126  1.00  0.00     0.000 HD 
HETATM   47  C   UNL     1      -6.476   7.100  65.357  1.00  0.00    -0.047 C  
HETATM   48  C   UNL     1      -8.488   8.218  66.828  1.00  0.00    -0.122 C  
HETATM   49  O   UNL     1      -6.137   7.996  66.467  1.00  0.00    -0.046 OA 
BRANCH  42  50
HETATM   50  N   UNL     1     -10.395   7.098  65.467  1.00  0.00     1.963 NA 
HETATM   51  C   UNL     1     -11.328   6.287  66.248  1.00  0.00     1.038 C  
HETATM   52  C   UNL     1     -10.968   8.421  65.223  1.00  0.00     5.891 C  
ENDBRANCH  42  50
ENDBRANCH  40  41
ENDBRANCH  13  40
BRANCH  35  53
HETATM   53  C   UNL     1     -10.016   7.360  69.547  1.00  0.00    -0.179 C  
HETATM   54  C   UNL     1      -9.905   5.913  70.003  1.00  0.00    -0.225 C  
ENDBRANCH  35  53
ENDBRANCH  11  12
ENDBRANCH   1  11
BRANCH   4  55
HETATM   55  O   UNL     1      -6.888   3.129  69.813  1.00  0.00    -0.033 OA 
HETATM   56  C   UNL     1      -5.795   2.336  70.259  1.00  0.00    -0.018 C  
ENDBRANCH   4  55
TORSDOF 7
ENDMDL
MODEL      115
REMARK 921   NORMALIZED FREE ENERGY PREDICTED BY IDOCK:   42.77 KCAL/MOL
REMARK 922        TOTAL FREE ENERGY PREDICTED BY IDOCK:   57.58 KCAL/MOL
REMARK 923 INTER-LIGAND FREE ENERGY PREDICTED BY IDOCK:   22.15 KCAL/MOL
REMARK 924 INTRA-LIGAND FREE ENERGY PREDICTED BY IDOCK:   35.44 KCAL/MOL
REMARK 927      BINDING AFFINITY PREDICTED BY RF-SCORE:    0.00 PKD
ROOT
HETATM    1  C   UNL     1      -8.751   9.629  70.405  1.00  0.00    -0.166 C  
HETATM    2  O   UNL     1      -8.177  11.658  66.534  1.00  0.00    -0.238 OA 
HETATM    3  C   UNL     1      -9.964   9.918  69.418  1.00  0.00    -0.227 C  
HETATM    4  C   UNL     1      -9.794  11.004  68.285  1.00  0.00    -0.178 C  
HETATM    5  C   UNL     1      -5.955  10.916  68.183  1.00  0.00    -0.049 C  
HETATM    6  C   UNL     1      -8.394  10.810  67.676  1.00  0.00    -0.119 C  
HETATM    7  C   UNL     1     -10.865  10.835  67.158  1.00  0.00    -0.335 C  
HETATM    8  O   UNL     1      -7.460   9.975  69.840  1.00  0.00    -0.133 OA 
HETATM    9  H   UNL     1      -7.313  11.538  66.158  1.00  0.00     0.000 HD 
HETATM   10  C   UNL     1      -7.363  10.974  68.801  1.00  0.00    -0.111 C  
ENDROOT
BRANCH   1  11
HETATM   11  O   UNL     1      -9.045   9.802  71.919  1.00  0.00     0.716 OA 
BRANCH  11  12
HETATM   12  C   UNL     1      -9.661   8.656  72.642  1.00  0.00    -0.126 C  
HETATM   13  C   UNL     1     -11.127   8.125  70.301  1.00  0.00    -0.221 C  
HETATM   14  C   UNL     1      -9.961   5.928  73.263  1.00  0.00    -0.190 C  
HETATM   15  C   UNL     1     -11.048   8.441  71.950  1.00  0.00    -0.378 C  
HETATM   16  O   UNL     1      -6.487   7.042  73.253  1.00  0.00    -0.065 OA 
HETATM   17  C   UNL     1      -8.963   7.126  73.250  1.00  0.00    -0.174 C  
HETATM   18  C   UNL     1     -12.028   7.917  73.044  1.00  0.00     0.117 C  
HETATM   19  C   UNL     1     -12.191   6.928  69.974  1.00  0.00     0.166 C  
HETATM   20  O   UNL     1     -11.929   5.648  70.569  1.00  0.00     0.687 OA 
HETATM   21  C   UNL     1     -13.563   7.412  70.541  1.00  0.00     0.838 C  
HETATM   22  C   UNL     1      -7.554   6.483  72.973  1.00  0.00    -0.093 C  
HETATM   23  C   UNL     1     -12.250   6.760  68.451  1.00  0.00     2.858 C  
HETATM   24  C   UNL     1     -13.034   4.722  70.598  1.00  0.00    10.952 C  
HETATM   25  C   UNL     1     -11.891   5.459  67.676  1.00  0.00     3.824 C  
HETATM   26  H   UNL     1      -7.724   2.707  72.172  1.00  0.00     0.000 HD 
HETATM   27  O   UNL     1      -7.546   5.150  72.486  1.00  0.00    -0.093 OA 
HETATM   28  C   UNL     1     -10.460   4.747  67.634  1.00  0.00     0.125 C  
HETATM   29  C   UNL     1     -12.228   5.950  66.210  1.00  0.00     3.722 C  
HETATM   30  O   UNL     1      -8.189   2.679  71.344  1.00  0.00    -0.060 OA 
HETATM   31  C   UNL     1      -6.146   2.635  70.077  1.00  0.00    -0.024 C  
HETATM   32  O   UNL     1      -9.799   4.920  66.590  1.00  0.00    -0.162 OA 
HETATM   33  C   UNL     1      -9.874   3.596  68.594  1.00  0.00     0.085 C  
HETATM   34  C   UNL     1     -10.671   3.025  69.733  1.00  0.00     3.386 C  
HETATM   35  C   UNL     1      -6.880   4.826  71.184  1.00  0.00    -0.039 C  
HETATM   36  C   UNL     1      -8.275   3.409  68.904  1.00  0.00    -0.060 C  
HETATM   37  C   UNL     1      -7.446   3.457  70.384  1.00  0.00    -0.041 C  
HETATM   38  O   UNL     1      -7.458   3.710  67.763  1.00  0.00    -0.065 OA 
HETATM   39  H   UNL     1      -6.531   3.602  67.943  1.00  0.00     0.000 HD 
BRANCH  13  40
HETATM   40  O   UNL     1      -9.813   8.151  69.659  1.00  0.00    -0.179 OA 
BRANCH  40  41
HETATM   41  C   UNL     1      -9.173   8.339  68.346  1.00  0.00    -0.135 C  
HETATM   42  C   UNL     1      -7.400   7.514  66.586  1.00  0.00    -0.091 C  
HETATM   43  C   UNL     1      -9.625  10.302  65.224  1.00  0.00    -0.324 C  
HETATM   44  O   UNL     1      -8.150   5.928  68.089  1.00  0.00    -0.107 OA 
HETATM   45  C   UNL     1      -8.068   8.409  65.565  1.00  0.00    -0.129 C  
HETATM   46  H   UNL     1      -7.810   5.197  67.585  1.00  0.00     0.000 HD 
HETATM   47  C   UNL     1      -8.861   9.542  66.292  1.00  0.00    -0.149 C  
HETATM   48  C   UNL     1      -8.598   7.100  67.491  1.00  0.00    -0.122 C  
HETATM   49  O   UNL     1      -9.810   9.154  67.340  1.00  0.00    -0.163 OA 
BRANCH  42  50
HETATM   50  N   UNL     1      -6.528   6.397  66.089  1.00  0.00    -0.042 NA 
HETATM   51  C   UNL     1      -7.100   5.417  65.169  1.00  0.00    -0.065 C  
HETATM   52  C   UNL     1      -5.204   6.806  65.622  1.00  0.00    -0.022 C  
ENDBRANCH  42  50
ENDBRANCH  40  41
ENDBRANCH  13  40
BRANCH  35  53
HETATM   53  C   UNL     1      -7.137   6.033  70.354  1.00  0.00    -0.070 C  
HETATM   54  C   UNL     1      -5.755   6.246  69.754  1.00  0.00    -0.014 C  
ENDBRANCH  35  53
ENDBRANCH  11  12
ENDBRANCH   1  11
BRANCH   4  55
HETATM   55  O   UNL     1      -9.971  12.281  68.927  1.00  0.00    -0.093 OA 
HETATM   56  C   UNL     1     -11.295  12.741  69.170  1.00  0.00    -0.281 C  
ENDBRANCH   4  55
TORSDOF 7
ENDMDL
MODEL      116
REMARK 921   NORMALIZED FREE ENERGY PREDICTED BY IDOCK:   43.12 KCAL/MOL
REMARK 922        TOTAL FREE ENERGY PREDICTED BY IDOCK:   58.08 KCAL/MOL
REMARK 923 INTER-LIGAND FREE ENERGY PREDICTED BY IDOCK:   31.50 KCAL/MOL
REMARK 924 INTRA-LIGAND FREE ENERGY PREDICTED BY IDOCK:   26.58 KCAL/MOL
REMARK 927      BINDING AFFINITY PREDICTED BY RF-SCORE:    0.00 PKD
ROOT
HETATM    1  C   UNL     1     -11.906  11.739  68.834  1.00  0.00    -0.320 C  
HETATM    2  O   UNL     1     -10.666  15.659  67.245  1.00  0.00    -0.299 OA 
HETATM    3  C   UNL     1     -12.837  12.586  67.861  1.00  0.00     2.381 C  
HETATM    4  C   UNL     1     -12.558  14.128  67.676  1.00  0.00     0.454 C  
HETATM    5  C   UNL     1      -8.882  14.032  68.786  1.00  0.00    -0.031 C  
HETATM    6  C   UNL     1     -11.034  14.304  67.557  1.00  0.00    -0.289 C  
HETATM    7  C   UNL     1     -13.236  14.687  66.383  1.00  0.00     1.762 C  
HETATM    8  O   UNL     1     -10.591  12.325  69.019  1.00  0.00    -0.175 OA 
HETATM    9  H   UNL     1      -9.725  15.768  67.171  1.00  0.00     0.000 HD 
HETATM   10  C   UNL     1     -10.392  13.743  68.833  1.00  0.00    -0.136 C  
ENDROOT
BRANCH   1  11
HETATM   11  O   UNL     1     -12.626  10.984  69.982  1.00  0.00    -0.270 OA 
BRANCH  11  12
HETATM   12  C   UNL     1     -11.785  10.386  71.055  1.00  0.00    -0.337 C  
HETATM   13  C   UNL     1     -12.193   7.894  69.816  1.00  0.00     1.253 C  
HETATM   14  C   UNL     1      -9.401   9.307  72.089  1.00  0.00     0.695 C  
HETATM   15  C   UNL     1     -12.264   8.900  71.161  1.00  0.00    -0.303 C  
HETATM   16  O   UNL     1      -8.908  12.415  70.244  1.00  0.00     3.607 OA 
HETATM   17  C   UNL     1     -10.048  10.566  71.437  1.00  0.00     3.135 C  
HETATM   18  C   UNL     1     -12.095   8.471  72.651  1.00  0.00    -0.305 C  
HETATM   19  C   UNL     1     -11.612   6.416  70.207  1.00  0.00    -0.383 C  
HETATM   20  O   UNL     1     -10.288   6.365  70.757  1.00  0.00    -0.193 OA 
HETATM   21  C   UNL     1     -12.575   5.857  71.302  1.00  0.00     1.152 C  
HETATM   22  C   UNL     1      -8.896  11.229  70.594  1.00  0.00     4.624 C  
HETATM   23  C   UNL     1     -11.652   5.550  68.941  1.00  0.00     1.822 C  
HETATM   24  C   UNL     1      -9.929   5.148  71.441  1.00  0.00    -0.189 C  
HETATM   25  C   UNL     1     -10.416   4.890  68.265  1.00  0.00     0.060 C  
HETATM   26  H   UNL     1      -5.671   9.104  70.472  1.00  0.00     0.000 HD 
HETATM   27  O   UNL     1      -7.750  10.430  70.341  1.00  0.00    -0.125 OA 
HETATM   28  C   UNL     1      -9.168   5.655  67.623  1.00  0.00    -0.106 C  
HETATM   29  C   UNL     1     -11.160   4.121  67.100  1.00  0.00     3.114 C  
HETATM   30  O   UNL     1      -5.936   8.332  69.986  1.00  0.00    -0.025 OA 
HETATM   31  C   UNL     1      -5.156   9.243  67.902  1.00  0.00    -0.034 C  
HETATM   32  O   UNL     1      -9.153   5.717  66.377  1.00  0.00    -0.138 OA 
HETATM   33  C   UNL     1      -7.780   6.085  68.315  1.00  0.00    -0.102 C  
HETATM   34  C   UNL     1      -7.487   5.798  69.761  1.00  0.00    -0.075 C  
HETATM   35  C   UNL     1      -7.315  10.158  68.934  1.00  0.00    -0.083 C  
HETATM   36  C   UNL     1      -6.892   7.374  67.827  1.00  0.00    -0.074 C  
HETATM   37  C   UNL     1      -6.418   8.754  68.695  1.00  0.00    -0.054 C  
HETATM   38  O   UNL     1      -6.935   7.561  66.405  1.00  0.00    -0.066 OA 
HETATM   39  H   UNL     1      -6.420   8.308  66.123  1.00  0.00     0.000 HD 
BRANCH  13  40
HETATM   40  O   UNL     1     -11.722   8.587  68.618  1.00  0.00     1.136 OA 
BRANCH  40  41
HETATM   41  C   UNL     1     -11.239   8.332  67.250  1.00  0.00     0.788 C  
HETATM   42  C   UNL     1     -10.095   9.266  65.073  1.00  0.00     0.830 C  
HETATM   43  C   UNL     1     -10.581   5.480  64.960  1.00  0.00     1.450 C  
HETATM   44  O   UNL     1      -9.653  10.420  67.025  1.00  0.00    -0.161 OA 
HETATM   45  C   UNL     1      -9.903   7.836  64.617  1.00  0.00     3.140 C  
HETATM   46  H   UNL     1      -8.916  10.893  66.654  1.00  0.00     0.000 HD 
HETATM   47  C   UNL     1     -10.929   6.908  65.343  1.00  0.00     4.746 C  
HETATM   48  C   UNL     1      -9.990   9.133  66.621  1.00  0.00    -0.273 C  
HETATM   49  O   UNL     1     -11.008   6.979  66.805  1.00  0.00    -0.317 OA 
BRANCH  42  50
HETATM   50  N   UNL     1      -9.247  10.333  64.441  1.00  0.00    -0.228 NA 
HETATM   51  C   UNL     1      -8.700  10.096  63.107  1.00  0.00    -0.211 C  
HETATM   52  C   UNL     1      -9.795  11.687  64.522  1.00  0.00    -0.224 C  
ENDBRANCH  42  50
ENDBRANCH  40  41
ENDBRANCH  13  40
BRANCH  35  53
HETATM   53  C   UNL     1      -8.597  10.066  68.187  1.00  0.00    -0.118 C  
HETATM   54  C   UNL     1      -8.368  11.130  67.125  1.00  0.00    -0.136 C  
ENDBRANCH  35  53
ENDBRANCH  11  12
ENDBRANCH   1  11
BRANCH   4  55
HETATM   55  O   UNL     1     -13.124  14.777  68.832  1.00  0.00     0.907 OA 
HETATM   56  C   UNL     1     -12.472  15.930  69.350  1.00  0.00     0.227 C  
ENDBRANCH   4  55
TORSDOF 7
ENDMDL
MODEL      117
REMARK 921   NORMALIZED FREE ENERGY PREDICTED BY IDOCK:   43.22 KCAL/MOL
REMARK 922        TOTAL FREE ENERGY PREDICTED BY IDOCK:   58.22 KCAL/MOL
REMARK 923 INTER-LIGAND FREE ENERGY PREDICTED BY IDOCK:   47.03 KCAL/MOL
REMARK 924 INTRA-LIGAND FREE ENERGY PREDICTED BY IDOCK:   11.19 KCAL/MOL
REMARK 927      BINDING AFFINITY PREDICTED BY RF-SCORE:    0.00 PKD
ROOT
HETATM    1  C   UNL     1     -10.042  15.145  70.140  1.00  0.00    -0.018 C  
HETATM    2  O   UNL     1      -9.742  17.840  66.664  1.00  0.00    -0.287 OA 
HETATM    3  C   UNL     1     -10.277  16.713  70.267  1.00  0.00     0.582 C  
HETATM    4  C   UNL     1      -9.742  17.667  69.130  1.00  0.00    -0.098 C  
HETATM    5  C   UNL     1      -9.569  14.995  66.376  1.00  0.00    -0.314 C  
HETATM    6  C   UNL     1     -10.060  16.994  67.783  1.00  0.00    -0.302 C  
HETATM    7  C   UNL     1     -10.441  19.066  69.175  1.00  0.00     0.244 C  
HETATM    8  O   UNL     1      -9.860  14.705  68.768  1.00  0.00    -0.221 OA 
HETATM    9  H   UNL     1      -9.938  17.424  65.833  1.00  0.00     0.000 HD 
HETATM   10  C   UNL     1      -9.371  15.623  67.767  1.00  0.00    -0.202 C  
ENDROOT
BRANCH   1  11
HETATM   11  O   UNL     1      -9.286  14.469  71.314  1.00  0.00     2.885 OA 
BRANCH  11  12
HETATM   12  C   UNL     1      -7.824  14.237  71.159  1.00  0.00     3.582 C  
HETATM   13  C   UNL     1      -8.338  11.503  71.576  1.00  0.00    11.017 C  
HETATM   14  C   UNL     1      -5.531  13.430  69.741  1.00  0.00    -0.097 C  
HETATM   15  C   UNL     1      -7.536  12.928  71.966  1.00  0.00     9.642 C  
HETATM   16  O   UNL     1      -7.729  15.621  67.823  1.00  0.00    -0.128 OA 
HETATM   17  C   UNL     1      -6.740  14.415  69.748  1.00  0.00    -0.124 C  
HETATM   18  C   UNL     1      -6.090  13.052  72.538  1.00  0.00     2.071 C  
HETATM   19  C   UNL     1      -7.317  10.227  71.569  1.00  0.00     2.248 C  
HETATM   20  O   UNL     1      -6.220  10.280  70.645  1.00  0.00    -0.108 OA 
HETATM   21  C   UNL     1      -6.694  10.172  73.000  1.00  0.00     2.555 C  
HETATM   22  C   UNL     1      -7.092  14.643  68.232  1.00  0.00    -0.115 C  
HETATM   23  C   UNL     1      -8.145   8.969  71.277  1.00  0.00    -0.146 C  
HETATM   24  C   UNL     1      -5.132   9.367  70.894  1.00  0.00    -0.030 C  
HETATM   25  C   UNL     1      -7.940   8.021  70.060  1.00  0.00    -0.106 C  
HETATM   26  H   UNL     1      -5.070  12.386  65.834  1.00  0.00     0.000 HD 
HETATM   27  O   UNL     1      -6.536  13.725  67.302  1.00  0.00    -0.281 OA 
HETATM   28  C   UNL     1      -8.108   8.410  68.518  1.00  0.00    -0.123 C  
HETATM   29  C   UNL     1      -9.042   6.941  70.407  1.00  0.00    -0.156 C  
HETATM   30  O   UNL     1      -5.379  11.512  66.043  1.00  0.00    -0.288 OA 
HETATM   31  C   UNL     1      -7.013  11.553  64.280  1.00  0.00     2.386 C  
HETATM   32  O   UNL     1      -9.158   8.018  67.972  1.00  0.00    -0.131 OA 
HETATM   33  C   UNL     1      -7.000   8.957  67.487  1.00  0.00    -0.075 C  
HETATM   34  C   UNL     1      -5.573   9.189  67.897  1.00  0.00    -0.034 C  
HETATM   35  C   UNL     1      -7.429  12.934  66.397  1.00  0.00     1.366 C  
HETATM   36  C   UNL     1      -7.358   9.916  66.206  1.00  0.00    -0.102 C  
HETATM   37  C   UNL     1      -6.805  11.476  65.832  1.00  0.00     0.521 C  
HETATM   38  O   UNL     1      -8.619   9.581  65.608  1.00  0.00    -0.127 OA 
HETATM   39  H   UNL     1      -8.827  10.136  64.866  1.00  0.00     0.000 HD 
BRANCH  13  40
HETATM   40  O   UNL     1      -9.315  11.683  70.503  1.00  0.00     3.327 OA 
BRANCH  40  41
HETATM   41  C   UNL     1     -10.576  11.125  69.984  1.00  0.00     0.352 C  
HETATM   42  C   UNL     1     -12.500   9.348  70.226  1.00  0.00     0.377 C  
HETATM   43  C   UNL     1     -13.230  11.933  67.512  1.00  0.00     5.898 C  
HETATM   44  O   UNL     1     -11.333   9.846  72.156  1.00  0.00     0.352 OA 
HETATM   45  C   UNL     1     -13.308  10.157  69.234  1.00  0.00     2.794 C  
HETATM   46  H   UNL     1     -11.980   9.447  72.727  1.00  0.00     0.000 HD 
HETATM   47  C   UNL     1     -12.352  11.041  68.371  1.00  0.00     0.587 C  
HETATM   48  C   UNL     1     -11.674  10.450  70.952  1.00  0.00    -0.360 C  
HETATM   49  O   UNL     1     -11.385  11.894  69.070  1.00  0.00    -0.237 OA 
BRANCH  42  50
HETATM   50  N   UNL     1     -13.229   8.376  71.110  1.00  0.00    -0.091 NA 
HETATM   51  C   UNL     1     -12.572   7.118  71.461  1.00  0.00    -0.390 C  
HETATM   52  C   UNL     1     -13.846   8.964  72.298  1.00  0.00    -0.474 C  
ENDBRANCH  42  50
ENDBRANCH  40  41
ENDBRANCH  13  40
BRANCH  35  53
HETATM   53  C   UNL     1      -8.629  12.674  67.235  1.00  0.00    -0.196 C  
HETATM   54  C   UNL     1      -9.688  12.530  66.152  1.00  0.00    -0.259 C  
ENDBRANCH  35  53
ENDBRANCH  11  12
ENDBRANCH   1  11
BRANCH   4  55
HETATM   55  O   UNL     1      -8.332  17.828  69.375  1.00  0.00     0.177 OA 
HETATM   56  C   UNL     1      -7.580  18.654  68.494  1.00  0.00    -0.311 C  
ENDBRANCH   4  55
TORSDOF 7
ENDMDL
MODEL      118
REMARK 921   NORMALIZED FREE ENERGY PREDICTED BY IDOCK:   44.05 KCAL/MOL
REMARK 922        TOTAL FREE ENERGY PREDICTED BY IDOCK:   59.38 KCAL/MOL
REMARK 923 INTER-LIGAND FREE ENERGY PREDICTED BY IDOCK:   25.17 KCAL/MOL
REMARK 924 INTRA-LIGAND FREE ENERGY PREDICTED BY IDOCK:   34.21 KCAL/MOL
REMARK 927      BINDING AFFINITY PREDICTED BY RF-SCORE:    0.00 PKD
ROOT
HETATM    1  C   UNL     1     -10.388  12.937  70.775  1.00  0.00     4.896 C  
HETATM    2  O   UNL     1      -9.379  16.732  68.773  1.00  0.00    -0.243 OA 
HETATM    3  C   UNL     1      -8.887  13.445  70.642  1.00  0.00     6.151 C  
HETATM    4  C   UNL     1      -8.539  14.547  69.568  1.00  0.00     0.312 C  
HETATM    5  C   UNL     1     -12.097  15.954  69.231  1.00  0.00    -0.166 C  
HETATM    6  C   UNL     1      -9.660  15.601  69.617  1.00  0.00    -0.260 C  
HETATM    7  C   UNL     1      -7.174  15.244  69.877  1.00  0.00    -0.080 C  
HETATM    8  O   UNL     1     -11.362  13.903  70.300  1.00  0.00    -0.117 OA 
HETATM    9  H   UNL     1     -10.070  17.383  68.804  1.00  0.00     0.000 HD 
HETATM   10  C   UNL     1     -10.988  14.892  69.317  1.00  0.00    -0.270 C  
ENDROOT
BRANCH   1  11
HETATM   11  O   UNL     1     -10.611  11.411  70.606  1.00  0.00     1.296 OA 
BRANCH  11  12
HETATM   12  C   UNL     1     -11.522  10.958  69.520  1.00  0.00    -0.301 C  
HETATM   13  C   UNL     1      -9.292  10.988  67.805  1.00  0.00    -0.158 C  
HETATM   14  C   UNL     1     -12.630   9.035  67.790  1.00  0.00     8.426 C  
HETATM   15  C   UNL     1     -10.856  11.465  68.198  1.00  0.00    -0.259 C  
HETATM   16  O   UNL     1     -12.480   7.945  71.268  1.00  0.00    -0.308 OA 
HETATM   17  C   UNL     1     -12.415   9.427  69.283  1.00  0.00     1.976 C  
HETATM   18  C   UNL     1     -12.009  11.780  67.196  1.00  0.00     0.026 C  
HETATM   19  C   UNL     1      -9.172  10.579  66.227  1.00  0.00    -0.168 C  
HETATM   20  O   UNL     1      -9.997   9.497  65.773  1.00  0.00    -0.300 OA 
HETATM   21  C   UNL     1      -9.613  11.845  65.425  1.00  0.00    -0.183 C  
HETATM   22  C   UNL     1     -12.288   8.060  70.052  1.00  0.00     1.049 C  
HETATM   23  C   UNL     1      -7.705  10.231  65.946  1.00  0.00    -0.137 C  
HETATM   24  C   UNL     1     -10.177   9.387  64.347  1.00  0.00     1.911 C  
HETATM   25  C   UNL     1      -7.190   8.853  65.437  1.00  0.00    -0.084 C  
HETATM   26  H   UNL     1     -12.195   4.988  67.709  1.00  0.00     0.000 HD 
HETATM   27  O   UNL     1     -12.056   6.903  69.262  1.00  0.00     0.354 OA 
HETATM   28  C   UNL     1      -7.307   7.456  66.206  1.00  0.00    -0.082 C  
HETATM   29  C   UNL     1      -5.653   9.203  65.305  1.00  0.00    -0.049 C  
HETATM   30  O   UNL     1     -11.377   5.097  67.238  1.00  0.00     0.923 OA 
HETATM   31  C   UNL     1     -10.179   3.690  68.775  1.00  0.00     0.828 C  
HETATM   32  O   UNL     1      -6.262   7.049  66.751  1.00  0.00    -0.039 OA 
HETATM   33  C   UNL     1      -8.475   6.351  66.123  1.00  0.00    -0.140 C  
HETATM   34  C   UNL     1      -9.684   6.532  65.250  1.00  0.00     1.138 C  
HETATM   35  C   UNL     1     -10.849   6.051  69.509  1.00  0.00    -0.369 C  
HETATM   36  C   UNL     1      -8.844   5.338  67.359  1.00  0.00    -0.105 C  
HETATM   37  C   UNL     1     -10.304   5.143  68.200  1.00  0.00    -0.071 C  
HETATM   38  O   UNL     1      -7.683   4.929  68.096  1.00  0.00    -0.081 OA 
HETATM   39  H   UNL     1      -7.896   4.341  68.811  1.00  0.00     0.000 HD 
BRANCH  13  40
HETATM   40  O   UNL     1      -8.681  10.155  68.840  1.00  0.00    -0.131 OA 
BRANCH  40  41
HETATM   41  C   UNL     1      -9.020   9.368  70.039  1.00  0.00    -0.212 C  
HETATM   42  C   UNL     1      -8.382   7.418  71.685  1.00  0.00    -0.104 C  
HETATM   43  C   UNL     1     -11.382   9.440  72.906  1.00  0.00     2.114 C  
HETATM   44  O   UNL     1      -6.635   8.352  70.496  1.00  0.00    -0.035 OA 
HETATM   45  C   UNL     1      -9.419   7.955  72.647  1.00  0.00    -0.284 C  
HETATM   46  H   UNL     1      -5.967   7.967  71.051  1.00  0.00     0.000 HD 
HETATM   47  C   UNL     1     -10.469   8.811  71.869  1.00  0.00    -0.353 C  
HETATM   48  C   UNL     1      -7.887   8.715  70.980  1.00  0.00    -0.111 C  
HETATM   49  O   UNL     1      -9.974   9.877  70.992  1.00  0.00    -0.061 OA 
BRANCH  42  50
HETATM   50  N   UNL     1      -7.315   6.509  72.225  1.00  0.00    -0.089 NA 
HETATM   51  C   UNL     1      -7.157   6.396  73.673  1.00  0.00    -0.082 C  
HETATM   52  C   UNL     1      -7.264   5.182  71.613  1.00  0.00    -0.075 C  
ENDBRANCH  42  50
ENDBRANCH  40  41
ENDBRANCH  13  40
BRANCH  35  53
HETATM   53  C   UNL     1      -9.806   7.034  69.904  1.00  0.00    -0.173 C  
HETATM   54  C   UNL     1     -10.616   7.931  70.827  1.00  0.00    -0.222 C  
ENDBRANCH  35  53
ENDBRANCH  11  12
ENDBRANCH   1  11
BRANCH   4  55
HETATM   55  O   UNL     1      -8.451  13.859  68.305  1.00  0.00    -0.157 OA 
HETATM   56  C   UNL     1      -7.173  13.721  67.695  1.00  0.00    -0.173 C  
ENDBRANCH   4  55
TORSDOF 7
ENDMDL
MODEL      119
REMARK 921   NORMALIZED FREE ENERGY PREDICTED BY IDOCK:   45.95 KCAL/MOL
REMARK 922        TOTAL FREE ENERGY PREDICTED BY IDOCK:   62.07 KCAL/MOL
REMARK 923 INTER-LIGAND FREE ENERGY PREDICTED BY IDOCK:   34.05 KCAL/MOL
REMARK 924 INTRA-LIGAND FREE ENERGY PREDICTED BY IDOCK:   28.02 KCAL/MOL
REMARK 927      BINDING AFFINITY PREDICTED BY RF-SCORE:    0.00 PKD
ROOT
HETATM    1  C   UNL     1      -7.654  11.169  69.486  1.00  0.00     0.067 C  
HETATM    2  O   UNL     1      -8.994   6.981  69.800  1.00  0.00    -0.141 OA 
HETATM    3  C   UNL     1      -8.321  10.596  70.811  1.00  0.00     2.572 C  
HETATM    4  C   UNL     1      -9.163   9.263  70.735  1.00  0.00    -0.253 C  
HETATM    5  C   UNL     1      -7.566   7.932  67.506  1.00  0.00    -0.105 C  
HETATM    6  C   UNL     1      -8.389   8.287  69.832  1.00  0.00    -0.125 C  
HETATM    7  C   UNL     1      -9.344   8.614  72.146  1.00  0.00    -0.343 C  
HETATM    8  O   UNL     1      -7.421  10.151  68.477  1.00  0.00    -0.082 OA 
HETATM    9  H   UNL     1      -8.517   6.379  69.242  1.00  0.00     0.000 HD 
HETATM   10  C   UNL     1      -8.219   8.948  68.458  1.00  0.00    -0.116 C  
ENDROOT
BRANCH   1  11
HETATM   11  O   UNL     1      -8.043  12.620  69.097  1.00  0.00     0.255 OA 
BRANCH  11  12
HETATM   12  C   UNL     1      -7.767  13.064  67.703  1.00  0.00    -0.161 C  
HETATM   13  C   UNL     1     -10.480  13.785  67.528  1.00  0.00    -0.245 C  
HETATM   14  C   UNL     1      -7.285  14.997  65.717  1.00  0.00     5.476 C  
HETATM   15  C   UNL     1      -9.140  12.942  66.963  1.00  0.00    -0.228 C  
HETATM   16  O   UNL     1      -5.268  15.466  68.720  1.00  0.00    -0.094 OA 
HETATM   17  C   UNL     1      -6.769  14.401  67.061  1.00  0.00     0.796 C  
HETATM   18  C   UNL     1      -8.828  12.582  65.477  1.00  0.00     0.731 C  
HETATM   19  C   UNL     1     -11.307  14.481  66.301  1.00  0.00    -0.352 C  
HETATM   20  O   UNL     1     -10.597  15.438  65.501  1.00  0.00    -0.329 OA 
HETATM   21  C   UNL     1     -11.714  13.313  65.346  1.00  0.00    -0.370 C  
HETATM   22  C   UNL     1      -6.100  15.609  67.816  1.00  0.00    -0.157 C  
HETATM   23  C   UNL     1     -12.544  15.162  66.900  1.00  0.00     1.135 C  
HETATM   24  C   UNL     1     -11.182  15.758  64.222  1.00  0.00    -0.105 C  
HETATM   25  C   UNL     1     -12.864  16.682  66.812  1.00  0.00     5.229 C  
HETATM   26  H   UNL     1      -6.604  18.999  66.032  1.00  0.00     0.000 HD 
HETATM   27  O   UNL     1      -6.399  16.909  67.331  1.00  0.00    -0.130 OA 
HETATM   28  C   UNL     1     -11.990  17.870  67.432  1.00  0.00     2.615 C  
HETATM   29  C   UNL     1     -14.263  16.678  67.549  1.00  0.00    10.129 C  
HETATM   30  O   UNL     1      -7.542  19.141  66.094  1.00  0.00    -0.267 OA 
HETATM   31  C   UNL     1      -7.315  20.469  68.085  1.00  0.00    -0.138 C  
HETATM   32  O   UNL     1     -12.433  18.377  68.481  1.00  0.00     4.220 OA 
HETATM   33  C   UNL     1     -10.802  18.714  66.749  1.00  0.00    -0.205 C  
HETATM   34  C   UNL     1     -10.341  18.449  65.344  1.00  0.00     0.389 C  
HETATM   35  C   UNL     1      -7.013  17.930  68.238  1.00  0.00    -0.222 C  
HETATM   36  C   UNL     1      -9.580  19.399  67.601  1.00  0.00    -0.324 C  
HETATM   37  C   UNL     1      -7.906  19.144  67.489  1.00  0.00    -0.245 C  
HETATM   38  O   UNL     1     -10.014  19.898  68.875  1.00  0.00    -0.409 OA 
HETATM   39  H   UNL     1      -9.306  20.295  69.368  1.00  0.00     0.000 HD 
BRANCH  13  40
HETATM   40  O   UNL     1     -10.201  14.530  68.755  1.00  0.00    -0.235 OA 
BRANCH  40  41
HETATM   41  C   UNL     1     -10.544  15.783  69.449  1.00  0.00    -0.255 C  
HETATM   42  C   UNL     1     -12.017  17.007  71.252  1.00  0.00     1.779 C  
HETATM   43  C   UNL     1      -9.264  19.248  69.846  1.00  0.00     0.726 C  
HETATM   44  O   UNL     1     -11.764  14.727  71.529  1.00  0.00    -0.373 OA 
HETATM   45  C   UNL     1     -11.063  18.179  71.167  1.00  0.00     3.126 C  
HETATM   46  H   UNL     1     -12.079  14.736  72.425  1.00  0.00     0.000 HD 
HETATM   47  C   UNL     1     -10.306  18.145  69.801  1.00  0.00     0.735 C  
HETATM   48  C   UNL     1     -11.077  15.798  70.970  1.00  0.00    -0.280 C  
HETATM   49  O   UNL     1      -9.632  16.900  69.417  1.00  0.00    -0.131 OA 
BRANCH  42  50
HETATM   50  N   UNL     1     -12.895  16.893  72.466  1.00  0.00     1.353 NA 
HETATM   51  C   UNL     1     -13.915  15.846  72.497  1.00  0.00    -0.349 C  
HETATM   52  C   UNL     1     -12.191  16.942  73.746  1.00  0.00    -0.077 C  
ENDBRANCH  42  50
ENDBRANCH  40  41
ENDBRANCH  13  40
BRANCH  35  53
HETATM   53  C   UNL     1      -7.903  17.123  69.115  1.00  0.00    -0.063 C  
HETATM   54  C   UNL     1      -8.604  16.266  68.072  1.00  0.00    -0.176 C  
ENDBRANCH  35  53
ENDBRANCH  11  12
ENDBRANCH   1  11
BRANCH   4  55
HETATM   55  O   UNL     1     -10.452   9.635  70.210  1.00  0.00    -0.242 OA 
HETATM   56  C   UNL     1     -11.364   8.603  69.856  1.00  0.00     0.049 C  
ENDBRANCH   4  55
TORSDOF 7
ENDMDL
MODEL      120
REMARK 921   NORMALIZED FREE ENERGY PREDICTED BY IDOCK:   47.20 KCAL/MOL
REMARK 922        TOTAL FREE ENERGY PREDICTED BY IDOCK:   63.83 KCAL/MOL
REMARK 923 INTER-LIGAND FREE ENERGY PREDICTED BY IDOCK:   27.90 KCAL/MOL
REMARK 924 INTRA-LIGAND FREE ENERGY PREDICTED BY IDOCK:   35.94 KCAL/MOL
REMARK 927      BINDING AFFINITY PREDICTED BY RF-SCORE:    0.00 PKD
ROOT
HETATM    1  C   UNL     1      -9.793   7.581  67.155  1.00  0.00    -0.201 C  
HETATM    2  O   UNL     1      -8.340   4.047  64.959  1.00  0.00    -0.103 OA 
HETATM    3  C   UNL     1      -9.698   7.557  65.567  1.00  0.00     0.903 C  
HETATM    4  C   UNL     1      -8.787   6.476  64.866  1.00  0.00     0.342 C  
HETATM    5  C   UNL     1      -8.746   3.989  67.794  1.00  0.00    -0.119 C  
HETATM    6  C   UNL     1      -9.016   5.143  65.600  1.00  0.00    -0.154 C  
HETATM    7  C   UNL     1      -9.161   6.296  63.359  1.00  0.00     1.413 C  
HETATM    8  O   UNL     1      -9.486   6.301  67.765  1.00  0.00    -0.120 OA 
HETATM    9  H   UNL     1      -8.481   3.224  65.411  1.00  0.00     0.000 HD 
HETATM   10  C   UNL     1      -8.649   5.347  67.076  1.00  0.00    -0.109 C  
ENDROOT
BRANCH   1  11
HETATM   11  O   UNL     1      -9.409   8.919  67.842  1.00  0.00    -0.140 OA 
BRANCH  11  12
HETATM   12  C   UNL     1      -9.253   8.920  69.322  1.00  0.00    -0.145 C  
HETATM   13  C   UNL     1      -7.293  10.910  68.990  1.00  0.00    -0.113 C  
HETATM   14  C   UNL     1      -9.655   9.964  71.904  1.00  0.00     2.634 C  
HETATM   15  C   UNL     1      -7.789   9.413  69.572  1.00  0.00    -0.091 C  
HETATM   16  O   UNL     1     -12.708   9.795  69.914  1.00  0.00     0.334 OA 
HETATM   17  C   UNL     1     -10.366   9.415  70.631  1.00  0.00    -0.349 C  
HETATM   18  C   UNL     1      -7.284   8.707  70.868  1.00  0.00    -0.073 C  
HETATM   19  C   UNL     1      -6.420  11.724  70.108  1.00  0.00     0.065 C  
HETATM   20  O   UNL     1      -7.074  12.025  71.349  1.00  0.00     3.552 OA 
HETATM   21  C   UNL     1      -5.207  10.803  70.453  1.00  0.00    -0.066 C  
HETATM   22  C   UNL     1     -11.727  10.200  70.550  1.00  0.00    -0.322 C  
HETATM   23  C   UNL     1      -5.952  13.037  69.467  1.00  0.00    -0.110 C  
HETATM   24  C   UNL     1      -6.217  12.390  72.449  1.00  0.00     3.423 C  
HETATM   25  C   UNL     1      -6.303  14.463  69.982  1.00  0.00    -0.160 C  
HETATM   26  H   UNL     1     -12.031  13.012  73.182  1.00  0.00     0.000 HD 
HETATM   27  O   UNL     1     -11.839  11.366  71.352  1.00  0.00     0.155 OA 
HETATM   28  C   UNL     1      -7.766  15.104  70.071  1.00  0.00     0.182 C  
HETATM   29  C   UNL     1      -5.470  15.309  68.937  1.00  0.00    -0.098 C  
HETATM   30  O   UNL     1     -11.359  13.631  72.921  1.00  0.00     2.911 OA 
HETATM   31  C   UNL     1     -12.916  14.949  71.649  1.00  0.00    -0.415 C  
HETATM   32  O   UNL     1      -8.050  15.930  69.182  1.00  0.00    -0.214 OA 
HETATM   33  C   UNL     1      -8.807  15.079  71.298  1.00  0.00     3.453 C  
HETATM   34  C   UNL     1      -8.496  14.388  72.595  1.00  0.00     8.488 C  
HETATM   35  C   UNL     1     -12.145  12.690  70.720  1.00  0.00    -0.146 C  
HETATM   36  C   UNL     1     -10.433  15.155  71.100  1.00  0.00     0.484 C  
HETATM   37  C   UNL     1     -11.633  14.050  71.569  1.00  0.00     0.720 C  
HETATM   38  O   UNL     1     -10.812  16.006  70.009  1.00  0.00    -0.308 OA 
HETATM   39  H   UNL     1     -11.755  16.050  69.895  1.00  0.00     0.000 HD 
BRANCH  13  40
HETATM   40  O   UNL     1      -8.334  11.588  68.219  1.00  0.00    -0.140 OA 
BRANCH  40  41
HETATM   41  C   UNL     1      -8.828  12.933  67.877  1.00  0.00    -0.190 C  
HETATM   42  C   UNL     1     -10.843  14.451  67.133  1.00  0.00    -0.292 C  
HETATM   43  C   UNL     1      -7.743  16.482  68.055  1.00  0.00    -0.163 C  
HETATM   44  O   UNL     1     -11.401  12.466  68.174  1.00  0.00    -0.247 OA 
HETATM   45  C   UNL     1     -10.015  15.658  67.520  1.00  0.00    -0.231 C  
HETATM   46  H   UNL     1     -12.300  12.729  68.334  1.00  0.00     0.000 HD 
HETATM   47  C   UNL     1      -8.499  15.283  67.512  1.00  0.00    -0.177 C  
HETATM   48  C   UNL     1     -10.353  13.379  68.149  1.00  0.00    -0.247 C  
HETATM   49  O   UNL     1      -8.078  14.100  68.272  1.00  0.00    -0.130 OA 
BRANCH  42  50
HETATM   50  N   UNL     1     -12.331  14.620  67.014  1.00  0.00    -0.094 NA 
HETATM   51  C   UNL     1     -12.857  15.907  66.566  1.00  0.00     3.270 C  
HETATM   52  C   UNL     1     -13.023  13.531  66.326  1.00  0.00     0.381 C  
ENDBRANCH  42  50
ENDBRANCH  40  41
ENDBRANCH  13  40
BRANCH  35  53
HETATM   53  C   UNL     1     -11.440  12.621  69.413  1.00  0.00    -0.330 C  
HETATM   54  C   UNL     1     -12.537  12.020  68.546  1.00  0.00     1.132 C  
ENDBRANCH  35  53
ENDBRANCH  11  12
ENDBRANCH   1  11
BRANCH   4  55
HETATM   55  O   UNL     1      -7.436   6.966  64.970  1.00  0.00    -0.083 OA 
HETATM   56  C   UNL     1      -6.956   7.850  63.964  1.00  0.00    -0.063 C  
ENDBRANCH   4  55
TORSDOF 7
ENDMDL
MODEL      121
REMARK 921   NORMALIZED FREE ENERGY PREDICTED BY IDOCK:   47.22 KCAL/MOL
REMARK 922        TOTAL FREE ENERGY PREDICTED BY IDOCK:   63.86 KCAL/MOL
REMARK 923 INTER-LIGAND FREE ENERGY PREDICTED BY IDOCK:   33.82 KCAL/MOL
REMARK 924 INTRA-LIGAND FREE ENERGY PREDICTED BY IDOCK:   30.05 KCAL/MOL
REMARK 927      BINDING AFFINITY PREDICTED BY RF-SCORE:    0.00 PKD
ROOT
HETATM    1  C   UNL     1      -7.743   5.829  69.092  1.00  0.00    -0.090 C  
HETATM    2  O   UNL     1      -8.852   7.414  73.053  1.00  0.00    -0.127 OA 
HETATM    3  C   UNL     1      -6.689   5.946  70.277  1.00  0.00    -0.048 C  
HETATM    4  C   UNL     1      -7.003   6.898  71.497  1.00  0.00    -0.066 C  
HETATM    5  C   UNL     1     -10.812   6.971  71.011  1.00  0.00    -0.264 C  
HETATM    6  C   UNL     1      -8.484   6.698  71.861  1.00  0.00    -0.114 C  
HETATM    7  C   UNL     1      -6.123   6.550  72.742  1.00  0.00    -0.050 C  
HETATM    8  O   UNL     1      -9.096   6.164  69.496  1.00  0.00    -0.137 OA 
HETATM    9  H   UNL     1      -9.766   7.291  73.278  1.00  0.00     0.000 HD 
HETATM   10  C   UNL     1      -9.325   7.038  70.623  1.00  0.00    -0.162 C  
ENDROOT
BRANCH   1  11
HETATM   11  O   UNL     1      -7.215   6.164  67.672  1.00  0.00    -0.075 OA 
BRANCH  11  12
HETATM   12  C   UNL     1      -8.180   6.106  66.541  1.00  0.00    -0.111 C  
HETATM   13  C   UNL     1      -9.862   7.781  68.051  1.00  0.00    -0.163 C  
HETATM   14  C   UNL     1      -9.461   7.139  64.258  1.00  0.00     2.551 C  
HETATM   15  C   UNL     1      -9.580   6.364  67.191  1.00  0.00    -0.157 C  
HETATM   16  O   UNL     1      -5.830   7.485  64.168  1.00  0.00    -0.040 OA 
HETATM   17  C   UNL     1      -8.085   6.735  64.869  1.00  0.00    -0.112 C  
HETATM   18  C   UNL     1     -10.626   5.559  66.360  1.00  0.00    -0.291 C  
HETATM   19  C   UNL     1     -11.317   8.425  67.676  1.00  0.00     1.062 C  
HETATM   20  O   UNL     1     -11.530   8.793  66.306  1.00  0.00     2.163 OA 
HETATM   21  C   UNL     1     -12.370   7.321  68.012  1.00  0.00     4.547 C  
HETATM   22  C   UNL     1      -7.043   7.721  64.223  1.00  0.00    -0.074 C  
HETATM   23  C   UNL     1     -11.518   9.666  68.556  1.00  0.00     0.246 C  
HETATM   24  C   UNL     1     -12.900   8.997  65.906  1.00  0.00    17.272 C  
HETATM   25  C   UNL     1     -11.722  11.116  68.030  1.00  0.00    -0.288 C  
HETATM   26  H   UNL     1      -8.678  10.483  62.073  1.00  0.00     0.000 HD 
HETATM   27  O   UNL     1      -7.568   8.871  63.578  1.00  0.00    -0.109 OA 
HETATM   28  C   UNL     1     -10.674  11.971  67.177  1.00  0.00    -0.239 C  
HETATM   29  C   UNL     1     -11.926  11.850  69.416  1.00  0.00    -0.350 C  
HETATM   30  O   UNL     1      -9.162  10.998  62.708  1.00  0.00    -0.297 OA 
HETATM   31  C   UNL     1      -7.361  12.568  62.969  1.00  0.00     6.307 C  
HETATM   32  O   UNL     1     -10.054  12.852  67.805  1.00  0.00    -0.218 OA 
HETATM   33  C   UNL     1     -10.519  12.077  65.578  1.00  0.00    -0.307 C  
HETATM   34  C   UNL     1     -11.410  11.316  64.638  1.00  0.00    -0.066 C  
HETATM   35  C   UNL     1      -7.147  10.240  64.015  1.00  0.00    -0.053 C  
HETATM   36  C   UNL     1      -9.096  12.405  64.832  1.00  0.00     0.757 C  
HETATM   37  C   UNL     1      -8.232  11.486  63.696  1.00  0.00     1.032 C  
HETATM   38  O   UNL     1      -8.289  13.330  65.574  1.00  0.00     1.297 OA 
HETATM   39  H   UNL     1      -7.465  13.520  65.142  1.00  0.00     0.000 HD 
BRANCH  13  40
HETATM   40  O   UNL     1      -8.674   8.628  68.146  1.00  0.00    -0.139 OA 
BRANCH  40  41
HETATM   41  C   UNL     1      -8.267  10.028  68.356  1.00  0.00    -0.106 C  
HETATM   42  C   UNL     1      -6.910  11.769  69.786  1.00  0.00     0.090 C  
HETATM   43  C   UNL     1      -8.359  13.303  66.604  1.00  0.00     0.214 C  
HETATM   44  O   UNL     1      -6.192   9.577  69.912  1.00  0.00    -0.041 OA 
HETATM   45  C   UNL     1      -7.092  12.765  68.661  1.00  0.00    -0.100 C  
HETATM   46  H   UNL     1      -5.357   9.805  70.303  1.00  0.00     0.000 HD 
HETATM   47  C   UNL     1      -8.327  12.361  67.794  1.00  0.00    -0.164 C  
HETATM   48  C   UNL     1      -6.850  10.416  69.019  1.00  0.00    -0.064 C  
HETATM   49  O   UNL     1      -8.392  10.986  67.286  1.00  0.00    -0.121 OA 
BRANCH  42  50
HETATM   50  N   UNL     1      -5.811  12.016  70.781  1.00  0.00    -0.331 NA 
HETATM   51  C   UNL     1      -5.288  13.372  70.926  1.00  0.00    -0.163 C  
HETATM   52  C   UNL     1      -6.025  11.420  72.099  1.00  0.00     1.850 C  
ENDBRANCH  42  50
ENDBRANCH  40  41
ENDBRANCH  13  40
BRANCH  35  53
HETATM   53  C   UNL     1      -6.970  10.095  65.485  1.00  0.00    -0.131 C  
HETATM   54  C   UNL     1      -5.485  10.403  65.609  1.00  0.00    -0.093 C  
ENDBRANCH  35  53
ENDBRANCH  11  12
ENDBRANCH   1  11
BRANCH   4  55
HETATM   55  O   UNL     1      -6.695   8.232  71.050  1.00  0.00    -0.040 OA 
HETATM   56  C   UNL     1      -5.959   9.086  71.918  1.00  0.00    -0.073 C  
ENDBRANCH   4  55
TORSDOF 7
ENDMDL
MODEL      122
REMARK 921   NORMALIZED FREE ENERGY PREDICTED BY IDOCK:   49.11 KCAL/MOL
REMARK 922        TOTAL FREE ENERGY PREDICTED BY IDOCK:   66.52 KCAL/MOL
REMARK 923 INTER-LIGAND FREE ENERGY PREDICTED BY IDOCK:   38.72 KCAL/MOL
REMARK 924 INTRA-LIGAND FREE ENERGY PREDICTED BY IDOCK:   27.80 KCAL/MOL
REMARK 927      BINDING AFFINITY PREDICTED BY RF-SCORE:    0.00 PKD
ROOT
HETATM    1  C   UNL     1     -10.136  12.701  66.409  1.00  0.00    -0.253 C  
HETATM    2  O   UNL     1     -10.428   9.909  63.011  1.00  0.00     0.282 OA 
HETATM    3  C   UNL     1     -10.173  13.209  64.903  1.00  0.00    -0.306 C  
HETATM    4  C   UNL     1      -9.841  12.197  63.739  1.00  0.00    -0.234 C  
HETATM    5  C   UNL     1     -10.619   8.999  65.720  1.00  0.00     1.200 C  
HETATM    6  C   UNL     1     -10.546  10.870  64.075  1.00  0.00    -0.240 C  
HETATM    7  C   UNL     1     -10.362  12.713  62.358  1.00  0.00     3.996 C  
HETATM    8  O   UNL     1     -10.341  11.269  66.534  1.00  0.00    -0.224 OA 
HETATM    9  H   UNL     1     -10.864   9.091  63.218  1.00  0.00     0.000 HD 
HETATM   10  C   UNL     1     -10.023  10.389  65.435  1.00  0.00    -0.295 C  
ENDROOT
BRANCH   1  11
HETATM   11  O   UNL     1      -9.187  13.469  67.367  1.00  0.00    -0.204 OA 
BRANCH  11  12
HETATM   12  C   UNL     1      -9.694  13.803  68.726  1.00  0.00    -0.065 C  
HETATM   13  C   UNL     1     -10.903  11.263  68.765  1.00  0.00    -0.208 C  
HETATM   14  C   UNL     1      -9.668  13.662  71.537  1.00  0.00     8.806 C  
HETATM   15  C   UNL     1     -10.986  12.937  68.899  1.00  0.00    -0.271 C  
HETATM   16  O   UNL     1      -6.384  14.305  70.084  1.00  0.00    -0.152 OA 
HETATM   17  C   UNL     1      -8.842  14.063  70.277  1.00  0.00     2.579 C  
HETATM   18  C   UNL     1     -11.963  13.748  69.804  1.00  0.00    -0.406 C  
HETATM   19  C   UNL     1     -11.770  10.528  69.940  1.00  0.00    -0.294 C  
HETATM   20  O   UNL     1     -11.382  10.795  71.296  1.00  0.00     0.136 OA 
HETATM   21  C   UNL     1     -13.232  11.053  69.782  1.00  0.00     0.815 C  
HETATM   22  C   UNL     1      -7.343  13.779  70.661  1.00  0.00     1.943 C  
HETATM   23  C   UNL     1     -11.696   9.015  69.696  1.00  0.00     0.481 C  
HETATM   24  C   UNL     1     -12.351  10.468  72.312  1.00  0.00     0.681 C  
HETATM   25  C   UNL     1     -11.110   7.972  70.692  1.00  0.00    -0.266 C  
HETATM   26  H   UNL     1      -6.945  12.015  74.076  1.00  0.00     0.000 HD 
HETATM   27  O   UNL     1      -7.120  12.968  71.804  1.00  0.00     3.947 OA 
HETATM   28  C   UNL     1      -9.597   7.898  71.203  1.00  0.00    -0.158 C  
HETATM   29  C   UNL     1     -11.404   6.657  69.864  1.00  0.00    -0.422 C  
HETATM   30  O   UNL     1      -7.341  11.164  73.930  1.00  0.00     6.670 OA 
HETATM   31  C   UNL     1      -5.225  10.151  73.404  1.00  0.00     0.174 C  
HETATM   32  O   UNL     1      -8.893   7.010  70.683  1.00  0.00    -0.148 OA 
HETATM   33  C   UNL     1      -8.932   8.584  72.499  1.00  0.00    -0.270 C  
HETATM   34  C   UNL     1      -9.725   9.446  73.440  1.00  0.00     4.300 C  
HETATM   35  C   UNL     1      -6.325  11.703  71.689  1.00  0.00     2.525 C  
HETATM   36  C   UNL     1      -7.349   9.001  72.583  1.00  0.00     0.465 C  
HETATM   37  C   UNL     1      -6.642  10.521  72.845  1.00  0.00     3.319 C  
HETATM   38  O   UNL     1      -6.500   8.069  71.897  1.00  0.00    -0.046 OA 
HETATM   39  H   UNL     1      -5.583   8.311  71.947  1.00  0.00     0.000 HD 
BRANCH  13  40
HETATM   40  O   UNL     1      -9.562  10.791  68.422  1.00  0.00    -0.162 OA 
BRANCH  40  41
HETATM   41  C   UNL     1      -8.788   9.553  68.228  1.00  0.00    -0.124 C  
HETATM   42  C   UNL     1      -8.617   7.175  67.115  1.00  0.00    -0.121 C  
HETATM   43  C   UNL     1      -5.383   8.208  68.863  1.00  0.00    -0.027 C  
HETATM   44  O   UNL     1     -10.019   8.685  66.070  1.00  0.00    -0.449 OA 
HETATM   45  C   UNL     1      -7.148   7.164  67.477  1.00  0.00    -0.088 C  
HETATM   46  H   UNL     1     -10.075   8.176  65.269  1.00  0.00     0.000 HD 
HETATM   47  C   UNL     1      -6.886   8.153  68.657  1.00  0.00    -0.067 C  
HETATM   48  C   UNL     1      -8.882   8.690  66.870  1.00  0.00    -0.132 C  
HETATM   49  O   UNL     1      -7.377   9.529  68.525  1.00  0.00    -0.077 OA 
BRANCH  42  50
HETATM   50  N   UNL     1      -9.092   6.238  66.042  1.00  0.00    -0.142 NA 
HETATM   51  C   UNL     1     -10.456   5.717  66.119  1.00  0.00     0.034 C  
HETATM   52  C   UNL     1      -8.797   6.662  64.675  1.00  0.00     0.526 C  
ENDBRANCH  42  50
ENDBRANCH  40  41
ENDBRANCH  13  40
BRANCH  35  53
HETATM   53  C   UNL     1      -6.682  11.192  70.339  1.00  0.00     0.328 C  
HETATM   54  C   UNL     1      -6.044   9.812  70.396  1.00  0.00    -0.075 C  
ENDBRANCH  35  53
ENDBRANCH  11  12
ENDBRANCH   1  11
BRANCH   4  55
HETATM   55  O   UNL     1      -8.404  12.092  63.700  1.00  0.00     1.243 OA 
HETATM   56  C   UNL     1      -7.825  10.898  63.190  1.00  0.00     0.200 C  
ENDBRANCH   4  55
TORSDOF 7
ENDMDL
MODEL      123
REMARK 921   NORMALIZED FREE ENERGY PREDICTED BY IDOCK:   49.73 KCAL/MOL
REMARK 922        TOTAL FREE ENERGY PREDICTED BY IDOCK:   67.40 KCAL/MOL
REMARK 923 INTER-LIGAND FREE ENERGY PREDICTED BY IDOCK:   24.26 KCAL/MOL
REMARK 924 INTRA-LIGAND FREE ENERGY PREDICTED BY IDOCK:   43.14 KCAL/MOL
REMARK 927      BINDING AFFINITY PREDICTED BY RF-SCORE:    0.00 PKD
ROOT
HETATM    1  C   UNL     1      -9.083  14.093  69.173  1.00  0.00     0.228 C  
HETATM    2  O   UNL     1     -13.103  15.405  70.417  1.00  0.00    -0.657 OA 
HETATM    3  C   UNL     1      -9.549  14.053  70.693  1.00  0.00     3.416 C  
HETATM    4  C   UNL     1     -10.791  14.916  71.142  1.00  0.00     0.190 C  
HETATM    5  C   UNL     1     -12.366  15.242  67.654  1.00  0.00     0.671 C  
HETATM    6  C   UNL     1     -11.865  14.769  70.050  1.00  0.00    -0.311 C  
HETATM    7  C   UNL     1     -11.379  14.418  72.503  1.00  0.00     1.198 C  
HETATM    8  O   UNL     1     -10.147  14.469  68.260  1.00  0.00    -0.220 OA 
HETATM    9  H   UNL     1     -13.766  15.314  69.744  1.00  0.00     0.000 HD 
HETATM   10  C   UNL     1     -11.263  15.257  68.726  1.00  0.00    -0.287 C  
ENDROOT
BRANCH   1  11
HETATM   11  O   UNL     1      -7.611  14.515  68.920  1.00  0.00    -0.129 OA 
BRANCH  11  12
HETATM   12  C   UNL     1      -6.553  13.484  69.100  1.00  0.00    -0.109 C  
HETATM   13  C   UNL     1      -8.545  11.797  70.147  1.00  0.00     3.283 C  
HETATM   14  C   UNL     1      -5.159  11.144  68.394  1.00  0.00    -0.040 C  
HETATM   15  C   UNL     1      -7.064  12.582  70.272  1.00  0.00     1.525 C  
HETATM   16  O   UNL     1      -5.710  13.408  65.588  1.00  0.00     5.660 OA 
HETATM   17  C   UNL     1      -5.579  12.566  67.914  1.00  0.00    -0.095 C  
HETATM   18  C   UNL     1      -5.805  12.072  71.039  1.00  0.00     0.214 C  
HETATM   19  C   UNL     1      -8.447  10.251  70.671  1.00  0.00     1.211 C  
HETATM   20  O   UNL     1      -7.530   9.390  69.982  1.00  0.00    -0.078 OA 
HETATM   21  C   UNL     1      -7.956  10.336  72.152  1.00  0.00     5.106 C  
HETATM   22  C   UNL     1      -5.750  12.439  66.355  1.00  0.00     1.236 C  
HETATM   23  C   UNL     1      -9.852   9.641  70.589  1.00  0.00    -0.268 C  
HETATM   24  C   UNL     1      -7.165   8.172  70.663  1.00  0.00    -0.052 C  
HETATM   25  C   UNL     1     -10.244   8.401  69.734  1.00  0.00    -0.207 C  
HETATM   26  H   UNL     1      -5.424   8.810  65.069  1.00  0.00     0.000 HD 
HETATM   27  O   UNL     1      -5.834  11.124  65.828  1.00  0.00    -0.117 OA 
HETATM   28  C   UNL     1     -10.172   8.289  68.140  1.00  0.00    -0.210 C  
HETATM   29  C   UNL     1     -11.764   8.287  70.157  1.00  0.00     0.207 C  
HETATM   30  O   UNL     1      -6.179   8.375  65.449  1.00  0.00    -0.045 OA 
HETATM   31  C   UNL     1      -7.508   8.725  63.476  1.00  0.00    -0.108 C  
HETATM   32  O   UNL     1     -11.261   8.385  67.541  1.00  0.00     0.225 OA 
HETATM   33  C   UNL     1      -8.962   7.767  67.217  1.00  0.00    -0.136 C  
HETATM   34  C   UNL     1      -7.659   7.297  67.800  1.00  0.00    -0.110 C  
HETATM   35  C   UNL     1      -7.029  10.708  65.026  1.00  0.00     0.093 C  
HETATM   36  C   UNL     1      -8.715   8.283  65.680  1.00  0.00    -0.156 C  
HETATM   37  C   UNL     1      -7.367   9.059  65.002  1.00  0.00    -0.096 C  
HETATM   38  O   UNL     1      -9.944   8.521  64.979  1.00  0.00     0.432 OA 
HETATM   39  H   UNL     1      -9.801   8.819  64.088  1.00  0.00     0.000 HD 
BRANCH  13  40
HETATM   40  O   UNL     1      -9.251  12.120  68.907  1.00  0.00     0.034 OA 
BRANCH  40  41
HETATM   41  C   UNL     1      -9.150  12.971  67.709  1.00  0.00    -0.200 C  
HETATM   42  C   UNL     1      -9.908  13.446  65.235  1.00  0.00    -0.082 C  
HETATM   43  C   UNL     1      -7.766  16.260  66.674  1.00  0.00    -0.286 C  
HETATM   44  O   UNL     1     -11.364  12.191  66.518  1.00  0.00    -0.313 OA 
HETATM   45  C   UNL     1      -9.298  14.824  65.363  1.00  0.00     0.335 C  
HETATM   46  H   UNL     1     -12.092  12.304  65.918  1.00  0.00     0.000 HD 
HETATM   47  C   UNL     1      -8.223  14.823  66.496  1.00  0.00     0.298 C  
HETATM   48  C   UNL     1     -10.384  13.162  66.690  1.00  0.00    -0.265 C  
HETATM   49  O   UNL     1      -8.610  14.304  67.812  1.00  0.00    -0.158 OA 
BRANCH  42  50
HETATM   50  N   UNL     1     -10.922  13.215  64.151  1.00  0.00    -0.397 NA 
HETATM   51  C   UNL     1     -11.697  14.354  63.662  1.00  0.00     0.464 C  
HETATM   52  C   UNL     1     -10.450  12.413  63.023  1.00  0.00     0.374 C  
ENDBRANCH  42  50
ENDBRANCH  40  41
ENDBRANCH  13  40
BRANCH  35  53
HETATM   53  C   UNL     1      -8.151  11.439  65.672  1.00  0.00     0.284 C  
HETATM   54  C   UNL     1      -7.560  11.675  67.054  1.00  0.00    -0.154 C  
ENDBRANCH  35  53
ENDBRANCH  11  12
ENDBRANCH   1  11
BRANCH   4  55
HETATM   55  O   UNL     1     -10.305  16.264  71.295  1.00  0.00     1.067 OA 
HETATM   56  C   UNL     1      -9.536  16.831  70.242  1.00  0.00     1.798 C  
ENDBRANCH   4  55
TORSDOF 7
ENDMDL
MODEL      124
REMARK 921   NORMALIZED FREE ENERGY PREDICTED BY IDOCK:   50.28 KCAL/MOL
REMARK 922        TOTAL FREE ENERGY PREDICTED BY IDOCK:   68.17 KCAL/MOL
REMARK 923 INTER-LIGAND FREE ENERGY PREDICTED BY IDOCK:   44.73 KCAL/MOL
REMARK 924 INTRA-LIGAND FREE ENERGY PREDICTED BY IDOCK:   23.43 KCAL/MOL
REMARK 927      BINDING AFFINITY PREDICTED BY RF-SCORE:    0.00 PKD
ROOT
HETATM    1  C   UNL     1     -10.272   5.631  69.841  1.00  0.00    -0.250 C  
HETATM    2  O   UNL     1      -7.674   2.603  71.714  1.00  0.00    -0.046 OA 
HETATM    3  C   UNL     1     -10.474   4.075  69.585  1.00  0.00     1.140 C  
HETATM    4  C   UNL     1      -9.291   3.081  69.907  1.00  0.00    -0.151 C  
HETATM    5  C   UNL     1      -7.463   5.381  72.382  1.00  0.00    -0.096 C  
HETATM    6  C   UNL     1      -8.678   3.522  71.248  1.00  0.00    -0.078 C  
HETATM    7  C   UNL     1      -9.795   1.607  70.040  1.00  0.00     0.105 C  
HETATM    8  O   UNL     1      -9.256   5.919  70.837  1.00  0.00    -0.151 OA 
HETATM    9  H   UNL     1      -7.296   2.875  72.542  1.00  0.00     0.000 HD 
HETATM   10  C   UNL     1      -8.198   4.972  71.093  1.00  0.00    -0.114 C  
ENDROOT
BRANCH   1  11
HETATM   11  O   UNL     1     -10.494   6.560  68.618  1.00  0.00    -0.180 OA 
BRANCH  11  12
HETATM   12  C   UNL     1     -11.279   7.807  68.825  1.00  0.00     0.445 C  
HETATM   13  C   UNL     1      -9.094   8.791  70.299  1.00  0.00    -0.170 C  
HETATM   14  C   UNL     1     -11.938  10.493  68.305  1.00  0.00     0.350 C  
HETATM   15  C   UNL     1     -10.726   8.414  70.158  1.00  0.00    -0.238 C  
HETATM   16  O   UNL     1     -11.585   8.473  65.288  1.00  0.00     7.247 OA 
HETATM   17  C   UNL     1     -11.822   9.069  67.681  1.00  0.00     3.101 C  
HETATM   18  C   UNL     1     -11.913   9.153  70.850  1.00  0.00    -0.299 C  
HETATM   19  C   UNL     1      -8.878  10.243  71.018  1.00  0.00     2.212 C  
HETATM   20  O   UNL     1      -9.449  11.384  70.361  1.00  0.00     2.200 OA 
HETATM   21  C   UNL     1      -9.573  10.135  72.413  1.00  0.00     6.098 C  
HETATM   22  C   UNL     1     -11.412   9.311  66.181  1.00  0.00     3.269 C  
HETATM   23  C   UNL     1      -7.368  10.468  71.169  1.00  0.00     1.988 C  
HETATM   24  C   UNL     1      -9.591  12.575  71.160  1.00  0.00    11.169 C  
HETATM   25  C   UNL     1      -6.567  11.645  70.540  1.00  0.00     0.695 C  
HETATM   26  H   UNL     1     -10.648  13.013  65.380  1.00  0.00     0.000 HD 
HETATM   27  O   UNL     1     -10.933  10.605  65.852  1.00  0.00    -0.034 OA 
HETATM   28  C   UNL     1      -6.389  11.940  68.978  1.00  0.00    -0.080 C  
HETATM   29  C   UNL     1      -5.140  11.310  71.133  1.00  0.00    -0.112 C  
HETATM   30  O   UNL     1      -9.869  13.192  65.893  1.00  0.00    -0.276 OA 
HETATM   31  C   UNL     1      -8.410  12.715  64.043  1.00  0.00     4.246 C  
HETATM   32  O   UNL     1      -5.286  11.625  68.491  1.00  0.00    -0.043 OA 
HETATM   33  C   UNL     1      -7.293  12.857  68.013  1.00  0.00    -0.120 C  
HETATM   34  C   UNL     1      -8.507  13.587  68.513  1.00  0.00    -0.092 C  
HETATM   35  C   UNL     1      -9.573  10.775  65.246  1.00  0.00    -0.229 C  
HETATM   36  C   UNL     1      -7.446  12.589  66.402  1.00  0.00     0.894 C  
HETATM   37  C   UNL     1      -8.838  12.270  65.485  1.00  0.00     0.548 C  
HETATM   38  O   UNL     1      -6.230  12.112  65.809  1.00  0.00     0.446 OA 
HETATM   39  H   UNL     1      -6.319  11.958  64.876  1.00  0.00     0.000 HD 
BRANCH  13  40
HETATM   40  O   UNL     1      -8.327   8.427  69.109  1.00  0.00    -0.119 OA 
BRANCH  40  41
HETATM   41  C   UNL     1      -8.255   7.406  68.048  1.00  0.00    -0.124 C  
HETATM   42  C   UNL     1      -9.504   5.609  66.589  1.00  0.00    -0.147 C  
HETATM   43  C   UNL     1      -5.913   6.196  65.430  1.00  0.00    -0.025 C  
HETATM   44  O   UNL     1     -10.824   7.278  67.489  1.00  0.00    -0.409 OA 
HETATM   45  C   UNL     1      -8.299   5.585  65.673  1.00  0.00    -0.133 C  
HETATM   46  H   UNL     1     -11.562   7.088  66.922  1.00  0.00     0.000 HD 
HETATM   47  C   UNL     1      -7.041   6.100  66.442  1.00  0.00    -0.068 C  
HETATM   48  C   UNL     1      -9.507   7.084  67.086  1.00  0.00    -0.145 C  
HETATM   49  O   UNL     1      -7.138   7.388  67.137  1.00  0.00    -0.079 OA 
BRANCH  42  50
HETATM   50  N   UNL     1     -10.809   5.086  66.060  1.00  0.00    -0.216 NA 
HETATM   51  C   UNL     1     -11.896   6.031  65.814  1.00  0.00     3.326 C  
HETATM   52  C   UNL     1     -10.693   4.156  64.937  1.00  0.00    -0.114 C  
ENDBRANCH  42  50
ENDBRANCH  40  41
ENDBRANCH  13  40
BRANCH  35  53
HETATM   53  C   UNL     1      -8.767   9.711  65.900  1.00  0.00    -0.163 C  
HETATM   54  C   UNL     1      -8.590  10.319  67.283  1.00  0.00    -0.125 C  
ENDBRANCH  35  53
ENDBRANCH  11  12
ENDBRANCH   1  11
BRANCH   4  55
HETATM   55  O   UNL     1      -8.378   3.177  68.797  1.00  0.00    -0.063 OA 
HETATM   56  C   UNL     1      -7.910   1.975  68.197  1.00  0.00    -0.057 C  
ENDBRANCH   4  55
TORSDOF 7
ENDMDL
MODEL      125
REMARK 921   NORMALIZED FREE ENERGY PREDICTED BY IDOCK:   50.41 KCAL/MOL
REMARK 922        TOTAL FREE ENERGY PREDICTED BY IDOCK:   68.35 KCAL/MOL
REMARK 923 INTER-LIGAND FREE ENERGY PREDICTED BY IDOCK:   39.79 KCAL/MOL
REMARK 924 INTRA-LIGAND FREE ENERGY PREDICTED BY IDOCK:   28.56 KCAL/MOL
REMARK 927      BINDING AFFINITY PREDICTED BY RF-SCORE:    0.00 PKD
ROOT
HETATM    1  C   UNL     1     -10.136  12.701  66.409  1.00  0.00    -0.253 C  
HETATM    2  O   UNL     1     -10.428   9.909  63.011  1.00  0.00     0.282 OA 
HETATM    3  C   UNL     1     -10.173  13.209  64.903  1.00  0.00    -0.306 C  
HETATM    4  C   UNL     1      -9.841  12.197  63.739  1.00  0.00    -0.234 C  
HETATM    5  C   UNL     1     -10.619   8.999  65.720  1.00  0.00     1.200 C  
HETATM    6  C   UNL     1     -10.546  10.870  64.075  1.00  0.00    -0.240 C  
HETATM    7  C   UNL     1     -10.362  12.713  62.358  1.00  0.00     3.996 C  
HETATM    8  O   UNL     1     -10.341  11.269  66.534  1.00  0.00    -0.224 OA 
HETATM    9  H   UNL     1     -10.864   9.091  63.218  1.00  0.00     0.000 HD 
HETATM   10  C   UNL     1     -10.023  10.389  65.435  1.00  0.00    -0.295 C  
ENDROOT
BRANCH   1  11
HETATM   11  O   UNL     1      -9.187  13.469  67.367  1.00  0.00    -0.204 OA 
BRANCH  11  12
HETATM   12  C   UNL     1      -9.694  13.803  68.726  1.00  0.00    -0.065 C  
HETATM   13  C   UNL     1     -10.903  11.263  68.765  1.00  0.00    -0.208 C  
HETATM   14  C   UNL     1      -9.668  13.662  71.537  1.00  0.00     8.806 C  
HETATM   15  C   UNL     1     -10.986  12.937  68.899  1.00  0.00    -0.271 C  
HETATM   16  O   UNL     1      -6.384  14.305  70.084  1.00  0.00    -0.152 OA 
HETATM   17  C   UNL     1      -8.842  14.063  70.277  1.00  0.00     2.579 C  
HETATM   18  C   UNL     1     -11.963  13.748  69.804  1.00  0.00    -0.406 C  
HETATM   19  C   UNL     1     -11.770  10.528  69.940  1.00  0.00    -0.294 C  
HETATM   20  O   UNL     1     -11.382  10.795  71.296  1.00  0.00     0.136 OA 
HETATM   21  C   UNL     1     -13.232  11.053  69.782  1.00  0.00     0.815 C  
HETATM   22  C   UNL     1      -7.343  13.779  70.661  1.00  0.00     1.943 C  
HETATM   23  C   UNL     1     -11.696   9.015  69.696  1.00  0.00     0.481 C  
HETATM   24  C   UNL     1     -12.351  10.468  72.312  1.00  0.00     0.681 C  
HETATM   25  C   UNL     1     -11.110   7.972  70.692  1.00  0.00    -0.266 C  
HETATM   26  H   UNL     1      -6.945  12.015  74.076  1.00  0.00     0.000 HD 
HETATM   27  O   UNL     1      -7.120  12.968  71.804  1.00  0.00     3.947 OA 
HETATM   28  C   UNL     1      -9.597   7.898  71.203  1.00  0.00    -0.158 C  
HETATM   29  C   UNL     1     -11.404   6.657  69.864  1.00  0.00    -0.422 C  
HETATM   30  O   UNL     1      -7.341  11.164  73.930  1.00  0.00     6.670 OA 
HETATM   31  C   UNL     1      -5.225  10.151  73.404  1.00  0.00     0.174 C  
HETATM   32  O   UNL     1      -8.893   7.010  70.683  1.00  0.00    -0.148 OA 
HETATM   33  C   UNL     1      -8.932   8.584  72.499  1.00  0.00    -0.270 C  
HETATM   34  C   UNL     1      -9.725   9.446  73.440  1.00  0.00     4.300 C  
HETATM   35  C   UNL     1      -6.325  11.703  71.689  1.00  0.00     2.525 C  
HETATM   36  C   UNL     1      -7.349   9.001  72.583  1.00  0.00     0.465 C  
HETATM   37  C   UNL     1      -6.642  10.521  72.845  1.00  0.00     3.319 C  
HETATM   38  O   UNL     1      -6.500   8.069  71.897  1.00  0.00    -0.046 OA 
HETATM   39  H   UNL     1      -5.583   8.311  71.947  1.00  0.00     0.000 HD 
BRANCH  13  40
HETATM   40  O   UNL     1      -9.562  10.791  68.422  1.00  0.00    -0.162 OA 
BRANCH  40  41
HETATM   41  C   UNL     1      -8.388  11.144  67.604  1.00  0.00    -0.122 C  
HETATM   42  C   UNL     1      -6.641  12.970  66.874  1.00  0.00     0.744 C  
HETATM   43  C   UNL     1      -5.783   9.502  65.525  1.00  0.00    -0.057 C  
HETATM   44  O   UNL     1      -7.664  13.306  68.918  1.00  0.00    -0.288 OA 
HETATM   45  C   UNL     1      -5.804  11.861  66.274  1.00  0.00     0.534 C  
HETATM   46  H   UNL     1      -7.034  13.961  69.197  1.00  0.00     0.000 HD 
HETATM   47  C   UNL     1      -6.705  10.621  65.975  1.00  0.00    -0.128 C  
HETATM   48  C   UNL     1      -7.320  12.253  68.078  1.00  0.00    -0.105 C  
HETATM   49  O   UNL     1      -7.550  10.105  67.057  1.00  0.00    -0.092 OA 
BRANCH  42  50
HETATM   50  N   UNL     1      -5.973  14.281  67.174  1.00  0.00     0.003 NA 
HETATM   51  C   UNL     1      -6.765  15.507  67.088  1.00  0.00     0.013 C  
HETATM   52  C   UNL     1      -5.160  14.298  68.389  1.00  0.00    -0.105 C  
ENDBRANCH  42  50
ENDBRANCH  40  41
ENDBRANCH  13  40
BRANCH  35  53
HETATM   53  C   UNL     1      -6.682  11.192  70.339  1.00  0.00     0.328 C  
HETATM   54  C   UNL     1      -6.044   9.812  70.396  1.00  0.00    -0.075 C  
ENDBRANCH  35  53
ENDBRANCH  11  12
ENDBRANCH   1  11
BRANCH   4  55
HETATM   55  O   UNL     1      -8.404  12.092  63.700  1.00  0.00     1.243 OA 
HETATM   56  C   UNL     1      -7.825  10.898  63.190  1.00  0.00     0.200 C  
ENDBRANCH   4  55
TORSDOF 7
ENDMDL
MODEL      126
REMARK 921   NORMALIZED FREE ENERGY PREDICTED BY IDOCK:   51.73 KCAL/MOL
REMARK 922        TOTAL FREE ENERGY PREDICTED BY IDOCK:   70.22 KCAL/MOL
REMARK 923 INTER-LIGAND FREE ENERGY PREDICTED BY IDOCK:   46.24 KCAL/MOL
REMARK 924 INTRA-LIGAND FREE ENERGY PREDICTED BY IDOCK:   23.98 KCAL/MOL
REMARK 927      BINDING AFFINITY PREDICTED BY RF-SCORE:    0.00 PKD
ROOT
HETATM    1  C   UNL     1     -10.489   6.193  68.063  1.00  0.00    -0.228 C  
HETATM    2  O   UNL     1      -6.862   3.706  67.762  1.00  0.00    -0.048 OA 
HETATM    3  C   UNL     1     -10.502   4.767  67.360  1.00  0.00     0.002 C  
HETATM    4  C   UNL     1      -9.138   4.124  66.894  1.00  0.00    -0.142 C  
HETATM    5  C   UNL     1      -6.884   6.153  69.251  1.00  0.00    -0.062 C  
HETATM    6  C   UNL     1      -8.113   4.371  68.015  1.00  0.00    -0.090 C  
HETATM    7  C   UNL     1      -9.275   2.584  66.662  1.00  0.00    -0.072 C  
HETATM    8  O   UNL     1      -9.220   6.507  68.693  1.00  0.00    -0.128 OA 
HETATM    9  H   UNL     1      -6.229   3.858  68.454  1.00  0.00     0.000 HD 
HETATM   10  C   UNL     1      -8.002   5.886  68.228  1.00  0.00    -0.109 C  
ENDROOT
BRANCH   1  11
HETATM   11  O   UNL     1     -11.356   7.293  67.394  1.00  0.00    -0.023 OA 
BRANCH  11  12
HETATM   12  C   UNL     1     -12.115   8.215  68.282  1.00  0.00     3.711 C  
HETATM   13  C   UNL     1      -9.730   8.586  69.729  1.00  0.00    -0.179 C  
HETATM   14  C   UNL     1     -12.893  10.753  69.215  1.00  0.00     0.787 C  
HETATM   15  C   UNL     1     -11.358   8.170  69.651  1.00  0.00     0.202 C  
HETATM   16  O   UNL     1     -13.015  10.440  65.582  1.00  0.00     7.253 OA 
HETATM   17  C   UNL     1     -12.860   9.811  67.974  1.00  0.00     7.194 C  
HETATM   18  C   UNL     1     -12.423   8.379  70.770  1.00  0.00     0.126 C  
HETATM   19  C   UNL     1      -9.420   9.540  71.020  1.00  0.00    -0.047 C  
HETATM   20  O   UNL     1     -10.111  10.796  71.079  1.00  0.00     1.601 OA 
HETATM   21  C   UNL     1      -9.872   8.721  72.271  1.00  0.00    -0.295 C  
HETATM   22  C   UNL     1     -12.709  10.769  66.735  1.00  0.00     6.356 C  
HETATM   23  C   UNL     1      -7.910   9.807  71.050  1.00  0.00     0.464 C  
HETATM   24  C   UNL     1     -10.136  11.450  72.363  1.00  0.00    14.448 C  
HETATM   25  C   UNL     1      -7.244  11.210  70.960  1.00  0.00     2.926 C  
HETATM   26  H   UNL     1     -12.147  14.464  67.716  1.00  0.00     0.000 HD 
HETATM   27  O   UNL     1     -12.312  12.104  67.006  1.00  0.00    -0.379 OA 
HETATM   28  C   UNL     1      -7.333  12.223  69.725  1.00  0.00     0.802 C  
HETATM   29  C   UNL     1      -5.732  10.770  71.114  1.00  0.00     0.041 C  
HETATM   30  O   UNL     1     -11.297  14.451  68.139  1.00  0.00    -0.268 OA 
HETATM   31  C   UNL     1     -10.158  15.043  66.106  1.00  0.00    -0.312 C  
HETATM   32  O   UNL     1      -6.321  12.280  68.999  1.00  0.00    -0.074 OA 
HETATM   33  C   UNL     1      -8.399  13.398  69.455  1.00  0.00     1.170 C  
HETATM   34  C   UNL     1      -9.523  13.688  70.408  1.00  0.00     3.758 C  
HETATM   35  C   UNL     1     -11.075  12.666  66.375  1.00  0.00    -0.287 C  
HETATM   36  C   UNL     1      -8.814  13.909  67.954  1.00  0.00    -0.184 C  
HETATM   37  C   UNL     1     -10.333  13.933  67.199  1.00  0.00    -0.265 C  
HETATM   38  O   UNL     1      -7.706  13.885  67.042  1.00  0.00    -0.362 OA 
HETATM   39  H   UNL     1      -7.946  14.182  66.172  1.00  0.00     0.000 HD 
BRANCH  13  40
HETATM   40  O   UNL     1      -9.167   8.901  68.417  1.00  0.00    -0.140 OA 
BRANCH  40  41
HETATM   41  C   UNL     1      -7.969   9.478  67.782  1.00  0.00    -0.099 C  
HETATM   42  C   UNL     1      -6.586   9.894  65.584  1.00  0.00    -0.093 C  
HETATM   43  C   UNL     1      -5.162  11.776  68.586  1.00  0.00    -0.046 C  
HETATM   44  O   UNL     1      -8.845   9.504  65.301  1.00  0.00    -0.159 OA 
HETATM   45  C   UNL     1      -5.772  10.917  66.346  1.00  0.00    -0.115 C  
HETATM   46  H   UNL     1      -8.853   9.820  64.404  1.00  0.00     0.000 HD 
HETATM   47  C   UNL     1      -5.867  10.632  67.879  1.00  0.00    -0.043 C  
HETATM   48  C   UNL     1      -7.982  10.015  66.263  1.00  0.00    -0.111 C  
HETATM   49  O   UNL     1      -7.200  10.485  68.471  1.00  0.00    -0.079 OA 
BRANCH  42  50
HETATM   50  N   UNL     1      -6.573   9.951  64.083  1.00  0.00    -0.121 NA 
HETATM   51  C   UNL     1      -5.292   9.837  63.388  1.00  0.00    -0.080 C  
HETATM   52  C   UNL     1      -7.574   9.114  63.423  1.00  0.00    -0.108 C  
ENDBRANCH  42  50
ENDBRANCH  40  41
ENDBRANCH  13  40
BRANCH  35  53
HETATM   53  C   UNL     1     -10.155  11.500  66.318  1.00  0.00    -0.261 C  
HETATM   54  C   UNL     1     -10.763  10.732  65.154  1.00  0.00    -0.159 C  
ENDBRANCH  35  53
ENDBRANCH  11  12
ENDBRANCH   1  11
BRANCH   4  55
HETATM   55  O   UNL     1      -8.798   4.768  65.650  1.00  0.00    -0.126 OA 
HETATM   56  C   UNL     1      -9.743   5.655  65.065  1.00  0.00     0.693 C  
ENDBRANCH   4  55
TORSDOF 7
ENDMDL
MODEL      127
REMARK 921   NORMALIZED FREE ENERGY PREDICTED BY IDOCK:   53.72 KCAL/MOL
REMARK 922        TOTAL FREE ENERGY PREDICTED BY IDOCK:   73.01 KCAL/MOL
REMARK 923 INTER-LIGAND FREE ENERGY PREDICTED BY IDOCK:   52.28 KCAL/MOL
REMARK 924 INTRA-LIGAND FREE ENERGY PREDICTED BY IDOCK:   20.73 KCAL/MOL
REMARK 927      BINDING AFFINITY PREDICTED BY RF-SCORE:    0.00 PKD
ROOT
HETATM    1  C   UNL     1     -10.051  15.148  70.149  1.00  0.00    -0.018 C  
HETATM    2  O   UNL     1      -9.602  17.660  66.555  1.00  0.00    -0.274 OA 
HETATM    3  C   UNL     1     -10.246  16.726  70.195  1.00  0.00     0.460 C  
HETATM    4  C   UNL     1      -9.661  17.609  69.026  1.00  0.00    -0.140 C  
HETATM    5  C   UNL     1      -9.500  14.801  66.410  1.00  0.00    -0.328 C  
HETATM    6  C   UNL     1      -9.967  16.878  67.706  1.00  0.00    -0.278 C  
HETATM    7  C   UNL     1     -10.321  19.026  68.986  1.00  0.00    -0.062 C  
HETATM    8  O   UNL     1      -9.852  14.636  68.806  1.00  0.00    -0.221 OA 
HETATM    9  H   UNL     1      -9.791  17.209  65.741  1.00  0.00     0.000 HD 
HETATM   10  C   UNL     1      -9.316  15.491  67.772  1.00  0.00    -0.195 C  
ENDROOT
BRANCH   1  11
HETATM   11  O   UNL     1      -9.341  14.511  71.373  1.00  0.00     3.173 OA 
BRANCH  11  12
HETATM   12  C   UNL     1      -7.885  14.225  71.259  1.00  0.00     3.957 C  
HETATM   13  C   UNL     1      -8.485  11.553  71.903  1.00  0.00    14.352 C  
HETATM   14  C   UNL     1      -5.599  13.234  69.951  1.00  0.00    -0.109 C  
HETATM   15  C   UNL     1      -7.645  12.983  72.181  1.00  0.00    10.505 C  
HETATM   16  O   UNL     1      -7.707  15.313  67.819  1.00  0.00    -0.126 OA 
HETATM   17  C   UNL     1      -6.778  14.249  69.855  1.00  0.00    -0.068 C  
HETATM   18  C   UNL     1      -6.203  13.115  72.761  1.00  0.00     2.427 C  
HETATM   19  C   UNL     1      -7.501  10.252  72.020  1.00  0.00     3.668 C  
HETATM   20  O   UNL     1      -6.392  10.194  71.112  1.00  0.00    -0.312 OA 
HETATM   21  C   UNL     1      -6.899  10.303  73.460  1.00  0.00     3.254 C  
HETATM   22  C   UNL     1      -7.105  14.355  68.319  1.00  0.00    -0.112 C  
HETATM   23  C   UNL     1      -8.363   8.998  71.825  1.00  0.00     0.060 C  
HETATM   24  C   UNL     1      -5.335   9.275  71.454  1.00  0.00    -0.051 C  
HETATM   25  C   UNL     1      -8.171   7.943  70.697  1.00  0.00    -0.114 C  
HETATM   26  H   UNL     1      -5.121  11.843  66.154  1.00  0.00     0.000 HD 
HETATM   27  O   UNL     1      -6.564  13.345  67.481  1.00  0.00    -0.165 OA 
HETATM   28  C   UNL     1      -8.308   8.202  69.125  1.00  0.00    -0.131 C  
HETATM   29  C   UNL     1      -9.309   6.928  71.119  1.00  0.00    -0.162 C  
HETATM   30  O   UNL     1      -5.459  11.000  66.433  1.00  0.00    -0.089 OA 
HETATM   31  C   UNL     1      -7.069  10.934  64.649  1.00  0.00     0.487 C  
HETATM   32  O   UNL     1      -9.363   7.794  68.600  1.00  0.00    -0.148 OA 
HETATM   33  C   UNL     1      -7.172   8.626  68.067  1.00  0.00    -0.087 C  
HETATM   34  C   UNL     1      -5.744   8.851  68.478  1.00  0.00    -0.041 C  
HETATM   35  C   UNL     1      -7.469  12.504  66.633  1.00  0.00     0.426 C  
HETATM   36  C   UNL     1      -7.486   9.480  66.703  1.00  0.00    -0.093 C  
HETATM   37  C   UNL     1      -6.882  10.986  66.205  1.00  0.00    -0.096 C  
HETATM   38  O   UNL     1      -8.749   9.131  66.118  1.00  0.00    -0.135 OA 
HETATM   39  H   UNL     1      -8.931   9.626  65.328  1.00  0.00     0.000 HD 
BRANCH  13  40
HETATM   40  O   UNL     1      -9.443  11.667  70.804  1.00  0.00     4.361 OA 
BRANCH  40  41
HETATM   41  C   UNL     1     -10.584  10.967  70.189  1.00  0.00     0.240 C  
HETATM   42  C   UNL     1     -12.031  10.513  68.039  1.00  0.00     0.728 C  
HETATM   43  C   UNL     1     -12.976   8.228  70.949  1.00  0.00     0.179 C  
HETATM   44  O   UNL     1      -9.874  11.252  67.670  1.00  0.00    -0.172 OA 
HETATM   45  C   UNL     1     -12.640   9.328  68.758  1.00  0.00     4.146 C  
HETATM   46  H   UNL     1      -9.878  11.007  66.752  1.00  0.00     0.000 HD 
HETATM   47  C   UNL     1     -12.489   9.512  70.302  1.00  0.00     0.297 C  
HETATM   48  C   UNL     1     -10.592  10.550  68.632  1.00  0.00    -0.200 C  
HETATM   49  O   UNL     1     -11.155   9.810  70.833  1.00  0.00    -0.308 OA 
BRANCH  42  50
HETATM   50  N   UNL     1     -12.132  10.564  66.542  1.00  0.00     1.997 NA 
HETATM   51  C   UNL     1     -12.078  11.866  65.879  1.00  0.00     0.298 C  
HETATM   52  C   UNL     1     -11.285   9.608  65.831  1.00  0.00     1.899 C  
ENDBRANCH  42  50
ENDBRANCH  40  41
ENDBRANCH  13  40
BRANCH  35  53
HETATM   53  C   UNL     1      -8.687  12.352  67.473  1.00  0.00    -0.179 C  
HETATM   54  C   UNL     1      -8.180  11.355  68.504  1.00  0.00    -0.153 C  
ENDBRANCH  35  53
ENDBRANCH  11  12
ENDBRANCH   1  11
BRANCH   4  55
HETATM   55  O   UNL     1      -8.252  17.744  69.295  1.00  0.00     0.020 OA 
HETATM   56  C   UNL     1      -7.678  19.046  69.272  1.00  0.00    -0.079 C  
ENDBRANCH   4  55
TORSDOF 7
ENDMDL
MODEL      128
REMARK 921   NORMALIZED FREE ENERGY PREDICTED BY IDOCK:   54.42 KCAL/MOL
REMARK 922        TOTAL FREE ENERGY PREDICTED BY IDOCK:   74.01 KCAL/MOL
REMARK 923 INTER-LIGAND FREE ENERGY PREDICTED BY IDOCK:   65.44 KCAL/MOL
REMARK 924 INTRA-LIGAND FREE ENERGY PREDICTED BY IDOCK:    8.57 KCAL/MOL
REMARK 927      BINDING AFFINITY PREDICTED BY RF-SCORE:    0.00 PKD
ROOT
HETATM    1  C   UNL     1     -11.346  13.552  66.526  1.00  0.00    -0.319 C  
HETATM    2  O   UNL     1     -12.485  16.627  69.471  1.00  0.00     0.061 OA 
HETATM    3  C   UNL     1     -12.708  13.471  67.344  1.00  0.00     0.717 C  
HETATM    4  C   UNL     1     -12.867  14.323  68.662  1.00  0.00     1.196 C  
HETATM    5  C   UNL     1     -10.159  16.915  67.825  1.00  0.00    -0.292 C  
HETATM    6  C   UNL     1     -12.271  15.714  68.380  1.00  0.00     0.272 C  
HETATM    7  C   UNL     1     -14.369  14.486  69.067  1.00  0.00     8.911 C  
HETATM    8  O   UNL     1     -10.615  14.784  66.755  1.00  0.00    -0.291 OA 
HETATM    9  H   UNL     1     -12.118  17.486  69.297  1.00  0.00     0.000 HD 
HETATM   10  C   UNL     1     -10.802  15.526  67.980  1.00  0.00    -0.300 C  
ENDROOT
BRANCH   1  11
HETATM   11  O   UNL     1     -10.611  12.206  66.288  1.00  0.00    -0.238 OA 
BRANCH  11  12
HETATM   12  C   UNL     1     -11.327  11.149  65.523  1.00  0.00     0.199 C  
HETATM   13  C   UNL     1      -8.809  10.031  64.950  1.00  0.00    -0.192 C  
HETATM   14  C   UNL     1     -12.382   8.565  65.167  1.00  0.00    16.431 C  
HETATM   15  C   UNL     1     -10.293  10.652  64.458  1.00  0.00    -0.352 C  
HETATM   16  O   UNL     1     -13.238  10.053  68.386  1.00  0.00     4.244 OA 
HETATM   17  C   UNL     1     -12.433   9.847  66.052  1.00  0.00     9.182 C  
HETATM   18  C   UNL     1     -11.104  10.226  63.196  1.00  0.00     2.526 C  
HETATM   19  C   UNL     1      -8.423   8.679  64.116  1.00  0.00    -0.076 C  
HETATM   20  O   UNL     1      -9.326   7.569  64.227  1.00  0.00     1.469 OA 
HETATM   21  C   UNL     1      -8.410   9.097  62.611  1.00  0.00    -0.192 C  
HETATM   22  C   UNL     1     -12.759   9.332  67.502  1.00  0.00     9.964 C  
HETATM   23  C   UNL     1      -7.031   8.229  64.578  1.00  0.00    -0.073 C  
HETATM   24  C   UNL     1      -9.200   6.542  63.223  1.00  0.00     1.658 C  
HETATM   25  C   UNL     1      -6.703   6.859  65.238  1.00  0.00    -0.051 C  
HETATM   26  H   UNL     1     -12.763   5.479  67.794  1.00  0.00     0.000 HD 
HETATM   27  O   UNL     1     -12.594   7.942  67.738  1.00  0.00     5.624 OA 
HETATM   28  C   UNL     1      -7.268   6.321  66.634  1.00  0.00    -0.074 C  
HETATM   29  C   UNL     1      -5.138   7.030  65.386  1.00  0.00    -0.024 C  
HETATM   30  O   UNL     1     -11.855   5.247  67.635  1.00  0.00     2.899 OA 
HETATM   31  C   UNL     1     -11.341   5.208  69.983  1.00  0.00     1.564 C  
HETATM   32  O   UNL     1      -6.476   6.376  67.596  1.00  0.00    -0.047 OA 
HETATM   33  C   UNL     1      -8.585   5.442  66.921  1.00  0.00    -0.109 C  
HETATM   34  C   UNL     1      -9.506   5.002  65.819  1.00  0.00    -0.167 C  
HETATM   35  C   UNL     1     -11.669   7.464  68.815  1.00  0.00     1.132 C  
HETATM   36  C   UNL     1      -9.418   5.502  68.332  1.00  0.00    -0.118 C  
HETATM   37  C   UNL     1     -11.039   5.916  68.617  1.00  0.00    -0.113 C  
HETATM   38  O   UNL     1      -8.558   5.681  69.467  1.00  0.00    -0.108 OA 
HETATM   39  H   UNL     1      -9.041   5.715  70.285  1.00  0.00     0.000 HD 
BRANCH  13  40
HETATM   40  O   UNL     1      -8.627  10.091  66.400  1.00  0.00    -0.127 OA 
BRANCH  40  41
HETATM   41  C   UNL     1      -8.451  11.052  67.503  1.00  0.00    -0.127 C  
HETATM   42  C   UNL     1      -7.281  11.645  69.783  1.00  0.00     0.352 C  
HETATM   43  C   UNL     1      -9.289  14.567  68.364  1.00  0.00    -0.208 C  
HETATM   44  O   UNL     1      -6.184  10.109  68.451  1.00  0.00    -0.048 OA 
HETATM   45  C   UNL     1      -7.747  13.073  69.595  1.00  0.00     1.043 C  
HETATM   46  H   UNL     1      -5.366  10.182  68.930  1.00  0.00     0.000 HD 
HETATM   47  C   UNL     1      -8.973  13.106  68.629  1.00  0.00     0.049 C  
HETATM   48  C   UNL     1      -7.064  11.176  68.314  1.00  0.00    -0.073 C  
HETATM   49  O   UNL     1      -8.848  12.428  67.334  1.00  0.00    -0.171 OA 
BRANCH  42  50
HETATM   50  N   UNL     1      -6.148  11.387  70.735  1.00  0.00    -0.343 NA 
HETATM   51  C   UNL     1      -5.399  12.527  71.259  1.00  0.00    -0.096 C  
HETATM   52  C   UNL     1      -6.449  10.449  71.815  1.00  0.00     1.284 C  
ENDBRANCH  42  50
ENDBRANCH  40  41
ENDBRANCH  13  40
BRANCH  35  53
HETATM   53  C   UNL     1     -10.565   8.461  68.791  1.00  0.00    -0.154 C  
HETATM   54  C   UNL     1     -10.307   8.613  70.283  1.00  0.00    -0.217 C  
ENDBRANCH  35  53
ENDBRANCH  11  12
ENDBRANCH   1  11
BRANCH   4  55
HETATM   55  O   UNL     1     -12.170  13.596  69.693  1.00  0.00    -0.314 OA 
HETATM   56  C   UNL     1     -12.746  13.539  70.992  1.00  0.00    -0.322 C  
ENDBRANCH   4  55
TORSDOF 7
ENDMDL
MODEL      129
REMARK 921   NORMALIZED FREE ENERGY PREDICTED BY IDOCK:   55.78 KCAL/MOL
REMARK 922        TOTAL FREE ENERGY PREDICTED BY IDOCK:   75.92 KCAL/MOL
REMARK 923 INTER-LIGAND FREE ENERGY PREDICTED BY IDOCK:   75.80 KCAL/MOL
REMARK 924 INTRA-LIGAND FREE ENERGY PREDICTED BY IDOCK:    0.12 KCAL/MOL
REMARK 927      BINDING AFFINITY PREDICTED BY RF-SCORE:    0.00 PKD
ROOT
HETATM    1  C   UNL     1      -5.846  13.702  69.022  1.00  0.00    -0.077 C  
HETATM    2  O   UNL     1      -7.606  16.474  66.081  1.00  0.00    -0.216 OA 
HETATM    3  C   UNL     1      -5.850  13.385  67.464  1.00  0.00    -0.026 C  
HETATM    4  C   UNL     1      -6.849  14.163  66.522  1.00  0.00     2.663 C  
HETATM    5  C   UNL     1      -7.377  17.171  68.850  1.00  0.00    -0.241 C  
HETATM    6  C   UNL     1      -6.834  15.637  66.961  1.00  0.00     0.026 C  
HETATM    7  C   UNL     1      -6.413  14.076  65.022  1.00  0.00    15.684 C  
HETATM    8  O   UNL     1      -6.348  15.027  69.336  1.00  0.00    -0.108 OA 
HETATM    9  H   UNL     1      -7.597  17.384  66.353  1.00  0.00     0.000 HD 
HETATM   10  C   UNL     1      -7.258  15.695  68.435  1.00  0.00    -0.115 C  
ENDROOT
BRANCH   1  11
HETATM   11  O   UNL     1      -6.096  12.496  69.966  1.00  0.00    -0.143 OA 
BRANCH  11  12
HETATM   12  C   UNL     1      -7.100  12.661  71.052  1.00  0.00     4.015 C  
HETATM   13  C   UNL     1      -9.074  12.013  69.155  1.00  0.00     0.536 C  
HETATM   14  C   UNL     1      -8.887  11.707  73.006  1.00  0.00    22.869 C  
HETATM   15  C   UNL     1      -8.429  13.042  70.318  1.00  0.00     4.384 C  
HETATM   16  O   UNL     1      -5.610  10.107  73.128  1.00  0.00    -0.291 OA 
HETATM   17  C   UNL     1      -7.398  11.720  72.543  1.00  0.00    11.678 C  
HETATM   18  C   UNL     1      -9.228  13.979  71.275  1.00  0.00     6.527 C  
HETATM   19  C   UNL     1     -10.692  11.856  69.331  1.00  0.00     0.041 C  
HETATM   20  O   UNL     1     -11.160  11.320  70.578  1.00  0.00     0.107 OA 
HETATM   21  C   UNL     1     -11.275  13.301  69.218  1.00  0.00    -0.266 C  
HETATM   22  C   UNL     1      -6.820  10.325  72.984  1.00  0.00     3.351 C  
HETATM   23  C   UNL     1     -11.200  10.964  68.191  1.00  0.00    -0.363 C  
HETATM   24  C   UNL     1     -12.553  11.532  70.879  1.00  0.00    -0.341 C  
HETATM   25  C   UNL     1     -11.931   9.602  68.373  1.00  0.00     1.610 C  
HETATM   26  H   UNL     1      -9.501   7.936  74.412  1.00  0.00     0.000 HD 
HETATM   27  O   UNL     1      -7.763   9.326  73.340  1.00  0.00     0.218 OA 
HETATM   28  C   UNL     1     -11.324   8.285  69.046  1.00  0.00     0.605 C  
HETATM   29  C   UNL     1     -12.219   9.278  66.852  1.00  0.00     7.129 C  
HETATM   30  O   UNL     1     -10.058   7.760  73.663  1.00  0.00    -0.294 OA 
HETATM   31  C   UNL     1      -8.867   5.746  73.114  1.00  0.00    -0.122 C  
HETATM   32  O   UNL     1     -10.971   7.387  68.256  1.00  0.00    -0.078 OA 
HETATM   33  C   UNL     1     -11.384   7.815  70.584  1.00  0.00    -0.275 C  
HETATM   34  C   UNL     1     -12.065   8.636  71.643  1.00  0.00    -0.385 C  
HETATM   35  C   UNL     1      -7.779   8.012  72.621  1.00  0.00    -0.122 C  
HETATM   36  C   UNL     1     -10.240   6.871  71.282  1.00  0.00    -0.198 C  
HETATM   37  C   UNL     1      -9.245   7.185  72.621  1.00  0.00    -0.138 C  
HETATM   38  O   UNL     1      -9.713   5.890  70.377  1.00  0.00    -0.167 OA 
HETATM   39  H   UNL     1      -9.051   5.343  70.781  1.00  0.00     0.000 HD 
BRANCH  13  40
HETATM   40  O   UNL     1      -8.234  10.842  68.910  1.00  0.00    -0.140 OA 
BRANCH  40  41
HETATM   41  C   UNL     1      -8.030   9.748  67.945  1.00  0.00    -0.104 C  
HETATM   42  C   UNL     1      -7.521   9.019  65.469  1.00  0.00    -0.086 C  
HETATM   43  C   UNL     1      -7.510   6.070  67.894  1.00  0.00    -0.085 C  
HETATM   44  O   UNL     1      -6.823  11.140  66.064  1.00  0.00    -0.324 OA 
HETATM   45  C   UNL     1      -7.243   7.625  65.987  1.00  0.00    -0.070 C  
HETATM   46  H   UNL     1      -6.255  11.234  65.308  1.00  0.00     0.000 HD 
HETATM   47  C   UNL     1      -7.954   7.421  67.363  1.00  0.00    -0.112 C  
HETATM   48  C   UNL     1      -7.066   9.909  66.663  1.00  0.00    -0.087 C  
HETATM   49  O   UNL     1      -7.722   8.419  68.412  1.00  0.00    -0.101 OA 
BRANCH  42  50
HETATM   50  N   UNL     1      -6.981   9.396  64.119  1.00  0.00    -0.096 NA 
HETATM   51  C   UNL     1      -6.117   8.447  63.419  1.00  0.00    -0.077 C  
HETATM   52  C   UNL     1      -7.965   9.952  63.192  1.00  0.00    -0.145 C  
ENDBRANCH  42  50
ENDBRANCH  40  41
ENDBRANCH  13  40
BRANCH  35  53
HETATM   53  C   UNL     1      -7.409   8.375  71.227  1.00  0.00    -0.088 C  
HETATM   54  C   UNL     1      -6.478   7.222  70.886  1.00  0.00    -0.043 C  
ENDBRANCH  35  53
ENDBRANCH  11  12
ENDBRANCH   1  11
BRANCH   4  55
HETATM   55  O   UNL     1      -8.130  13.525  66.686  1.00  0.00     0.162 OA 
HETATM   56  C   UNL     1      -9.298  14.337  66.686  1.00  0.00    -0.284 C  
ENDBRANCH   4  55
TORSDOF 7
ENDMDL
MODEL      130
REMARK 921   NORMALIZED FREE ENERGY PREDICTED BY IDOCK:   55.84 KCAL/MOL
REMARK 922        TOTAL FREE ENERGY PREDICTED BY IDOCK:   76.00 KCAL/MOL
REMARK 923 INTER-LIGAND FREE ENERGY PREDICTED BY IDOCK:   58.02 KCAL/MOL
REMARK 924 INTRA-LIGAND FREE ENERGY PREDICTED BY IDOCK:   17.97 KCAL/MOL
REMARK 927      BINDING AFFINITY PREDICTED BY RF-SCORE:    0.00 PKD
ROOT
HETATM    1  C   UNL     1      -5.410  14.786  69.755  1.00  0.00    -0.094 C  
HETATM    2  O   UNL     1      -6.863  18.752  68.493  1.00  0.00    -0.246 OA 
HETATM    3  C   UNL     1      -5.382  15.248  68.234  1.00  0.00    -0.115 C  
HETATM    4  C   UNL     1      -6.289  16.456  67.778  1.00  0.00    -0.140 C  
HETATM    5  C   UNL     1      -6.683  18.030  71.259  1.00  0.00     3.253 C  
HETATM    6  C   UNL     1      -6.185  17.539  68.867  1.00  0.00    -0.201 C  
HETATM    7  C   UNL     1      -5.808  17.058  66.417  1.00  0.00    -0.074 C  
HETATM    8  O   UNL     1      -5.828  15.839  70.664  1.00  0.00    -0.084 OA 
HETATM    9  H   UNL     1      -6.799  19.420  69.165  1.00  0.00     0.000 HD 
HETATM   10  C   UNL     1      -6.655  16.924  70.192  1.00  0.00     0.466 C  
ENDROOT
BRANCH   1  11
HETATM   11  O   UNL     1      -5.779  13.301  70.013  1.00  0.00    -0.107 OA 
BRANCH  11  12
HETATM   12  C   UNL     1      -6.465  12.966  71.290  1.00  0.00     1.972 C  
HETATM   13  C   UNL     1      -8.854  13.851  70.097  1.00  0.00     2.513 C  
HETATM   14  C   UNL     1      -8.071  11.359  72.949  1.00  0.00    17.740 C  
HETATM   15  C   UNL     1      -7.717  13.905  71.334  1.00  0.00     5.072 C  
HETATM   16  O   UNL     1      -5.501   9.487  71.161  1.00  0.00    -0.047 OA 
HETATM   17  C   UNL     1      -6.766  11.400  72.099  1.00  0.00     5.113 C  
HETATM   18  C   UNL     1      -7.992  14.232  72.834  1.00  0.00     7.789 C  
HETATM   19  C   UNL     1     -10.378  13.878  70.687  1.00  0.00     2.390 C  
HETATM   20  O   UNL     1     -10.754  12.805  71.562  1.00  0.00     5.143 OA 
HETATM   21  C   UNL     1     -10.487  15.195  71.521  1.00  0.00     0.806 C  
HETATM   22  C   UNL     1      -6.585   9.936  71.553  1.00  0.00     0.455 C  
HETATM   23  C   UNL     1     -11.340  13.899  69.493  1.00  0.00    -0.293 C  
HETATM   24  C   UNL     1     -11.931  13.021  72.367  1.00  0.00     2.261 C  
HETATM   25  C   UNL     1     -12.416  12.818  69.186  1.00  0.00     0.322 C  
HETATM   26  H   UNL     1      -9.572   7.621  72.358  1.00  0.00     0.000 HD 
HETATM   27  O   UNL     1      -7.713   9.079  71.639  1.00  0.00    -0.310 OA 
HETATM   28  C   UNL     1     -12.142  11.277  68.856  1.00  0.00    -0.224 C  
HETATM   29  C   UNL     1     -13.065  13.478  67.904  1.00  0.00     2.801 C  
HETATM   30  O   UNL     1     -10.284   7.999  71.855  1.00  0.00    -0.191 OA 
HETATM   31  C   UNL     1      -9.908   6.510  70.004  1.00  0.00    -0.183 C  
HETATM   32  O   UNL     1     -12.240  10.956  67.655  1.00  0.00    -0.059 OA 
HETATM   33  C   UNL     1     -12.064  10.025  69.863  1.00  0.00    -0.022 C  
HETATM   34  C   UNL     1     -12.247  10.181  71.346  1.00  0.00    -0.492 C  
HETATM   35  C   UNL     1      -8.272   8.441  70.405  1.00  0.00    -0.115 C  
HETATM   36  C   UNL     1     -11.168   8.684  69.565  1.00  0.00     0.143 C  
HETATM   37  C   UNL     1      -9.898   8.009  70.465  1.00  0.00    -0.182 C  
HETATM   38  O   UNL     1     -11.151   8.336  68.174  1.00  0.00    -0.439 OA 
HETATM   39  H   UNL     1     -10.633   7.559  68.001  1.00  0.00     0.000 HD 
BRANCH  13  40
HETATM   40  O   UNL     1      -8.484  12.919  69.032  1.00  0.00     0.218 OA 
BRANCH  40  41
HETATM   41  C   UNL     1      -9.075  12.058  67.993  1.00  0.00    -0.188 C  
HETATM   42  C   UNL     1      -9.756  11.744  65.472  1.00  0.00    -0.224 C  
HETATM   43  C   UNL     1     -10.153   8.536  67.505  1.00  0.00    -0.282 C  
HETATM   44  O   UNL     1      -8.099  13.299  65.888  1.00  0.00     0.927 OA 
HETATM   45  C   UNL     1      -9.919  10.265  65.749  1.00  0.00    -0.337 C  
HETATM   46  H   UNL     1      -7.826  13.346  64.979  1.00  0.00     0.000 HD 
HETATM   47  C   UNL     1     -10.153  10.037  67.277  1.00  0.00    -0.209 C  
HETATM   48  C   UNL     1      -8.611  12.137  66.452  1.00  0.00    -0.001 C  
HETATM   49  O   UNL     1      -9.203  10.639  68.217  1.00  0.00    -0.143 OA 
BRANCH  42  50
HETATM   50  N   UNL     1      -9.587  12.185  64.046  1.00  0.00    -0.050 NA 
HETATM   51  C   UNL     1      -8.251  12.550  63.579  1.00  0.00     4.460 C  
HETATM   52  C   UNL     1     -10.248  11.338  63.054  1.00  0.00    -0.244 C  
ENDBRANCH  42  50
ENDBRANCH  40  41
ENDBRANCH  13  40
BRANCH  35  53
HETATM   53  C   UNL     1      -8.068   9.476  69.357  1.00  0.00    -0.116 C  
HETATM   54  C   UNL     1      -6.883   8.878  68.614  1.00  0.00    -0.063 C  
ENDBRANCH  35  53
ENDBRANCH  11  12
ENDBRANCH   1  11
BRANCH   4  55
HETATM   55  O   UNL     1      -7.617  15.921  67.623  1.00  0.00    -0.131 OA 
HETATM   56  C   UNL     1      -8.701  16.605  68.240  1.00  0.00    -0.216 C  
ENDBRANCH   4  55
TORSDOF 7
ENDMDL
MODEL      131
REMARK 921   NORMALIZED FREE ENERGY PREDICTED BY IDOCK:   56.14 KCAL/MOL
REMARK 922        TOTAL FREE ENERGY PREDICTED BY IDOCK:   76.43 KCAL/MOL
REMARK 923 INTER-LIGAND FREE ENERGY PREDICTED BY IDOCK:   64.21 KCAL/MOL
REMARK 924 INTRA-LIGAND FREE ENERGY PREDICTED BY IDOCK:   12.22 KCAL/MOL
REMARK 927      BINDING AFFINITY PREDICTED BY RF-SCORE:    0.00 PKD
ROOT
HETATM    1  C   UNL     1      -6.132   6.678  69.938  1.00  0.00    -0.027 C  
HETATM    2  O   UNL     1      -6.665   5.119  65.850  1.00  0.00    -0.050 OA 
HETATM    3  C   UNL     1      -6.846   5.285  69.655  1.00  0.00    -0.056 C  
HETATM    4  C   UNL     1      -7.396   4.982  68.207  1.00  0.00    -0.074 C  
HETATM    5  C   UNL     1      -5.155   7.499  66.363  1.00  0.00    -0.024 C  
HETATM    6  C   UNL     1      -6.334   5.470  67.205  1.00  0.00    -0.039 C  
HETATM    7  C   UNL     1      -7.633   3.452  67.989  1.00  0.00    -0.060 C  
HETATM    8  O   UNL     1      -5.574   7.287  68.745  1.00  0.00    -0.020 OA 
HETATM    9  H   UNL     1      -6.010   5.420  65.232  1.00  0.00     0.000 HD 
HETATM   10  C   UNL     1      -6.114   6.970  67.444  1.00  0.00    -0.040 C  
ENDROOT
BRANCH   1  11
HETATM   11  O   UNL     1      -6.739   7.537  71.079  1.00  0.00    -0.043 OA 
BRANCH  11  12
HETATM   12  C   UNL     1      -6.455   8.998  71.074  1.00  0.00    -0.068 C  
HETATM   13  C   UNL     1      -7.803   9.127  68.608  1.00  0.00    -0.097 C  
HETATM   14  C   UNL     1      -7.142  11.706  71.413  1.00  0.00     4.968 C  
HETATM   15  C   UNL     1      -6.446   9.402  69.561  1.00  0.00    -0.043 C  
HETATM   16  O   UNL     1      -8.205   9.580  74.180  1.00  0.00     1.201 OA 
HETATM   17  C   UNL     1      -7.040  10.323  72.123  1.00  0.00     2.959 C  
HETATM   18  C   UNL     1      -5.424  10.569  69.405  1.00  0.00    -0.037 C  
HETATM   19  C   UNL     1      -8.132  10.413  67.653  1.00  0.00    -0.107 C  
HETATM   20  O   UNL     1      -8.409  11.656  68.313  1.00  0.00    -0.145 OA 
HETATM   21  C   UNL     1      -6.850  10.640  66.790  1.00  0.00    -0.108 C  
HETATM   22  C   UNL     1      -8.195  10.324  73.192  1.00  0.00     8.163 C  
HETATM   23  C   UNL     1      -9.333  10.045  66.773  1.00  0.00    -0.193 C  
HETATM   24  C   UNL     1      -8.321  12.843  67.500  1.00  0.00    -0.183 C  
HETATM   25  C   UNL     1     -10.696  10.794  66.755  1.00  0.00    -0.291 C  
HETATM   26  H   UNL     1     -10.509  13.408  72.942  1.00  0.00     0.000 HD 
HETATM   27  O   UNL     1      -9.197  11.319  73.047  1.00  0.00    15.726 OA 
HETATM   28  C   UNL     1     -11.718  10.931  67.978  1.00  0.00    -0.124 C  
HETATM   29  C   UNL     1     -11.415   9.961  65.618  1.00  0.00     2.766 C  
HETATM   30  O   UNL     1     -10.934  13.295  72.100  1.00  0.00     4.772 OA 
HETATM   31  C   UNL     1     -12.841  12.215  73.089  1.00  0.00     4.022 C  
HETATM   32  O   UNL     1     -12.723  10.196  67.928  1.00  0.00     3.177 OA 
HETATM   33  C   UNL     1     -11.805  12.084  69.098  1.00  0.00    -0.369 C  
HETATM   34  C   UNL     1     -10.853  13.246  69.123  1.00  0.00    -0.148 C  
HETATM   35  C   UNL     1     -10.635  10.926  72.903  1.00  0.00    11.923 C  
HETATM   36  C   UNL     1     -12.389  11.828  70.609  1.00  0.00    -0.328 C  
HETATM   37  C   UNL     1     -11.628  12.031  72.112  1.00  0.00     4.461 C  
HETATM   38  O   UNL     1     -13.478  10.894  70.623  1.00  0.00     0.104 OA 
HETATM   39  H   UNL     1     -13.817  10.747  71.499  1.00  0.00     0.000 HD 
BRANCH  13  40
HETATM   40  O   UNL     1      -8.873   8.445  69.335  1.00  0.00    -0.139 OA 
BRANCH  40  41
HETATM   41  C   UNL     1      -9.121   7.658  70.555  1.00  0.00    -0.151 C  
HETATM   42  C   UNL     1     -10.738   6.086  71.909  1.00  0.00    -0.234 C  
HETATM   43  C   UNL     1      -7.301   6.405  73.542  1.00  0.00    -0.086 C  
HETATM   44  O   UNL     1     -11.053   6.133  69.621  1.00  0.00    -0.355 OA 
HETATM   45  C   UNL     1      -9.573   5.748  72.815  1.00  0.00    -0.159 C  
HETATM   46  H   UNL     1     -11.590   5.349  69.614  1.00  0.00     0.000 HD 
HETATM   47  C   UNL     1      -8.499   6.878  72.738  1.00  0.00    -0.116 C  
HETATM   48  C   UNL     1     -10.031   6.328  70.544  1.00  0.00    -0.186 C  
HETATM   49  O   UNL     1      -8.023   7.287  71.412  1.00  0.00    -0.096 OA 
BRANCH  42  50
HETATM   50  N   UNL     1     -11.916   5.154  71.889  1.00  0.00     0.777 NA 
HETATM   51  C   UNL     1     -12.190   4.344  73.075  1.00  0.00     0.492 C  
HETATM   52  C   UNL     1     -13.159   5.739  71.388  1.00  0.00     2.166 C  
ENDBRANCH  42  50
ENDBRANCH  40  41
ENDBRANCH  13  40
BRANCH  35  53
HETATM   53  C   UNL     1     -10.572   9.662  72.122  1.00  0.00     1.126 C  
HETATM   54  C   UNL     1     -11.984   9.139  72.340  1.00  0.00    -0.169 C  
ENDBRANCH  35  53
ENDBRANCH  11  12
ENDBRANCH   1  11
BRANCH   4  55
HETATM   55  O   UNL     1      -8.651   5.681  68.103  1.00  0.00    -0.105 OA 
HETATM   56  C   UNL     1      -9.360   5.624  66.871  1.00  0.00    -0.125 C  
ENDBRANCH   4  55
TORSDOF 7
ENDMDL
MODEL      132
REMARK 921   NORMALIZED FREE ENERGY PREDICTED BY IDOCK:   56.28 KCAL/MOL
REMARK 922        TOTAL FREE ENERGY PREDICTED BY IDOCK:   76.63 KCAL/MOL
REMARK 923 INTER-LIGAND FREE ENERGY PREDICTED BY IDOCK:   56.44 KCAL/MOL
REMARK 924 INTRA-LIGAND FREE ENERGY PREDICTED BY IDOCK:   20.18 KCAL/MOL
REMARK 927      BINDING AFFINITY PREDICTED BY RF-SCORE:    0.00 PKD
ROOT
HETATM    1  C   UNL     1      -5.539  12.655  67.695  1.00  0.00    -0.130 C  
HETATM    2  O   UNL     1      -6.165   9.548  70.758  1.00  0.00    -0.062 OA 
HETATM    3  C   UNL     1      -5.841  13.018  69.213  1.00  0.00    -0.086 C  
HETATM    4  C   UNL     1      -6.478  11.924  70.156  1.00  0.00     0.098 C  
HETATM    5  C   UNL     1      -5.372   8.883  68.087  1.00  0.00    -0.035 C  
HETATM    6  C   UNL     1      -5.763  10.595  69.857  1.00  0.00    -0.056 C  
HETATM    7  C   UNL     1      -6.280  12.278  71.666  1.00  0.00     2.180 C  
HETATM    8  O   UNL     1      -5.363  11.231  67.473  1.00  0.00    -0.041 OA 
HETATM    9  H   UNL     1      -5.724   8.727  70.574  1.00  0.00     0.000 HD 
HETATM   10  C   UNL     1      -5.966  10.273  68.370  1.00  0.00    -0.040 C  
ENDROOT
BRANCH   1  11
HETATM   11  O   UNL     1      -6.204  13.565  66.628  1.00  0.00     0.861 OA 
BRANCH  11  12
HETATM   12  C   UNL     1      -6.548  14.959  67.021  1.00  0.00     0.676 C  
HETATM   13  C   UNL     1      -8.900  14.675  65.504  1.00  0.00     1.380 C  
HETATM   14  C   UNL     1      -7.935  16.891  68.524  1.00  0.00    -0.242 C  
HETATM   15  C   UNL     1      -7.473  15.484  65.873  1.00  0.00     2.827 C  
HETATM   16  O   UNL     1      -6.516  14.213  70.556  1.00  0.00    -0.123 OA 
HETATM   17  C   UNL     1      -6.963  15.675  68.605  1.00  0.00    -0.125 C  
HETATM   18  C   UNL     1      -7.214  17.017  65.742  1.00  0.00     0.442 C  
HETATM   19  C   UNL     1     -10.134  15.722  65.270  1.00  0.00    -0.222 C  
HETATM   20  O   UNL     1     -10.483  16.570  66.374  1.00  0.00    -0.304 OA 
HETATM   21  C   UNL     1      -9.681  16.663  64.109  1.00  0.00     5.604 C  
HETATM   22  C   UNL     1      -7.301  14.970  69.971  1.00  0.00     0.045 C  
HETATM   23  C   UNL     1     -11.369  14.904  64.870  1.00  0.00    -0.415 C  
HETATM   24  C   UNL     1     -11.288  17.724  66.062  1.00  0.00     1.192 C  
HETATM   25  C   UNL     1     -12.711  14.860  65.655  1.00  0.00     0.298 C  
HETATM   26  H   UNL     1     -10.384  16.473  71.749  1.00  0.00     0.000 HD 
HETATM   27  O   UNL     1      -8.524  15.333  70.591  1.00  0.00     1.008 OA 
HETATM   28  C   UNL     1     -12.919  14.321  67.146  1.00  0.00     1.485 C  
HETATM   29  C   UNL     1     -13.529  13.917  64.683  1.00  0.00     1.364 C  
HETATM   30  O   UNL     1     -11.101  16.259  71.163  1.00  0.00    -0.218 OA 
HETATM   31  C   UNL     1     -11.643  14.259  72.381  1.00  0.00     0.879 C  
HETATM   32  O   UNL     1     -13.435  13.190  67.245  1.00  0.00     2.825 OA 
HETATM   33  C   UNL     1     -12.850  15.133  68.534  1.00  0.00     1.237 C  
HETATM   34  C   UNL     1     -12.551  16.604  68.583  1.00  0.00     2.322 C  
HETATM   35  C   UNL     1      -9.553  14.289  70.901  1.00  0.00     3.478 C  
HETATM   36  C   UNL     1     -12.424  14.444  69.959  1.00  0.00    -0.301 C  
HETATM   37  C   UNL     1     -11.145  14.826  71.007  1.00  0.00     0.021 C  
HETATM   38  O   UNL     1     -12.896  13.094  70.078  1.00  0.00     0.104 OA 
HETATM   39  H   UNL     1     -12.649  12.696  70.904  1.00  0.00     0.000 HD 
BRANCH  13  40
HETATM   40  O   UNL     1      -9.087  13.468  66.307  1.00  0.00    -0.125 OA 
BRANCH  40  41
HETATM   41  C   UNL     1      -9.783  12.170  66.296  1.00  0.00    -0.238 C  
HETATM   42  C   UNL     1     -11.460  10.524  67.478  1.00  0.00     0.082 C  
HETATM   43  C   UNL     1     -10.428   9.316  64.006  1.00  0.00     4.044 C  
HETATM   44  O   UNL     1     -11.685  12.759  68.017  1.00  0.00    -0.324 OA 
HETATM   45  C   UNL     1     -11.514   9.730  66.191  1.00  0.00     2.197 C  
HETATM   46  H   UNL     1     -12.543  12.644  68.409  1.00  0.00     0.000 HD 
HETATM   47  C   UNL     1     -10.236  10.016  65.339  1.00  0.00    -0.156 C  
HETATM   48  C   UNL     1     -11.238  11.975  66.960  1.00  0.00    -0.320 C  
HETATM   49  O   UNL     1      -9.885  11.414  65.072  1.00  0.00    -0.242 OA 
BRANCH  42  50
HETATM   50  N   UNL     1     -12.569  10.338  68.474  1.00  0.00     1.247 NA 
HETATM   51  C   UNL     1     -13.943  10.594  68.049  1.00  0.00    13.324 C  
HETATM   52  C   UNL     1     -12.508   9.097  69.244  1.00  0.00     2.459 C  
ENDBRANCH  42  50
ENDBRANCH  40  41
ENDBRANCH  13  40
BRANCH  35  53
HETATM   53  C   UNL     1      -9.423  13.330  69.772  1.00  0.00     2.025 C  
HETATM   54  C   UNL     1     -10.097  12.108  70.378  1.00  0.00     3.647 C  
ENDBRANCH  35  53
ENDBRANCH  11  12
ENDBRANCH   1  11
BRANCH   4  55
HETATM   55  O   UNL     1      -7.885  11.904  69.849  1.00  0.00     0.942 OA 
HETATM   56  C   UNL     1      -8.460  10.691  69.379  1.00  0.00    -0.044 C  
ENDBRANCH   4  55
TORSDOF 7
ENDMDL
MODEL      133
REMARK 921   NORMALIZED FREE ENERGY PREDICTED BY IDOCK:   56.46 KCAL/MOL
REMARK 922        TOTAL FREE ENERGY PREDICTED BY IDOCK:   76.88 KCAL/MOL
REMARK 923 INTER-LIGAND FREE ENERGY PREDICTED BY IDOCK:    8.76 KCAL/MOL
REMARK 924 INTRA-LIGAND FREE ENERGY PREDICTED BY IDOCK:   68.12 KCAL/MOL
REMARK 927      BINDING AFFINITY PREDICTED BY RF-SCORE:    0.00 PKD
ROOT
HETATM    1  C   UNL     1      -8.808   8.584  70.270  1.00  0.00    -0.148 C  
HETATM    2  O   UNL     1     -12.166   5.728  70.227  1.00  0.00     1.060 OA 
HETATM    3  C   UNL     1      -9.354   7.947  68.919  1.00  0.00    -0.150 C  
HETATM    4  C   UNL     1     -10.232   6.637  68.984  1.00  0.00    -0.177 C  
HETATM    5  C   UNL     1     -11.360   7.061  72.631  1.00  0.00    -0.290 C  
HETATM    6  C   UNL     1     -11.216   6.806  70.155  1.00  0.00    -0.335 C  
HETATM    7  C   UNL     1     -11.045   6.421  67.666  1.00  0.00    -0.388 C  
HETATM    8  O   UNL     1      -9.607   8.233  71.430  1.00  0.00    -0.156 OA 
HETATM    9  H   UNL     1     -12.773   5.833  70.949  1.00  0.00     0.000 HD 
HETATM   10  C   UNL     1     -10.395   7.023  71.434  1.00  0.00    -0.197 C  
ENDROOT
BRANCH   1  11
HETATM   11  O   UNL     1      -7.270   8.762  70.369  1.00  0.00    -0.041 OA 
BRANCH  11  12
HETATM   12  C   UNL     1      -6.567   9.384  69.215  1.00  0.00    -0.048 C  
HETATM   13  C   UNL     1      -9.064   9.522  67.926  1.00  0.00    -0.125 C  
HETATM   14  C   UNL     1      -5.789  11.555  67.602  1.00  0.00    -0.055 C  
HETATM   15  C   UNL     1      -7.453   9.041  67.971  1.00  0.00    -0.084 C  
HETATM   16  O   UNL     1      -5.330  12.158  71.171  1.00  0.00    -0.230 OA 
HETATM   17  C   UNL     1      -5.737  10.958  69.041  1.00  0.00    -0.040 C  
HETATM   18  C   UNL     1      -6.493   8.899  66.750  1.00  0.00    -0.064 C  
HETATM   19  C   UNL     1      -9.461  10.137  66.465  1.00  0.00    -0.169 C  
HETATM   20  O   UNL     1      -8.734  11.295  66.029  1.00  0.00    -0.188 OA 
HETATM   21  C   UNL     1      -9.162   9.005  65.431  1.00  0.00    -0.241 C  
HETATM   22  C   UNL     1      -5.733  12.205  70.002  1.00  0.00    -0.141 C  
HETATM   23  C   UNL     1     -10.957  10.478  66.494  1.00  0.00    -0.054 C  
HETATM   24  C   UNL     1      -8.809  11.602  64.622  1.00  0.00     0.486 C  
HETATM   25  C   UNL     1     -11.559  11.896  66.277  1.00  0.00    -0.317 C  
HETATM   26  H   UNL     1      -6.251  15.561  68.159  1.00  0.00     0.000 HD 
HETATM   27  O   UNL     1      -6.106  13.450  69.433  1.00  0.00    -0.092 OA 
HETATM   28  C   UNL     1     -11.315  13.179  67.200  1.00  0.00    -0.316 C  
HETATM   29  C   UNL     1     -13.094  11.523  66.367  1.00  0.00     6.156 C  
HETATM   30  O   UNL     1      -7.138  15.493  67.827  1.00  0.00    -0.129 OA 
HETATM   31  C   UNL     1      -8.054  16.644  69.728  1.00  0.00     0.804 C  
HETATM   32  O   UNL     1     -12.250  13.478  67.969  1.00  0.00    -0.308 OA 
HETATM   33  C   UNL     1     -10.186  14.318  67.070  1.00  0.00    -0.260 C  
HETATM   34  C   UNL     1      -9.148  14.292  65.984  1.00  0.00     0.096 C  
HETATM   35  C   UNL     1      -7.255  14.226  70.000  1.00  0.00     0.262 C  
HETATM   36  C   UNL     1      -9.610  15.165  68.351  1.00  0.00    -0.212 C  
HETATM   37  C   UNL     1      -8.025  15.286  68.944  1.00  0.00    -0.176 C  
HETATM   38  O   UNL     1     -10.625  15.437  69.328  1.00  0.00    -0.226 OA 
HETATM   39  H   UNL     1     -10.292  15.928  70.069  1.00  0.00     0.000 HD 
BRANCH  13  40
HETATM   40  O   UNL     1      -9.487  10.189  69.156  1.00  0.00    -0.183 OA 
BRANCH  40  41
HETATM   41  C   UNL     1     -10.608  10.955  69.728  1.00  0.00    -0.074 C  
HETATM   42  C   UNL     1     -12.154  13.079  69.605  1.00  0.00    -0.241 C  
HETATM   43  C   UNL     1     -13.328  10.565  72.228  1.00  0.00    -0.211 C  
HETATM   44  O   UNL     1     -11.136  12.452  67.628  1.00  0.00    -0.234 OA 
HETATM   45  C   UNL     1     -13.087  12.398  70.583  1.00  0.00     0.308 C  
HETATM   46  H   UNL     1     -11.703  12.993  67.090  1.00  0.00     0.000 HD 
HETATM   47  C   UNL     1     -12.308  11.308  71.385  1.00  0.00    -0.203 C  
HETATM   48  C   UNL     1     -11.569  11.872  68.816  1.00  0.00    -0.309 C  
HETATM   49  O   UNL     1     -11.535  10.317  70.629  1.00  0.00    -0.306 OA 
BRANCH  42  50
HETATM   50  N   UNL     1     -12.695  14.211  68.779  1.00  0.00     0.457 NA 
HETATM   51  C   UNL     1     -13.435  15.278  69.450  1.00  0.00     1.855 C  
HETATM   52  C   UNL     1     -11.749  14.786  67.823  1.00  0.00    -0.343 C  
ENDBRANCH  42  50
ENDBRANCH  40  41
ENDBRANCH  13  40
BRANCH  35  53
HETATM   53  C   UNL     1      -8.207  13.168  70.431  1.00  0.00     4.411 C  
HETATM   54  C   UNL     1      -8.088  12.205  69.259  1.00  0.00     0.558 C  
ENDBRANCH  35  53
ENDBRANCH  11  12
ENDBRANCH   1  11
BRANCH   4  55
HETATM   55  O   UNL     1      -9.308   5.546  69.161  1.00  0.00    -0.119 OA 
HETATM   56  C   UNL     1      -9.831   4.234  69.326  1.00  0.00    -0.110 C  
ENDBRANCH   4  55
TORSDOF 7
ENDMDL
MODEL      134
REMARK 921   NORMALIZED FREE ENERGY PREDICTED BY IDOCK:   56.52 KCAL/MOL
REMARK 922        TOTAL FREE ENERGY PREDICTED BY IDOCK:   76.95 KCAL/MOL
REMARK 923 INTER-LIGAND FREE ENERGY PREDICTED BY IDOCK:   62.69 KCAL/MOL
REMARK 924 INTRA-LIGAND FREE ENERGY PREDICTED BY IDOCK:   14.27 KCAL/MOL
REMARK 927      BINDING AFFINITY PREDICTED BY RF-SCORE:    0.00 PKD
ROOT
HETATM    1  C   UNL     1      -9.467  15.012  68.878  1.00  0.00    -0.211 C  
HETATM    2  O   UNL     1     -11.975  14.337  72.440  1.00  0.00    -0.040 OA 
HETATM    3  C   UNL     1      -8.932  15.290  70.350  1.00  0.00     1.003 C  
HETATM    4  C   UNL     1      -9.968  15.455  71.529  1.00  0.00     2.047 C  
HETATM    5  C   UNL     1     -12.860  13.594  69.819  1.00  0.00     0.354 C  
HETATM    6  C   UNL     1     -11.047  14.374  71.341  1.00  0.00     0.925 C  
HETATM    7  C   UNL     1      -9.290  15.259  72.924  1.00  0.00     8.051 C  
HETATM    8  O   UNL     1     -10.784  14.402  68.855  1.00  0.00    -0.242 OA 
HETATM    9  H   UNL     1     -12.641  13.670  72.324  1.00  0.00     0.000 HD 
HETATM   10  C   UNL     1     -11.691  14.583  69.964  1.00  0.00    -0.301 C  
ENDROOT
BRANCH   1  11
HETATM   11  O   UNL     1      -9.024  16.023  67.787  1.00  0.00    -0.186 OA 
BRANCH  11  12
HETATM   12  C   UNL     1      -7.986  15.586  66.815  1.00  0.00    -0.179 C  
HETATM   13  C   UNL     1      -7.565  13.344  68.461  1.00  0.00    -0.127 C  
HETATM   14  C   UNL     1      -7.017  14.014  64.691  1.00  0.00    17.904 C  
HETATM   15  C   UNL     1      -6.999  14.703  67.649  1.00  0.00    -0.205 C  
HETATM   16  O   UNL     1     -10.309  15.451  64.051  1.00  0.00     0.748 OA 
HETATM   17  C   UNL     1      -8.109  15.042  65.115  1.00  0.00     5.871 C  
HETATM   18  C   UNL     1      -5.582  14.888  67.026  1.00  0.00     1.077 C  
HETATM   19  C   UNL     1      -6.556  12.072  68.269  1.00  0.00    -0.055 C  
HETATM   20  O   UNL     1      -6.335  11.616  66.927  1.00  0.00    -0.134 OA 
HETATM   21  C   UNL     1      -5.170  12.542  68.816  1.00  0.00    -0.055 C  
HETATM   22  C   UNL     1      -9.381  14.663  64.270  1.00  0.00     4.128 C  
HETATM   23  C   UNL     1      -7.111  10.907  69.099  1.00  0.00    -0.109 C  
HETATM   24  C   UNL     1      -5.185  10.771  66.722  1.00  0.00    -0.054 C  
HETATM   25  C   UNL     1      -7.545   9.525  68.530  1.00  0.00    -0.081 C  
HETATM   26  H   UNL     1      -8.951  11.407  62.235  1.00  0.00     0.000 HD 
HETATM   27  O   UNL     1      -9.375  13.388  63.647  1.00  0.00     1.635 OA 
HETATM   28  C   UNL     1      -8.727   9.260  67.487  1.00  0.00    -0.115 C  
HETATM   29  C   UNL     1      -7.934   8.816  69.889  1.00  0.00    -0.106 C  
HETATM   30  O   UNL     1      -8.877  10.738  62.905  1.00  0.00    -0.207 OA 
HETATM   31  C   UNL     1     -11.225  10.231  62.812  1.00  0.00     2.979 C  
HETATM   32  O   UNL     1      -9.781   8.799  67.968  1.00  0.00    -0.150 OA 
HETATM   33  C   UNL     1      -8.664   9.205  65.879  1.00  0.00    -0.184 C  
HETATM   34  C   UNL     1      -7.384   9.424  65.124  1.00  0.00    -0.104 C  
HETATM   35  C   UNL     1     -10.461  12.399  63.942  1.00  0.00    -0.439 C  
HETATM   36  C   UNL     1      -9.935   9.583  64.915  1.00  0.00     0.326 C  
HETATM   37  C   UNL     1     -10.067  10.778  63.717  1.00  0.00    -0.327 C  
HETATM   38  O   UNL     1     -11.190   9.176  65.480  1.00  0.00     2.183 OA 
HETATM   39  H   UNL     1     -11.926   9.395  64.921  1.00  0.00     0.000 HD 
BRANCH  13  40
HETATM   40  O   UNL     1      -9.012  13.173  68.334  1.00  0.00    -0.187 OA 
BRANCH  40  41
HETATM   41  C   UNL     1     -10.083  12.188  68.560  1.00  0.00    -0.187 C  
HETATM   42  C   UNL     1     -11.062  10.254  70.051  1.00  0.00    -0.311 C  
HETATM   43  C   UNL     1     -13.480  11.352  67.307  1.00  0.00     9.872 C  
HETATM   44  O   UNL     1      -9.611  11.711  71.105  1.00  0.00     5.570 OA 
HETATM   45  C   UNL     1     -12.372  10.411  69.311  1.00  0.00     0.217 C  
HETATM   46  H   UNL     1      -9.858  11.427  71.978  1.00  0.00     0.000 HD 
HETATM   47  C   UNL     1     -12.119  11.086  67.925  1.00  0.00     0.441 C  
HETATM   48  C   UNL     1     -10.504  11.708  70.040  1.00  0.00     1.035 C  
HETATM   49  O   UNL     1     -11.356  12.338  67.898  1.00  0.00    -0.256 OA 
BRANCH  42  50
HETATM   50  N   UNL     1     -11.077   9.562  71.384  1.00  0.00    -0.371 NA 
HETATM   51  C   UNL     1     -12.260   9.698  72.231  1.00  0.00     0.011 C  
HETATM   52  C   UNL     1     -10.638   8.167  71.362  1.00  0.00    -0.220 C  
ENDBRANCH  42  50
ENDBRANCH  40  41
ENDBRANCH  13  40
BRANCH  35  53
HETATM   53  C   UNL     1     -10.773  12.644  65.375  1.00  0.00    -0.308 C  
HETATM   54  C   UNL     1     -11.885  13.673  65.237  1.00  0.00    -0.365 C  
ENDBRANCH  35  53
ENDBRANCH  11  12
ENDBRANCH   1  11
BRANCH   4  55
HETATM   55  O   UNL     1     -10.476  16.800  71.427  1.00  0.00     1.521 OA 
HETATM   56  C   UNL     1     -10.725  17.335  70.133  1.00  0.00     0.606 C  
ENDBRANCH   4  55
TORSDOF 7
ENDMDL
MODEL      135
REMARK 921   NORMALIZED FREE ENERGY PREDICTED BY IDOCK:   59.76 KCAL/MOL
REMARK 922        TOTAL FREE ENERGY PREDICTED BY IDOCK:   81.53 KCAL/MOL
REMARK 923 INTER-LIGAND FREE ENERGY PREDICTED BY IDOCK:   83.73 KCAL/MOL
REMARK 924 INTRA-LIGAND FREE ENERGY PREDICTED BY IDOCK:   -2.20 KCAL/MOL
REMARK 927      BINDING AFFINITY PREDICTED BY RF-SCORE:    0.00 PKD
ROOT
HETATM    1  C   UNL     1     -11.172   6.667  67.326  1.00  0.00    -0.228 C  
HETATM    2  O   UNL     1     -10.888   3.474  64.301  1.00  0.00    -0.463 OA 
HETATM    3  C   UNL     1     -11.112   6.986  65.769  1.00  0.00     3.436 C  
HETATM    4  C   UNL     1     -10.581   5.880  64.776  1.00  0.00     3.165 C  
HETATM    5  C   UNL     1     -11.251   2.881  67.079  1.00  0.00     7.689 C  
HETATM    6  C   UNL     1     -11.192   4.539  65.219  1.00  0.00     0.335 C  
HETATM    7  C   UNL     1     -11.014   6.173  63.302  1.00  0.00     7.825 C  
HETATM    8  O   UNL     1     -11.258   5.248  67.616  1.00  0.00     0.513 OA 
HETATM    9  H   UNL     1     -11.265   2.647  64.574  1.00  0.00     0.000 HD 
HETATM   10  C   UNL     1     -10.759   4.279  66.668  1.00  0.00     0.906 C  
ENDROOT
BRANCH   1  11
HETATM   11  O   UNL     1     -10.392   7.637  68.253  1.00  0.00    -0.194 OA 
BRANCH  11  12
HETATM   12  C   UNL     1     -11.013   8.006  69.554  1.00  0.00    -0.054 C  
HETATM   13  C   UNL     1      -8.498   8.998  70.333  1.00  0.00    -0.182 C  
HETATM   14  C   UNL     1     -12.125   9.815  71.400  1.00  0.00    -0.486 C  
HETATM   15  C   UNL     1      -9.831   8.003  70.580  1.00  0.00    -0.184 C  
HETATM   16  O   UNL     1     -13.471  10.168  68.028  1.00  0.00     7.170 OA 
HETATM   17  C   UNL     1     -12.266   9.211  69.970  1.00  0.00     0.581 C  
HETATM   18  C   UNL     1     -10.421   7.566  71.956  1.00  0.00    -0.245 C  
HETATM   19  C   UNL     1      -8.041   9.736  71.718  1.00  0.00     1.894 C  
HETATM   20  O   UNL     1      -9.008  10.588  72.349  1.00  0.00     6.749 OA 
HETATM   21  C   UNL     1      -7.730   8.587  72.730  1.00  0.00    -0.060 C  
HETATM   22  C   UNL     1     -12.879  10.367  69.095  1.00  0.00     1.465 C  
HETATM   23  C   UNL     1      -6.783  10.559  71.414  1.00  0.00     1.316 C  
HETATM   24  C   UNL     1      -8.757  10.926  73.728  1.00  0.00    15.463 C  
HETATM   25  C   UNL     1      -6.657  12.101  71.583  1.00  0.00     3.844 C  
HETATM   26  H   UNL     1     -13.147  13.733  70.974  1.00  0.00     0.000 HD 
HETATM   27  O   UNL     1     -12.836  11.675  69.645  1.00  0.00     0.205 OA 
HETATM   28  C   UNL     1      -7.495  13.211  70.794  1.00  0.00     3.930 C  
HETATM   29  C   UNL     1      -5.137  12.265  71.174  1.00  0.00    -0.143 C  
HETATM   30  O   UNL     1     -12.239  13.973  71.122  1.00  0.00    -0.343 OA 
HETATM   31  C   UNL     1     -12.165  15.333  69.141  1.00  0.00    -0.188 C  
HETATM   32  O   UNL     1      -6.890  13.794  69.874  1.00  0.00     0.008 OA 
HETATM   33  C   UNL     1      -8.889  13.906  71.203  1.00  0.00     6.756 C  
HETATM   34  C   UNL     1      -9.616  13.550  72.469  1.00  0.00    13.681 C  
HETATM   35  C   UNL     1     -12.150  12.782  68.905  1.00  0.00    -0.135 C  
HETATM   36  C   UNL     1      -9.960  14.488  70.107  1.00  0.00     0.726 C  
HETATM   37  C   UNL     1     -11.580  14.058  69.843  1.00  0.00    -0.254 C  
HETATM   38  O   UNL     1      -9.313  15.069  68.965  1.00  0.00    -0.201 OA 
HETATM   39  H   UNL     1      -9.934  15.406  68.330  1.00  0.00     0.000 HD 
BRANCH  13  40
HETATM   40  O   UNL     1      -8.580   9.748  69.080  1.00  0.00    -0.133 OA 
BRANCH  40  41
HETATM   41  C   UNL     1      -7.737  10.275  67.993  1.00  0.00    -0.089 C  
HETATM   42  C   UNL     1      -6.912  10.065  65.504  1.00  0.00    -0.124 C  
HETATM   43  C   UNL     1      -5.707  13.279  67.179  1.00  0.00     0.483 C  
HETATM   44  O   UNL     1      -8.949   9.085  65.982  1.00  0.00    -0.160 OA 
HETATM   45  C   UNL     1      -6.354  11.467  65.621  1.00  0.00     0.583 C  
HETATM   46  H   UNL     1      -9.193   8.998  65.068  1.00  0.00     0.000 HD 
HETATM   47  C   UNL     1      -6.116  11.818  67.125  1.00  0.00    -0.144 C  
HETATM   48  C   UNL     1      -8.152  10.127  66.443  1.00  0.00    -0.122 C  
HETATM   49  O   UNL     1      -7.228  11.623  68.061  1.00  0.00    -0.075 OA 
BRANCH  42  50
HETATM   50  N   UNL     1      -7.149   9.507  64.130  1.00  0.00    -0.107 NA 
HETATM   51  C   UNL     1      -7.791  10.357  63.129  1.00  0.00    -0.114 C  
HETATM   52  C   UNL     1      -6.004   8.817  63.537  1.00  0.00    -0.077 C  
ENDBRANCH  42  50
ENDBRANCH  40  41
ENDBRANCH  13  40
BRANCH  35  53
HETATM   53  C   UNL     1     -11.008  12.100  68.241  1.00  0.00    -0.273 C  
HETATM   54  C   UNL     1     -11.261  12.497  66.794  1.00  0.00    -0.347 C  
ENDBRANCH  35  53
ENDBRANCH  11  12
ENDBRANCH   1  11
BRANCH   4  55
HETATM   55  O   UNL     1      -9.144   5.918  64.870  1.00  0.00     0.115 OA 
HETATM   56  C   UNL     1      -8.385   5.898  63.667  1.00  0.00     0.017 C  
ENDBRANCH   4  55
TORSDOF 7
ENDMDL
MODEL      136
REMARK 921   NORMALIZED FREE ENERGY PREDICTED BY IDOCK:   60.07 KCAL/MOL
REMARK 922        TOTAL FREE ENERGY PREDICTED BY IDOCK:   81.96 KCAL/MOL
REMARK 923 INTER-LIGAND FREE ENERGY PREDICTED BY IDOCK:   66.91 KCAL/MOL
REMARK 924 INTRA-LIGAND FREE ENERGY PREDICTED BY IDOCK:   15.05 KCAL/MOL
REMARK 927      BINDING AFFINITY PREDICTED BY RF-SCORE:    0.00 PKD
ROOT
HETATM    1  C   UNL     1      -8.082  12.327  67.259  1.00  0.00    -0.182 C  
HETATM    2  O   UNL     1      -5.300  14.652  69.765  1.00  0.00    -0.092 OA 
HETATM    3  C   UNL     1      -8.013  13.914  67.190  1.00  0.00    -0.072 C  
HETATM    4  C   UNL     1      -7.345  14.709  68.379  1.00  0.00    -0.115 C  
HETATM    5  C   UNL     1      -5.236  11.789  69.713  1.00  0.00    -0.070 C  
HETATM    6  C   UNL     1      -6.071  13.944  68.778  1.00  0.00    -0.086 C  
HETATM    7  C   UNL     1      -6.952  16.162  67.953  1.00  0.00    -0.150 C  
HETATM    8  O   UNL     1      -7.061  11.748  68.113  1.00  0.00    -0.071 OA 
HETATM    9  H   UNL     1      -4.513  14.181  70.012  1.00  0.00     0.000 HD 
HETATM   10  C   UNL     1      -6.481  12.522  69.184  1.00  0.00    -0.099 C  
ENDROOT
BRANCH   1  11
HETATM   11  O   UNL     1      -9.496  11.698  67.147  1.00  0.00    -0.174 OA 
BRANCH  11  12
HETATM   12  C   UNL     1      -9.960  11.268  65.800  1.00  0.00    -0.237 C  
HETATM   13  C   UNL     1      -7.699   9.598  65.690  1.00  0.00    -0.107 C  
HETATM   14  C   UNL     1     -11.176   9.480  63.999  1.00  0.00     7.069 C  
HETATM   15  C   UNL     1      -8.661  10.819  65.051  1.00  0.00    -0.160 C  
HETATM   16  O   UNL     1     -13.124  10.034  67.033  1.00  0.00     9.036 OA 
HETATM   17  C   UNL     1     -11.396  10.336  65.283  1.00  0.00     1.673 C  
HETATM   18  C   UNL     1      -8.872  11.139  63.539  1.00  0.00     0.015 C  
HETATM   19  C   UNL     1      -7.222   8.547  64.532  1.00  0.00    -0.086 C  
HETATM   20  O   UNL     1      -8.256   7.849  63.823  1.00  0.00    -0.114 OA 
HETATM   21  C   UNL     1      -6.452   9.401  63.475  1.00  0.00    -0.094 C  
HETATM   22  C   UNL     1     -12.431   9.523  66.146  1.00  0.00    10.786 C  
HETATM   23  C   UNL     1      -6.295   7.517  65.191  1.00  0.00    -0.038 C  
HETATM   24  C   UNL     1      -7.870   7.231  62.580  1.00  0.00    -0.127 C  
HETATM   25  C   UNL     1      -6.551   5.983  65.243  1.00  0.00    -0.043 C  
HETATM   26  H   UNL     1     -13.247   6.042  64.679  1.00  0.00     0.000 HD 
HETATM   27  O   UNL     1     -12.639   8.166  65.782  1.00  0.00    11.184 OA 
HETATM   28  C   UNL     1      -7.774   5.251  65.969  1.00  0.00    -0.091 C  
HETATM   29  C   UNL     1      -5.221   5.541  65.977  1.00  0.00    -0.009 C  
HETATM   30  O   UNL     1     -12.423   5.574  64.755  1.00  0.00     3.468 OA 
HETATM   31  C   UNL     1     -13.047   4.595  66.859  1.00  0.00    17.447 C  
HETATM   32  O   UNL     1      -7.509   4.710  67.060  1.00  0.00    -0.083 OA 
HETATM   33  C   UNL     1      -9.209   4.842  65.367  1.00  0.00    -0.157 C  
HETATM   34  C   UNL     1      -9.590   5.135  63.943  1.00  0.00     0.595 C  
HETATM   35  C   UNL     1     -12.405   7.073  66.779  1.00  0.00     5.958 C  
HETATM   36  C   UNL     1     -10.567   4.723  66.279  1.00  0.00    -0.198 C  
HETATM   37  C   UNL     1     -12.038   5.558  66.144  1.00  0.00     3.275 C  
HETATM   38  O   UNL     1     -10.300   4.212  67.592  1.00  0.00     0.081 OA 
HETATM   39  H   UNL     1     -11.087   4.142  68.120  1.00  0.00     0.000 HD 
BRANCH  13  40
HETATM   40  O   UNL     1      -8.188   9.114  66.981  1.00  0.00    -0.114 OA 
BRANCH  40  41
HETATM   41  C   UNL     1      -7.897   8.117  68.026  1.00  0.00    -0.122 C  
HETATM   42  C   UNL     1      -7.987   7.457  70.571  1.00  0.00    -0.099 C  
HETATM   43  C   UNL     1      -6.866   4.562  68.347  1.00  0.00    -0.051 C  
HETATM   44  O   UNL     1      -9.508   9.054  69.884  1.00  0.00    -0.162 OA 
HETATM   45  C   UNL     1      -7.686   6.031  70.162  1.00  0.00    -0.096 C  
HETATM   46  H   UNL     1     -10.042   8.974  70.667  1.00  0.00     0.000 HD 
HETATM   47  C   UNL     1      -6.997   6.016  68.760  1.00  0.00    -0.072 C  
HETATM   48  C   UNL     1      -8.802   7.981  69.352  1.00  0.00    -0.144 C  
HETATM   49  O   UNL     1      -7.648   6.743  67.665  1.00  0.00    -0.101 OA 
BRANCH  42  50
HETATM   50  N   UNL     1      -8.592   7.695  71.924  1.00  0.00    -0.107 NA 
HETATM   51  C   UNL     1      -9.902   7.119  72.218  1.00  0.00    -0.153 C  
HETATM   52  C   UNL     1      -7.688   7.479  73.053  1.00  0.00    -0.096 C  
ENDBRANCH  42  50
ENDBRANCH  40  41
ENDBRANCH  13  40
BRANCH  35  53
HETATM   53  C   UNL     1     -11.255   7.573  67.578  1.00  0.00     0.243 C  
HETATM   54  C   UNL     1     -10.719   6.261  68.130  1.00  0.00    -0.364 C  
ENDBRANCH  35  53
ENDBRANCH  11  12
ENDBRANCH   1  11
BRANCH   4  55
HETATM   55  O   UNL     1      -8.334  14.767  69.425  1.00  0.00    -0.101 OA 
HETATM   56  C   UNL     1      -8.710  16.041  69.933  1.00  0.00     0.518 C  
ENDBRANCH   4  55
TORSDOF 7
ENDMDL
MODEL      137
REMARK 921   NORMALIZED FREE ENERGY PREDICTED BY IDOCK:   60.71 KCAL/MOL
REMARK 922        TOTAL FREE ENERGY PREDICTED BY IDOCK:   82.86 KCAL/MOL
REMARK 923 INTER-LIGAND FREE ENERGY PREDICTED BY IDOCK:   66.03 KCAL/MOL
REMARK 924 INTRA-LIGAND FREE ENERGY PREDICTED BY IDOCK:   16.84 KCAL/MOL
REMARK 927      BINDING AFFINITY PREDICTED BY RF-SCORE:    0.00 PKD
ROOT
HETATM    1  C   UNL     1      -8.082  12.327  67.259  1.00  0.00    -0.182 C  
HETATM    2  O   UNL     1      -5.300  14.652  69.765  1.00  0.00    -0.092 OA 
HETATM    3  C   UNL     1      -8.013  13.914  67.190  1.00  0.00    -0.072 C  
HETATM    4  C   UNL     1      -7.345  14.709  68.379  1.00  0.00    -0.115 C  
HETATM    5  C   UNL     1      -5.236  11.789  69.713  1.00  0.00    -0.070 C  
HETATM    6  C   UNL     1      -6.071  13.944  68.778  1.00  0.00    -0.086 C  
HETATM    7  C   UNL     1      -6.952  16.162  67.953  1.00  0.00    -0.150 C  
HETATM    8  O   UNL     1      -7.061  11.748  68.113  1.00  0.00    -0.071 OA 
HETATM    9  H   UNL     1      -4.513  14.181  70.012  1.00  0.00     0.000 HD 
HETATM   10  C   UNL     1      -6.481  12.522  69.184  1.00  0.00    -0.099 C  
ENDROOT
BRANCH   1  11
HETATM   11  O   UNL     1      -9.496  11.698  67.147  1.00  0.00    -0.174 OA 
BRANCH  11  12
HETATM   12  C   UNL     1      -9.960  11.268  65.800  1.00  0.00    -0.237 C  
HETATM   13  C   UNL     1      -7.699   9.598  65.690  1.00  0.00    -0.107 C  
HETATM   14  C   UNL     1     -11.176   9.480  63.999  1.00  0.00     7.069 C  
HETATM   15  C   UNL     1      -8.661  10.819  65.051  1.00  0.00    -0.160 C  
HETATM   16  O   UNL     1     -13.124  10.034  67.033  1.00  0.00     9.036 OA 
HETATM   17  C   UNL     1     -11.396  10.336  65.283  1.00  0.00     1.673 C  
HETATM   18  C   UNL     1      -8.872  11.139  63.539  1.00  0.00     0.015 C  
HETATM   19  C   UNL     1      -7.222   8.547  64.532  1.00  0.00    -0.086 C  
HETATM   20  O   UNL     1      -8.256   7.849  63.823  1.00  0.00    -0.114 OA 
HETATM   21  C   UNL     1      -6.452   9.401  63.475  1.00  0.00    -0.094 C  
HETATM   22  C   UNL     1     -12.431   9.523  66.146  1.00  0.00    10.786 C  
HETATM   23  C   UNL     1      -6.295   7.517  65.191  1.00  0.00    -0.038 C  
HETATM   24  C   UNL     1      -7.870   7.231  62.580  1.00  0.00    -0.127 C  
HETATM   25  C   UNL     1      -6.551   5.983  65.243  1.00  0.00    -0.043 C  
HETATM   26  H   UNL     1     -13.247   6.042  64.679  1.00  0.00     0.000 HD 
HETATM   27  O   UNL     1     -12.639   8.166  65.782  1.00  0.00    11.184 OA 
HETATM   28  C   UNL     1      -7.774   5.251  65.969  1.00  0.00    -0.091 C  
HETATM   29  C   UNL     1      -5.221   5.541  65.977  1.00  0.00    -0.009 C  
HETATM   30  O   UNL     1     -12.423   5.574  64.755  1.00  0.00     3.468 OA 
HETATM   31  C   UNL     1     -13.047   4.595  66.859  1.00  0.00    17.447 C  
HETATM   32  O   UNL     1      -7.509   4.710  67.060  1.00  0.00    -0.083 OA 
HETATM   33  C   UNL     1      -9.209   4.842  65.367  1.00  0.00    -0.157 C  
HETATM   34  C   UNL     1      -9.590   5.135  63.943  1.00  0.00     0.595 C  
HETATM   35  C   UNL     1     -12.405   7.073  66.779  1.00  0.00     5.958 C  
HETATM   36  C   UNL     1     -10.567   4.723  66.279  1.00  0.00    -0.198 C  
HETATM   37  C   UNL     1     -12.038   5.558  66.144  1.00  0.00     3.275 C  
HETATM   38  O   UNL     1     -10.300   4.212  67.592  1.00  0.00     0.081 OA 
HETATM   39  H   UNL     1     -11.087   4.142  68.120  1.00  0.00     0.000 HD 
BRANCH  13  40
HETATM   40  O   UNL     1      -8.188   9.114  66.981  1.00  0.00    -0.114 OA 
BRANCH  40  41
HETATM   41  C   UNL     1      -9.239   9.358  67.984  1.00  0.00    -0.130 C  
HETATM   42  C   UNL     1     -10.821   8.383  69.845  1.00  0.00    -0.207 C  
HETATM   43  C   UNL     1     -10.949  12.196  69.665  1.00  0.00     0.057 C  
HETATM   44  O   UNL     1      -8.907   7.167  69.404  1.00  0.00    -0.136 OA 
HETATM   45  C   UNL     1     -11.099   9.804  70.286  1.00  0.00    -0.349 C  
HETATM   46  H   UNL     1      -8.976   6.650  70.198  1.00  0.00     0.000 HD 
HETATM   47  C   UNL     1     -10.801  10.790  69.111  1.00  0.00    -0.237 C  
HETATM   48  C   UNL     1      -9.355   8.481  69.331  1.00  0.00    -0.154 C  
HETATM   49  O   UNL     1      -9.494  10.699  68.451  1.00  0.00    -0.153 OA 
BRANCH  42  50
HETATM   50  N   UNL     1     -11.111   7.270  70.811  1.00  0.00    -0.259 NA 
HETATM   51  C   UNL     1     -10.385   7.236  72.079  1.00  0.00    -0.192 C  
HETATM   52  C   UNL     1     -12.530   7.005  71.042  1.00  0.00    -0.326 C  
ENDBRANCH  42  50
ENDBRANCH  40  41
ENDBRANCH  13  40
BRANCH  35  53
HETATM   53  C   UNL     1     -11.255   7.573  67.578  1.00  0.00     0.243 C  
HETATM   54  C   UNL     1     -10.719   6.261  68.130  1.00  0.00    -0.364 C  
ENDBRANCH  35  53
ENDBRANCH  11  12
ENDBRANCH   1  11
BRANCH   4  55
HETATM   55  O   UNL     1      -8.334  14.767  69.425  1.00  0.00    -0.101 OA 
HETATM   56  C   UNL     1      -8.710  16.041  69.933  1.00  0.00     0.518 C  
ENDBRANCH   4  55
TORSDOF 7
ENDMDL
MODEL      138
REMARK 921   NORMALIZED FREE ENERGY PREDICTED BY IDOCK:   61.81 KCAL/MOL
REMARK 922        TOTAL FREE ENERGY PREDICTED BY IDOCK:   84.42 KCAL/MOL
REMARK 923 INTER-LIGAND FREE ENERGY PREDICTED BY IDOCK:   58.57 KCAL/MOL
REMARK 924 INTRA-LIGAND FREE ENERGY PREDICTED BY IDOCK:   25.84 KCAL/MOL
REMARK 927      BINDING AFFINITY PREDICTED BY RF-SCORE:    0.00 PKD
ROOT
HETATM    1  C   UNL     1      -8.898   5.583  65.744  1.00  0.00    -0.153 C  
HETATM    2  O   UNL     1      -6.121   2.604  64.058  1.00  0.00    -0.013 OA 
HETATM    3  C   UNL     1      -7.816   5.969  64.644  1.00  0.00    -0.112 C  
HETATM    4  C   UNL     1      -6.589   5.007  64.399  1.00  0.00    -0.042 C  
HETATM    5  C   UNL     1      -8.228   1.848  65.845  1.00  0.00    -0.085 C  
HETATM    6  C   UNL     1      -7.131   3.566  64.410  1.00  0.00    -0.057 C  
HETATM    7  C   UNL     1      -5.906   5.281  63.019  1.00  0.00    -0.014 C  
HETATM    8  O   UNL     1      -8.953   4.159  66.016  1.00  0.00    -0.118 OA 
HETATM    9  H   UNL     1      -6.455   1.715  64.065  1.00  0.00     0.000 HD 
HETATM   10  C   UNL     1      -7.801   3.324  65.770  1.00  0.00    -0.085 C  
ENDROOT
BRANCH   1  11
HETATM   11  O   UNL     1      -9.139   6.632  66.862  1.00  0.00    -0.127 OA 
BRANCH  11  12
HETATM   12  C   UNL     1      -9.319   6.134  68.253  1.00  0.00    -0.116 C  
HETATM   13  C   UNL     1      -7.474   8.098  69.062  1.00  0.00    -0.088 C  
HETATM   14  C   UNL     1     -10.358   6.257  70.865  1.00  0.00    -0.253 C  
HETATM   15  C   UNL     1      -7.985   6.498  68.986  1.00  0.00    -0.111 C  
HETATM   16  O   UNL     1     -12.870   6.800  68.275  1.00  0.00     5.037 OA 
HETATM   17  C   UNL     1     -10.728   6.175  69.353  1.00  0.00    -0.385 C  
HETATM   18  C   UNL     1      -7.736   5.393  70.058  1.00  0.00    -0.077 C  
HETATM   19  C   UNL     1      -6.930   8.480  70.556  1.00  0.00    -0.040 C  
HETATM   20  O   UNL     1      -7.865   8.355  71.637  1.00  0.00    -0.101 OA 
HETATM   21  C   UNL     1      -5.766   7.482  70.853  1.00  0.00    -0.031 C  
HETATM   22  C   UNL     1     -12.086   6.958  69.219  1.00  0.00     0.945 C  
HETATM   23  C   UNL     1      -6.421   9.926  70.510  1.00  0.00    -0.116 C  
HETATM   24  C   UNL     1      -7.302   8.320  72.964  1.00  0.00    -0.102 C  
HETATM   25  C   UNL     1      -6.974  11.101  71.368  1.00  0.00     3.376 C  
HETATM   26  H   UNL     1     -13.161   8.728  72.481  1.00  0.00     0.000 HD 
HETATM   27  O   UNL     1     -12.454   7.789  70.310  1.00  0.00     0.342 OA 
HETATM   28  C   UNL     1      -8.459  11.691  71.318  1.00  0.00    10.133 C  
HETATM   29  C   UNL     1      -5.987  12.239  70.885  1.00  0.00     0.272 C  
HETATM   30  O   UNL     1     -12.491   9.391  72.602  1.00  0.00    -0.174 OA 
HETATM   31  C   UNL     1     -13.810  11.077  71.508  1.00  0.00     0.638 C  
HETATM   32  O   UNL     1      -8.593  12.771  70.710  1.00  0.00     6.196 OA 
HETATM   33  C   UNL     1      -9.745  11.269  72.190  1.00  0.00    13.494 C  
HETATM   34  C   UNL     1      -9.686  10.180  73.222  1.00  0.00     9.642 C  
HETATM   35  C   UNL     1     -12.699   9.251  70.096  1.00  0.00     0.848 C  
HETATM   36  C   UNL     1     -11.287  11.426  71.653  1.00  0.00     2.965 C  
HETATM   37  C   UNL     1     -12.484  10.242  71.439  1.00  0.00    -0.424 C  
HETATM   38  O   UNL     1     -11.469  12.598  70.846  1.00  0.00     0.090 OA 
HETATM   39  H   UNL     1     -12.362  12.689  70.536  1.00  0.00     0.000 HD 
BRANCH  13  40
HETATM   40  O   UNL     1      -8.359   9.007  68.336  1.00  0.00    -0.122 OA 
BRANCH  40  41
HETATM   41  C   UNL     1      -8.720  10.432  68.233  1.00  0.00    -0.128 C  
HETATM   42  C   UNL     1      -8.378  12.891  69.100  1.00  0.00     0.613 C  
HETATM   43  C   UNL     1     -10.577  12.733  65.983  1.00  0.00    -0.289 C  
HETATM   44  O   UNL     1      -6.629  11.430  69.482  1.00  0.00    -0.107 OA 
HETATM   45  C   UNL     1      -9.106  13.377  67.866  1.00  0.00    -0.208 C  
HETATM   46  H   UNL     1      -6.011  12.122  69.686  1.00  0.00     0.000 HD 
HETATM   47  C   UNL     1     -10.001  12.232  67.295  1.00  0.00    -0.204 C  
HETATM   48  C   UNL     1      -7.671  11.605  68.579  1.00  0.00    -0.134 C  
HETATM   49  O   UNL     1      -9.377  10.928  67.049  1.00  0.00    -0.162 OA 
BRANCH  42  50
HETATM   50  N   UNL     1      -7.511  13.867  69.844  1.00  0.00     0.482 NA 
HETATM   51  C   UNL     1      -6.981  15.024  69.126  1.00  0.00    -0.139 C  
HETATM   52  C   UNL     1      -8.026  14.283  71.148  1.00  0.00     3.865 C  
ENDBRANCH  42  50
ENDBRANCH  40  41
ENDBRANCH  13  40
BRANCH  35  53
HETATM   53  C   UNL     1     -11.716   9.616  69.041  1.00  0.00     0.425 C  
HETATM   54  C   UNL     1     -12.624  10.357  68.071  1.00  0.00     3.558 C  
ENDBRANCH  35  53
ENDBRANCH  11  12
ENDBRANCH   1  11
BRANCH   4  55
HETATM   55  O   UNL     1      -5.652   5.278  65.460  1.00  0.00    -0.013 OA 
HETATM   56  C   UNL     1      -5.423   6.631  65.833  1.00  0.00    -0.018 C  
ENDBRANCH   4  55
TORSDOF 7
ENDMDL
MODEL      139
REMARK 921   NORMALIZED FREE ENERGY PREDICTED BY IDOCK:   63.32 KCAL/MOL
REMARK 922        TOTAL FREE ENERGY PREDICTED BY IDOCK:   86.55 KCAL/MOL
REMARK 923 INTER-LIGAND FREE ENERGY PREDICTED BY IDOCK:   81.44 KCAL/MOL
REMARK 924 INTRA-LIGAND FREE ENERGY PREDICTED BY IDOCK:    5.10 KCAL/MOL
REMARK 927      BINDING AFFINITY PREDICTED BY RF-SCORE:    0.00 PKD
ROOT
HETATM    1  C   UNL     1      -7.532  13.602  66.399  1.00  0.00     2.068 C  
HETATM    2  O   UNL     1      -8.483   9.649  68.103  1.00  0.00    -0.117 OA 
HETATM    3  C   UNL     1      -8.692  13.403  67.469  1.00  0.00    -0.205 C  
HETATM    4  C   UNL     1      -9.276  11.958  67.714  1.00  0.00    -0.184 C  
HETATM    5  C   UNL     1      -6.232  10.036  66.373  1.00  0.00    -0.068 C  
HETATM    6  C   UNL     1      -8.084  10.985  67.747  1.00  0.00    -0.116 C  
HETATM    7  C   UNL     1     -10.042  11.867  69.074  1.00  0.00     0.032 C  
HETATM    8  O   UNL     1      -6.761  12.395  66.162  1.00  0.00     0.812 OA 
HETATM    9  H   UNL     1      -7.747   9.049  68.124  1.00  0.00     0.000 HD 
HETATM   10  C   UNL     1      -7.345  11.097  66.406  1.00  0.00    -0.099 C  
ENDROOT
BRANCH   1  11
HETATM   11  O   UNL     1      -7.819  14.617  65.261  1.00  0.00     4.621 OA 
BRANCH  11  12
HETATM   12  C   UNL     1      -6.991  15.853  65.207  1.00  0.00     6.837 C  
HETATM   13  C   UNL     1      -9.392  17.316  65.313  1.00  0.00     1.440 C  
HETATM   14  C   UNL     1      -5.747  18.110  66.335  1.00  0.00    -0.197 C  
HETATM   15  C   UNL     1      -7.928  16.937  64.578  1.00  0.00     7.779 C  
HETATM   16  O   UNL     1      -5.176  15.041  68.223  1.00  0.00    -0.100 OA 
HETATM   17  C   UNL     1      -5.833  16.554  66.374  1.00  0.00     0.578 C  
HETATM   18  C   UNL     1      -7.019  17.909  63.763  1.00  0.00     7.984 C  
HETATM   19  C   UNL     1      -9.638  18.932  65.351  1.00  0.00     1.191 C  
HETATM   20  O   UNL     1      -8.671  19.719  66.061  1.00  0.00    -0.367 OA 
HETATM   21  C   UNL     1      -9.595  19.404  63.863  1.00  0.00    10.466 C  
HETATM   22  C   UNL     1      -5.555  16.166  67.873  1.00  0.00    -0.128 C  
HETATM   23  C   UNL     1     -11.021  19.177  65.969  1.00  0.00    -0.142 C  
HETATM   24  C   UNL     1      -8.671  21.133  65.781  1.00  0.00     1.888 C  
HETATM   25  C   UNL     1     -11.293  19.989  67.268  1.00  0.00     0.535 C  
HETATM   26  H   UNL     1      -5.310  19.220  70.227  1.00  0.00     0.000 HD 
HETATM   27  O   UNL     1      -5.640  17.211  68.830  1.00  0.00    -0.139 OA 
HETATM   28  C   UNL     1     -10.774  19.628  68.736  1.00  0.00     0.393 C  
HETATM   29  C   UNL     1     -12.873  19.902  67.281  1.00  0.00     4.835 C  
HETATM   30  O   UNL     1      -6.189  19.580  70.211  1.00  0.00    -0.257 OA 
HETATM   31  C   UNL     1      -6.832  18.378  72.192  1.00  0.00     4.705 C  
HETATM   32  O   UNL     1     -11.621  19.128  69.503  1.00  0.00     3.776 OA 
HETATM   33  C   UNL     1      -9.419  20.091  69.472  1.00  0.00     0.262 C  
HETATM   34  C   UNL     1      -8.410  20.978  68.801  1.00  0.00     1.684 C  
HETATM   35  C   UNL     1      -6.590  17.103  69.983  1.00  0.00     0.325 C  
HETATM   36  C   UNL     1      -8.674  19.199  70.629  1.00  0.00     2.836 C  
HETATM   37  C   UNL     1      -7.103  18.558  70.658  1.00  0.00     2.079 C  
HETATM   38  O   UNL     1      -9.606  18.507  71.471  1.00  0.00     4.993 OA 
HETATM   39  H   UNL     1      -9.174  17.991  72.142  1.00  0.00     0.000 HD 
BRANCH  13  40
HETATM   40  O   UNL     1      -9.660  16.493  66.491  1.00  0.00    -0.243 OA 
BRANCH  40  41
HETATM   41  C   UNL     1     -10.755  16.076  67.384  1.00  0.00    -0.306 C  
HETATM   42  C   UNL     1     -12.741  14.418  67.860  1.00  0.00     0.925 C  
HETATM   43  C   UNL     1     -12.016  16.721  70.819  1.00  0.00     1.174 C  
HETATM   44  O   UNL     1     -11.094  13.644  66.436  1.00  0.00    -0.299 OA 
HETATM   45  C   UNL     1     -12.760  14.926  69.286  1.00  0.00     0.253 C  
HETATM   46  H   UNL     1     -11.377  12.738  66.498  1.00  0.00     0.000 HD 
HETATM   47  C   UNL     1     -12.104  16.342  69.351  1.00  0.00     0.219 C  
HETATM   48  C   UNL     1     -11.234  14.541  67.490  1.00  0.00    -0.321 C  
HETATM   49  O   UNL     1     -10.773  16.512  68.758  1.00  0.00    -0.296 OA 
BRANCH  42  50
HETATM   50  N   UNL     1     -13.389  13.094  67.569  1.00  0.00     3.110 NA 
HETATM   51  C   UNL     1     -13.312  12.560  66.211  1.00  0.00     3.887 C  
HETATM   52  C   UNL     1     -13.100  12.037  68.537  1.00  0.00     3.477 C  
ENDBRANCH  42  50
ENDBRANCH  40  41
ENDBRANCH  13  40
BRANCH  35  53
HETATM   53  C   UNL     1      -7.755  16.382  69.406  1.00  0.00    -0.072 C  
HETATM   54  C   UNL     1      -7.645  15.057  70.145  1.00  0.00     0.302 C  
ENDBRANCH  35  53
ENDBRANCH  11  12
ENDBRANCH   1  11
BRANCH   4  55
HETATM   55  O   UNL     1     -10.192  11.710  66.630  1.00  0.00    -0.208 OA 
HETATM   56  C   UNL     1     -10.433  10.364  66.239  1.00  0.00    -0.159 C  
ENDBRANCH   4  55
TORSDOF 7
ENDMDL
MODEL      140
REMARK 921   NORMALIZED FREE ENERGY PREDICTED BY IDOCK:   63.53 KCAL/MOL
REMARK 922        TOTAL FREE ENERGY PREDICTED BY IDOCK:   86.85 KCAL/MOL
REMARK 923 INTER-LIGAND FREE ENERGY PREDICTED BY IDOCK:   70.08 KCAL/MOL
REMARK 924 INTRA-LIGAND FREE ENERGY PREDICTED BY IDOCK:   16.77 KCAL/MOL
REMARK 927      BINDING AFFINITY PREDICTED BY RF-SCORE:    0.00 PKD
ROOT
HETATM    1  C   UNL     1     -11.978  12.905  69.116  1.00  0.00    -0.259 C  
HETATM    2  O   UNL     1      -9.632  15.664  66.605  1.00  0.00    -0.225 OA 
HETATM    3  C   UNL     1     -12.658  13.810  67.999  1.00  0.00     0.572 C  
HETATM    4  C   UNL     1     -11.878  15.065  67.445  1.00  0.00    -0.148 C  
HETATM    5  C   UNL     1      -8.368  13.858  68.433  1.00  0.00    -0.157 C  
HETATM    6  C   UNL     1     -10.414  14.638  67.241  1.00  0.00    -0.266 C  
HETATM    7  C   UNL     1     -12.461  15.549  66.077  1.00  0.00     1.298 C  
HETATM    8  O   UNL     1     -10.529  12.990  69.117  1.00  0.00    -0.064 OA 
HETATM    9  H   UNL     1      -8.728  15.400  66.478  1.00  0.00     0.000 HD 
HETATM   10  C   UNL     1      -9.868  14.162  68.593  1.00  0.00    -0.206 C  
ENDROOT
BRANCH   1  11
HETATM   11  O   UNL     1     -12.780  12.727  70.433  1.00  0.00    -0.087 OA 
BRANCH  11  12
HETATM   12  C   UNL     1     -12.234  11.798  71.459  1.00  0.00     0.265 C  
HETATM   13  C   UNL     1     -12.689   9.709  69.631  1.00  0.00     1.299 C  
HETATM   14  C   UNL     1     -10.233  10.170  72.583  1.00  0.00     6.266 C  
HETATM   15  C   UNL     1     -12.895  10.415  71.143  1.00  0.00    -0.511 C  
HETATM   16  O   UNL     1      -9.037  13.475  71.605  1.00  0.00     9.390 OA 
HETATM   17  C   UNL     1     -10.591  11.622  72.144  1.00  0.00    10.511 C  
HETATM   18  C   UNL     1     -13.064   9.668  72.501  1.00  0.00    -0.271 C  
HETATM   19  C   UNL     1     -12.370   8.110  69.759  1.00  0.00     1.598 C  
HETATM   20  O   UNL     1     -11.190   7.741  70.487  1.00  0.00    -0.265 OA 
HETATM   21  C   UNL     1     -13.582   7.495  70.529  1.00  0.00     0.837 C  
HETATM   22  C   UNL     1      -9.231  12.255  71.670  1.00  0.00    17.137 C  
HETATM   23  C   UNL     1     -12.271   7.540  68.338  1.00  0.00     3.408 C  
HETATM   24  C   UNL     1     -11.112   6.368  70.920  1.00  0.00    -0.298 C  
HETATM   25  C   UNL     1     -11.015   6.849  67.733  1.00  0.00    -0.280 C  
HETATM   26  H   UNL     1      -6.313   9.724  71.578  1.00  0.00     0.000 HD 
HETATM   27  O   UNL     1      -8.160  11.357  71.426  1.00  0.00     6.156 OA 
HETATM   28  C   UNL     1      -9.586   7.525  67.492  1.00  0.00    -0.142 C  
HETATM   29  C   UNL     1     -11.610   6.461  66.320  1.00  0.00     1.754 C  
HETATM   30  O   UNL     1      -6.570   9.119  70.891  1.00  0.00    -0.065 OA 
HETATM   31  C   UNL     1      -5.308  10.306  69.224  1.00  0.00    -0.038 C  
HETATM   32  O   UNL     1      -9.328   7.838  66.313  1.00  0.00    -0.185 OA 
HETATM   33  C   UNL     1      -8.314   7.581  68.477  1.00  0.00    -0.126 C  
HETATM   34  C   UNL     1      -8.337   6.960  69.845  1.00  0.00    -0.139 C  
HETATM   35  C   UNL     1      -7.501  11.315  70.082  1.00  0.00     1.051 C  
HETATM   36  C   UNL     1      -7.205   8.788  68.446  1.00  0.00    -0.081 C  
HETATM   37  C   UNL     1      -6.746   9.868  69.672  1.00  0.00    -0.061 C  
HETATM   38  O   UNL     1      -6.955   9.267  67.117  1.00  0.00    -0.083 OA 
HETATM   39  H   UNL     1      -6.312   9.966  67.100  1.00  0.00     0.000 HD 
BRANCH  13  40
HETATM   40  O   UNL     1     -11.921  10.552  68.716  1.00  0.00    -0.302 OA 
BRANCH  40  41
HETATM   41  C   UNL     1     -11.878  10.989  67.310  1.00  0.00     0.500 C  
HETATM   42  C   UNL     1     -10.473  11.295  65.107  1.00  0.00    -0.291 C  
HETATM   43  C   UNL     1     -14.189  12.004  64.583  1.00  0.00     4.931 C  
HETATM   44  O   UNL     1      -9.694   9.708  66.594  1.00  0.00    -0.182 OA 
HETATM   45  C   UNL     1     -11.774  11.505  64.363  1.00  0.00    -0.131 C  
HETATM   46  H   UNL     1      -9.114   9.304  65.958  1.00  0.00     0.000 HD 
HETATM   47  C   UNL     1     -12.886  11.963  65.361  1.00  0.00     1.842 C  
HETATM   48  C   UNL     1     -10.896  10.304  66.231  1.00  0.00     0.085 C  
HETATM   49  O   UNL     1     -13.103  11.157  66.567  1.00  0.00     5.122 OA 
BRANCH  42  50
HETATM   50  N   UNL     1      -9.255  10.916  64.314  1.00  0.00    -0.209 NA 
HETATM   51  C   UNL     1      -8.532  11.963  63.595  1.00  0.00     1.423 C  
HETATM   52  C   UNL     1      -8.309  10.046  65.012  1.00  0.00    -0.155 C  
ENDBRANCH  42  50
ENDBRANCH  40  41
ENDBRANCH  13  40
BRANCH  35  53
HETATM   53  C   UNL     1      -8.620  11.580  69.139  1.00  0.00     0.237 C  
HETATM   54  C   UNL     1      -9.309  10.224  69.150  1.00  0.00    -0.214 C  
ENDBRANCH  35  53
ENDBRANCH  11  12
ENDBRANCH   1  11
BRANCH   4  55
HETATM   55  O   UNL     1     -12.043  16.104  68.430  1.00  0.00    -0.030 OA 
HETATM   56  C   UNL     1     -12.329  15.728  69.771  1.00  0.00    -0.137 C  
ENDBRANCH   4  55
TORSDOF 7
ENDMDL
MODEL      141
REMARK 921   NORMALIZED FREE ENERGY PREDICTED BY IDOCK:   63.87 KCAL/MOL
REMARK 922        TOTAL FREE ENERGY PREDICTED BY IDOCK:   87.31 KCAL/MOL
REMARK 923 INTER-LIGAND FREE ENERGY PREDICTED BY IDOCK:   22.71 KCAL/MOL
REMARK 924 INTRA-LIGAND FREE ENERGY PREDICTED BY IDOCK:   64.60 KCAL/MOL
REMARK 927      BINDING AFFINITY PREDICTED BY RF-SCORE:    0.00 PKD
ROOT
HETATM    1  C   UNL     1      -8.976  12.524  65.755  1.00  0.00     0.358 C  
HETATM    2  O   UNL     1      -6.871   8.706  65.106  1.00  0.00    -0.067 OA 
HETATM    3  C   UNL     1      -7.805  12.034  66.715  1.00  0.00    -0.036 C  
HETATM    4  C   UNL     1      -7.394  10.511  66.712  1.00  0.00    -0.114 C  
HETATM    5  C   UNL     1      -8.797   9.696  63.231  1.00  0.00    -0.254 C  
HETATM    6  C   UNL     1      -7.370  10.048  65.244  1.00  0.00    -0.137 C  
HETATM    7  C   UNL     1      -5.975  10.295  67.334  1.00  0.00    -0.053 C  
HETATM    8  O   UNL     1      -9.168  11.663  64.603  1.00  0.00    -0.041 OA 
HETATM    9  H   UNL     1      -6.856   8.421  64.200  1.00  0.00     0.000 HD 
HETATM   10  C   UNL     1      -8.769  10.276  64.655  1.00  0.00    -0.190 C  
ENDROOT
BRANCH   1  11
HETATM   11  O   UNL     1     -10.171  13.236  66.443  1.00  0.00    -0.278 OA 
BRANCH  11  12
HETATM   12  C   UNL     1      -9.952  13.808  67.799  1.00  0.00    -0.242 C  
HETATM   13  C   UNL     1     -11.687  11.824  68.783  1.00  0.00    -0.329 C  
HETATM   14  C   UNL     1      -8.800  13.854  70.366  1.00  0.00     3.326 C  
HETATM   15  C   UNL     1     -11.239  13.435  68.607  1.00  0.00    -0.304 C  
HETATM   16  O   UNL     1      -6.381  13.270  67.699  1.00  0.00    -0.147 OA 
HETATM   17  C   UNL     1      -8.497  13.873  68.837  1.00  0.00     0.086 C  
HETATM   18  C   UNL     1     -11.484  14.584  69.634  1.00  0.00    -0.332 C  
HETATM   19  C   UNL     1     -12.153  11.499  70.316  1.00  0.00    -0.359 C  
HETATM   20  O   UNL     1     -11.179  11.711  71.348  1.00  0.00     1.946 OA 
HETATM   21  C   UNL     1     -13.340  12.469  70.614  1.00  0.00     0.757 C  
HETATM   22  C   UNL     1      -7.118  13.132  68.683  1.00  0.00    -0.103 C  
HETATM   23  C   UNL     1     -12.609  10.035  70.364  1.00  0.00    -0.142 C  
HETATM   24  C   UNL     1     -11.686  11.793  72.695  1.00  0.00     6.121 C  
HETATM   25  C   UNL     1     -11.977   8.925  71.252  1.00  0.00    -0.365 C  
HETATM   26  H   UNL     1      -5.841  11.568  71.977  1.00  0.00     0.000 HD 
HETATM   27  O   UNL     1      -6.674  12.371  69.795  1.00  0.00    -0.023 OA 
HETATM   28  C   UNL     1     -10.474   8.386  71.167  1.00  0.00    -0.212 C  
HETATM   29  C   UNL     1     -12.940   7.731  70.869  1.00  0.00     0.055 C  
HETATM   30  O   UNL     1      -6.481  10.889  72.159  1.00  0.00     1.449 OA 
HETATM   31  C   UNL     1      -5.147   9.197  71.092  1.00  0.00    -0.031 C  
HETATM   32  O   UNL     1     -10.326   7.282  70.606  1.00  0.00    -0.202 OA 
HETATM   33  C   UNL     1      -9.169   8.896  71.959  1.00  0.00    -0.187 C  
HETATM   34  C   UNL     1      -9.226  10.034  72.939  1.00  0.00     7.037 C  
HETATM   35  C   UNL     1      -6.383  10.910  69.642  1.00  0.00    -0.100 C  
HETATM   36  C   UNL     1      -7.647   8.767  71.364  1.00  0.00    -0.102 C  
HETATM   37  C   UNL     1      -6.505   9.980  71.040  1.00  0.00     0.071 C  
HETATM   38  O   UNL     1      -7.455   7.563  70.608  1.00  0.00    -0.074 OA 
HETATM   39  H   UNL     1      -6.573   7.488  70.264  1.00  0.00     0.000 HD 
BRANCH  13  40
HETATM   40  O   UNL     1     -10.799  10.911  68.064  1.00  0.00    -0.207 OA 
BRANCH  40  41
HETATM   41  C   UNL     1     -10.664   9.496  67.677  1.00  0.00    -0.250 C  
HETATM   42  C   UNL     1     -10.903   6.964  68.348  1.00  0.00    -0.180 C  
HETATM   43  C   UNL     1     -10.104   7.426  64.643  1.00  0.00     4.548 C  
HETATM   44  O   UNL     1     -12.190   8.457  69.553  1.00  0.00     0.699 OA 
HETATM   45  C   UNL     1     -10.776   6.613  66.882  1.00  0.00    -0.401 C  
HETATM   46  H   UNL     1     -12.750   7.780  69.916  1.00  0.00     0.000 HD 
HETATM   47  C   UNL     1     -10.059   7.773  66.120  1.00  0.00     0.282 C  
HETATM   48  C   UNL     1     -11.613   8.348  68.293  1.00  0.00     1.617 C  
HETATM   49  O   UNL     1     -10.584   9.132  66.284  1.00  0.00    -0.101 OA 
BRANCH  42  50
HETATM   50  N   UNL     1     -11.507   5.946  69.273  1.00  0.00    -0.043 NA 
HETATM   51  C   UNL     1     -10.652   4.888  69.806  1.00  0.00     0.179 C  
HETATM   52  C   UNL     1     -12.342   6.498  70.340  1.00  0.00     0.209 C  
ENDBRANCH  42  50
ENDBRANCH  40  41
ENDBRANCH  13  40
BRANCH  35  53
HETATM   53  C   UNL     1      -7.395  10.457  68.651  1.00  0.00    -0.085 C  
HETATM   54  C   UNL     1      -7.707   9.072  69.197  1.00  0.00    -0.092 C  
ENDBRANCH  35  53
ENDBRANCH  11  12
ENDBRANCH   1  11
BRANCH   4  55
HETATM   55  O   UNL     1      -8.378   9.831  67.515  1.00  0.00    -0.114 OA 
HETATM   56  C   UNL     1      -8.305   8.414  67.622  1.00  0.00    -0.130 C  
ENDBRANCH   4  55
TORSDOF 7
ENDMDL
MODEL      142
REMARK 921   NORMALIZED FREE ENERGY PREDICTED BY IDOCK:   65.31 KCAL/MOL
REMARK 922        TOTAL FREE ENERGY PREDICTED BY IDOCK:   89.35 KCAL/MOL
REMARK 923 INTER-LIGAND FREE ENERGY PREDICTED BY IDOCK:   44.32 KCAL/MOL
REMARK 924 INTRA-LIGAND FREE ENERGY PREDICTED BY IDOCK:   45.03 KCAL/MOL
REMARK 927      BINDING AFFINITY PREDICTED BY RF-SCORE:    0.00 PKD
ROOT
HETATM    1  C   UNL     1      -5.595  12.634  67.749  1.00  0.00    -0.122 C  
HETATM    2  O   UNL     1      -5.369   9.123  70.405  1.00  0.00    -0.029 OA 
HETATM    3  C   UNL     1      -5.544  12.778  69.332  1.00  0.00    -0.084 C  
HETATM    4  C   UNL     1      -5.900  11.531  70.231  1.00  0.00    -0.158 C  
HETATM    5  C   UNL     1      -5.204   8.863  67.557  1.00  0.00    -0.034 C  
HETATM    6  C   UNL     1      -5.229  10.302  69.593  1.00  0.00    -0.038 C  
HETATM    7  C   UNL     1      -5.365  11.700  71.691  1.00  0.00     0.179 C  
HETATM    8  O   UNL     1      -5.425  11.266  67.294  1.00  0.00    -0.043 OA 
HETATM    9  H   UNL     1      -4.955   8.365  70.011  1.00  0.00     0.000 HD 
HETATM   10  C   UNL     1      -5.764  10.162  68.161  1.00  0.00    -0.038 C  
ENDROOT
BRANCH   1  11
HETATM   11  O   UNL     1      -6.525  13.626  67.002  1.00  0.00    -0.053 OA 
BRANCH  11  12
HETATM   12  C   UNL     1      -7.556  14.346  67.798  1.00  0.00    -0.164 C  
HETATM   13  C   UNL     1      -9.440  13.512  65.882  1.00  0.00    -0.025 C  
HETATM   14  C   UNL     1      -9.698  14.489  69.616  1.00  0.00     0.311 C  
HETATM   15  C   UNL     1      -8.673  14.718  66.767  1.00  0.00    -0.255 C  
HETATM   16  O   UNL     1      -6.946  12.394  70.776  1.00  0.00     1.209 OA 
HETATM   17  C   UNL     1      -8.216  14.043  69.431  1.00  0.00     0.464 C  
HETATM   18  C   UNL     1      -9.303  16.064  67.242  1.00  0.00    -0.218 C  
HETATM   19  C   UNL     1     -11.056  13.754  65.820  1.00  0.00    -0.289 C  
HETATM   20  O   UNL     1     -11.757  13.776  67.072  1.00  0.00    -0.347 OA 
HETATM   21  C   UNL     1     -11.250  15.162  65.174  1.00  0.00    -0.392 C  
HETATM   22  C   UNL     1      -8.044  12.791  70.369  1.00  0.00     4.626 C  
HETATM   23  C   UNL     1     -11.658  12.653  64.938  1.00  0.00    -0.376 C  
HETATM   24  C   UNL     1     -13.077  14.354  67.054  1.00  0.00     1.991 C  
HETATM   25  C   UNL     1     -12.717  11.610  65.401  1.00  0.00     2.105 C  
HETATM   26  H   UNL     1     -11.355  11.619  71.981  1.00  0.00     0.000 HD 
HETATM   27  O   UNL     1      -9.235  12.184  70.847  1.00  0.00     6.883 OA 
HETATM   28  C   UNL     1     -12.520  10.502  66.537  1.00  0.00     5.725 C  
HETATM   29  C   UNL     1     -12.931  10.858  64.026  1.00  0.00     3.340 C  
HETATM   30  O   UNL     1     -11.865  11.317  71.238  1.00  0.00    -0.043 OA 
HETATM   31  C   UNL     1     -11.162   9.039  71.542  1.00  0.00    -0.418 C  
HETATM   32  O   UNL     1     -12.327   9.339  66.131  1.00  0.00     7.128 OA 
HETATM   33  C   UNL     1     -12.840  10.600  68.111  1.00  0.00     4.049 C  
HETATM   34  C   UNL     1     -13.394  11.849  68.736  1.00  0.00     4.364 C  
HETATM   35  C   UNL     1      -9.506  10.736  70.572  1.00  0.00     2.005 C  
HETATM   36  C   UNL     1     -12.035   9.735  69.248  1.00  0.00     0.545 C  
HETATM   37  C   UNL     1     -11.125  10.273  70.575  1.00  0.00    -0.306 C  
HETATM   38  O   UNL     1     -11.684   8.422  68.789  1.00  0.00     0.500 OA 
HETATM   39  H   UNL     1     -11.219   7.920  69.448  1.00  0.00     0.000 HD 
BRANCH  13  40
HETATM   40  O   UNL     1      -8.895  12.182  66.154  1.00  0.00    -0.112 OA 
BRANCH  40  41
HETATM   41  C   UNL     1      -8.813  10.828  65.579  1.00  0.00    -0.190 C  
HETATM   42  C   UNL     1      -9.283   8.254  65.848  1.00  0.00    -0.123 C  
HETATM   43  C   UNL     1      -8.073   9.161  62.342  1.00  0.00    -0.143 C  
HETATM   44  O   UNL     1     -10.591   9.663  67.131  1.00  0.00    -0.256 OA 
HETATM   45  C   UNL     1      -9.027   8.100  64.365  1.00  0.00     0.596 C  
HETATM   46  H   UNL     1     -11.228   8.988  67.337  1.00  0.00     0.000 HD 
HETATM   47  C   UNL     1      -8.160   9.294  63.852  1.00  0.00    -0.151 C  
HETATM   48  C   UNL     1      -9.893   9.684  65.928  1.00  0.00    -0.288 C  
HETATM   49  O   UNL     1      -8.611  10.655  64.161  1.00  0.00    -0.169 OA 
BRANCH  42  50
HETATM   50  N   UNL     1     -10.046   7.169  66.554  1.00  0.00    -0.141 NA 
HETATM   51  C   UNL     1     -11.206   6.581  65.888  1.00  0.00     2.345 C  
HETATM   52  C   UNL     1      -9.220   6.114  67.141  1.00  0.00    -0.118 C  
ENDBRANCH  42  50
ENDBRANCH  40  41
ENDBRANCH  13  40
BRANCH  35  53
HETATM   53  C   UNL     1      -8.928  10.526  69.219  1.00  0.00    -0.148 C  
HETATM   54  C   UNL     1      -8.788   9.012  69.217  1.00  0.00    -0.139 C  
ENDBRANCH  35  53
ENDBRANCH  11  12
ENDBRANCH   1  11
BRANCH   4  55
HETATM   55  O   UNL     1      -7.339  11.454  70.254  1.00  0.00     0.394 OA 
HETATM   56  C   UNL     1      -7.947  10.235  70.661  1.00  0.00     0.967 C  
ENDBRANCH   4  55
TORSDOF 7
ENDMDL
MODEL      143
REMARK 921   NORMALIZED FREE ENERGY PREDICTED BY IDOCK:   65.91 KCAL/MOL
REMARK 922        TOTAL FREE ENERGY PREDICTED BY IDOCK:   90.19 KCAL/MOL
REMARK 923 INTER-LIGAND FREE ENERGY PREDICTED BY IDOCK:   52.52 KCAL/MOL
REMARK 924 INTRA-LIGAND FREE ENERGY PREDICTED BY IDOCK:   37.67 KCAL/MOL
REMARK 927      BINDING AFFINITY PREDICTED BY RF-SCORE:    0.00 PKD
ROOT
HETATM    1  C   UNL     1     -10.269  14.406  68.407  1.00  0.00    -0.243 C  
HETATM    2  O   UNL     1     -11.064  13.844  72.706  1.00  0.00     2.257 OA 
HETATM    3  C   UNL     1      -9.967  15.545  69.475  1.00  0.00    -0.280 C  
HETATM    4  C   UNL     1     -10.655  15.474  70.893  1.00  0.00     0.042 C  
HETATM    5  C   UNL     1     -11.371  11.701  70.831  1.00  0.00     1.145 C  
HETATM    6  C   UNL     1     -10.589  14.008  71.358  1.00  0.00     3.347 C  
HETATM    7  C   UNL     1      -9.916  16.372  71.939  1.00  0.00     4.899 C  
HETATM    8  O   UNL     1     -10.692  13.156  69.011  1.00  0.00    -0.205 OA 
HETATM    9  H   UNL     1     -11.023  12.940  72.993  1.00  0.00     0.000 HD 
HETATM   10  C   UNL     1     -11.313  13.149  70.314  1.00  0.00     0.343 C  
ENDROOT
BRANCH   1  11
HETATM   11  O   UNL     1     -10.837  14.881  67.043  1.00  0.00    -0.301 OA 
BRANCH  11  12
HETATM   12  C   UNL     1     -11.768  13.970  66.324  1.00  0.00    -0.387 C  
HETATM   13  C   UNL     1      -9.513  12.476  65.550  1.00  0.00     0.056 C  
HETATM   14  C   UNL     1     -13.250  11.597  66.022  1.00  0.00     5.888 C  
HETATM   15  C   UNL     1     -10.909  13.337  65.179  1.00  0.00    -0.323 C  
HETATM   16  O   UNL     1     -13.617  13.130  69.312  1.00  0.00     2.875 OA 
HETATM   17  C   UNL     1     -13.028  12.850  66.921  1.00  0.00     2.086 C  
HETATM   18  C   UNL     1     -11.868  13.076  63.978  1.00  0.00    -0.510 C  
HETATM   19  C   UNL     1      -9.413  11.098  64.676  1.00  0.00    -0.213 C  
HETATM   20  O   UNL     1     -10.472  10.145  64.843  1.00  0.00    -0.144 OA 
HETATM   21  C   UNL     1      -9.442  11.542  63.178  1.00  0.00    -0.332 C  
HETATM   22  C   UNL     1     -13.327  12.362  68.387  1.00  0.00     5.123 C  
HETATM   23  C   UNL     1      -8.082  10.420  65.025  1.00  0.00    -0.136 C  
HETATM   24  C   UNL     1     -10.587   9.134  63.821  1.00  0.00     5.767 C  
HETATM   25  C   UNL     1      -7.932   9.000  65.645  1.00  0.00    -0.104 C  
HETATM   26  H   UNL     1     -13.932   8.554  68.638  1.00  0.00     0.000 HD 
HETATM   27  O   UNL     1     -13.371  10.958  68.595  1.00  0.00     2.357 OA 
HETATM   28  C   UNL     1      -8.473   8.530  67.074  1.00  0.00    -0.114 C  
HETATM   29  C   UNL     1      -6.353   8.915  65.675  1.00  0.00    -0.060 C  
HETATM   30  O   UNL     1     -13.088   8.183  68.408  1.00  0.00     8.202 OA 
HETATM   31  C   UNL     1     -12.416   8.009  70.710  1.00  0.00     0.090 C  
HETATM   32  O   UNL     1      -7.615   8.434  67.973  1.00  0.00    -0.095 OA 
HETATM   33  C   UNL     1      -9.891   7.866  67.451  1.00  0.00    -0.237 C  
HETATM   34  C   UNL     1     -10.949   7.605  66.417  1.00  0.00     1.164 C  
HETATM   35  C   UNL     1     -12.460  10.314  69.594  1.00  0.00     0.195 C  
HETATM   36  C   UNL     1     -10.597   8.027  68.922  1.00  0.00    -0.140 C  
HETATM   37  C   UNL     1     -12.104   8.690  69.332  1.00  0.00     1.726 C  
HETATM   38  O   UNL     1      -9.639   8.041  69.990  1.00  0.00    -0.171 OA 
HETATM   39  H   UNL     1     -10.049   8.134  70.842  1.00  0.00     0.000 HD 
BRANCH  13  40
HETATM   40  O   UNL     1      -9.218  12.473  66.982  1.00  0.00    -0.200 OA 
BRANCH  40  41
HETATM   41  C   UNL     1      -8.477  13.225  68.011  1.00  0.00    -0.170 C  
HETATM   42  C   UNL     1      -7.177  15.412  68.675  1.00  0.00    -0.121 C  
HETATM   43  C   UNL     1      -7.759  13.095  71.654  1.00  0.00     8.979 C  
HETATM   44  O   UNL     1      -8.675  15.616  66.928  1.00  0.00    -0.211 OA 
HETATM   45  C   UNL     1      -7.284  14.979  70.122  1.00  0.00     0.101 C  
HETATM   46  H   UNL     1      -8.680  16.566  66.959  1.00  0.00     0.000 HD 
HETATM   47  C   UNL     1      -7.507  13.435  70.196  1.00  0.00     1.561 C  
HETATM   48  C   UNL     1      -8.487  14.836  68.063  1.00  0.00    -0.151 C  
HETATM   49  O   UNL     1      -8.596  12.858  69.400  1.00  0.00     0.776 OA 
BRANCH  42  50
HETATM   50  N   UNL     1      -6.892  16.859  68.386  1.00  0.00    -0.161 NA 
HETATM   51  C   UNL     1      -7.365  17.869  69.330  1.00  0.00    -0.024 C  
HETATM   52  C   UNL     1      -5.514  17.151  67.992  1.00  0.00    -0.120 C  
ENDBRANCH  42  50
ENDBRANCH  40  41
ENDBRANCH  13  40
BRANCH  35  53
HETATM   53  C   UNL     1     -11.214  11.121  69.497  1.00  0.00    -0.341 C  
HETATM   54  C   UNL     1     -10.285  10.106  68.848  1.00  0.00    -0.213 C  
ENDBRANCH  35  53
ENDBRANCH  11  12
ENDBRANCH   1  11
BRANCH   4  55
HETATM   55  O   UNL     1     -11.999  15.960  70.709  1.00  0.00    -0.377 OA 
HETATM   56  C   UNL     1     -12.899  15.901  71.809  1.00  0.00    -0.380 C  
ENDBRANCH   4  55
TORSDOF 7
ENDMDL
MODEL      144
REMARK 921   NORMALIZED FREE ENERGY PREDICTED BY IDOCK:   66.40 KCAL/MOL
REMARK 922        TOTAL FREE ENERGY PREDICTED BY IDOCK:   90.88 KCAL/MOL
REMARK 923 INTER-LIGAND FREE ENERGY PREDICTED BY IDOCK:   42.40 KCAL/MOL
REMARK 924 INTRA-LIGAND FREE ENERGY PREDICTED BY IDOCK:   48.49 KCAL/MOL
REMARK 927      BINDING AFFINITY PREDICTED BY RF-SCORE:    0.00 PKD
ROOT
HETATM    1  C   UNL     1      -6.558   5.498  66.168  1.00  0.00    -0.051 C  
HETATM    2  O   UNL     1      -9.060   7.191  62.958  1.00  0.00     0.366 OA 
HETATM    3  C   UNL     1      -7.258   4.581  65.074  1.00  0.00    -0.067 C  
HETATM    4  C   UNL     1      -8.463   5.162  64.237  1.00  0.00    -0.131 C  
HETATM    5  C   UNL     1      -7.601   8.868  64.765  1.00  0.00    -0.106 C  
HETATM    6  C   UNL     1      -8.092   6.603  63.845  1.00  0.00    -0.012 C  
HETATM    7  C   UNL     1      -8.716   4.332  62.936  1.00  0.00    -0.110 C  
HETATM    8  O   UNL     1      -6.722   6.918  65.912  1.00  0.00    -0.050 OA 
HETATM    9  H   UNL     1      -8.830   8.080  62.716  1.00  0.00     0.000 HD 
HETATM   10  C   UNL     1      -7.842   7.394  65.136  1.00  0.00    -0.123 C  
ENDROOT
BRANCH   1  11
HETATM   11  O   UNL     1      -6.525   4.934  67.614  1.00  0.00    -0.042 OA 
BRANCH  11  12
HETATM   12  C   UNL     1      -7.807   4.463  68.205  1.00  0.00    -0.079 C  
HETATM   13  C   UNL     1      -7.506   6.475  70.149  1.00  0.00    -0.094 C  
HETATM   14  C   UNL     1     -10.573   4.623  68.693  1.00  0.00     0.531 C  
HETATM   15  C   UNL     1      -7.725   4.865  69.716  1.00  0.00    -0.056 C  
HETATM   16  O   UNL     1      -9.688   5.068  65.181  1.00  0.00    -0.056 OA 
HETATM   17  C   UNL     1      -9.483   4.502  67.585  1.00  0.00    -0.196 C  
HETATM   18  C   UNL     1      -8.515   3.787  70.520  1.00  0.00    -0.100 C  
HETATM   19  C   UNL     1      -8.487   6.898  71.387  1.00  0.00    -0.119 C  
HETATM   20  O   UNL     1      -9.899   6.779  71.165  1.00  0.00    -0.178 OA 
HETATM   21  C   UNL     1      -8.135   5.926  72.559  1.00  0.00    -0.106 C  
HETATM   22  C   UNL     1     -10.077   5.259  66.340  1.00  0.00    -0.226 C  
HETATM   23  C   UNL     1      -8.167   8.351  71.759  1.00  0.00    -0.200 C  
HETATM   24  C   UNL     1     -10.732   6.781  72.342  1.00  0.00    -0.226 C  
HETATM   25  C   UNL     1      -9.178   9.534  71.709  1.00  0.00     0.941 C  
HETATM   26  H   UNL     1     -13.402   7.078  67.097  1.00  0.00     0.000 HD 
HETATM   27  O   UNL     1     -11.191   6.106  66.580  1.00  0.00    -0.147 OA 
HETATM   28  C   UNL     1      -9.912  10.097  70.405  1.00  0.00     0.079 C  
HETATM   29  C   UNL     1      -8.237  10.678  72.265  1.00  0.00     8.962 C  
HETATM   30  O   UNL     1     -13.146   7.754  67.713  1.00  0.00     9.695 OA 
HETATM   31  C   UNL     1     -12.895   9.394  65.973  1.00  0.00    15.494 C  
HETATM   32  O   UNL     1      -9.455  11.162  69.944  1.00  0.00     0.633 OA 
HETATM   33  C   UNL     1     -11.333   9.671  69.782  1.00  0.00    -0.159 C  
HETATM   34  C   UNL     1     -12.190   8.605  70.403  1.00  0.00     0.336 C  
HETATM   35  C   UNL     1     -11.125   7.559  66.221  1.00  0.00     1.919 C  
HETATM   36  C   UNL     1     -11.687   9.790  68.185  1.00  0.00     0.994 C  
HETATM   37  C   UNL     1     -12.145   8.581  67.085  1.00  0.00     5.992 C  
HETATM   38  O   UNL     1     -11.087  10.941  67.576  1.00  0.00    -0.279 OA 
HETATM   39  H   UNL     1     -11.293  11.010  66.651  1.00  0.00     0.000 HD 
BRANCH  13  40
HETATM   40  O   UNL     1      -7.347   7.353  68.991  1.00  0.00    -0.086 OA 
BRANCH  40  41
HETATM   41  C   UNL     1      -7.576   8.741  68.553  1.00  0.00    -0.098 C  
HETATM   42  C   UNL     1      -7.133  11.306  68.936  1.00  0.00    -0.104 C  
HETATM   43  C   UNL     1      -8.971  10.611  65.662  1.00  0.00    -0.203 C  
HETATM   44  O   UNL     1      -5.565   9.863  69.829  1.00  0.00    -0.036 OA 
HETATM   45  C   UNL     1      -7.675  11.558  67.545  1.00  0.00    -0.132 C  
HETATM   46  H   UNL     1      -4.919  10.547  69.964  1.00  0.00     0.000 HD 
HETATM   47  C   UNL     1      -8.591  10.370  67.111  1.00  0.00    -0.130 C  
HETATM   48  C   UNL     1      -6.480   9.901  68.783  1.00  0.00    -0.045 C  
HETATM   49  O   UNL     1      -8.052   9.010  67.219  1.00  0.00    -0.103 OA 
BRANCH  42  50
HETATM   50  N   UNL     1      -6.279  12.367  69.569  1.00  0.00    -0.118 NA 
HETATM   51  C   UNL     1      -5.215  12.978  68.775  1.00  0.00    -0.068 C  
HETATM   52  C   UNL     1      -7.015  13.402  70.295  1.00  0.00     0.852 C  
ENDBRANCH  42  50
ENDBRANCH  40  41
ENDBRANCH  13  40
BRANCH  35  53
HETATM   53  C   UNL     1      -9.709   7.919  66.493  1.00  0.00    -0.279 C  
HETATM   54  C   UNL     1      -9.672   7.749  68.004  1.00  0.00    -0.176 C  
ENDBRANCH  35  53
ENDBRANCH  11  12
ENDBRANCH   1  11
BRANCH   4  55
HETATM   55  O   UNL     1      -9.620   5.077  65.092  1.00  0.00    -0.090 OA 
HETATM   56  C   UNL     1     -10.832   4.571  64.546  1.00  0.00     0.181 C  
ENDBRANCH   4  55
TORSDOF 7
ENDMDL
MODEL      145
REMARK 921   NORMALIZED FREE ENERGY PREDICTED BY IDOCK:   69.88 KCAL/MOL
REMARK 922        TOTAL FREE ENERGY PREDICTED BY IDOCK:   95.79 KCAL/MOL
REMARK 923 INTER-LIGAND FREE ENERGY PREDICTED BY IDOCK:   43.30 KCAL/MOL
REMARK 924 INTRA-LIGAND FREE ENERGY PREDICTED BY IDOCK:   52.49 KCAL/MOL
REMARK 927      BINDING AFFINITY PREDICTED BY RF-SCORE:    0.00 PKD
ROOT
HETATM    1  C   UNL     1      -6.583   7.770  70.648  1.00  0.00    -0.038 C  
HETATM    2  O   UNL     1      -9.021   4.708  68.622  1.00  0.00    -0.101 OA 
HETATM    3  C   UNL     1      -5.927   6.517  69.921  1.00  0.00    -0.022 C  
HETATM    4  C   UNL     1      -6.820   5.255  69.603  1.00  0.00    -0.056 C  
HETATM    5  C   UNL     1     -10.195   7.086  69.705  1.00  0.00    -0.212 C  
HETATM    6  C   UNL     1      -8.170   5.774  69.077  1.00  0.00    -0.101 C  
HETATM    7  C   UNL     1      -6.167   4.345  68.512  1.00  0.00    -0.032 C  
HETATM    8  O   UNL     1      -8.019   7.855  70.454  1.00  0.00    -0.094 OA 
HETATM    9  H   UNL     1      -9.855   5.028  68.297  1.00  0.00     0.000 HD 
HETATM   10  C   UNL     1      -8.787   6.668  70.161  1.00  0.00    -0.141 C  
ENDROOT
BRANCH   1  11
HETATM   11  O   UNL     1      -5.917   8.214  71.978  1.00  0.00    -0.040 OA 
BRANCH  11  12
HETATM   12  C   UNL     1      -6.641   9.204  72.820  1.00  0.00     0.353 C  
HETATM   13  C   UNL     1      -7.338  10.534  70.441  1.00  0.00     0.394 C  
HETATM   14  C   UNL     1      -8.949  10.350  73.953  1.00  0.00    11.722 C  
HETATM   15  C   UNL     1      -6.651  10.522  71.975  1.00  0.00     2.167 C  
HETATM   16  O   UNL     1      -8.826   6.717  74.267  1.00  0.00    -0.149 OA 
HETATM   17  C   UNL     1      -8.098   9.048  73.845  1.00  0.00     0.835 C  
HETATM   18  C   UNL     1      -6.608  11.712  72.983  1.00  0.00     6.177 C  
HETATM   19  C   UNL     1      -8.257  11.867  70.210  1.00  0.00     3.701 C  
HETATM   20  O   UNL     1      -9.369  12.050  71.099  1.00  0.00     8.233 OA 
HETATM   21  C   UNL     1      -7.303  13.084  70.431  1.00  0.00     2.325 C  
HETATM   22  C   UNL     1      -9.137   7.870  73.944  1.00  0.00    -0.174 C  
HETATM   23  C   UNL     1      -8.780  11.828  68.769  1.00  0.00     0.019 C  
HETATM   24  C   UNL     1      -9.934  13.375  71.147  1.00  0.00     7.242 C  
HETATM   25  C   UNL     1     -10.280  11.796  68.358  1.00  0.00    -0.208 C  
HETATM   26  H   UNL     1     -12.811   9.065  73.952  1.00  0.00     0.000 HD 
HETATM   27  O   UNL     1     -10.503   8.207  73.761  1.00  0.00     0.416 OA 
HETATM   28  C   UNL     1     -11.331  10.639  68.701  1.00  0.00    -0.281 C  
HETATM   29  C   UNL     1     -10.102  11.834  66.787  1.00  0.00    -0.235 C  
HETATM   30  O   UNL     1     -12.923   9.436  73.085  1.00  0.00     0.109 OA 
HETATM   31  C   UNL     1     -13.818   7.386  72.204  1.00  0.00    -0.116 C  
HETATM   32  O   UNL     1     -11.604   9.862  67.766  1.00  0.00    -0.025 OA 
HETATM   33  C   UNL     1     -12.316  10.511  69.968  1.00  0.00    -0.290 C  
HETATM   34  C   UNL     1     -12.352  11.544  71.058  1.00  0.00    -0.434 C  
HETATM   35  C   UNL     1     -11.307   7.546  72.684  1.00  0.00    -0.344 C  
HETATM   36  C   UNL     1     -12.832   9.074  70.564  1.00  0.00     0.509 C  
HETATM   37  C   UNL     1     -12.634   8.411  72.114  1.00  0.00    -0.364 C  
HETATM   38  O   UNL     1     -13.052   8.101  69.533  1.00  0.00     2.693 OA 
HETATM   39  H   UNL     1     -13.352   7.268  69.879  1.00  0.00     0.000 HD 
BRANCH  13  40
HETATM   40  O   UNL     1      -7.820   9.216  70.029  1.00  0.00    -0.076 OA 
BRANCH  40  41
HETATM   41  C   UNL     1      -7.781   8.274  68.898  1.00  0.00    -0.102 C  
HETATM   42  C   UNL     1      -9.111   6.846  67.133  1.00  0.00    -0.131 C  
HETATM   43  C   UNL     1      -5.345   6.821  66.498  1.00  0.00    -0.017 C  
HETATM   44  O   UNL     1     -10.226   8.671  68.007  1.00  0.00    -0.192 OA 
HETATM   45  C   UNL     1      -7.812   6.656  66.379  1.00  0.00    -0.104 C  
HETATM   46  H   UNL     1     -10.899   8.662  67.336  1.00  0.00     0.000 HD 
HETATM   47  C   UNL     1      -6.604   6.872  67.345  1.00  0.00    -0.051 C  
HETATM   48  C   UNL     1      -8.922   8.259  67.759  1.00  0.00    -0.136 C  
HETATM   49  O   UNL     1      -6.567   8.106  68.138  1.00  0.00    -0.054 OA 
BRANCH  42  50
HETATM   50  N   UNL     1     -10.399   6.615  66.396  1.00  0.00    -0.018 NA 
HETATM   51  C   UNL     1     -10.660   5.290  65.839  1.00  0.00    -0.034 C  
HETATM   52  C   UNL     1     -11.596   7.117  67.071  1.00  0.00     1.190 C  
ENDBRANCH  42  50
ENDBRANCH  40  41
ENDBRANCH  13  40
BRANCH  35  53
HETATM   53  C   UNL     1     -10.323   7.358  71.585  1.00  0.00    -0.215 C  
HETATM   54  C   UNL     1      -9.134   6.831  72.374  1.00  0.00    -0.142 C  
ENDBRANCH  35  53
ENDBRANCH  11  12
ENDBRANCH   1  11
BRANCH   4  55
HETATM   55  O   UNL     1      -6.926   4.521  70.838  1.00  0.00    -0.035 OA 
HETATM   56  C   UNL     1      -5.966   4.765  71.858  1.00  0.00    -0.016 C  
ENDBRANCH   4  55
TORSDOF 7
ENDMDL
MODEL      146
REMARK 921   NORMALIZED FREE ENERGY PREDICTED BY IDOCK:   70.88 KCAL/MOL
REMARK 922        TOTAL FREE ENERGY PREDICTED BY IDOCK:   97.20 KCAL/MOL
REMARK 923 INTER-LIGAND FREE ENERGY PREDICTED BY IDOCK:   39.21 KCAL/MOL
REMARK 924 INTRA-LIGAND FREE ENERGY PREDICTED BY IDOCK:   57.99 KCAL/MOL
REMARK 927      BINDING AFFINITY PREDICTED BY RF-SCORE:    0.00 PKD
ROOT
HETATM    1  C   UNL     1      -8.356   8.666  69.638  1.00  0.00    -0.123 C  
HETATM    2  O   UNL     1      -6.961   4.541  68.952  1.00  0.00    -0.049 OA 
HETATM    3  C   UNL     1      -7.509   7.872  70.725  1.00  0.00    -0.072 C  
HETATM    4  C   UNL     1      -7.413   6.300  70.629  1.00  0.00    -0.087 C  
HETATM    5  C   UNL     1      -8.262   6.047  66.892  1.00  0.00    -0.105 C  
HETATM    6  C   UNL     1      -7.203   5.946  69.146  1.00  0.00    -0.078 C  
HETATM    7  C   UNL     1      -6.210   5.744  71.459  1.00  0.00    -0.043 C  
HETATM    8  O   UNL     1      -8.491   7.948  68.384  1.00  0.00    -0.127 OA 
HETATM    9  H   UNL     1      -6.831   4.323  68.037  1.00  0.00     0.000 HD 
HETATM   10  C   UNL     1      -8.391   6.508  68.354  1.00  0.00    -0.117 C  
ENDROOT
BRANCH   1  11
HETATM   11  O   UNL     1      -9.496   9.567  70.183  1.00  0.00    -0.214 OA 
BRANCH  11  12
HETATM   12  C   UNL     1      -9.452  11.018  69.855  1.00  0.00     0.935 C  
HETATM   13  C   UNL     1      -7.318  10.435  68.117  1.00  0.00    -0.088 C  
HETATM   14  C   UNL     1      -9.962  13.256  68.228  1.00  0.00    -0.236 C  
HETATM   15  C   UNL     1      -7.976  11.286  69.409  1.00  0.00     0.179 C  
HETATM   16  O   UNL     1     -12.860  11.082  68.656  1.00  0.00     0.319 OA 
HETATM   17  C   UNL     1     -10.617  12.076  69.007  1.00  0.00    -0.136 C  
HETATM   18  C   UNL     1      -7.629  12.746  69.832  1.00  0.00     1.505 C  
HETATM   19  C   UNL     1      -6.469  11.419  67.126  1.00  0.00    -0.109 C  
HETATM   20  O   UNL     1      -7.188  12.498  66.511  1.00  0.00     0.359 OA 
HETATM   21  C   UNL     1      -5.364  12.070  68.018  1.00  0.00    -0.053 C  
HETATM   22  C   UNL     1     -11.900  11.699  68.178  1.00  0.00    -0.244 C  
HETATM   23  C   UNL     1      -5.849  10.550  66.024  1.00  0.00    -0.106 C  
HETATM   24  C   UNL     1      -6.390  13.564  65.959  1.00  0.00     5.719 C  
HETATM   25  C   UNL     1      -6.122  10.701  64.500  1.00  0.00     0.046 C  
HETATM   26  H   UNL     1     -12.173  13.604  64.828  1.00  0.00     0.000 HD 
HETATM   27  O   UNL     1     -11.978  12.209  66.856  1.00  0.00    -0.603 OA 
HETATM   28  C   UNL     1      -7.530  10.512  63.767  1.00  0.00     0.079 C  
HETATM   29  C   UNL     1      -5.146   9.576  63.967  1.00  0.00    -0.059 C  
HETATM   30  O   UNL     1     -11.436  13.275  64.328  1.00  0.00    -0.364 OA 
HETATM   31  C   UNL     1     -12.781  11.605  63.240  1.00  0.00    -0.175 C  
HETATM   32  O   UNL     1      -7.679   9.440  63.148  1.00  0.00    -0.115 OA 
HETATM   33  C   UNL     1      -8.660  11.613  63.447  1.00  0.00     0.593 C  
HETATM   34  C   UNL     1      -8.504  13.054  63.843  1.00  0.00     5.649 C  
HETATM   35  C   UNL     1     -12.127  11.275  65.694  1.00  0.00     1.490 C  
HETATM   36  C   UNL     1     -10.255  11.255  63.318  1.00  0.00    -0.368 C  
HETATM   37  C   UNL     1     -11.573  11.844  64.211  1.00  0.00    -0.324 C  
HETATM   38  O   UNL     1     -10.481   9.973  62.715  1.00  0.00    -0.023 OA 
HETATM   39  H   UNL     1     -11.405   9.765  62.640  1.00  0.00     0.000 HD 
BRANCH  13  40
HETATM   40  O   UNL     1      -8.240   9.441  67.570  1.00  0.00    -0.116 OA 
BRANCH  40  41
HETATM   41  C   UNL     1      -8.772   8.940  66.290  1.00  0.00    -0.141 C  
HETATM   42  C   UNL     1     -10.449   7.344  65.040  1.00  0.00     5.103 C  
HETATM   43  C   UNL     1      -8.654   9.734  62.663  1.00  0.00    -0.199 C  
HETATM   44  O   UNL     1     -11.018   7.916  67.205  1.00  0.00    -0.503 OA 
HETATM   45  C   UNL     1     -10.171   8.124  63.773  1.00  0.00     6.880 C  
HETATM   46  H   UNL     1     -11.917   7.619  67.114  1.00  0.00     0.000 HD 
HETATM   47  C   UNL     1      -8.796   8.854  63.892  1.00  0.00     0.078 C  
HETATM   48  C   UNL     1     -10.296   8.438  66.137  1.00  0.00     0.440 C  
HETATM   49  O   UNL     1      -8.558   9.687  65.076  1.00  0.00    -0.141 OA 
BRANCH  42  50
HETATM   50  N   UNL     1     -11.698   6.512  65.103  1.00  0.00     6.377 NA 
HETATM   51  C   UNL     1     -11.803   5.338  64.239  1.00  0.00     4.112 C  
HETATM   52  C   UNL     1     -12.152   6.180  66.453  1.00  0.00     3.258 C  
ENDBRANCH  42  50
ENDBRANCH  40  41
ENDBRANCH  13  40
BRANCH  35  53
HETATM   53  C   UNL     1     -11.333  10.086  66.102  1.00  0.00     1.252 C  
HETATM   54  C   UNL     1     -11.487  10.164  67.614  1.00  0.00     0.239 C  
ENDBRANCH  35  53
ENDBRANCH  11  12
ENDBRANCH   1  11
BRANCH   4  55
HETATM   55  O   UNL     1      -8.646   5.791  71.174  1.00  0.00    -0.126 OA 
HETATM   56  C   UNL     1      -9.546   6.707  71.785  1.00  0.00    -0.158 C  
ENDBRANCH   4  55
TORSDOF 7
ENDMDL
MODEL      147
REMARK 921   NORMALIZED FREE ENERGY PREDICTED BY IDOCK:   73.57 KCAL/MOL
REMARK 922        TOTAL FREE ENERGY PREDICTED BY IDOCK:  100.99 KCAL/MOL
REMARK 923 INTER-LIGAND FREE ENERGY PREDICTED BY IDOCK:   18.49 KCAL/MOL
REMARK 924 INTRA-LIGAND FREE ENERGY PREDICTED BY IDOCK:   82.50 KCAL/MOL
REMARK 927      BINDING AFFINITY PREDICTED BY RF-SCORE:    0.00 PKD
ROOT
HETATM    1  C   UNL     1      -8.760   9.592  70.424  1.00  0.00    -0.223 C  
HETATM    2  O   UNL     1      -7.658  11.563  66.639  1.00  0.00    -0.215 OA 
HETATM    3  C   UNL     1      -9.822   9.850  69.269  1.00  0.00    -0.217 C  
HETATM    4  C   UNL     1      -9.502  10.918  68.152  1.00  0.00    -0.165 C  
HETATM    5  C   UNL     1      -5.688  10.876  68.602  1.00  0.00    -0.039 C  
HETATM    6  C   UNL     1      -8.028  10.732  67.754  1.00  0.00    -0.110 C  
HETATM    7  C   UNL     1     -10.399  10.717  66.887  1.00  0.00    -0.290 C  
HETATM    8  O   UNL     1      -7.405   9.944  70.043  1.00  0.00    -0.121 OA 
HETATM    9  H   UNL     1      -6.748  11.448  66.393  1.00  0.00     0.000 HD 
HETATM   10  C   UNL     1      -7.170  10.927  69.011  1.00  0.00    -0.101 C  
ENDROOT
BRANCH   1  11
HETATM   11  O   UNL     1      -9.270   9.786  71.877  1.00  0.00     0.671 OA 
BRANCH  11  12
HETATM   12  C   UNL     1      -9.779   8.589  72.601  1.00  0.00    -0.215 C  
HETATM   13  C   UNL     1     -11.114   7.877  70.229  1.00  0.00    -0.229 C  
HETATM   14  C   UNL     1      -9.803   5.852  73.253  1.00  0.00    -0.176 C  
HETATM   15  C   UNL     1     -11.116   8.218  71.875  1.00  0.00    -0.357 C  
HETATM   16  O   UNL     1      -6.469   7.332  73.319  1.00  0.00    -0.063 OA 
HETATM   17  C   UNL     1      -8.939   7.149  73.248  1.00  0.00    -0.174 C  
HETATM   18  C   UNL     1     -12.064   7.604  72.950  1.00  0.00     0.091 C  
HETATM   19  C   UNL     1     -12.034   6.568  69.891  1.00  0.00     0.023 C  
HETATM   20  O   UNL     1     -11.654   5.331  70.511  1.00  0.00     0.725 OA 
HETATM   21  C   UNL     1     -13.466   6.909  70.414  1.00  0.00     1.435 C  
HETATM   22  C   UNL     1      -7.462   6.659  73.018  1.00  0.00    -0.088 C  
HETATM   23  C   UNL     1     -12.032   6.377  68.369  1.00  0.00     1.778 C  
HETATM   24  C   UNL     1     -12.653   4.291  70.525  1.00  0.00    13.088 C  
HETATM   25  C   UNL     1     -11.514   5.113  67.623  1.00  0.00     2.549 C  
HETATM   26  H   UNL     1      -7.204   2.877  72.268  1.00  0.00     0.000 HD 
HETATM   27  O   UNL     1      -7.297   5.328  72.552  1.00  0.00    -0.089 OA 
HETATM   28  C   UNL     1     -10.014   4.559  67.629  1.00  0.00    -0.081 C  
HETATM   29  C   UNL     1     -11.860   5.548  66.142  1.00  0.00     2.125 C  
HETATM   30  O   UNL     1      -7.640   2.790  71.428  1.00  0.00    -0.040 OA 
HETATM   31  C   UNL     1      -5.569   2.951  70.217  1.00  0.00    -0.017 C  
HETATM   32  O   UNL     1      -9.347   4.790  66.602  1.00  0.00    -0.128 OA 
HETATM   33  C   UNL     1      -9.336   3.488  68.622  1.00  0.00    -0.230 C  
HETATM   34  C   UNL     1     -10.099   2.849  69.747  1.00  0.00     0.839 C  
HETATM   35  C   UNL     1      -6.564   5.063  71.272  1.00  0.00    -0.038 C  
HETATM   36  C   UNL     1      -7.735   3.478  68.977  1.00  0.00    -0.052 C  
HETATM   37  C   UNL     1      -6.958   3.632  70.477  1.00  0.00    -0.034 C  
HETATM   38  O   UNL     1      -6.924   3.852  67.854  1.00  0.00    -0.053 OA 
HETATM   39  H   UNL     1      -5.996   3.846  68.059  1.00  0.00     0.000 HD 
BRANCH  13  40
HETATM   40  O   UNL     1      -9.793   8.036  69.622  1.00  0.00    -0.179 OA 
BRANCH  40  41
HETATM   41  C   UNL     1      -8.358   7.991  69.951  1.00  0.00    -0.121 C  
HETATM   42  C   UNL     1      -6.401   8.773  71.526  1.00  0.00    -0.071 C  
HETATM   43  C   UNL     1      -5.297   6.092  69.040  1.00  0.00    -0.004 C  
HETATM   44  O   UNL     1      -8.524   8.847  72.434  1.00  0.00    -0.396 OA 
HETATM   45  C   UNL     1      -5.543   7.683  70.920  1.00  0.00    -0.030 C  
HETATM   46  H   UNL     1      -8.209   8.936  73.326  1.00  0.00     0.000 HD 
HETATM   47  C   UNL     1      -6.105   7.285  69.519  1.00  0.00    -0.030 C  
HETATM   48  C   UNL     1      -7.823   8.141  71.464  1.00  0.00    -0.108 C  
HETATM   49  O   UNL     1      -7.527   6.939  69.420  1.00  0.00    -0.089 OA 
BRANCH  42  50
HETATM   50  N   UNL     1      -5.990   9.347  72.851  1.00  0.00    -0.303 NA 
HETATM   51  C   UNL     1      -5.162   8.535  73.741  1.00  0.00    -0.066 C  
HETATM   52  C   UNL     1      -5.473  10.714  72.799  1.00  0.00     0.670 C  
ENDBRANCH  42  50
ENDBRANCH  40  41
ENDBRANCH  13  40
BRANCH  35  53
HETATM   53  C   UNL     1      -6.926   6.225  70.419  1.00  0.00    -0.063 C  
HETATM   54  C   UNL     1      -8.438   6.065  70.370  1.00  0.00    -0.132 C  
ENDBRANCH  35  53
ENDBRANCH  11  12
ENDBRANCH   1  11
BRANCH   4  55
HETATM   55  O   UNL     1      -9.783  12.204  68.739  1.00  0.00    -0.123 OA 
HETATM   56  C   UNL     1     -10.882  12.954  68.237  1.00  0.00    -0.242 C  
ENDBRANCH   4  55
TORSDOF 7
ENDMDL
MODEL      148
REMARK 921   NORMALIZED FREE ENERGY PREDICTED BY IDOCK:   75.29 KCAL/MOL
REMARK 922        TOTAL FREE ENERGY PREDICTED BY IDOCK:  103.41 KCAL/MOL
REMARK 923 INTER-LIGAND FREE ENERGY PREDICTED BY IDOCK:   58.08 KCAL/MOL
REMARK 924 INTRA-LIGAND FREE ENERGY PREDICTED BY IDOCK:   45.33 KCAL/MOL
REMARK 927      BINDING AFFINITY PREDICTED BY RF-SCORE:    0.00 PKD
ROOT
HETATM    1  C   UNL     1      -7.663   5.956  66.969  1.00  0.00    -0.101 C  
HETATM    2  O   UNL     1      -7.589   1.964  68.837  1.00  0.00    -0.043 OA 
HETATM    3  C   UNL     1      -7.037   5.712  68.410  1.00  0.00    -0.070 C  
HETATM    4  C   UNL     1      -7.415   4.402  69.204  1.00  0.00    -0.055 C  
HETATM    5  C   UNL     1      -8.486   2.343  66.143  1.00  0.00    -0.101 C  
HETATM    6  C   UNL     1      -7.393   3.238  68.197  1.00  0.00    -0.050 C  
HETATM    7  C   UNL     1      -6.391   4.103  70.347  1.00  0.00    -0.027 C  
HETATM    8  O   UNL     1      -8.068   4.729  66.307  1.00  0.00    -0.106 OA 
HETATM    9  H   UNL     1      -7.575   1.245  68.216  1.00  0.00     0.000 HD 
HETATM   10  C   UNL     1      -8.400   3.557  67.084  1.00  0.00    -0.092 C  
ENDROOT
BRANCH   1  11
HETATM   11  O   UNL     1      -8.457   7.276  66.782  1.00  0.00    -0.115 OA 
BRANCH  11  12
HETATM   12  C   UNL     1      -9.907   7.268  67.116  1.00  0.00    -0.185 C  
HETATM   13  C   UNL     1      -9.308   9.042  69.216  1.00  0.00    -0.150 C  
HETATM   14  C   UNL     1     -12.500   8.362  67.140  1.00  0.00     9.283 C  
HETATM   15  C   UNL     1      -9.971   7.607  68.642  1.00  0.00    -0.181 C  
HETATM   16  O   UNL     1     -10.894   8.502  63.867  1.00  0.00     8.272 OA 
HETATM   17  C   UNL     1     -11.331   7.883  66.226  1.00  0.00     3.111 C  
HETATM   18  C   UNL     1     -11.209   6.859  69.225  1.00  0.00    -0.188 C  
HETATM   19  C   UNL     1     -10.297   9.765  70.297  1.00  0.00    -0.291 C  
HETATM   20  O   UNL     1     -11.603  10.139  69.832  1.00  0.00    -0.253 OA 
HETATM   21  C   UNL     1     -10.511   8.724  71.441  1.00  0.00    -0.354 C  
HETATM   22  C   UNL     1     -11.400   8.806  64.954  1.00  0.00     9.261 C  
HETATM   23  C   UNL     1      -9.582  11.019  70.816  1.00  0.00     3.628 C  
HETATM   24  C   UNL     1     -12.585  10.418  70.850  1.00  0.00    -0.383 C  
HETATM   25  C   UNL     1     -10.110  12.477  70.679  1.00  0.00     5.258 C  
HETATM   26  H   UNL     1     -14.000  11.648  65.263  1.00  0.00     0.000 HD 
HETATM   27  O   UNL     1     -12.189   9.981  65.060  1.00  0.00     5.153 OA 
HETATM   28  C   UNL     1     -10.363  13.267  69.312  1.00  0.00     0.280 C  
HETATM   29  C   UNL     1      -8.959  13.226  71.462  1.00  0.00    13.624 C  
HETATM   30  O   UNL     1     -13.649  12.191  65.958  1.00  0.00     3.610 OA 
HETATM   31  C   UNL     1     -12.550  13.659  64.402  1.00  0.00    -0.220 C  
HETATM   32  O   UNL     1      -9.500  14.114  69.008  1.00  0.00    -0.084 OA 
HETATM   33  C   UNL     1     -11.707  13.357  68.430  1.00  0.00    -0.390 C  
HETATM   34  C   UNL     1     -12.969  12.644  68.823  1.00  0.00     2.117 C  
HETATM   35  C   UNL     1     -11.576  11.326  64.818  1.00  0.00     0.220 C  
HETATM   36  C   UNL     1     -11.704  13.601  66.808  1.00  0.00    -0.392 C  
HETATM   37  C   UNL     1     -12.333  12.630  65.566  1.00  0.00    -0.391 C  
HETATM   38  O   UNL     1     -10.652  14.482  66.389  1.00  0.00    -0.292 OA 
HETATM   39  H   UNL     1     -10.650  14.623  65.450  1.00  0.00     0.000 HD 
BRANCH  13  40
HETATM   40  O   UNL     1      -8.655   9.820  68.164  1.00  0.00    -0.118 OA 
BRANCH  40  41
HETATM   41  C   UNL     1      -8.710  11.132  67.496  1.00  0.00    -0.129 C  
HETATM   42  C   UNL     1      -7.713  13.554  67.244  1.00  0.00    -0.077 C  
HETATM   43  C   UNL     1     -10.341  12.770  64.587  1.00  0.00    -0.362 C  
HETATM   44  O   UNL     1      -6.287  11.957  68.112  1.00  0.00    -0.049 OA 
HETATM   45  C   UNL     1      -8.497  13.691  65.957  1.00  0.00     1.210 C  
HETATM   46  H   UNL     1      -5.510  12.487  67.980  1.00  0.00     0.000 HD 
HETATM   47  C   UNL     1      -9.696  12.690  65.959  1.00  0.00    -0.229 C  
HETATM   48  C   UNL     1      -7.391  12.031  67.270  1.00  0.00    -0.151 C  
HETATM   49  O   UNL     1      -9.415  11.279  66.247  1.00  0.00    -0.192 OA 
BRANCH  42  50
HETATM   50  N   UNL     1      -6.553  14.480  67.472  1.00  0.00    -0.285 NA 
HETATM   51  C   UNL     1      -6.668  15.508  68.504  1.00  0.00    -0.113 C  
HETATM   52  C   UNL     1      -5.248  13.827  67.563  1.00  0.00     0.176 C  
ENDBRANCH  42  50
ENDBRANCH  40  41
ENDBRANCH  13  40
BRANCH  35  53
HETATM   53  C   UNL     1     -10.195  11.178  65.349  1.00  0.00    -0.327 C  
HETATM   54  C   UNL     1      -9.611  10.223  64.318  1.00  0.00    -0.375 C  
ENDBRANCH  35  53
ENDBRANCH  11  12
ENDBRANCH   1  11
BRANCH   4  55
HETATM   55  O   UNL     1      -8.715   4.644  69.776  1.00  0.00    -0.079 OA 
HETATM   56  C   UNL     1      -9.477   5.742  69.289  1.00  0.00    -0.129 C  
ENDBRANCH   4  55
TORSDOF 7
ENDMDL
MODEL      149
REMARK 921   NORMALIZED FREE ENERGY PREDICTED BY IDOCK:   75.44 KCAL/MOL
REMARK 922        TOTAL FREE ENERGY PREDICTED BY IDOCK:  103.63 KCAL/MOL
REMARK 923 INTER-LIGAND FREE ENERGY PREDICTED BY IDOCK:   41.81 KCAL/MOL
REMARK 924 INTRA-LIGAND FREE ENERGY PREDICTED BY IDOCK:   61.82 KCAL/MOL
REMARK 927      BINDING AFFINITY PREDICTED BY RF-SCORE:    0.00 PKD
ROOT
HETATM    1  C   UNL     1     -10.412  13.575  68.668  1.00  0.00    -0.232 C  
HETATM    2  O   UNL     1     -13.976  11.801  70.560  1.00  0.00     2.278 OA 
HETATM    3  C   UNL     1     -10.410  12.091  69.241  1.00  0.00     0.163 C  
HETATM    4  C   UNL     1     -11.525  11.662  70.272  1.00  0.00    -0.026 C  
HETATM    5  C   UNL     1     -14.067  14.375  69.306  1.00  0.00     6.091 C  
HETATM    6  C   UNL     1     -12.858  12.244  69.770  1.00  0.00     0.754 C  
HETATM    7  C   UNL     1     -11.655  10.107  70.368  1.00  0.00    -0.396 C  
HETATM    8  O   UNL     1     -11.719  14.204  68.715  1.00  0.00    -0.303 OA 
HETATM    9  H   UNL     1     -14.799  12.160  70.249  1.00  0.00     0.000 HD 
HETATM   10  C   UNL     1     -12.703  13.768  69.678  1.00  0.00     0.226 C  
ENDROOT
BRANCH   1  11
HETATM   11  O   UNL     1      -9.111  14.392  68.884  1.00  0.00    -0.161 OA 
BRANCH  11  12
HETATM   12  C   UNL     1      -7.894  13.658  69.326  1.00  0.00     0.361 C  
HETATM   13  C   UNL     1      -9.542  11.412  69.720  1.00  0.00     1.135 C  
HETATM   14  C   UNL     1      -5.771  11.845  68.975  1.00  0.00    -0.053 C  
HETATM   15  C   UNL     1      -8.424  12.537  70.280  1.00  0.00     4.661 C  
HETATM   16  O   UNL     1      -6.170  14.171  66.193  1.00  0.00     3.646 OA 
HETATM   17  C   UNL     1      -6.427  13.152  68.437  1.00  0.00    -0.086 C  
HETATM   18  C   UNL     1      -7.322  12.292  71.356  1.00  0.00     6.976 C  
HETATM   19  C   UNL     1      -9.160   9.899  70.207  1.00  0.00    -0.054 C  
HETATM   20  O   UNL     1      -7.892   9.381  69.780  1.00  0.00    -0.090 OA 
HETATM   21  C   UNL     1      -9.120   9.952  71.767  1.00  0.00     2.620 C  
HETATM   22  C   UNL     1      -6.140  13.149  66.890  1.00  0.00     1.011 C  
HETATM   23  C   UNL     1     -10.267   8.958  69.714  1.00  0.00    -0.207 C  
HETATM   24  C   UNL     1      -7.397   8.235  70.500  1.00  0.00    -0.056 C  
HETATM   25  C   UNL     1     -10.060   7.756  68.748  1.00  0.00    -0.205 C  
HETATM   26  H   UNL     1      -4.493   9.883  65.645  1.00  0.00     0.000 HD 
HETATM   27  O   UNL     1      -5.714  11.920  66.323  1.00  0.00    -0.206 OA 
HETATM   28  C   UNL     1      -9.543   7.833  67.237  1.00  0.00    -0.161 C  
HETATM   29  C   UNL     1     -11.544   7.208  68.722  1.00  0.00     0.530 C  
HETATM   30  O   UNL     1      -5.169   9.230  65.784  1.00  0.00    -0.038 OA 
HETATM   31  C   UNL     1      -5.975   9.429  63.527  1.00  0.00    -0.090 C  
HETATM   32  O   UNL     1     -10.418   7.706  66.359  1.00  0.00    -0.099 OA 
HETATM   33  C   UNL     1      -8.037   7.741  66.678  1.00  0.00    -0.111 C  
HETATM   34  C   UNL     1      -6.856   7.567  67.590  1.00  0.00    -0.071 C  
HETATM   35  C   UNL     1      -6.491  11.295  65.205  1.00  0.00     0.770 C  
HETATM   36  C   UNL     1      -7.547   8.461  65.288  1.00  0.00    -0.090 C  
HETATM   37  C   UNL     1      -6.339   9.627  65.040  1.00  0.00    -0.089 C  
HETATM   38  O   UNL     1      -8.564   8.445  64.276  1.00  0.00    -0.378 OA 
HETATM   39  H   UNL     1      -8.280   8.862  63.471  1.00  0.00     0.000 HD 
BRANCH  13  40
HETATM   40  O   UNL     1      -9.957  11.670  68.341  1.00  0.00    -0.191 OA 
BRANCH  40  41
HETATM   41  C   UNL     1     -10.343  12.767  67.437  1.00  0.00    -0.222 C  
HETATM   42  C   UNL     1      -9.892  15.208  66.566  1.00  0.00    -0.262 C  
HETATM   43  C   UNL     1     -12.552  13.391  64.516  1.00  0.00    -0.286 C  
HETATM   44  O   UNL     1      -8.092  14.127  67.530  1.00  0.00    -0.161 OA 
HETATM   45  C   UNL     1     -10.809  14.911  65.400  1.00  0.00    -0.379 C  
HETATM   46  H   UNL     1      -7.455  14.744  67.186  1.00  0.00     0.000 HD 
HETATM   47  C   UNL     1     -11.772  13.738  65.771  1.00  0.00    -0.349 C  
HETATM   48  C   UNL     1      -9.264  13.812  66.853  1.00  0.00    -0.255 C  
HETATM   49  O   UNL     1     -11.183  12.502  66.295  1.00  0.00    -0.286 OA 
BRANCH  42  50
HETATM   50  N   UNL     1      -8.928  16.353  66.438  1.00  0.00    -0.278 NA 
HETATM   51  C   UNL     1      -9.331  17.525  65.663  1.00  0.00     0.438 C  
HETATM   52  C   UNL     1      -8.299  16.776  67.689  1.00  0.00    -0.182 C  
ENDBRANCH  42  50
ENDBRANCH  40  41
ENDBRANCH  13  40
BRANCH  35  53
HETATM   53  C   UNL     1      -7.901  11.639  65.529  1.00  0.00     0.818 C  
HETATM   54  C   UNL     1      -8.478  11.764  64.127  1.00  0.00     1.239 C  
ENDBRANCH  35  53
ENDBRANCH  11  12
ENDBRANCH   1  11
BRANCH   4  55
HETATM   55  O   UNL     1     -11.111  12.188  71.548  1.00  0.00     3.356 OA 
HETATM   56  C   UNL     1     -10.695  11.275  72.556  1.00  0.00    10.788 C  
ENDBRANCH   4  55
TORSDOF 7
ENDMDL
MODEL      150
REMARK 921   NORMALIZED FREE ENERGY PREDICTED BY IDOCK:   76.11 KCAL/MOL
REMARK 922        TOTAL FREE ENERGY PREDICTED BY IDOCK:  104.56 KCAL/MOL
REMARK 923 INTER-LIGAND FREE ENERGY PREDICTED BY IDOCK:   78.63 KCAL/MOL
REMARK 924 INTRA-LIGAND FREE ENERGY PREDICTED BY IDOCK:   25.94 KCAL/MOL
REMARK 927      BINDING AFFINITY PREDICTED BY RF-SCORE:    0.00 PKD
ROOT
HETATM    1  C   UNL     1     -10.741  11.268  66.844  1.00  0.00    -0.273 C  
HETATM    2  O   UNL     1     -10.986   8.875  63.150  1.00  0.00     6.585 OA 
HETATM    3  C   UNL     1     -10.443  11.895  65.413  1.00  0.00    -0.312 C  
HETATM    4  C   UNL     1     -10.117  10.936  64.203  1.00  0.00    -0.355 C  
HETATM    5  C   UNL     1     -11.771   7.802  65.687  1.00  0.00     8.253 C  
HETATM    6  C   UNL     1     -11.096   9.751  64.286  1.00  0.00     4.527 C  
HETATM    7  C   UNL     1     -10.307  11.656  62.828  1.00  0.00     0.110 C  
HETATM    8  O   UNL     1     -11.220   9.899  66.778  1.00  0.00     0.098 OA 
HETATM    9  H   UNL     1     -11.590   8.144  63.201  1.00  0.00     0.000 HD 
HETATM   10  C   UNL     1     -10.895   9.066  65.645  1.00  0.00     2.436 C  
ENDROOT
BRANCH   1  11
HETATM   11  O   UNL     1      -9.835  11.754  68.006  1.00  0.00    -0.173 OA 
BRANCH  11  12
HETATM   12  C   UNL     1     -10.460  11.939  69.344  1.00  0.00     0.203 C  
HETATM   13  C   UNL     1     -11.776   9.487  68.931  1.00  0.00     0.686 C  
HETATM   14  C   UNL     1     -10.723  11.438  72.100  1.00  0.00     8.766 C  
HETATM   15  C   UNL     1     -11.799  11.132  69.277  1.00  0.00    -0.422 C  
HETATM   16  O   UNL     1      -7.285  12.077  71.061  1.00  0.00     2.686 OA 
HETATM   17  C   UNL     1      -9.758  11.951  70.988  1.00  0.00     8.236 C  
HETATM   18  C   UNL     1     -12.826  11.874  70.187  1.00  0.00     0.267 C  
HETATM   19  C   UNL     1     -12.788   8.657  69.911  1.00  0.00     2.144 C  
HETATM   20  O   UNL     1     -12.526   8.726  71.321  1.00  0.00    -0.304 OA 
HETATM   21  C   UNL     1     -14.202   9.279  69.687  1.00  0.00     3.820 C  
HETATM   22  C   UNL     1      -8.319  11.536  71.470  1.00  0.00    11.017 C  
HETATM   23  C   UNL     1     -12.755   7.186  69.477  1.00  0.00     2.437 C  
HETATM   24  C   UNL     1     -13.606   8.327  72.189  1.00  0.00    -0.273 C  
HETATM   25  C   UNL     1     -12.318   5.993  70.376  1.00  0.00     1.259 C  
HETATM   26  H   UNL     1      -8.343   9.331  74.643  1.00  0.00     0.000 HD 
HETATM   27  O   UNL     1      -8.247  10.574  72.511  1.00  0.00     6.273 OA 
HETATM   28  C   UNL     1     -10.868   5.770  71.012  1.00  0.00    -0.247 C  
HETATM   29  C   UNL     1     -12.584   4.813  69.357  1.00  0.00    13.616 C  
HETATM   30  O   UNL     1      -8.758   8.529  74.349  1.00  0.00     0.153 OA 
HETATM   31  C   UNL     1      -6.646   7.474  73.894  1.00  0.00    -0.082 C  
HETATM   32  O   UNL     1     -10.155   4.918  70.447  1.00  0.00    -0.231 OA 
HETATM   33  C   UNL     1     -10.308   6.246  72.444  1.00  0.00    -0.215 C  
HETATM   34  C   UNL     1     -11.153   7.024  73.413  1.00  0.00    -0.140 C  
HETATM   35  C   UNL     1      -7.500   9.292  72.305  1.00  0.00     0.769 C  
HETATM   36  C   UNL     1      -8.725   6.559  72.732  1.00  0.00    -0.124 C  
HETATM   37  C   UNL     1      -7.983   7.992  73.258  1.00  0.00    -0.178 C  
HETATM   38  O   UNL     1      -7.853   5.677  72.011  1.00  0.00    -0.103 OA 
HETATM   39  H   UNL     1      -6.935   5.859  72.178  1.00  0.00     0.000 HD 
BRANCH  13  40
HETATM   40  O   UNL     1     -10.429   8.989  68.655  1.00  0.00    -0.213 OA 
BRANCH  40  41
HETATM   41  C   UNL     1      -9.210   9.315  67.896  1.00  0.00    -0.129 C  
HETATM   42  C   UNL     1      -7.511  11.150  67.080  1.00  0.00    -0.132 C  
HETATM   43  C   UNL     1      -6.346   7.608  66.256  1.00  0.00    -0.045 C  
HETATM   44  O   UNL     1      -8.724  11.666  68.977  1.00  0.00    -0.370 OA 
HETATM   45  C   UNL     1      -6.564  10.034  66.695  1.00  0.00    -0.073 C  
HETATM   46  H   UNL     1      -8.159  12.390  69.220  1.00  0.00     0.000 HD 
HETATM   47  C   UNL     1      -7.365   8.710  66.485  1.00  0.00    -0.081 C  
HETATM   48  C   UNL     1      -8.250  10.543  68.308  1.00  0.00    -0.117 C  
HETATM   49  O   UNL     1      -8.271   8.276  67.554  1.00  0.00    -0.119 OA 
BRANCH  42  50
HETATM   50  N   UNL     1      -6.945  12.530  67.263  1.00  0.00    -0.141 NA 
HETATM   51  C   UNL     1      -7.697  13.495  68.062  1.00  0.00    -0.143 C  
HETATM   52  C   UNL     1      -5.530  12.575  67.628  1.00  0.00    -0.123 C  
ENDBRANCH  42  50
ENDBRANCH  40  41
ENDBRANCH  13  40
BRANCH  35  53
HETATM   53  C   UNL     1      -7.741   8.979  70.871  1.00  0.00    -0.149 C  
HETATM   54  C   UNL     1      -6.632   9.795  70.226  1.00  0.00    -0.102 C  
ENDBRANCH  35  53
ENDBRANCH  11  12
ENDBRANCH   1  11
BRANCH   4  55
HETATM   55  O   UNL     1      -8.736  10.554  64.357  1.00  0.00    -0.183 OA 
HETATM   56  C   UNL     1      -8.238   9.477  63.574  1.00  0.00    -0.164 C  
ENDBRANCH   4  55
TORSDOF 7
ENDMDL
MODEL      151
REMARK 921   NORMALIZED FREE ENERGY PREDICTED BY IDOCK:   76.41 KCAL/MOL
REMARK 922        TOTAL FREE ENERGY PREDICTED BY IDOCK:  104.98 KCAL/MOL
REMARK 923 INTER-LIGAND FREE ENERGY PREDICTED BY IDOCK:   73.43 KCAL/MOL
REMARK 924 INTRA-LIGAND FREE ENERGY PREDICTED BY IDOCK:   31.55 KCAL/MOL
REMARK 927      BINDING AFFINITY PREDICTED BY RF-SCORE:    0.00 PKD
ROOT
HETATM    1  C   UNL     1     -11.293   7.914  70.231  1.00  0.00    -0.150 C  
HETATM    2  O   UNL     1      -8.616   5.241  67.969  1.00  0.00    -0.104 OA 
HETATM    3  C   UNL     1     -11.586   7.511  68.721  1.00  0.00     0.908 C  
HETATM    4  C   UNL     1     -10.414   6.932  67.837  1.00  0.00    -0.212 C  
HETATM    5  C   UNL     1      -8.216   5.754  70.759  1.00  0.00    -0.123 C  
HETATM    6  C   UNL     1      -9.630   5.940  68.713  1.00  0.00    -0.128 C  
HETATM    7  C   UNL     1     -10.958   6.178  66.579  1.00  0.00    -0.093 C  
HETATM    8  O   UNL     1     -10.156   7.213  70.799  1.00  0.00    -0.190 OA 
HETATM    9  H   UNL     1      -8.132   4.629  68.510  1.00  0.00     0.000 HD 
HETATM   10  C   UNL     1      -9.113   6.700  69.942  1.00  0.00    -0.143 C  
ENDROOT
BRANCH   1  11
HETATM   11  O   UNL     1     -11.620   9.379  70.623  1.00  0.00    -0.268 OA 
BRANCH  11  12
HETATM   12  C   UNL     1     -10.847   9.989  71.740  1.00  0.00     1.017 C  
HETATM   13  C   UNL     1      -8.625  10.031  70.014  1.00  0.00    -0.090 C  
HETATM   14  C   UNL     1      -9.637  12.136  73.098  1.00  0.00    24.473 C  
HETATM   15  C   UNL     1      -9.358   9.592  71.463  1.00  0.00     0.829 C  
HETATM   16  O   UNL     1     -13.046  12.842  72.007  1.00  0.00    -0.406 OA 
HETATM   17  C   UNL     1     -10.984  11.578  72.547  1.00  0.00     9.977 C  
HETATM   18  C   UNL     1      -8.659   9.442  72.849  1.00  0.00     2.323 C  
HETATM   19  C   UNL     1      -7.111  10.599  70.261  1.00  0.00     0.131 C  
HETATM   20  O   UNL     1      -6.982  11.762  71.091  1.00  0.00     1.996 OA 
HETATM   21  C   UNL     1      -6.338   9.448  70.980  1.00  0.00    -0.082 C  
HETATM   22  C   UNL     1     -11.815  12.848  72.132  1.00  0.00     2.509 C  
HETATM   23  C   UNL     1      -6.499  10.903  68.888  1.00  0.00    -0.049 C  
HETATM   24  C   UNL     1      -5.665  12.031  71.611  1.00  0.00     0.684 C  
HETATM   25  C   UNL     1      -6.001  12.300  68.416  1.00  0.00    -0.054 C  
HETATM   26  H   UNL     1      -9.813  16.142  72.399  1.00  0.00     0.000 HD 
HETATM   27  O   UNL     1     -11.100  14.069  72.020  1.00  0.00     1.829 OA 
HETATM   28  C   UNL     1      -6.897  13.612  68.235  1.00  0.00    -0.108 C  
HETATM   29  C   UNL     1      -5.451  11.891  66.991  1.00  0.00    -0.119 C  
HETATM   30  O   UNL     1      -9.141  16.044  71.734  1.00  0.00     5.165 OA 
HETATM   31  C   UNL     1     -10.442  17.221  70.091  1.00  0.00     0.578 C  
HETATM   32  O   UNL     1      -7.192  13.908  67.060  1.00  0.00     0.020 OA 
HETATM   33  C   UNL     1      -7.215  14.775  69.301  1.00  0.00    -0.167 C  
HETATM   34  C   UNL     1      -6.666  14.747  70.700  1.00  0.00     0.231 C  
HETATM   35  C   UNL     1     -11.106  14.831  70.729  1.00  0.00    -0.036 C  
HETATM   36  C   UNL     1      -8.589  15.669  69.275  1.00  0.00    -0.262 C  
HETATM   37  C   UNL     1      -9.789  15.844  70.462  1.00  0.00     0.803 C  
HETATM   38  O   UNL     1      -9.040  15.940  67.940  1.00  0.00    -0.188 OA 
HETATM   39  H   UNL     1      -9.836  16.459  67.925  1.00  0.00     0.000 HD 
BRANCH  13  40
HETATM   40  O   UNL     1      -9.540  10.720  69.106  1.00  0.00    -0.204 OA 
BRANCH  40  41
HETATM   41  C   UNL     1     -10.407  10.480  67.939  1.00  0.00    -0.192 C  
HETATM   42  C   UNL     1     -11.130  11.185  65.510  1.00  0.00    -0.003 C  
HETATM   43  C   UNL     1     -12.754   7.915  66.629  1.00  0.00    12.065 C  
HETATM   44  O   UNL     1      -9.006  11.821  66.160  1.00  0.00    -0.252 OA 
HETATM   45  C   UNL     1     -11.854   9.861  65.392  1.00  0.00     5.328 C  
HETATM   46  H   UNL     1      -8.727  12.023  65.274  1.00  0.00     0.000 HD 
HETATM   47  C   UNL     1     -12.174   9.305  66.816  1.00  0.00     7.520 C  
HETATM   48  C   UNL     1      -9.933  10.822  66.437  1.00  0.00    -0.216 C  
HETATM   49  O   UNL     1     -11.074   9.211  67.783  1.00  0.00    -0.079 OA 
BRANCH  42  50
HETATM   50  N   UNL     1     -10.790  11.923  64.247  1.00  0.00    -0.318 NA 
HETATM   51  C   UNL     1     -10.148  13.232  64.351  1.00  0.00    -0.163 C  
HETATM   52  C   UNL     1     -10.122  11.121  63.222  1.00  0.00    -0.380 C  
ENDBRANCH  42  50
ENDBRANCH  40  41
ENDBRANCH  13  40
BRANCH  35  53
HETATM   53  C   UNL     1     -11.132  13.761  69.696  1.00  0.00    -0.094 C  
HETATM   54  C   UNL     1     -12.596  13.819  69.285  1.00  0.00     0.227 C  
ENDBRANCH  35  53
ENDBRANCH  11  12
ENDBRANCH   1  11
BRANCH   4  55
HETATM   55  O   UNL     1      -9.635   8.068  67.414  1.00  0.00    -0.141 OA 
HETATM   56  C   UNL     1      -9.812   9.304  68.096  1.00  0.00    -0.162 C  
ENDBRANCH   4  55
TORSDOF 7
ENDMDL
MODEL      152
REMARK 921   NORMALIZED FREE ENERGY PREDICTED BY IDOCK:   77.54 KCAL/MOL
REMARK 922        TOTAL FREE ENERGY PREDICTED BY IDOCK:  106.58 KCAL/MOL
REMARK 923 INTER-LIGAND FREE ENERGY PREDICTED BY IDOCK:   86.98 KCAL/MOL
REMARK 924 INTRA-LIGAND FREE ENERGY PREDICTED BY IDOCK:   19.60 KCAL/MOL
REMARK 927      BINDING AFFINITY PREDICTED BY RF-SCORE:    0.00 PKD
ROOT
HETATM    1  C   UNL     1     -11.351  11.040  67.604  1.00  0.00    -0.281 C  
HETATM    2  O   UNL     1      -8.784   7.623  66.524  1.00  0.00    -0.135 OA 
HETATM    3  C   UNL     1      -9.821  10.968  68.032  1.00  0.00    -0.183 C  
HETATM    4  C   UNL     1      -9.079   9.575  68.011  1.00  0.00    -0.123 C  
HETATM    5  C   UNL     1     -11.461   7.861  65.533  1.00  0.00     7.662 C  
HETATM    6  C   UNL     1      -9.507   8.851  66.722  1.00  0.00    -0.187 C  
HETATM    7  C   UNL     1      -7.525   9.749  68.003  1.00  0.00    -0.082 C  
HETATM    8  O   UNL     1     -11.751   9.952  66.730  1.00  0.00     0.925 OA 
HETATM    9  H   UNL     1      -9.047   7.176  65.728  1.00  0.00     0.000 HD 
HETATM   10  C   UNL     1     -11.033   8.699  66.750  1.00  0.00     0.453 C  
ENDROOT
BRANCH   1  11
HETATM   11  O   UNL     1     -12.326  11.637  68.652  1.00  0.00    -0.394 OA 
BRANCH  11  12
HETATM   12  C   UNL     1     -11.889  11.662  70.074  1.00  0.00    -0.355 C  
HETATM   13  C   UNL     1      -9.279  12.132  69.134  1.00  0.00     0.577 C  
HETATM   14  C   UNL     1     -11.095  12.941  72.452  1.00  0.00     7.572 C  
HETATM   15  C   UNL     1     -10.381  11.241  70.039  1.00  0.00     0.723 C  
HETATM   16  O   UNL     1     -14.074  14.405  70.938  1.00  0.00    -0.082 OA 
HETATM   17  C   UNL     1     -12.241  12.805  71.403  1.00  0.00     0.143 C  
HETATM   18  C   UNL     1     -10.089  10.475  71.366  1.00  0.00     3.135 C  
HETATM   19  C   UNL     1      -7.891  12.379  69.962  1.00  0.00     2.374 C  
HETATM   20  O   UNL     1      -7.993  13.095  71.201  1.00  0.00     5.619 OA 
HETATM   21  C   UNL     1      -7.345  10.957  70.310  1.00  0.00     0.646 C  
HETATM   22  C   UNL     1     -12.925  14.221  71.357  1.00  0.00    -0.341 C  
HETATM   23  C   UNL     1      -6.925  13.131  69.037  1.00  0.00    -0.063 C  
HETATM   24  C   UNL     1      -6.868  12.984  72.096  1.00  0.00     5.417 C  
HETATM   25  C   UNL     1      -6.316  14.534  69.323  1.00  0.00    -0.117 C  
HETATM   26  H   UNL     1     -11.070  16.889  73.448  1.00  0.00     0.000 HD 
HETATM   27  O   UNL     1     -12.206  15.297  71.939  1.00  0.00    -0.308 OA 
HETATM   28  C   UNL     1      -7.127  15.903  69.482  1.00  0.00    -0.184 C  
HETATM   29  C   UNL     1      -5.397  14.664  68.043  1.00  0.00    -0.114 C  
HETATM   30  O   UNL     1     -10.241  16.986  72.992  1.00  0.00     5.715 OA 
HETATM   31  C   UNL     1     -11.042  18.858  71.713  1.00  0.00     4.531 C  
HETATM   32  O   UNL     1      -7.089  16.671  68.501  1.00  0.00    -0.156 OA 
HETATM   33  C   UNL     1      -7.724  16.576  70.817  1.00  0.00     3.697 C  
HETATM   34  C   UNL     1      -7.579  15.933  72.167  1.00  0.00     7.781 C  
HETATM   35  C   UNL     1     -11.857  16.503  71.122  1.00  0.00     0.140 C  
HETATM   36  C   UNL     1      -9.038  17.556  70.820  1.00  0.00     5.140 C  
HETATM   37  C   UNL     1     -10.517  17.382  71.634  1.00  0.00     3.448 C  
HETATM   38  O   UNL     1      -9.105  18.384  69.650  1.00  0.00     0.482 OA 
HETATM   39  H   UNL     1      -9.866  18.953  69.653  1.00  0.00     0.000 HD 
BRANCH  13  40
HETATM   40  O   UNL     1      -9.910  13.223  68.394  1.00  0.00    -0.234 OA 
BRANCH  40  41
HETATM   41  C   UNL     1      -9.637  14.209  67.334  1.00  0.00    -0.229 C  
HETATM   42  C   UNL     1     -10.262  16.497  66.196  1.00  0.00    -0.346 C  
HETATM   43  C   UNL     1      -7.049  14.992  64.786  1.00  0.00    14.733 C  
HETATM   44  O   UNL     1     -10.901  16.255  68.403  1.00  0.00    -0.301 OA 
HETATM   45  C   UNL     1      -8.941  16.438  65.460  1.00  0.00     0.500 C  
HETATM   46  H   UNL     1     -11.070  17.183  68.523  1.00  0.00     0.000 HD 
HETATM   47  C   UNL     1      -8.439  14.960  65.394  1.00  0.00     2.952 C  
HETATM   48  C   UNL     1      -9.922  15.783  67.537  1.00  0.00    -0.236 C  
HETATM   49  O   UNL     1      -8.369  14.200  66.646  1.00  0.00    -0.014 OA 
BRANCH  42  50
HETATM   50  N   UNL     1     -10.952  17.827  66.311  1.00  0.00     0.105 NA 
HETATM   51  C   UNL     1     -10.135  19.036  66.392  1.00  0.00    -0.415 C  
HETATM   52  C   UNL     1     -12.057  18.033  65.375  1.00  0.00     5.333 C  
ENDBRANCH  42  50
ENDBRANCH  40  41
ENDBRANCH  13  40
BRANCH  35  53
HETATM   53  C   UNL     1     -11.600  15.941  69.769  1.00  0.00    -0.340 C  
HETATM   54  C   UNL     1     -12.787  16.515  69.009  1.00  0.00     2.702 C  
ENDBRANCH  35  53
ENDBRANCH  11  12
ENDBRANCH   1  11
BRANCH   4  55
HETATM   55  O   UNL     1      -9.479   8.893  69.215  1.00  0.00    -0.158 OA 
HETATM   56  C   UNL     1      -9.113   7.528  69.375  1.00  0.00    -0.142 C  
ENDBRANCH   4  55
TORSDOF 7
ENDMDL
MODEL      153
REMARK 921   NORMALIZED FREE ENERGY PREDICTED BY IDOCK:   81.56 KCAL/MOL
REMARK 922        TOTAL FREE ENERGY PREDICTED BY IDOCK:  112.25 KCAL/MOL
REMARK 923 INTER-LIGAND FREE ENERGY PREDICTED BY IDOCK:   29.55 KCAL/MOL
REMARK 924 INTRA-LIGAND FREE ENERGY PREDICTED BY IDOCK:   82.70 KCAL/MOL
REMARK 927      BINDING AFFINITY PREDICTED BY RF-SCORE:    0.00 PKD
ROOT
HETATM    1  C   UNL     1     -11.060   9.482  70.590  1.00  0.00    -0.300 C  
HETATM    2  O   UNL     1     -11.498   5.709  68.355  1.00  0.00     0.312 OA 
HETATM    3  C   UNL     1     -11.633   8.163  71.269  1.00  0.00    -0.305 C  
HETATM    4  C   UNL     1     -12.173   6.997  70.353  1.00  0.00    -0.087 C  
HETATM    5  C   UNL     1     -10.230   8.001  67.196  1.00  0.00    -0.362 C  
HETATM    6  C   UNL     1     -11.183   6.841  69.185  1.00  0.00    -0.177 C  
HETATM    7  C   UNL     1     -12.257   5.643  71.132  1.00  0.00     1.315 C  
HETATM    8  O   UNL     1     -10.587   9.268  69.235  1.00  0.00    -0.221 OA 
HETATM    9  H   UNL     1     -10.886   5.612  67.634  1.00  0.00     0.000 HD 
HETATM   10  C   UNL     1     -11.113   8.181  68.443  1.00  0.00     0.399 C  
ENDROOT
BRANCH   1  11
HETATM   11  O   UNL     1     -11.733  10.816  71.011  1.00  0.00    -0.294 OA 
BRANCH  11  12
HETATM   12  C   UNL     1     -12.230  11.714  69.934  1.00  0.00    -0.239 C  
HETATM   13  C   UNL     1      -9.887  13.230  70.288  1.00  0.00     3.454 C  
HETATM   14  C   UNL     1     -12.290  12.709  67.302  1.00  0.00     0.317 C  
HETATM   15  C   UNL     1     -11.562  13.099  70.224  1.00  0.00    -0.079 C  
HETATM   16  O   UNL     1     -12.376   9.066  67.481  1.00  0.00     4.500 OA 
HETATM   17  C   UNL     1     -12.484  11.439  68.185  1.00  0.00     1.031 C  
HETATM   18  C   UNL     1     -12.562  14.198  69.749  1.00  0.00    -0.151 C  
HETATM   19  C   UNL     1      -9.363  14.559  69.492  1.00  0.00     0.305 C  
HETATM   20  O   UNL     1      -9.672  14.641  68.094  1.00  0.00    -0.210 OA 
HETATM   21  C   UNL     1     -10.069  15.772  70.179  1.00  0.00    -0.095 C  
HETATM   22  C   UNL     1     -12.028  10.236  67.280  1.00  0.00     2.341 C  
HETATM   23  C   UNL     1      -7.841  14.635  69.665  1.00  0.00     0.101 C  
HETATM   24  C   UNL     1      -9.554  15.945  67.490  1.00  0.00    -0.221 C  
HETATM   25  C   UNL     1      -6.803  14.607  68.506  1.00  0.00    -0.098 C  
HETATM   26  H   UNL     1     -10.478  11.349  63.920  1.00  0.00     0.000 HD 
HETATM   27  O   UNL     1     -11.279  10.560  66.119  1.00  0.00     0.157 OA 
HETATM   28  C   UNL     1      -6.561  13.404  67.480  1.00  0.00    -0.131 C  
HETATM   29  C   UNL     1      -5.483  14.785  69.359  1.00  0.00    -0.093 C  
HETATM   30  O   UNL     1      -9.680  11.792  64.183  1.00  0.00    -0.223 OA 
HETATM   31  C   UNL     1      -8.354   9.808  63.889  1.00  0.00    -0.173 C  
HETATM   32  O   UNL     1      -5.551  12.705  67.694  1.00  0.00    -0.108 OA 
HETATM   33  C   UNL     1      -7.243  13.146  66.045  1.00  0.00     3.556 C  
HETATM   34  C   UNL     1      -8.270  14.080  65.471  1.00  0.00     3.670 C  
HETATM   35  C   UNL     1      -9.914   9.978  65.915  1.00  0.00    -0.269 C  
HETATM   36  C   UNL     1      -7.447  11.652  65.401  1.00  0.00     1.271 C  
HETATM   37  C   UNL     1      -8.872  10.861  64.930  1.00  0.00    -0.116 C  
HETATM   38  O   UNL     1      -6.361  10.768  65.717  1.00  0.00    -0.189 OA 
HETATM   39  H   UNL     1      -6.479   9.902  65.343  1.00  0.00     0.000 HD 
BRANCH  13  40
HETATM   40  O   UNL     1      -9.215  11.944  70.115  1.00  0.00     2.532 OA 
BRANCH  40  41
HETATM   41  C   UNL     1      -9.249  10.549  70.589  1.00  0.00     1.807 C  
HETATM   42  C   UNL     1      -7.952   8.513  71.634  1.00  0.00    -0.142 C  
HETATM   43  C   UNL     1     -11.711   7.883  71.385  1.00  0.00    -0.311 C  
HETATM   44  O   UNL     1      -7.052  10.602  72.037  1.00  0.00     2.045 OA 
HETATM   45  C   UNL     1      -9.291   7.862  71.908  1.00  0.00    -0.204 C  
HETATM   46  H   UNL     1      -6.485  10.293  72.736  1.00  0.00     0.000 HD 
HETATM   47  C   UNL     1     -10.375   8.461  70.955  1.00  0.00    -0.198 C  
HETATM   48  C   UNL     1      -8.289  10.026  71.774  1.00  0.00     3.170 C  
HETATM   49  O   UNL     1     -10.510   9.921  70.897  1.00  0.00    -0.286 OA 
BRANCH  42  50
HETATM   50  N   UNL     1      -6.757   8.027  72.402  1.00  0.00    -0.071 NA 
HETATM   51  C   UNL     1      -6.754   6.653  72.900  1.00  0.00    -0.068 C  
HETATM   52  C   UNL     1      -5.463   8.341  71.797  1.00  0.00    -0.036 C  
ENDBRANCH  42  50
ENDBRANCH  40  41
ENDBRANCH  13  40
BRANCH  35  53
HETATM   53  C   UNL     1      -9.359   9.906  67.293  1.00  0.00    -0.167 C  
HETATM   54  C   UNL     1      -8.575  11.209  67.336  1.00  0.00    -0.137 C  
ENDBRANCH  35  53
ENDBRANCH  11  12
ENDBRANCH   1  11
BRANCH   4  55
HETATM   55  O   UNL     1     -13.494   7.394  69.939  1.00  0.00     1.975 OA 
HETATM   56  C   UNL     1     -14.075   8.547  70.536  1.00  0.00     1.053 C  
ENDBRANCH   4  55
TORSDOF 7
ENDMDL
MODEL      154
REMARK 921   NORMALIZED FREE ENERGY PREDICTED BY IDOCK:   83.08 KCAL/MOL
REMARK 922        TOTAL FREE ENERGY PREDICTED BY IDOCK:  114.40 KCAL/MOL
REMARK 923 INTER-LIGAND FREE ENERGY PREDICTED BY IDOCK:   14.23 KCAL/MOL
REMARK 924 INTRA-LIGAND FREE ENERGY PREDICTED BY IDOCK:  100.16 KCAL/MOL
REMARK 927      BINDING AFFINITY PREDICTED BY RF-SCORE:    0.00 PKD
ROOT
HETATM    1  C   UNL     1     -10.428  10.478  66.311  1.00  0.00    -0.183 C  
HETATM    2  O   UNL     1     -10.576  13.057  62.739  1.00  0.00     0.179 OA 
HETATM    3  C   UNL     1      -9.182  11.354  65.853  1.00  0.00    -0.231 C  
HETATM    4  C   UNL     1      -9.127  11.901  64.373  1.00  0.00     0.485 C  
HETATM    5  C   UNL     1     -12.901  11.685  63.696  1.00  0.00    -0.176 C  
HETATM    6  C   UNL     1     -10.537  12.406  64.022  1.00  0.00    -0.413 C  
HETATM    7  C   UNL     1      -8.114  13.085  64.233  1.00  0.00     7.090 C  
HETATM    8  O   UNL     1     -11.621  10.725  65.521  1.00  0.00     0.441 OA 
HETATM    9  H   UNL     1     -11.446  13.369  62.522  1.00  0.00     0.000 HD 
HETATM   10  C   UNL     1     -11.511  11.230  64.173  1.00  0.00     0.052 C  
ENDROOT
BRANCH   1  11
HETATM   11  O   UNL     1     -10.103   9.067  66.868  1.00  0.00    -0.221 OA 
BRANCH  11  12
HETATM   12  C   UNL     1     -10.921   8.564  68.005  1.00  0.00     0.174 C  
HETATM   13  C   UNL     1      -9.305   6.260  67.987  1.00  0.00    -0.114 C  
HETATM   14  C   UNL     1     -11.402   8.016  70.723  1.00  0.00    -0.282 C  
HETATM   15  C   UNL     1     -10.812   7.004  67.921  1.00  0.00    -0.252 C  
HETATM   16  O   UNL     1     -10.120  11.378  70.123  1.00  0.00     0.944 OA 
HETATM   17  C   UNL     1     -11.090   9.140  69.689  1.00  0.00    -0.103 C  
HETATM   18  C   UNL     1     -12.158   6.422  68.450  1.00  0.00     2.442 C  
HETATM   19  C   UNL     1      -9.331   4.949  68.963  1.00  0.00    -0.129 C  
HETATM   20  O   UNL     1      -9.677   5.171  70.338  1.00  0.00    -0.172 OA 
HETATM   21  C   UNL     1     -10.423   4.001  68.373  1.00  0.00     1.049 C  
HETATM   22  C   UNL     1     -10.237  10.200  70.480  1.00  0.00     0.035 C  
HETATM   23  C   UNL     1      -7.943   4.298  68.904  1.00  0.00    -0.072 C  
HETATM   24  C   UNL     1     -10.066   4.006  71.093  1.00  0.00    -0.041 C  
HETATM   25  C   UNL     1      -6.994   4.095  70.120  1.00  0.00    -0.041 C  
HETATM   26  H   UNL     1      -9.283   9.047  74.042  1.00  0.00     0.000 HD 
HETATM   27  O   UNL     1      -9.686   9.779  71.719  1.00  0.00     0.360 OA 
HETATM   28  C   UNL     1      -6.342   5.249  71.015  1.00  0.00    -0.027 C  
HETATM   29  C   UNL     1      -5.818   3.334  69.384  1.00  0.00    -0.023 C  
HETATM   30  O   UNL     1      -8.703   8.312  73.886  1.00  0.00    -0.235 OA 
HETATM   31  C   UNL     1      -6.739   9.690  74.040  1.00  0.00     0.987 C  
HETATM   32  O   UNL     1      -5.140   5.493  70.792  1.00  0.00    -0.004 OA 
HETATM   33  C   UNL     1      -6.908   5.926  72.361  1.00  0.00    -0.074 C  
HETATM   34  C   UNL     1      -8.221   5.519  72.968  1.00  0.00    -0.119 C  
HETATM   35  C   UNL     1      -8.207   9.840  71.947  1.00  0.00     2.201 C  
HETATM   36  C   UNL     1      -6.553   7.461  72.815  1.00  0.00    -0.060 C  
HETATM   37  C   UNL     1      -7.590   8.774  73.094  1.00  0.00     0.254 C  
HETATM   38  O   UNL     1      -5.210   7.835  72.475  1.00  0.00    -0.036 OA 
HETATM   39  H   UNL     1      -5.005   8.725  72.738  1.00  0.00     0.000 HD 
BRANCH  13  40
HETATM   40  O   UNL     1      -8.206   7.221  68.057  1.00  0.00    -0.118 OA 
BRANCH  40  41
HETATM   41  C   UNL     1      -7.740   8.390  68.824  1.00  0.00    -0.102 C  
HETATM   42  C   UNL     1      -7.010  10.917  68.822  1.00  0.00    -0.078 C  
HETATM   43  C   UNL     1      -7.330   9.489  72.349  1.00  0.00     1.287 C  
HETATM   44  O   UNL     1      -8.359  10.250  67.068  1.00  0.00    -0.124 OA 
HETATM   45  C   UNL     1      -7.145  10.908  70.329  1.00  0.00     0.355 C  
HETATM   46  H   UNL     1      -8.574  11.140  66.812  1.00  0.00     0.000 HD 
HETATM   47  C   UNL     1      -7.033   9.443  70.861  1.00  0.00    -0.093 C  
HETATM   48  C   UNL     1      -8.105   9.898  68.389  1.00  0.00    -0.101 C  
HETATM   49  O   UNL     1      -7.895   8.423  70.257  1.00  0.00    -0.089 OA 
BRANCH  42  50
HETATM   50  N   UNL     1      -7.023  12.243  68.116  1.00  0.00    -0.079 NA 
HETATM   51  C   UNL     1      -5.834  12.652  67.371  1.00  0.00    -0.118 C  
HETATM   52  C   UNL     1      -8.224  12.511  67.325  1.00  0.00    -0.184 C  
ENDBRANCH  42  50
ENDBRANCH  40  41
ENDBRANCH  13  40
BRANCH  35  53
HETATM   53  C   UNL     1      -7.637   9.522  70.611  1.00  0.00    -0.145 C  
HETATM   54  C   UNL     1      -7.745  10.883  69.940  1.00  0.00     0.326 C  
ENDBRANCH  35  53
ENDBRANCH  11  12
ENDBRANCH   1  11
BRANCH   4  55
HETATM   55  O   UNL     1      -8.689  10.797  63.557  1.00  0.00    -0.167 OA 
HETATM   56  C   UNL     1      -9.263   9.516  63.784  1.00  0.00    -0.023 C  
ENDBRANCH   4  55
TORSDOF 7
ENDMDL
MODEL      155
REMARK 921   NORMALIZED FREE ENERGY PREDICTED BY IDOCK:   84.63 KCAL/MOL
REMARK 922        TOTAL FREE ENERGY PREDICTED BY IDOCK:  116.57 KCAL/MOL
REMARK 923 INTER-LIGAND FREE ENERGY PREDICTED BY IDOCK:   61.10 KCAL/MOL
REMARK 924 INTRA-LIGAND FREE ENERGY PREDICTED BY IDOCK:   55.47 KCAL/MOL
REMARK 927      BINDING AFFINITY PREDICTED BY RF-SCORE:    0.00 PKD
ROOT
HETATM    1  C   UNL     1      -5.845   8.335  66.760  1.00  0.00    -0.048 C  
HETATM    2  O   UNL     1      -8.415   9.817  63.500  1.00  0.00    -0.153 OA 
HETATM    3  C   UNL     1      -6.511   7.354  65.701  1.00  0.00    -0.045 C  
HETATM    4  C   UNL     1      -7.739   7.859  64.847  1.00  0.00    -0.112 C  
HETATM    5  C   UNL     1      -7.019  11.611  65.243  1.00  0.00     1.736 C  
HETATM    6  C   UNL     1      -7.424   9.298  64.405  1.00  0.00    -0.106 C  
HETATM    7  C   UNL     1      -7.962   6.974  63.577  1.00  0.00    -0.070 C  
HETATM    8  O   UNL     1      -6.063   9.738  66.455  1.00  0.00    -0.058 OA 
HETATM    9  H   UNL     1      -8.221  10.705  63.226  1.00  0.00     0.000 HD 
HETATM   10  C   UNL     1      -7.203  10.143  65.666  1.00  0.00    -0.137 C  
ENDROOT
BRANCH   1  11
HETATM   11  O   UNL     1      -5.788   7.824  68.224  1.00  0.00    -0.033 OA 
BRANCH  11  12
HETATM   12  C   UNL     1      -7.049   7.325  68.836  1.00  0.00    -0.084 C  
HETATM   13  C   UNL     1      -6.823   9.414  70.707  1.00  0.00    -0.109 C  
HETATM   14  C   UNL     1      -9.819   7.395  69.325  1.00  0.00    -0.168 C  
HETATM   15  C   UNL     1      -6.980   7.783  70.331  1.00  0.00    -0.046 C  
HETATM   16  O   UNL     1      -8.958   7.751  65.798  1.00  0.00    -0.150 OA 
HETATM   17  C   UNL     1      -8.727   7.278  68.220  1.00  0.00    -0.125 C  
HETATM   18  C   UNL     1      -7.727   6.704  71.174  1.00  0.00    -0.097 C  
HETATM   19  C   UNL     1      -7.817   9.841  71.932  1.00  0.00     1.935 C  
HETATM   20  O   UNL     1      -9.225   9.661  71.719  1.00  0.00     0.152 OA 
HETATM   21  C   UNL     1      -7.426   8.926  73.136  1.00  0.00     0.333 C  
HETATM   22  C   UNL     1      -9.352   7.967  66.951  1.00  0.00    -0.164 C  
HETATM   23  C   UNL     1      -7.554  11.318  72.252  1.00  0.00    10.496 C  
HETATM   24  C   UNL     1     -10.055   9.672  72.897  1.00  0.00     4.241 C  
HETATM   25  C   UNL     1      -8.609  12.459  72.164  1.00  0.00    20.450 C  
HETATM   26  H   UNL     1     -12.743   9.682  67.653  1.00  0.00     0.000 HD 
HETATM   27  O   UNL     1     -10.497   8.778  67.164  1.00  0.00    -0.282 OA 
HETATM   28  C   UNL     1      -9.367  12.947  70.844  1.00  0.00     9.406 C  
HETATM   29  C   UNL     1      -7.713  13.657  72.677  1.00  0.00     8.961 C  
HETATM   30  O   UNL     1     -12.512  10.389  68.244  1.00  0.00     0.577 OA 
HETATM   31  C   UNL     1     -12.327  11.975  66.447  1.00  0.00     0.776 C  
HETATM   32  O   UNL     1      -8.952  14.012  70.344  1.00  0.00     2.238 OA 
HETATM   33  C   UNL     1     -10.772  12.445  70.240  1.00  0.00     1.710 C  
HETATM   34  C   UNL     1     -11.585  11.369  70.901  1.00  0.00     0.314 C  
HETATM   35  C   UNL     1     -10.488  10.219  66.754  1.00  0.00    -0.214 C  
HETATM   36  C   UNL     1     -11.133  12.494  68.641  1.00  0.00    -0.265 C  
HETATM   37  C   UNL     1     -11.545  11.231  67.585  1.00  0.00    -0.210 C  
HETATM   38  O   UNL     1     -10.578  13.646  67.990  1.00  0.00    -0.239 OA 
HETATM   39  H   UNL     1     -10.787  13.675  67.064  1.00  0.00     0.000 HD 
BRANCH  13  40
HETATM   40  O   UNL     1      -6.700  10.256  69.518  1.00  0.00    -0.054 OA 
BRANCH  40  41
HETATM   41  C   UNL     1      -7.055  11.591  69.006  1.00  0.00    -0.115 C  
HETATM   42  C   UNL     1      -6.987  14.200  69.335  1.00  0.00    -0.078 C  
HETATM   43  C   UNL     1      -8.357  13.191  65.916  1.00  0.00     1.545 C  
HETATM   44  O   UNL     1      -5.354  12.997  70.440  1.00  0.00    -0.103 OA 
HETATM   45  C   UNL     1      -7.403  14.346  67.887  1.00  0.00    -0.163 C  
HETATM   46  H   UNL     1      -4.819  13.763  70.616  1.00  0.00     0.000 HD 
HETATM   47  C   UNL     1      -8.108  13.037  67.406  1.00  0.00    -0.180 C  
HETATM   48  C   UNL     1      -6.148  12.890  69.304  1.00  0.00    -0.099 C  
HETATM   49  O   UNL     1      -7.414  11.763  67.620  1.00  0.00    -0.107 OA 
BRANCH  42  50
HETATM   50  N   UNL     1      -6.349  15.380  70.012  1.00  0.00    -0.157 NA 
HETATM   51  C   UNL     1      -6.090  15.307  71.449  1.00  0.00     0.613 C  
HETATM   52  C   UNL     1      -5.185  15.934  69.323  1.00  0.00    -0.109 C  
ENDBRANCH  42  50
ENDBRANCH  40  41
ENDBRANCH  13  40
BRANCH  35  53
HETATM   53  C   UNL     1      -9.086  10.643  67.009  1.00  0.00    -0.155 C  
HETATM   54  C   UNL     1      -8.896  10.113  68.422  1.00  0.00    -0.123 C  
ENDBRANCH  35  53
ENDBRANCH  11  12
ENDBRANCH   1  11
BRANCH   4  55
HETATM   55  O   UNL     1      -8.890   7.760  65.708  1.00  0.00    -0.160 OA 
HETATM   56  C   UNL     1      -9.521   6.494  65.854  1.00  0.00     0.138 C  
ENDBRANCH   4  55
TORSDOF 7
ENDMDL
MODEL      156
REMARK 921   NORMALIZED FREE ENERGY PREDICTED BY IDOCK:   86.16 KCAL/MOL
REMARK 922        TOTAL FREE ENERGY PREDICTED BY IDOCK:  118.73 KCAL/MOL
REMARK 923 INTER-LIGAND FREE ENERGY PREDICTED BY IDOCK:   61.50 KCAL/MOL
REMARK 924 INTRA-LIGAND FREE ENERGY PREDICTED BY IDOCK:   57.22 KCAL/MOL
REMARK 927      BINDING AFFINITY PREDICTED BY RF-SCORE:    0.00 PKD
ROOT
HETATM    1  C   UNL     1     -10.805  10.994  70.903  1.00  0.00     1.452 C  
HETATM    2  O   UNL     1      -9.478   7.146  69.212  1.00  0.00    -0.153 OA 
HETATM    3  C   UNL     1     -11.828   9.957  70.264  1.00  0.00    -0.255 C  
HETATM    4  C   UNL     1     -11.284   8.830  69.303  1.00  0.00     0.244 C  
HETATM    5  C   UNL     1      -7.664   8.887  70.585  1.00  0.00    -0.112 C  
HETATM    6  C   UNL     1      -9.992   8.280  69.932  1.00  0.00    -0.190 C  
HETATM    7  C   UNL     1     -12.310   7.660  69.146  1.00  0.00     2.610 C  
HETATM    8  O   UNL     1      -9.450  10.481  70.985  1.00  0.00     1.399 OA 
HETATM    9  H   UNL     1      -8.680   6.806  69.600  1.00  0.00     0.000 HD 
HETATM   10  C   UNL     1      -9.006   9.446  70.082  1.00  0.00    -0.227 C  
ENDROOT
BRANCH   1  11
HETATM   11  O   UNL     1     -11.089  12.494  70.625  1.00  0.00     1.087 OA 
BRANCH  11  12
HETATM   12  C   UNL     1      -9.951  13.447  70.733  1.00  0.00     5.254 C  
HETATM   13  C   UNL     1      -8.785  12.113  68.548  1.00  0.00    -0.079 C  
HETATM   14  C   UNL     1      -8.463  15.703  69.950  1.00  0.00     0.251 C  
HETATM   15  C   UNL     1      -8.726  12.684  70.129  1.00  0.00     4.187 C  
HETATM   16  O   UNL     1     -12.042  16.351  70.235  1.00  0.00     0.070 OA 
HETATM   17  C   UNL     1      -9.853  15.211  70.455  1.00  0.00     0.364 C  
HETATM   18  C   UNL     1      -7.458  13.178  70.891  1.00  0.00     4.380 C  
HETATM   19  C   UNL     1      -7.389  12.416  67.753  1.00  0.00    -0.123 C  
HETATM   20  O   UNL     1      -7.004  13.791  67.619  1.00  0.00    -0.156 OA 
HETATM   21  C   UNL     1      -6.266  11.716  68.584  1.00  0.00    -0.053 C  
HETATM   22  C   UNL     1     -10.898  16.185  69.795  1.00  0.00    -0.333 C  
HETATM   23  C   UNL     1      -7.507  11.799  66.354  1.00  0.00     0.181 C  
HETATM   24  C   UNL     1      -5.627  14.037  67.270  1.00  0.00     0.585 C  
HETATM   25  C   UNL     1      -7.417  12.587  65.015  1.00  0.00     5.199 C  
HETATM   26  H   UNL     1      -9.320  18.630  67.253  1.00  0.00     0.000 HD 
HETATM   27  O   UNL     1     -10.434  16.981  68.715  1.00  0.00    -0.309 OA 
HETATM   28  C   UNL     1      -8.416  13.734  64.522  1.00  0.00     6.621 C  
HETATM   29  C   UNL     1      -7.547  11.371  64.010  1.00  0.00     1.540 C  
HETATM   30  O   UNL     1      -9.022  18.058  66.555  1.00  0.00    -0.267 OA 
HETATM   31  C   UNL     1     -11.038  18.380  65.285  1.00  0.00     0.878 C  
HETATM   32  O   UNL     1      -9.245  13.395  63.654  1.00  0.00     2.046 OA 
HETATM   33  C   UNL     1      -8.318  15.325  64.745  1.00  0.00     6.829 C  
HETATM   34  C   UNL     1      -7.188  15.955  65.511  1.00  0.00     4.493 C  
HETATM   35  C   UNL     1     -11.104  16.904  67.378  1.00  0.00     0.036 C  
HETATM   36  C   UNL     1      -9.629  16.308  64.805  1.00  0.00     1.966 C  
HETATM   37  C   UNL     1     -10.160  17.330  66.051  1.00  0.00    -0.262 C  
HETATM   38  O   UNL     1     -10.665  15.893  63.904  1.00  0.00    -0.211 OA 
HETATM   39  H   UNL     1     -11.425  16.463  63.938  1.00  0.00     0.000 HD 
BRANCH  13  40
HETATM   40  O   UNL     1     -10.076  12.359  67.909  1.00  0.00    -0.198 OA 
BRANCH  40  41
HETATM   41  C   UNL     1     -11.008  13.449  67.570  1.00  0.00    -0.267 C  
HETATM   42  C   UNL     1     -12.162  14.904  65.706  1.00  0.00     0.075 C  
HETATM   43  C   UNL     1     -13.599  15.569  69.181  1.00  0.00     2.994 C  
HETATM   44  O   UNL     1     -11.391  12.830  65.040  1.00  0.00    -0.296 OA 
HETATM   45  C   UNL     1     -13.139  15.387  66.756  1.00  0.00     3.091 C  
HETATM   46  H   UNL     1     -11.884  12.837  64.228  1.00  0.00     0.000 HD 
HETATM   47  C   UNL     1     -12.517  15.214  68.178  1.00  0.00     0.596 C  
HETATM   48  C   UNL     1     -11.846  13.459  66.193  1.00  0.00    -0.385 C  
HETATM   49  O   UNL     1     -11.977  13.899  68.538  1.00  0.00    -0.352 OA 
BRANCH  42  50
HETATM   50  N   UNL     1     -12.543  15.047  64.261  1.00  0.00    -0.667 NA 
HETATM   51  C   UNL     1     -13.961  15.090  63.911  1.00  0.00     5.588 C  
HETATM   52  C   UNL     1     -11.817  16.084  63.529  1.00  0.00     1.731 C  
ENDBRANCH  42  50
ENDBRANCH  40  41
ENDBRANCH  13  40
BRANCH  35  53
HETATM   53  C   UNL     1     -11.500  15.474  67.272  1.00  0.00    -0.102 C  
HETATM   54  C   UNL     1     -10.508  14.847  68.239  1.00  0.00    -0.239 C  
ENDBRANCH  35  53
ENDBRANCH  11  12
ENDBRANCH   1  11
BRANCH   4  55
HETATM   55  O   UNL     1     -11.079   9.462  68.024  1.00  0.00    -0.123 OA 
HETATM   56  C   UNL     1     -11.171   8.664  66.851  1.00  0.00     1.111 C  
ENDBRANCH   4  55
TORSDOF 7
ENDMDL
MODEL      157
REMARK 921   NORMALIZED FREE ENERGY PREDICTED BY IDOCK:   87.25 KCAL/MOL
REMARK 922        TOTAL FREE ENERGY PREDICTED BY IDOCK:  120.27 KCAL/MOL
REMARK 923 INTER-LIGAND FREE ENERGY PREDICTED BY IDOCK:   44.53 KCAL/MOL
REMARK 924 INTRA-LIGAND FREE ENERGY PREDICTED BY IDOCK:   75.73 KCAL/MOL
REMARK 927      BINDING AFFINITY PREDICTED BY RF-SCORE:    0.00 PKD
ROOT
HETATM    1  C   UNL     1     -11.127   9.584  70.605  1.00  0.00    -0.300 C  
HETATM    2  O   UNL     1      -9.978   6.275  67.930  1.00  0.00    -0.123 OA 
HETATM    3  C   UNL     1     -11.339   8.061  71.011  1.00  0.00    -0.294 C  
HETATM    4  C   UNL     1     -11.328   6.955  69.885  1.00  0.00    -0.271 C  
HETATM    5  C   UNL     1      -9.358   8.999  67.298  1.00  0.00    -0.172 C  
HETATM    6  C   UNL     1     -10.175   7.296  68.924  1.00  0.00    -0.193 C  
HETATM    7  C   UNL     1     -11.088   5.529  70.480  1.00  0.00    -0.087 C  
HETATM    8  O   UNL     1     -10.409   9.747  69.354  1.00  0.00    -0.191 OA 
HETATM    9  H   UNL     1      -9.266   6.485  67.337  1.00  0.00     0.000 HD 
HETATM   10  C   UNL     1     -10.429   8.700  68.360  1.00  0.00    -0.176 C  
ENDROOT
BRANCH   1  11
HETATM   11  O   UNL     1     -12.250  10.568  71.028  1.00  0.00    -0.335 OA 
BRANCH  11  12
HETATM   12  C   UNL     1     -12.844  11.437  69.977  1.00  0.00     0.175 C  
HETATM   13  C   UNL     1     -11.444  13.585  71.136  1.00  0.00     1.222 C  
HETATM   14  C   UNL     1     -12.781  12.896  67.572  1.00  0.00     1.390 C  
HETATM   15  C   UNL     1     -12.871  12.870  70.607  1.00  0.00    -0.048 C  
HETATM   16  O   UNL     1     -11.409   9.530  67.266  1.00  0.00     0.191 OA 
HETATM   17  C   UNL     1     -12.612  11.482  68.205  1.00  0.00     1.523 C  
HETATM   18  C   UNL     1     -14.115  13.605  70.020  1.00  0.00     3.719 C  
HETATM   19  C   UNL     1     -11.360  15.153  70.682  1.00  0.00    -0.293 C  
HETATM   20  O   UNL     1     -11.391  15.424  69.274  1.00  0.00    -0.273 OA 
HETATM   21  C   UNL     1     -12.619  15.842  71.299  1.00  0.00    -0.504 C  
HETATM   22  C   UNL     1     -11.535  10.760  67.313  1.00  0.00     0.052 C  
HETATM   23  C   UNL     1     -10.068  15.738  71.267  1.00  0.00     1.524 C  
HETATM   24  C   UNL     1     -11.697  16.780  68.892  1.00  0.00     0.450 C  
HETATM   25  C   UNL     1      -8.901  16.347  70.436  1.00  0.00     2.300 C  
HETATM   26  H   UNL     1      -9.941  13.073  64.661  1.00  0.00     0.000 HD 
HETATM   27  O   UNL     1     -10.769  11.582  66.447  1.00  0.00    -0.254 OA 
HETATM   28  C   UNL     1      -7.992  15.573  69.372  1.00  0.00    -0.229 C  
HETATM   29  C   UNL     1      -7.966  16.801  71.629  1.00  0.00     9.363 C  
HETATM   30  O   UNL     1      -9.462  13.707  65.183  1.00  0.00     0.123 OA 
HETATM   31  C   UNL     1      -7.414  12.459  65.013  1.00  0.00     4.627 C  
HETATM   32  O   UNL     1      -6.849  15.262  69.762  1.00  0.00    -0.174 OA 
HETATM   33  C   UNL     1      -8.210  15.408  67.786  1.00  0.00    -0.159 C  
HETATM   34  C   UNL     1      -9.392  16.005  67.077  1.00  0.00    -0.233 C  
HETATM   35  C   UNL     1      -9.274  11.598  66.548  1.00  0.00    -0.198 C  
HETATM   36  C   UNL     1      -7.655  14.124  66.930  1.00  0.00     0.459 C  
HETATM   37  C   UNL     1      -8.510  12.993  65.998  1.00  0.00     1.002 C  
HETATM   38  O   UNL     1      -6.390  13.650  67.414  1.00  0.00    -0.325 OA 
HETATM   39  H   UNL     1      -6.069  12.906  66.918  1.00  0.00     0.000 HD 
BRANCH  13  40
HETATM   40  O   UNL     1     -10.286  12.704  70.991  1.00  0.00     5.355 OA 
BRANCH  40  41
HETATM   41  C   UNL     1      -9.890  11.289  71.099  1.00  0.00     6.192 C  
HETATM   42  C   UNL     1     -10.011   9.032  72.445  1.00  0.00     0.250 C  
HETATM   43  C   UNL     1      -8.292   8.626  69.060  1.00  0.00    -0.119 C  
HETATM   44  O   UNL     1     -11.740  10.521  72.807  1.00  0.00     2.738 OA 
HETATM   45  C   UNL     1      -9.451   8.331  71.227  1.00  0.00    -0.219 C  
HETATM   46  H   UNL     1     -12.296   9.873  73.225  1.00  0.00     0.000 HD 
HETATM   47  C   UNL     1      -8.691   9.358  70.329  1.00  0.00    -0.230 C  
HETATM   48  C   UNL     1     -10.833  10.190  71.807  1.00  0.00     1.385 C  
HETATM   49  O   UNL     1      -9.392  10.586  69.942  1.00  0.00    -0.009 OA 
BRANCH  42  50
HETATM   50  N   UNL     1     -10.724   8.204  73.476  1.00  0.00     0.286 NA 
HETATM   51  C   UNL     1     -11.811   7.328  73.043  1.00  0.00     0.234 C  
HETATM   52  C   UNL     1      -9.852   7.493  74.410  1.00  0.00     0.484 C  
ENDBRANCH  42  50
ENDBRANCH  40  41
ENDBRANCH  13  40
BRANCH  35  53
HETATM   53  C   UNL     1      -9.024  11.431  68.004  1.00  0.00    -0.163 C  
HETATM   54  C   UNL     1      -8.301  12.735  68.305  1.00  0.00    -0.161 C  
ENDBRANCH  35  53
ENDBRANCH  11  12
ENDBRANCH   1  11
BRANCH   4  55
HETATM   55  O   UNL     1     -12.628   7.003  69.266  1.00  0.00     1.637 OA 
HETATM   56  C   UNL     1     -13.625   7.835  69.845  1.00  0.00     3.583 C  
ENDBRANCH   4  55
TORSDOF 7
ENDMDL
MODEL      158
REMARK 921   NORMALIZED FREE ENERGY PREDICTED BY IDOCK:   88.31 KCAL/MOL
REMARK 922        TOTAL FREE ENERGY PREDICTED BY IDOCK:  121.76 KCAL/MOL
REMARK 923 INTER-LIGAND FREE ENERGY PREDICTED BY IDOCK:   64.18 KCAL/MOL
REMARK 924 INTRA-LIGAND FREE ENERGY PREDICTED BY IDOCK:   57.58 KCAL/MOL
REMARK 927      BINDING AFFINITY PREDICTED BY RF-SCORE:    0.00 PKD
ROOT
HETATM    1  C   UNL     1     -11.212  13.347  71.107  1.00  0.00     2.174 C  
HETATM    2  O   UNL     1     -13.251  15.807  68.071  1.00  0.00     2.066 OA 
HETATM    3  C   UNL     1     -12.490  14.227  71.456  1.00  0.00    -0.435 C  
HETATM    4  C   UNL     1     -12.909  15.397  70.484  1.00  0.00    -0.376 C  
HETATM    5  C   UNL     1     -11.111  14.034  67.375  1.00  0.00    -0.317 C  
HETATM    6  C   UNL     1     -12.762  14.869  69.046  1.00  0.00     0.439 C  
HETATM    7  C   UNL     1     -14.392  15.837  70.715  1.00  0.00     1.040 C  
HETATM    8  O   UNL     1     -10.891  13.342  69.691  1.00  0.00     0.030 OA 
HETATM    9  H   UNL     1     -13.161  15.481  67.183  1.00  0.00     0.000 HD 
HETATM   10  C   UNL     1     -11.303  14.439  68.847  1.00  0.00    -0.274 C  
ENDROOT
BRANCH   1  11
HETATM   11  O   UNL     1     -10.101  13.296  72.189  1.00  0.00     9.202 OA 
BRANCH  11  12
HETATM   12  C   UNL     1      -8.896  14.147  71.990  1.00  0.00     8.751 C  
HETATM   13  C   UNL     1      -8.217  12.467  69.838  1.00  0.00     2.476 C  
HETATM   14  C   UNL     1      -7.406  16.151  70.694  1.00  0.00     2.113 C  
HETATM   15  C   UNL     1      -7.850  13.209  71.301  1.00  0.00     7.866 C  
HETATM   16  O   UNL     1     -10.828  17.153  71.461  1.00  0.00     1.001 OA 
HETATM   17  C   UNL     1      -8.721  15.850  71.474  1.00  0.00     5.792 C  
HETATM   18  C   UNL     1      -6.438  13.669  71.780  1.00  0.00     1.648 C  
HETATM   19  C   UNL     1      -6.958  12.546  68.797  1.00  0.00    -0.094 C  
HETATM   20  O   UNL     1      -6.505  13.856  68.427  1.00  0.00    -0.086 OA 
HETATM   21  C   UNL     1      -5.764  11.847  69.521  1.00  0.00    -0.080 C  
HETATM   22  C   UNL     1      -9.791  16.832  70.869  1.00  0.00     2.980 C  
HETATM   23  C   UNL     1      -7.357  11.785  67.526  1.00  0.00    -0.127 C  
HETATM   24  C   UNL     1      -5.194  13.932  67.833  1.00  0.00    -0.066 C  
HETATM   25  C   UNL     1      -7.440  12.401  66.100  1.00  0.00     1.277 C  
HETATM   26  H   UNL     1      -8.498  18.812  67.813  1.00  0.00     0.000 HD 
HETATM   27  O   UNL     1      -9.462  17.453  69.636  1.00  0.00     0.278 OA 
HETATM   28  C   UNL     1      -8.424  13.571  65.629  1.00  0.00     2.113 C  
HETATM   29  C   UNL     1      -7.825  11.095  65.295  1.00  0.00     0.369 C  
HETATM   30  O   UNL     1      -8.365  18.138  67.156  1.00  0.00    -0.230 OA 
HETATM   31  C   UNL     1     -10.539  18.494  66.194  1.00  0.00    -0.377 C  
HETATM   32  O   UNL     1      -9.409  13.211  64.956  1.00  0.00     0.334 OA 
HETATM   33  C   UNL     1      -8.175  15.161  65.626  1.00  0.00     2.475 C  
HETATM   34  C   UNL     1      -6.890  15.769  66.113  1.00  0.00     2.222 C  
HETATM   35  C   UNL     1     -10.354  17.283  68.444  1.00  0.00    -0.366 C  
HETATM   36  C   UNL     1      -9.383  16.261  65.767  1.00  0.00    -0.159 C  
HETATM   37  C   UNL     1      -9.621  17.464  66.939  1.00  0.00    -0.277 C  
HETATM   38  O   UNL     1     -10.585  15.841  65.105  1.00  0.00    -0.403 OA 
HETATM   39  H   UNL     1     -11.285  16.478  65.186  1.00  0.00     0.000 HD 
BRANCH  13  40
HETATM   40  O   UNL     1      -9.577  12.755  69.386  1.00  0.00     0.668 OA 
BRANCH  40  41
HETATM   41  C   UNL     1     -10.765  12.103  68.807  1.00  0.00    -0.219 C  
HETATM   42  C   UNL     1     -12.159  11.503  66.658  1.00  0.00     0.926 C  
HETATM   43  C   UNL     1     -13.497   9.788  69.797  1.00  0.00     1.775 C  
HETATM   44  O   UNL     1      -9.914  11.936  66.322  1.00  0.00    -0.211 OA 
HETATM   45  C   UNL     1     -12.935  10.511  67.498  1.00  0.00     7.627 C  
HETATM   46  H   UNL     1      -9.907  11.560  65.449  1.00  0.00     0.000 HD 
HETATM   47  C   UNL     1     -12.832  10.901  69.007  1.00  0.00     1.256 C  
HETATM   48  C   UNL     1     -10.753  11.466  67.327  1.00  0.00    -0.241 C  
HETATM   49  O   UNL     1     -11.497  11.124  69.571  1.00  0.00    -0.249 OA 
BRANCH  42  50
HETATM   50  N   UNL     1     -12.186  11.344  65.165  1.00  0.00     0.391 NA 
HETATM   51  C   UNL     1     -12.817  12.389  64.361  1.00  0.00    -0.250 C  
HETATM   52  C   UNL     1     -10.914  10.950  64.561  1.00  0.00     0.060 C  
ENDBRANCH  42  50
ENDBRANCH  40  41
ENDBRANCH  13  40
BRANCH  35  53
HETATM   53  C   UNL     1     -10.863  15.893  68.588  1.00  0.00    -0.291 C  
HETATM   54  C   UNL     1      -9.553  15.120  68.542  1.00  0.00    -0.214 C  
ENDBRANCH  35  53
ENDBRANCH  11  12
ENDBRANCH   1  11
BRANCH   4  55
HETATM   55  O   UNL     1     -12.030  16.499  70.785  1.00  0.00     0.022 OA 
HETATM   56  C   UNL     1     -11.806  16.835  72.149  1.00  0.00     0.150 C  
ENDBRANCH   4  55
TORSDOF 7
ENDMDL
MODEL      159
REMARK 921   NORMALIZED FREE ENERGY PREDICTED BY IDOCK:   89.48 KCAL/MOL
REMARK 922        TOTAL FREE ENERGY PREDICTED BY IDOCK:  123.40 KCAL/MOL
REMARK 923 INTER-LIGAND FREE ENERGY PREDICTED BY IDOCK:  116.48 KCAL/MOL
REMARK 924 INTRA-LIGAND FREE ENERGY PREDICTED BY IDOCK:    6.92 KCAL/MOL
REMARK 927      BINDING AFFINITY PREDICTED BY RF-SCORE:    0.00 PKD
ROOT
HETATM    1  C   UNL     1     -10.373   8.947  67.469  1.00  0.00    -0.263 C  
HETATM    2  O   UNL     1     -10.887   5.580  64.671  1.00  0.00     1.207 OA 
HETATM    3  C   UNL     1     -11.236   9.082  66.139  1.00  0.00     2.322 C  
HETATM    4  C   UNL     1     -11.037   8.028  64.982  1.00  0.00     8.765 C  
HETATM    5  C   UNL     1      -9.547   5.254  67.181  1.00  0.00    -0.149 C  
HETATM    6  C   UNL     1     -10.932   6.641  65.641  1.00  0.00     3.008 C  
HETATM    7  C   UNL     1     -12.245   8.027  63.988  1.00  0.00    23.375 C  
HETATM    8  O   UNL     1      -9.907   7.595  67.712  1.00  0.00    -0.146 OA 
HETATM    9  H   UNL     1     -10.823   4.725  65.078  1.00  0.00     0.000 HD 
HETATM   10  C   UNL     1      -9.746   6.670  66.615  1.00  0.00    -0.159 C  
ENDROOT
BRANCH   1  11
HETATM   11  O   UNL     1      -9.516  10.182  67.855  1.00  0.00    -0.140 OA 
BRANCH  11  12
HETATM   12  C   UNL     1      -8.808  10.905  66.764  1.00  0.00    -0.145 C  
HETATM   13  C   UNL     1     -11.074  12.560  66.558  1.00  0.00    -0.287 C  
HETATM   14  C   UNL     1      -7.335  13.052  65.698  1.00  0.00     4.799 C  
HETATM   15  C   UNL     1      -9.946  11.514  65.879  1.00  0.00    -0.267 C  
HETATM   16  O   UNL     1      -6.022  11.823  68.872  1.00  0.00    -0.048 OA 
HETATM   17  C   UNL     1      -7.342  11.928  66.778  1.00  0.00    -0.011 C  
HETATM   18  C   UNL     1      -9.419  11.543  64.412  1.00  0.00    -0.100 C  
HETATM   19  C   UNL     1     -11.353  13.846  65.588  1.00  0.00    -0.309 C  
HETATM   20  O   UNL     1     -10.229  14.685  65.283  1.00  0.00    -0.360 OA 
HETATM   21  C   UNL     1     -11.851  13.255  64.231  1.00  0.00    -0.469 C  
HETATM   22  C   UNL     1      -6.542  12.524  67.995  1.00  0.00    -0.086 C  
HETATM   23  C   UNL     1     -12.440  14.702  66.250  1.00  0.00     0.016 C  
HETATM   24  C   UNL     1     -10.381  15.569  64.155  1.00  0.00     1.949 C  
HETATM   25  C   UNL     1     -12.271  16.184  66.693  1.00  0.00     1.923 C  
HETATM   26  H   UNL     1      -5.605  16.244  67.540  1.00  0.00     0.000 HD 
HETATM   27  O   UNL     1      -6.327  13.926  67.992  1.00  0.00    -0.111 OA 
HETATM   28  C   UNL     1     -11.256  16.731  67.802  1.00  0.00    -0.026 C  
HETATM   29  C   UNL     1     -13.741  16.451  67.212  1.00  0.00     7.910 C  
HETATM   30  O   UNL     1      -6.447  16.684  67.543  1.00  0.00    -0.130 OA 
HETATM   31  C   UNL     1      -6.309  17.161  69.895  1.00  0.00    -0.049 C  
HETATM   32  O   UNL     1     -11.762  17.012  68.906  1.00  0.00     0.353 OA 
HETATM   33  C   UNL     1      -9.748  17.264  67.618  1.00  0.00    -0.272 C  
HETATM   34  C   UNL     1      -9.073  17.299  66.277  1.00  0.00    -0.245 C  
HETATM   35  C   UNL     1      -6.808  14.766  69.135  1.00  0.00    -0.133 C  
HETATM   36  C   UNL     1      -8.612  17.171  68.796  1.00  0.00    -0.236 C  
HETATM   37  C   UNL     1      -7.107  16.386  68.790  1.00  0.00    -0.180 C  
HETATM   38  O   UNL     1      -9.163  17.373  70.105  1.00  0.00     1.499 OA 
HETATM   39  H   UNL     1      -8.504  17.320  70.788  1.00  0.00     0.000 HD 
BRANCH  13  40
HETATM   40  O   UNL     1     -10.880  12.739  67.996  1.00  0.00    -0.220 OA 
BRANCH  40  41
HETATM   41  C   UNL     1     -10.749  11.974  69.248  1.00  0.00    -0.013 C  
HETATM   42  C   UNL     1     -10.078  11.950  71.792  1.00  0.00    12.155 C  
HETATM   43  C   UNL     1     -11.737   8.693  70.685  1.00  0.00    -0.178 C  
HETATM   44  O   UNL     1     -10.642  14.010  70.913  1.00  0.00     0.749 OA 
HETATM   45  C   UNL     1     -10.786  10.618  71.917  1.00  0.00     3.580 C  
HETATM   46  H   UNL     1     -10.742  14.418  71.765  1.00  0.00     0.000 HD 
HETATM   47  C   UNL     1     -10.887   9.939  70.514  1.00  0.00    -0.326 C  
HETATM   48  C   UNL     1     -10.919  12.666  70.694  1.00  0.00     2.257 C  
HETATM   49  O   UNL     1     -11.447  10.723  69.408  1.00  0.00    -0.249 OA 
BRANCH  42  50
HETATM   50  N   UNL     1      -9.818  12.736  73.045  1.00  0.00    17.846 NA 
HETATM   51  C   UNL     1      -8.492  13.316  73.247  1.00  0.00    15.399 C  
HETATM   52  C   UNL     1     -10.848  13.718  73.384  1.00  0.00     6.273 C  
ENDBRANCH  42  50
ENDBRANCH  40  41
ENDBRANCH  13  40
BRANCH  35  53
HETATM   53  C   UNL     1      -8.073  14.100  69.546  1.00  0.00     0.458 C  
HETATM   54  C   UNL     1      -8.302  14.764  70.895  1.00  0.00     2.566 C  
ENDBRANCH  35  53
ENDBRANCH  11  12
ENDBRANCH   1  11
BRANCH   4  55
HETATM   55  O   UNL     1      -9.842   8.425  64.282  1.00  0.00     2.113 OA 
HETATM   56  C   UNL     1      -8.921   7.416  63.884  1.00  0.00     1.264 C  
ENDBRANCH   4  55
TORSDOF 7
ENDMDL
MODEL      160
REMARK 921   NORMALIZED FREE ENERGY PREDICTED BY IDOCK:   89.56 KCAL/MOL
REMARK 922        TOTAL FREE ENERGY PREDICTED BY IDOCK:  123.52 KCAL/MOL
REMARK 923 INTER-LIGAND FREE ENERGY PREDICTED BY IDOCK:   26.85 KCAL/MOL
REMARK 924 INTRA-LIGAND FREE ENERGY PREDICTED BY IDOCK:   96.67 KCAL/MOL
REMARK 927      BINDING AFFINITY PREDICTED BY RF-SCORE:    0.00 PKD
ROOT
HETATM    1  C   UNL     1      -9.960   7.786  67.185  1.00  0.00    -0.230 C  
HETATM    2  O   UNL     1      -8.288   3.738  66.688  1.00  0.00    -0.102 OA 
HETATM    3  C   UNL     1      -9.890   7.073  65.765  1.00  0.00     0.644 C  
HETATM    4  C   UNL     1      -8.913   5.849  65.565  1.00  0.00    -0.050 C  
HETATM    5  C   UNL     1      -8.643   4.907  69.279  1.00  0.00    -0.099 C  
HETATM    6  C   UNL     1      -9.032   4.962  66.817  1.00  0.00    -0.110 C  
HETATM    7  C   UNL     1      -9.297   5.004  64.307  1.00  0.00     0.195 C  
HETATM    8  O   UNL     1      -9.551   6.923  68.278  1.00  0.00    -0.130 OA 
HETATM    9  H   UNL     1      -8.362   3.190  67.461  1.00  0.00     0.000 HD 
HETATM   10  C   UNL     1      -8.658   5.814  68.037  1.00  0.00    -0.105 C  
ENDROOT
BRANCH   1  11
HETATM   11  O   UNL     1      -9.664   9.309  67.201  1.00  0.00    -0.154 OA 
BRANCH  11  12
HETATM   12  C   UNL     1      -9.718  10.014  68.510  1.00  0.00    -0.155 C  
HETATM   13  C   UNL     1      -7.492  11.509  67.657  1.00  0.00    -0.110 C  
HETATM   14  C   UNL     1     -10.340  12.188  70.185  1.00  0.00     2.049 C  
HETATM   15  C   UNL     1      -8.252  10.500  68.767  1.00  0.00    -0.134 C  
HETATM   16  O   UNL     1     -13.081  11.222  67.980  1.00  0.00     2.579 OA 
HETATM   17  C   UNL     1     -10.931  11.127  69.208  1.00  0.00    -0.300 C  
HETATM   18  C   UNL     1      -8.028  10.481  70.310  1.00  0.00     0.629 C  
HETATM   19  C   UNL     1      -6.687  12.719  68.406  1.00  0.00    -0.087 C  
HETATM   20  O   UNL     1      -7.465  13.609  69.220  1.00  0.00     0.025 OA 
HETATM   21  C   UNL     1      -5.662  12.023  69.357  1.00  0.00    -0.074 C  
HETATM   22  C   UNL     1     -12.155  11.838  68.521  1.00  0.00    -0.068 C  
HETATM   23  C   UNL     1      -5.970  13.539  67.326  1.00  0.00     0.333 C  
HETATM   24  C   UNL     1      -6.731  14.418  70.160  1.00  0.00    -0.053 C  
HETATM   25  C   UNL     1      -6.205  15.052  67.044  1.00  0.00     0.784 C  
HETATM   26  H   UNL     1     -12.462  15.580  69.435  1.00  0.00     0.000 HD 
HETATM   27  O   UNL     1     -12.228  13.250  68.652  1.00  0.00    -0.277 OA 
HETATM   28  C   UNL     1      -7.572  15.722  66.554  1.00  0.00     0.112 C  
HETATM   29  C   UNL     1      -5.132  15.253  65.899  1.00  0.00     5.494 C  
HETATM   30  O   UNL     1     -11.687  15.965  69.044  1.00  0.00    -0.385 OA 
HETATM   31  C   UNL     1     -12.869  16.579  67.043  1.00  0.00     4.589 C  
HETATM   32  O   UNL     1      -7.621  16.031  65.347  1.00  0.00     2.078 OA 
HETATM   33  C   UNL     1      -8.769  16.338  67.435  1.00  0.00    -0.196 C  
HETATM   34  C   UNL     1      -8.733  16.342  68.937  1.00  0.00    -0.253 C  
HETATM   35  C   UNL     1     -12.271  14.119  67.433  1.00  0.00    -0.243 C  
HETATM   36  C   UNL     1     -10.328  16.383  66.930  1.00  0.00    -0.300 C  
HETATM   37  C   UNL     1     -11.713  15.695  67.628  1.00  0.00     0.019 C  
HETATM   38  O   UNL     1     -10.439  16.621  65.519  1.00  0.00    -0.509 OA 
HETATM   39  H   UNL     1     -11.342  16.648  65.226  1.00  0.00     0.000 HD 
BRANCH  13  40
HETATM   40  O   UNL     1      -8.320  11.779  66.483  1.00  0.00    -0.164 OA 
BRANCH  40  41
HETATM   41  C   UNL     1      -9.279  12.761  65.946  1.00  0.00     0.117 C  
HETATM   42  C   UNL     1     -11.782  13.393  65.441  1.00  0.00    -0.331 C  
HETATM   43  C   UNL     1      -9.384  16.300  64.820  1.00  0.00     2.571 C  
HETATM   44  O   UNL     1     -11.449  11.822  67.102  1.00  0.00    -0.372 OA 
HETATM   45  C   UNL     1     -11.327  14.820  65.222  1.00  0.00    -0.363 C  
HETATM   46  H   UNL     1     -12.334  11.899  67.441  1.00  0.00     0.000 HD 
HETATM   47  C   UNL     1      -9.805  14.842  64.873  1.00  0.00     0.115 C  
HETATM   48  C   UNL     1     -10.779  12.892  66.521  1.00  0.00    -0.269 C  
HETATM   49  O   UNL     1      -8.882  14.136  65.768  1.00  0.00     0.453 OA 
BRANCH  42  50
HETATM   50  N   UNL     1     -13.236  13.146  65.723  1.00  0.00    -0.091 NA 
HETATM   51  C   UNL     1     -14.208  14.167  65.337  1.00  0.00     4.221 C  
HETATM   52  C   UNL     1     -13.725  11.823  65.340  1.00  0.00     6.275 C  
ENDBRANCH  42  50
ENDBRANCH  40  41
ENDBRANCH  13  40
BRANCH  35  53
HETATM   53  C   UNL     1     -11.405  13.398  66.463  1.00  0.00    -0.346 C  
HETATM   54  C   UNL     1     -10.770  12.366  67.383  1.00  0.00    -0.257 C  
ENDBRANCH  35  53
ENDBRANCH  11  12
ENDBRANCH   1  11
BRANCH   4  55
HETATM   55  O   UNL     1      -7.600   6.413  65.381  1.00  0.00    -0.080 OA 
HETATM   56  C   UNL     1      -6.477   5.540  65.408  1.00  0.00    -0.039 C  
ENDBRANCH   4  55
TORSDOF 7
ENDMDL
MODEL      161
REMARK 921   NORMALIZED FREE ENERGY PREDICTED BY IDOCK:   91.52 KCAL/MOL
REMARK 922        TOTAL FREE ENERGY PREDICTED BY IDOCK:  126.28 KCAL/MOL
REMARK 923 INTER-LIGAND FREE ENERGY PREDICTED BY IDOCK:   65.77 KCAL/MOL
REMARK 924 INTRA-LIGAND FREE ENERGY PREDICTED BY IDOCK:   60.51 KCAL/MOL
REMARK 927      BINDING AFFINITY PREDICTED BY RF-SCORE:    0.00 PKD
ROOT
HETATM    1  C   UNL     1     -10.760   8.198  70.369  1.00  0.00    -0.232 C  
HETATM    2  O   UNL     1      -9.437   7.488  74.513  1.00  0.00    -0.390 OA 
HETATM    3  C   UNL     1      -9.228   7.990  70.740  1.00  0.00    -0.165 C  
HETATM    4  C   UNL     1      -8.764   8.176  72.237  1.00  0.00    -0.182 C  
HETATM    5  C   UNL     1     -12.215   7.606  73.825  1.00  0.00     3.456 C  
HETATM    6  C   UNL     1      -9.824   7.504  73.128  1.00  0.00    -0.262 C  
HETATM    7  C   UNL     1      -7.378   7.503  72.500  1.00  0.00    -0.081 C  
HETATM    8  O   UNL     1     -11.652   7.996  71.496  1.00  0.00    -0.260 OA 
HETATM    9  H   UNL     1     -10.090   7.073  75.063  1.00  0.00     0.000 HD 
HETATM   10  C   UNL     1     -11.174   8.176  72.846  1.00  0.00    -0.242 C  
ENDROOT
BRANCH   1  11
HETATM   11  O   UNL     1     -11.062   9.258  69.277  1.00  0.00    -0.147 OA 
BRANCH  11  12
HETATM   12  C   UNL     1     -10.858   8.868  67.855  1.00  0.00    -0.030 C  
HETATM   13  C   UNL     1     -12.199  11.237  67.142  1.00  0.00     1.424 C  
HETATM   14  C   UNL     1      -9.581   9.022  65.352  1.00  0.00    -0.084 C  
HETATM   15  C   UNL     1     -12.022   9.566  67.075  1.00  0.00     4.372 C  
HETATM   16  O   UNL     1      -7.259   8.791  68.156  1.00  0.00    -0.080 OA 
HETATM   17  C   UNL     1      -9.374   8.723  66.868  1.00  0.00    -0.213 C  
HETATM   18  C   UNL     1     -12.384   8.642  65.872  1.00  0.00    12.467 C  
HETATM   19  C   UNL     1     -12.518  11.862  65.666  1.00  0.00     1.043 C  
HETATM   20  O   UNL     1     -11.532  11.650  64.645  1.00  0.00    -0.273 OA 
HETATM   21  C   UNL     1     -13.824  11.156  65.179  1.00  0.00     8.579 C  
HETATM   22  C   UNL     1      -7.906   9.194  67.183  1.00  0.00    -0.102 C  
HETATM   23  C   UNL     1     -12.735  13.370  65.836  1.00  0.00    -0.317 C  
HETATM   24  C   UNL     1     -11.967  11.857  63.286  1.00  0.00    -0.337 C  
HETATM   25  C   UNL     1     -11.886  14.483  65.155  1.00  0.00    -0.374 C  
HETATM   26  H   UNL     1      -6.211  11.007  64.221  1.00  0.00     0.000 HD 
HETATM   27  O   UNL     1      -7.285  10.031  66.220  1.00  0.00    -0.098 OA 
HETATM   28  C   UNL     1     -10.324  14.748  65.374  1.00  0.00    -0.386 C  
HETATM   29  C   UNL     1     -12.669  15.748  65.691  1.00  0.00     1.961 C  
HETATM   30  O   UNL     1      -6.724  11.801  64.128  1.00  0.00     2.421 OA 
HETATM   31  C   UNL     1      -5.205  13.070  65.493  1.00  0.00     6.262 C  
HETATM   32  O   UNL     1     -10.037  15.715  66.107  1.00  0.00    -0.273 OA 
HETATM   33  C   UNL     1      -9.073  14.156  64.553  1.00  0.00     3.484 C  
HETATM   34  C   UNL     1      -9.251  13.204  63.404  1.00  0.00     4.015 C  
HETATM   35  C   UNL     1      -6.777  11.385  66.612  1.00  0.00    -0.112 C  
HETATM   36  C   UNL     1      -7.586  13.941  65.210  1.00  0.00     8.303 C  
HETATM   37  C   UNL     1      -6.670  12.522  65.376  1.00  0.00     5.262 C  
HETATM   38  O   UNL     1      -7.251  14.969  66.154  1.00  0.00     0.832 OA 
HETATM   39  H   UNL     1      -6.389  14.845  66.534  1.00  0.00     0.000 HD 
BRANCH  13  40
HETATM   40  O   UNL     1     -11.222  11.871  68.025  1.00  0.00    -0.220 OA 
BRANCH  40  41
HETATM   41  C   UNL     1     -10.302  13.020  68.094  1.00  0.00    -0.240 C  
HETATM   42  C   UNL     1      -9.379  15.214  66.973  1.00  0.00    -0.230 C  
HETATM   43  C   UNL     1      -8.067  14.723  70.525  1.00  0.00     1.409 C  
HETATM   44  O   UNL     1     -11.489  14.547  66.308  1.00  0.00    -0.347 OA 
HETATM   45  C   UNL     1      -8.747  15.570  68.301  1.00  0.00    -0.170 C  
HETATM   46  H   UNL     1     -11.697  15.383  65.908  1.00  0.00     0.000 HD 
HETATM   47  C   UNL     1      -8.557  14.278  69.159  1.00  0.00     0.158 C  
HETATM   48  C   UNL     1     -10.655  14.439  67.415  1.00  0.00    -0.270 C  
HETATM   49  O   UNL     1      -9.719  13.405  69.356  1.00  0.00     0.480 OA 
BRANCH  42  50
HETATM   50  N   UNL     1      -9.586  16.311  65.968  1.00  0.00    -0.339 NA 
HETATM   51  C   UNL     1     -10.344  17.494  66.368  1.00  0.00    -0.334 C  
HETATM   52  C   UNL     1      -8.387  16.711  65.233  1.00  0.00     2.307 C  
ENDBRANCH  42  50
ENDBRANCH  40  41
ENDBRANCH  13  40
BRANCH  35  53
HETATM   53  C   UNL     1      -7.761  11.843  67.629  1.00  0.00    -0.141 C  
HETATM   54  C   UNL     1      -6.964  12.955  68.294  1.00  0.00    -0.099 C  
ENDBRANCH  35  53
ENDBRANCH  11  12
ENDBRANCH   1  11
BRANCH   4  55
HETATM   55  O   UNL     1      -8.654   9.598  72.446  1.00  0.00     1.153 OA 
HETATM   56  C   UNL     1      -8.395  10.431  71.323  1.00  0.00     3.414 C  
ENDBRANCH   4  55
TORSDOF 7
ENDMDL
MODEL      162
REMARK 921   NORMALIZED FREE ENERGY PREDICTED BY IDOCK:   92.14 KCAL/MOL
REMARK 922        TOTAL FREE ENERGY PREDICTED BY IDOCK:  127.16 KCAL/MOL
REMARK 923 INTER-LIGAND FREE ENERGY PREDICTED BY IDOCK:   25.62 KCAL/MOL
REMARK 924 INTRA-LIGAND FREE ENERGY PREDICTED BY IDOCK:  101.53 KCAL/MOL
REMARK 927      BINDING AFFINITY PREDICTED BY RF-SCORE:    0.00 PKD
ROOT
HETATM    1  C   UNL     1      -6.154   9.074  71.026  1.00  0.00    -0.054 C  
HETATM    2  O   UNL     1      -7.325  12.894  69.165  1.00  0.00    -0.289 OA 
HETATM    3  C   UNL     1      -6.703   9.151  69.535  1.00  0.00    -0.047 C  
HETATM    4  C   UNL     1      -7.502  10.431  69.073  1.00  0.00    -0.106 C  
HETATM    5  C   UNL     1      -6.101  12.799  71.753  1.00  0.00     1.627 C  
HETATM    6  C   UNL     1      -6.764  11.657  69.639  1.00  0.00    -0.059 C  
HETATM    7  C   UNL     1      -7.557  10.546  67.515  1.00  0.00    -0.093 C  
HETATM    8  O   UNL     1      -5.961  10.379  71.631  1.00  0.00    -0.307 OA 
HETATM    9  H   UNL     1      -6.869  13.651  69.514  1.00  0.00     0.000 HD 
HETATM   10  C   UNL     1      -6.717  11.517  71.166  1.00  0.00     2.460 C  
ENDROOT
BRANCH   1  11
HETATM   11  O   UNL     1      -6.619   7.853  71.863  1.00  0.00    -0.045 OA 
BRANCH  11  12
HETATM   12  C   UNL     1      -8.066   7.749  72.196  1.00  0.00    -0.112 C  
HETATM   13  C   UNL     1      -8.552   9.560  70.098  1.00  0.00    -0.224 C  
HETATM   14  C   UNL     1     -10.690   6.818  71.793  1.00  0.00    -0.250 C  
HETATM   15  C   UNL     1      -8.689   9.100  71.710  1.00  0.00     0.170 C  
HETATM   16  O   UNL     1      -8.172   4.182  71.634  1.00  0.00    -0.086 OA 
HETATM   17  C   UNL     1      -9.217   6.387  72.065  1.00  0.00    -0.148 C  
HETATM   18  C   UNL     1      -9.871   9.431  72.672  1.00  0.00     2.057 C  
HETATM   19  C   UNL     1      -9.964  10.153  69.526  1.00  0.00    -0.235 C  
HETATM   20  O   UNL     1     -11.094   9.270  69.548  1.00  0.00    -0.192 OA 
HETATM   21  C   UNL     1     -10.322  11.362  70.448  1.00  0.00     1.838 C  
HETATM   22  C   UNL     1      -9.054   4.999  71.343  1.00  0.00    -0.143 C  
HETATM   23  C   UNL     1      -9.725  10.611  68.081  1.00  0.00    -0.167 C  
HETATM   24  C   UNL     1     -12.389   9.888  69.409  1.00  0.00     0.776 C  
HETATM   25  C   UNL     1     -10.463  10.055  66.829  1.00  0.00    -0.267 C  
HETATM   26  H   UNL     1     -12.131   4.004  69.228  1.00  0.00     0.000 HD 
HETATM   27  O   UNL     1     -10.055   4.650  70.399  1.00  0.00    -0.237 OA 
HETATM   28  C   UNL     1     -10.412   8.549  66.292  1.00  0.00     0.359 C  
HETATM   29  C   UNL     1      -9.804  10.981  65.729  1.00  0.00    -0.282 C  
HETATM   30  O   UNL     1     -12.142   4.656  68.537  1.00  0.00     7.757 OA 
HETATM   31  C   UNL     1     -10.919   3.236  67.031  1.00  0.00     4.821 C  
HETATM   32  O   UNL     1      -9.688   8.354  65.296  1.00  0.00     0.403 OA 
HETATM   33  C   UNL     1     -11.386   7.317  66.643  1.00  0.00     1.150 C  
HETATM   34  C   UNL     1     -12.536   7.456  67.600  1.00  0.00     6.499 C  
HETATM   35  C   UNL     1      -9.682   4.347  68.980  1.00  0.00    -0.153 C  
HETATM   36  C   UNL     1     -10.906   5.750  66.596  1.00  0.00    -0.214 C  
HETATM   37  C   UNL     1     -10.888   4.585  67.830  1.00  0.00     1.350 C  
HETATM   38  O   UNL     1      -9.976   5.494  65.534  1.00  0.00    -0.374 OA 
HETATM   39  H   UNL     1      -9.698   4.586  65.506  1.00  0.00     0.000 HD 
BRANCH  13  40
HETATM   40  O   UNL     1      -7.765   8.614  69.308  1.00  0.00    -0.091 OA 
BRANCH  40  41
HETATM   41  C   UNL     1      -7.736   7.952  67.992  1.00  0.00    -0.125 C  
HETATM   42  C   UNL     1      -7.337   8.152  65.400  1.00  0.00    -0.069 C  
HETATM   43  C   UNL     1      -7.820   4.537  66.532  1.00  0.00    -0.099 C  
HETATM   44  O   UNL     1      -6.307   9.753  66.709  1.00  0.00    -0.064 OA 
HETATM   45  C   UNL     1      -7.293   6.640  65.338  1.00  0.00    -0.076 C  
HETATM   46  H   UNL     1      -5.727  10.040  66.014  1.00  0.00     0.000 HD 
HETATM   47  C   UNL     1      -8.035   6.039  66.574  1.00  0.00    -0.105 C  
HETATM   48  C   UNL     1      -6.751   8.439  66.813  1.00  0.00    -0.061 C  
HETATM   49  O   UNL     1      -7.651   6.515  67.907  1.00  0.00    -0.099 OA 
BRANCH  42  50
HETATM   50  N   UNL     1      -6.735   8.927  64.263  1.00  0.00    -0.078 NA 
HETATM   51  C   UNL     1      -5.938  10.114  64.568  1.00  0.00    -0.130 C  
HETATM   52  C   UNL     1      -6.055   8.117  63.253  1.00  0.00    -0.072 C  
ENDBRANCH  42  50
ENDBRANCH  40  41
ENDBRANCH  13  40
BRANCH  35  53
HETATM   53  C   UNL     1      -8.548   5.271  68.715  1.00  0.00    -0.091 C  
HETATM   54  C   UNL     1      -7.583   4.836  69.808  1.00  0.00    -0.055 C  
ENDBRANCH  35  53
ENDBRANCH  11  12
ENDBRANCH   1  11
BRANCH   4  55
HETATM   55  O   UNL     1      -8.838  10.274  69.590  1.00  0.00    -0.175 OA 
HETATM   56  C   UNL     1      -9.427   8.980  69.566  1.00  0.00    -0.164 C  
ENDBRANCH   4  55
TORSDOF 7
ENDMDL
MODEL      163
REMARK 921   NORMALIZED FREE ENERGY PREDICTED BY IDOCK:   92.37 KCAL/MOL
REMARK 922        TOTAL FREE ENERGY PREDICTED BY IDOCK:  127.48 KCAL/MOL
REMARK 923 INTER-LIGAND FREE ENERGY PREDICTED BY IDOCK:   98.22 KCAL/MOL
REMARK 924 INTRA-LIGAND FREE ENERGY PREDICTED BY IDOCK:   29.26 KCAL/MOL
REMARK 927      BINDING AFFINITY PREDICTED BY RF-SCORE:    0.00 PKD
ROOT
HETATM    1  C   UNL     1     -11.188   6.959  66.443  1.00  0.00     1.100 C  
HETATM    2  O   UNL     1     -10.861   3.737  63.452  1.00  0.00    -0.236 OA 
HETATM    3  C   UNL     1     -11.104   7.263  64.884  1.00  0.00     9.241 C  
HETATM    4  C   UNL     1     -10.558   6.147  63.910  1.00  0.00     6.177 C  
HETATM    5  C   UNL     1     -11.268   3.170  66.230  1.00  0.00     5.389 C  
HETATM    6  C   UNL     1     -11.178   4.811  64.356  1.00  0.00     0.988 C  
HETATM    7  C   UNL     1     -10.968   6.426  62.427  1.00  0.00     6.443 C  
HETATM    8  O   UNL     1     -11.281   5.542  66.744  1.00  0.00     0.011 OA 
HETATM    9  H   UNL     1     -11.243   2.913  63.727  1.00  0.00     0.000 HD 
HETATM   10  C   UNL     1     -10.768   4.564  65.814  1.00  0.00    -0.086 C  
ENDROOT
BRANCH   1  11
HETATM   11  O   UNL     1     -10.421   7.936  67.373  1.00  0.00    -0.255 OA 
BRANCH  11  12
HETATM   12  C   UNL     1     -11.077   8.344  68.645  1.00  0.00     0.352 C  
HETATM   13  C   UNL     1      -8.572   9.312  69.482  1.00  0.00    -0.147 C  
HETATM   14  C   UNL     1     -12.217  10.212  70.413  1.00  0.00    -0.300 C  
HETATM   15  C   UNL     1      -9.929   8.345  69.708  1.00  0.00    -0.191 C  
HETATM   16  O   UNL     1     -13.449  10.512  66.993  1.00  0.00    10.315 OA 
HETATM   17  C   UNL     1     -12.322   9.579  68.993  1.00  0.00     1.965 C  
HETATM   18  C   UNL     1     -10.570   7.948  71.074  1.00  0.00    -0.232 C  
HETATM   19  C   UNL     1      -8.147  10.073  70.865  1.00  0.00     0.972 C  
HETATM   20  O   UNL     1      -9.119  10.955  71.445  1.00  0.00     4.629 OA 
HETATM   21  C   UNL     1      -7.888   8.942  71.911  1.00  0.00     0.022 C  
HETATM   22  C   UNL     1     -12.887  10.725  68.074  1.00  0.00     4.289 C  
HETATM   23  C   UNL     1      -6.866  10.869  70.584  1.00  0.00     0.678 C  
HETATM   24  C   UNL     1      -8.906  11.320  72.824  1.00  0.00    18.780 C  
HETATM   25  C   UNL     1      -6.718  12.412  70.722  1.00  0.00     1.863 C  
HETATM   26  H   UNL     1     -13.157  14.136  69.869  1.00  0.00     0.000 HD 
HETATM   27  O   UNL     1     -12.839  12.044  68.596  1.00  0.00     0.677 OA 
HETATM   28  C   UNL     1      -7.512  13.518  69.883  1.00  0.00     0.960 C  
HETATM   29  C   UNL     1      -5.184  12.541  70.359  1.00  0.00    -0.119 C  
HETATM   30  O   UNL     1     -12.251  14.365  70.041  1.00  0.00    -0.318 OA 
HETATM   31  C   UNL     1     -12.089  15.678  68.034  1.00  0.00     0.301 C  
HETATM   32  O   UNL     1      -6.868  14.070  68.970  1.00  0.00    -0.103 OA 
HETATM   33  C   UNL     1      -8.906  14.244  70.232  1.00  0.00     2.012 C  
HETATM   34  C   UNL     1      -9.679  13.929  71.481  1.00  0.00     7.232 C  
HETATM   35  C   UNL     1     -12.112  13.123  67.854  1.00  0.00    -0.202 C  
HETATM   36  C   UNL     1      -9.931  14.818  69.089  1.00  0.00    -0.181 C  
HETATM   37  C   UNL     1     -11.550  14.410  68.782  1.00  0.00    -0.315 C  
HETATM   38  O   UNL     1      -9.239  15.363  67.956  1.00  0.00    -0.182 OA 
HETATM   39  H   UNL     1      -9.833  15.696  67.294  1.00  0.00     0.000 HD 
BRANCH  13  40
HETATM   40  O   UNL     1      -8.601  10.035  68.212  1.00  0.00    -0.113 OA 
BRANCH  40  41
HETATM   41  C   UNL     1      -9.522  10.449  67.139  1.00  0.00    -0.159 C  
HETATM   42  C   UNL     1     -10.246  12.287  65.402  1.00  0.00    -0.270 C  
HETATM   43  C   UNL     1     -12.145   9.007  64.938  1.00  0.00    13.606 C  
HETATM   44  O   UNL     1      -8.051  12.379  66.119  1.00  0.00    -0.218 OA 
HETATM   45  C   UNL     1     -11.097  11.239  64.719  1.00  0.00    -0.200 C  
HETATM   46  H   UNL     1      -7.780  12.963  65.420  1.00  0.00     0.000 HD 
HETATM   47  C   UNL     1     -11.427  10.089  65.724  1.00  0.00     2.305 C  
HETATM   48  C   UNL     1      -9.062  11.439  65.953  1.00  0.00    -0.198 C  
HETATM   49  O   UNL     1     -10.313   9.463  66.445  1.00  0.00    -0.242 OA 
BRANCH  42  50
HETATM   50  N   UNL     1      -9.873  13.517  64.624  1.00  0.00    -0.063 NA 
HETATM   51  C   UNL     1     -10.772  13.977  63.568  1.00  0.00     1.988 C  
HETATM   52  C   UNL     1      -9.433  14.652  65.434  1.00  0.00     0.173 C  
ENDBRANCH  42  50
ENDBRANCH  40  41
ENDBRANCH  13  40
BRANCH  35  53
HETATM   53  C   UNL     1     -10.960  12.407  67.243  1.00  0.00    -0.302 C  
HETATM   54  C   UNL     1      -9.818  12.978  68.069  1.00  0.00    -0.224 C  
ENDBRANCH  35  53
ENDBRANCH  11  12
ENDBRANCH   1  11
BRANCH   4  55
HETATM   55  O   UNL     1      -9.123   6.184  64.026  1.00  0.00     0.605 OA 
HETATM   56  C   UNL     1      -8.342   6.032  62.846  1.00  0.00    -0.003 C  
ENDBRANCH   4  55
TORSDOF 7
ENDMDL
MODEL      164
REMARK 921   NORMALIZED FREE ENERGY PREDICTED BY IDOCK:   95.63 KCAL/MOL
REMARK 922        TOTAL FREE ENERGY PREDICTED BY IDOCK:  132.08 KCAL/MOL
REMARK 923 INTER-LIGAND FREE ENERGY PREDICTED BY IDOCK:  121.10 KCAL/MOL
REMARK 924 INTRA-LIGAND FREE ENERGY PREDICTED BY IDOCK:   10.98 KCAL/MOL
REMARK 927      BINDING AFFINITY PREDICTED BY RF-SCORE:    0.00 PKD
ROOT
HETATM    1  C   UNL     1      -8.631  11.542  66.642  1.00  0.00    -0.176 C  
HETATM    2  O   UNL     1      -8.109  14.093  63.086  1.00  0.00    11.962 OA 
HETATM    3  C   UNL     1      -7.320  12.413  66.416  1.00  0.00     0.799 C  
HETATM    4  C   UNL     1      -6.990  12.948  64.968  1.00  0.00     8.795 C  
HETATM    5  C   UNL     1     -10.575  12.731  63.607  1.00  0.00    -0.288 C  
HETATM    6  C   UNL     1      -8.309  13.451  64.358  1.00  0.00     6.808 C  
HETATM    7  C   UNL     1      -5.966  14.129  65.009  1.00  0.00    16.372 C  
HETATM    8  O   UNL     1      -9.657  11.784  65.644  1.00  0.00    -0.231 OA 
HETATM    9  H   UNL     1      -8.923  14.404  62.709  1.00  0.00     0.000 HD 
HETATM   10  C   UNL     1      -9.298  12.278  64.335  1.00  0.00     0.423 C  
ENDROOT
BRANCH   1  11
HETATM   11  O   UNL     1      -8.419  10.135  67.260  1.00  0.00    -0.124 OA 
BRANCH  11  12
HETATM   12  C   UNL     1      -8.979   8.964  66.532  1.00  0.00    -0.155 C  
HETATM   13  C   UNL     1      -7.043   7.387  67.828  1.00  0.00    -0.085 C  
HETATM   14  C   UNL     1     -10.524   6.621  66.324  1.00  0.00     0.230 C  
HETATM   15  C   UNL     1      -7.794   7.947  66.431  1.00  0.00    -0.097 C  
HETATM   16  O   UNL     1     -12.281   9.380  67.938  1.00  0.00     2.507 OA 
HETATM   17  C   UNL     1     -10.565   8.145  66.646  1.00  0.00    -0.076 C  
HETATM   18  C   UNL     1      -7.978   7.160  65.097  1.00  0.00    -0.128 C  
HETATM   19  C   UNL     1      -6.779   5.775  67.756  1.00  0.00    -0.058 C  
HETATM   20  O   UNL     1      -7.933   4.935  67.613  1.00  0.00    -0.093 OA 
HETATM   21  C   UNL     1      -5.897   5.544  66.488  1.00  0.00    -0.018 C  
HETATM   22  C   UNL     1     -11.706   8.308  67.717  1.00  0.00     2.466 C  
HETATM   23  C   UNL     1      -6.030   5.369  69.032  1.00  0.00    -0.024 C  
HETATM   24  C   UNL     1      -7.687   3.583  67.176  1.00  0.00    -0.079 C  
HETATM   25  C   UNL     1      -6.546   4.351  70.091  1.00  0.00    -0.032 C  
HETATM   26  H   UNL     1     -13.141   4.938  68.949  1.00  0.00     0.000 HD 
HETATM   27  O   UNL     1     -12.152   7.123  68.358  1.00  0.00     1.526 OA 
HETATM   28  C   UNL     1      -7.860   4.504  70.989  1.00  0.00    -0.073 C  
HETATM   29  C   UNL     1      -5.296   4.359  71.061  1.00  0.00    -0.004 C  
HETATM   30  O   UNL     1     -12.409   4.543  69.408  1.00  0.00    10.112 OA 
HETATM   31  C   UNL     1     -13.148   5.388  71.534  1.00  0.00     3.161 C  
HETATM   32  O   UNL     1      -7.670   4.835  72.175  1.00  0.00    -0.088 OA 
HETATM   33  C   UNL     1      -9.357   3.998  70.684  1.00  0.00    -0.217 C  
HETATM   34  C   UNL     1      -9.712   3.277  69.414  1.00  0.00     0.018 C  
HETATM   35  C   UNL     1     -12.089   7.002  69.850  1.00  0.00     0.201 C  
HETATM   36  C   UNL     1     -10.695   4.732  71.283  1.00  0.00     0.136 C  
HETATM   37  C   UNL     1     -12.003   5.437  70.463  1.00  0.00     2.484 C  
HETATM   38  O   UNL     1     -10.493   5.238  72.611  1.00  0.00    -0.199 OA 
HETATM   39  H   UNL     1     -11.268   5.663  72.958  1.00  0.00     0.000 HD 
BRANCH  13  40
HETATM   40  O   UNL     1      -7.580   8.002  69.041  1.00  0.00    -0.094 OA 
BRANCH  40  41
HETATM   41  C   UNL     1      -7.200   8.364  70.417  1.00  0.00    -0.037 C  
HETATM   42  C   UNL     1      -7.546   9.952  72.486  1.00  0.00     3.112 C  
HETATM   43  C   UNL     1      -5.240   7.011  73.269  1.00  0.00    -0.038 C  
HETATM   44  O   UNL     1      -9.323   9.801  71.016  1.00  0.00    -0.324 OA 
HETATM   45  C   UNL     1      -6.770   8.956  73.320  1.00  0.00     0.157 C  
HETATM   46  H   UNL     1      -9.940  10.194  71.622  1.00  0.00     0.000 HD 
HETATM   47  C   UNL     1      -5.867   8.081  72.393  1.00  0.00    -0.043 C  
HETATM   48  C   UNL     1      -8.248   9.031  71.445  1.00  0.00    -0.052 C  
HETATM   49  O   UNL     1      -6.496   7.417  71.246  1.00  0.00    -0.036 OA 
BRANCH  42  50
HETATM   50  N   UNL     1      -8.428  10.939  73.196  1.00  0.00    12.965 NA 
HETATM   51  C   UNL     1      -8.555  12.287  72.647  1.00  0.00    23.590 C  
HETATM   52  C   UNL     1      -9.744  10.430  73.579  1.00  0.00    13.069 C  
ENDBRANCH  42  50
ENDBRANCH  40  41
ENDBRANCH  13  40
BRANCH  35  53
HETATM   53  C   UNL     1     -10.853   7.748  70.206  1.00  0.00    -0.252 C  
HETATM   54  C   UNL     1     -10.543   8.408  68.871  1.00  0.00    -0.162 C  
ENDBRANCH  35  53
ENDBRANCH  11  12
ENDBRANCH   1  11
BRANCH   4  55
HETATM   55  O   UNL     1      -6.412  11.837  64.255  1.00  0.00     2.283 OA 
HETATM   56  C   UNL     1      -7.039  11.402  63.054  1.00  0.00     1.202 C  
ENDBRANCH   4  55
TORSDOF 7
ENDMDL
MODEL      165
REMARK 921   NORMALIZED FREE ENERGY PREDICTED BY IDOCK:   97.15 KCAL/MOL
REMARK 922        TOTAL FREE ENERGY PREDICTED BY IDOCK:  134.22 KCAL/MOL
REMARK 923 INTER-LIGAND FREE ENERGY PREDICTED BY IDOCK:  104.87 KCAL/MOL
REMARK 924 INTRA-LIGAND FREE ENERGY PREDICTED BY IDOCK:   29.35 KCAL/MOL
REMARK 927      BINDING AFFINITY PREDICTED BY RF-SCORE:    0.00 PKD
ROOT
HETATM    1  C   UNL     1     -10.929   6.435  68.497  1.00  0.00    -0.319 C  
HETATM    2  O   UNL     1      -9.461   2.672  70.262  1.00  0.00    -0.138 OA 
HETATM    3  C   UNL     1     -11.795   5.102  68.477  1.00  0.00     5.170 C  
HETATM    4  C   UNL     1     -11.080   3.715  68.713  1.00  0.00     5.657 C  
HETATM    5  C   UNL     1      -8.004   5.124  70.530  1.00  0.00    -0.090 C  
HETATM    6  C   UNL     1     -10.076   3.910  69.863  1.00  0.00     0.317 C  
HETATM    7  C   UNL     1     -12.101   2.600  69.115  1.00  0.00    18.020 C  
HETATM    8  O   UNL     1      -9.701   6.307  69.260  1.00  0.00    -0.135 OA 
HETATM    9  H   UNL     1      -8.841   2.793  70.972  1.00  0.00     0.000 HD 
HETATM   10  C   UNL     1      -9.091   5.011  69.448  1.00  0.00    -0.103 C  
ENDROOT
BRANCH   1  11
HETATM   11  O   UNL     1     -11.002   7.318  67.223  1.00  0.00    -0.293 OA 
BRANCH  11  12
HETATM   12  C   UNL     1     -11.927   8.484  67.238  1.00  0.00     4.784 C  
HETATM   13  C   UNL     1     -10.728   9.247  69.666  1.00  0.00    -0.230 C  
HETATM   14  C   UNL     1     -12.574  11.199  66.883  1.00  0.00     3.853 C  
HETATM   15  C   UNL     1     -12.083   8.855  68.750  1.00  0.00     2.515 C  
HETATM   16  O   UNL     1     -10.721   9.770  64.085  1.00  0.00     1.719 OA 
HETATM   17  C   UNL     1     -12.045   9.916  66.174  1.00  0.00     5.823 C  
HETATM   18  C   UNL     1     -13.524   9.422  68.936  1.00  0.00     7.098 C  
HETATM   19  C   UNL     1     -11.005  10.551  70.612  1.00  0.00     0.015 C  
HETATM   20  O   UNL     1     -11.349  11.775  69.947  1.00  0.00    -0.226 OA 
HETATM   21  C   UNL     1     -12.226  10.172  71.511  1.00  0.00    -0.473 C  
HETATM   22  C   UNL     1     -11.048  10.437  65.074  1.00  0.00     0.962 C  
HETATM   23  C   UNL     1      -9.748  10.788  71.459  1.00  0.00     5.950 C  
HETATM   24  C   UNL     1     -11.953  12.797  70.764  1.00  0.00     0.008 C  
HETATM   25  C   UNL     1      -8.883  12.082  71.440  1.00  0.00    13.705 C  
HETATM   26  H   UNL     1     -10.410  14.243  65.264  1.00  0.00     0.000 HD 
HETATM   27  O   UNL     1     -10.614  11.783  65.192  1.00  0.00    -0.264 OA 
HETATM   28  C   UNL     1      -8.072  12.660  70.189  1.00  0.00     3.402 C  
HETATM   29  C   UNL     1      -7.833  11.687  72.555  1.00  0.00    15.633 C  
HETATM   30  O   UNL     1      -9.959  14.349  66.093  1.00  0.00    -0.286 OA 
HETATM   31  C   UNL     1      -7.795  14.257  65.050  1.00  0.00     8.882 C  
HETATM   32  O   UNL     1      -6.839  12.470  70.210  1.00  0.00     0.330 OA 
HETATM   33  C   UNL     1      -8.553  13.710  69.069  1.00  0.00     0.310 C  
HETATM   34  C   UNL     1      -9.934  14.302  69.072  1.00  0.00    -0.104 C  
HETATM   35  C   UNL     1      -9.153  12.099  65.296  1.00  0.00     0.359 C  
HETATM   36  C   UNL     1      -7.956  13.734  67.542  1.00  0.00    -0.181 C  
HETATM   37  C   UNL     1      -8.762  13.547  66.061  1.00  0.00     0.771 C  
HETATM   38  O   UNL     1      -6.559  13.407  67.496  1.00  0.00    -0.165 OA 
HETATM   39  H   UNL     1      -6.213  13.422  66.612  1.00  0.00     0.000 HD 
BRANCH  13  40
HETATM   40  O   UNL     1      -9.483   9.127  68.909  1.00  0.00    -0.149 OA 
BRANCH  40  41
HETATM   41  C   UNL     1      -8.042   9.422  69.000  1.00  0.00    -0.106 C  
HETATM   42  C   UNL     1      -5.967  10.736  68.057  1.00  0.00    -0.050 C  
HETATM   43  C   UNL     1      -5.176   8.882  71.300  1.00  0.00    -0.035 C  
HETATM   44  O   UNL     1      -8.038  11.657  67.608  1.00  0.00    -0.128 OA 
HETATM   45  C   UNL     1      -5.220  10.367  69.320  1.00  0.00    -0.038 C  
HETATM   46  H   UNL     1      -7.680  12.499  67.352  1.00  0.00     0.000 HD 
HETATM   47  C   UNL     1      -5.870   9.103  69.969  1.00  0.00    -0.031 C  
HETATM   48  C   UNL     1      -7.434  10.851  68.566  1.00  0.00    -0.103 C  
HETATM   49  O   UNL     1      -7.317   9.118  70.208  1.00  0.00    -0.067 OA 
BRANCH  42  50
HETATM   50  N   UNL     1      -5.458  11.890  67.242  1.00  0.00    -0.107 NA 
HETATM   51  C   UNL     1      -5.944  12.051  65.873  1.00  0.00     1.678 C  
HETATM   52  C   UNL     1      -5.462  13.182  67.927  1.00  0.00    -0.117 C  
ENDBRANCH  42  50
ENDBRANCH  40  41
ENDBRANCH  13  40
BRANCH  35  53
HETATM   53  C   UNL     1      -8.607  10.957  66.077  1.00  0.00    -0.179 C  
HETATM   54  C   UNL     1      -8.545   9.893  64.991  1.00  0.00    -0.174 C  
ENDBRANCH  35  53
ENDBRANCH  11  12
ENDBRANCH   1  11
BRANCH   4  55
HETATM   55  O   UNL     1     -10.460   3.367  67.460  1.00  0.00     1.249 OA 
HETATM   56  C   UNL     1     -10.684   4.209  66.335  1.00  0.00     0.952 C  
ENDBRANCH   4  55
TORSDOF 7
ENDMDL
MODEL      166
REMARK 921   NORMALIZED FREE ENERGY PREDICTED BY IDOCK:   97.31 KCAL/MOL
REMARK 922        TOTAL FREE ENERGY PREDICTED BY IDOCK:  134.44 KCAL/MOL
REMARK 923 INTER-LIGAND FREE ENERGY PREDICTED BY IDOCK:   50.33 KCAL/MOL
REMARK 924 INTRA-LIGAND FREE ENERGY PREDICTED BY IDOCK:   84.11 KCAL/MOL
REMARK 927      BINDING AFFINITY PREDICTED BY RF-SCORE:    0.00 PKD
ROOT
HETATM    1  C   UNL     1     -11.382  17.432  68.688  1.00  0.00     0.582 C  
HETATM    2  O   UNL     1      -7.863  19.153  66.667  1.00  0.00    -0.246 OA 
HETATM    3  C   UNL     1     -11.481  18.747  67.799  1.00  0.00     0.863 C  
HETATM    4  C   UNL     1     -10.166  19.555  67.468  1.00  0.00    -0.424 C  
HETATM    5  C   UNL     1      -7.723  16.649  68.051  1.00  0.00    -0.168 C  
HETATM    6  C   UNL     1      -9.075  18.526  67.122  1.00  0.00    -0.277 C  
HETATM    7  C   UNL     1     -10.367  20.510  66.247  1.00  0.00    -0.057 C  
HETATM    8  O   UNL     1     -10.071  16.810  68.643  1.00  0.00    -0.247 OA 
HETATM    9  H   UNL     1      -7.189  18.518  66.453  1.00  0.00     0.000 HD 
HETATM   10  C   UNL     1      -8.901  17.597  68.331  1.00  0.00    -0.281 C  
ENDROOT
BRANCH   1  11
HETATM   11  O   UNL     1     -12.245  17.411  69.977  1.00  0.00     3.132 OA 
BRANCH  11  12
HETATM   12  C   UNL     1     -12.030  16.296  70.939  1.00  0.00    -0.065 C  
HETATM   13  C   UNL     1     -12.687  14.531  68.849  1.00  0.00     0.583 C  
HETATM   14  C   UNL     1     -10.560  14.175  72.061  1.00  0.00     3.994 C  
HETATM   15  C   UNL     1     -12.921  15.126  70.404  1.00  0.00    -0.296 C  
HETATM   16  O   UNL     1      -8.596  17.213  71.587  1.00  0.00     9.059 OA 
HETATM   17  C   UNL     1     -10.554  15.704  71.756  1.00  0.00     0.839 C  
HETATM   18  C   UNL     1     -13.403  14.314  71.646  1.00  0.00    -0.442 C  
HETATM   19  C   UNL     1     -12.724  12.896  68.825  1.00  0.00     1.105 C  
HETATM   20  O   UNL     1     -11.742  12.213  69.618  1.00  0.00    -0.303 OA 
HETATM   21  C   UNL     1     -14.121  12.495  69.398  1.00  0.00     8.093 C  
HETATM   22  C   UNL     1      -9.045  16.064  71.493  1.00  0.00     5.593 C  
HETATM   23  C   UNL     1     -12.576  12.449  67.365  1.00  0.00     1.443 C  
HETATM   24  C   UNL     1     -12.004  10.824  69.897  1.00  0.00    -0.342 C  
HETATM   25  C   UNL     1     -11.428  11.557  66.811  1.00  0.00    -0.233 C  
HETATM   26  H   UNL     1      -6.727  12.975  71.398  1.00  0.00     0.000 HD 
HETATM   27  O   UNL     1      -8.163  14.979  71.254  1.00  0.00     2.296 OA 
HETATM   28  C   UNL     1      -9.871  11.923  66.789  1.00  0.00    -0.197 C  
HETATM   29  C   UNL     1     -11.916  11.438  65.312  1.00  0.00     0.652 C  
HETATM   30  O   UNL     1      -7.020  12.505  70.626  1.00  0.00     0.998 OA 
HETATM   31  C   UNL     1      -5.348  13.532  69.236  1.00  0.00    -0.074 C  
HETATM   32  O   UNL     1      -9.415  12.277  65.684  1.00  0.00    -0.186 OA 
HETATM   33  C   UNL     1      -8.743  11.610  67.893  1.00  0.00    -0.154 C  
HETATM   34  C   UNL     1      -9.058  10.889  69.173  1.00  0.00    -0.058 C  
HETATM   35  C   UNL     1      -7.370  14.916  69.985  1.00  0.00     0.068 C  
HETATM   36  C   UNL     1      -7.412  12.543  68.109  1.00  0.00    -0.117 C  
HETATM   37  C   UNL     1      -6.889  13.381  69.488  1.00  0.00     0.066 C  
HETATM   38  O   UNL     1      -6.910  13.074  66.874  1.00  0.00    -0.415 OA 
HETATM   39  H   UNL     1      -6.139  13.614  66.999  1.00  0.00     0.000 HD 
BRANCH  13  40
HETATM   40  O   UNL     1     -11.657  15.264  68.115  1.00  0.00    -0.337 OA 
BRANCH  40  41
HETATM   41  C   UNL     1     -10.634  15.084  67.070  1.00  0.00    -0.293 C  
HETATM   42  C   UNL     1      -8.117  14.615  66.465  1.00  0.00     0.502 C  
HETATM   43  C   UNL     1     -10.387  14.605  63.394  1.00  0.00     5.004 C  
HETATM   44  O   UNL     1      -8.812  13.887  68.544  1.00  0.00    -0.201 OA 
HETATM   45  C   UNL     1      -8.559  14.346  65.043  1.00  0.00     4.214 C  
HETATM   46  H   UNL     1      -8.054  13.327  68.672  1.00  0.00     0.000 HD 
HETATM   47  C   UNL     1      -9.932  15.041  64.775  1.00  0.00     0.175 C  
HETATM   48  C   UNL     1      -9.349  14.135  67.287  1.00  0.00    -0.225 C  
HETATM   49  O   UNL     1     -11.028  14.786  65.716  1.00  0.00    -0.315 OA 
BRANCH  42  50
HETATM   50  N   UNL     1      -6.781  14.088  66.905  1.00  0.00     0.407 NA 
HETATM   51  C   UNL     1      -6.651  12.662  67.193  1.00  0.00    -0.007 C  
HETATM   52  C   UNL     1      -5.643  14.542  66.107  1.00  0.00     5.793 C  
ENDBRANCH  42  50
ENDBRANCH  40  41
ENDBRANCH  13  40
BRANCH  35  53
HETATM   53  C   UNL     1      -8.289  15.503  68.974  1.00  0.00    -0.227 C  
HETATM   54  C   UNL     1      -7.283  16.184  68.058  1.00  0.00    -0.139 C  
ENDBRANCH  35  53
ENDBRANCH  11  12
ENDBRANCH   1  11
BRANCH   4  55
HETATM   55  O   UNL     1      -9.871  20.334  68.643  1.00  0.00    -0.215 OA 
HETATM   56  C   UNL     1     -10.882  21.189  69.162  1.00  0.00     1.413 C  
ENDBRANCH   4  55
TORSDOF 7
ENDMDL
MODEL      167
REMARK 921   NORMALIZED FREE ENERGY PREDICTED BY IDOCK:   98.16 KCAL/MOL
REMARK 922        TOTAL FREE ENERGY PREDICTED BY IDOCK:  135.64 KCAL/MOL
REMARK 923 INTER-LIGAND FREE ENERGY PREDICTED BY IDOCK:   49.22 KCAL/MOL
REMARK 924 INTRA-LIGAND FREE ENERGY PREDICTED BY IDOCK:   86.42 KCAL/MOL
REMARK 927      BINDING AFFINITY PREDICTED BY RF-SCORE:    0.00 PKD
ROOT
HETATM    1  C   UNL     1      -5.742  14.763  65.819  1.00  0.00     8.553 C  
HETATM    2  O   UNL     1      -7.449  18.716  66.763  1.00  0.00    -0.213 OA 
HETATM    3  C   UNL     1      -6.422  15.674  64.707  1.00  0.00    13.288 C  
HETATM    4  C   UNL     1      -7.384  16.844  65.151  1.00  0.00     3.388 C  
HETATM    5  C   UNL     1      -6.003  17.200  68.717  1.00  0.00    -0.155 C  
HETATM    6  C   UNL     1      -6.727  17.540  66.356  1.00  0.00    -0.262 C  
HETATM    7  C   UNL     1      -7.584  17.892  64.007  1.00  0.00     9.265 C  
HETATM    8  O   UNL     1      -5.630  15.423  67.107  1.00  0.00    -0.303 OA 
HETATM    9  H   UNL     1      -7.043  19.146  67.507  1.00  0.00     0.000 HD 
HETATM   10  C   UNL     1      -6.534  16.491  67.460  1.00  0.00    -0.154 C  
ENDROOT
BRANCH   1  11
HETATM   11  O   UNL     1      -6.007  13.238  65.710  1.00  0.00     4.630 OA 
BRANCH  11  12
HETATM   12  C   UNL     1      -7.277  12.798  65.072  1.00  0.00     7.310 C  
HETATM   13  C   UNL     1      -6.234  10.185  65.088  1.00  0.00    -0.121 C  
HETATM   14  C   UNL     1      -9.829  11.613  65.080  1.00  0.00    -0.280 C  
HETATM   15  C   UNL     1      -6.902  11.500  64.281  1.00  0.00     2.438 C  
HETATM   16  O   UNL     1      -9.326  13.997  67.795  1.00  0.00    -0.193 OA 
HETATM   17  C   UNL     1      -8.957  12.755  65.683  1.00  0.00     0.576 C  
HETATM   18  C   UNL     1      -7.824  11.448  63.024  1.00  0.00     0.692 C  
HETATM   19  C   UNL     1      -6.909   8.779  64.596  1.00  0.00    -0.073 C  
HETATM   20  O   UNL     1      -8.323   8.635  64.792  1.00  0.00    -0.153 OA 
HETATM   21  C   UNL     1      -6.661   8.705  63.056  1.00  0.00    -0.090 C  
HETATM   22  C   UNL     1      -9.501  12.959  67.145  1.00  0.00    -0.229 C  
HETATM   23  C   UNL     1      -6.193   7.637  65.327  1.00  0.00    -0.038 C  
HETATM   24  C   UNL     1      -8.969   7.592  64.034  1.00  0.00     1.146 C  
HETATM   25  C   UNL     1      -6.874   6.614  66.281  1.00  0.00    -0.061 C  
HETATM   26  H   UNL     1     -12.140  10.332  68.177  1.00  0.00     0.000 HD 
HETATM   27  O   UNL     1     -10.328  11.930  67.667  1.00  0.00    -0.196 OA 
HETATM   28  C   UNL     1      -7.609   6.950  67.661  1.00  0.00    -0.110 C  
HETATM   29  C   UNL     1      -5.615   5.716  66.612  1.00  0.00    -0.017 C  
HETATM   30  O   UNL     1     -11.646   9.521  68.195  1.00  0.00     0.313 OA 
HETATM   31  C   UNL     1     -11.223   9.706  70.555  1.00  0.00    -0.359 C  
HETATM   32  O   UNL     1      -6.965   6.683  68.695  1.00  0.00    -0.074 OA 
HETATM   33  C   UNL     1      -9.160   7.288  67.925  1.00  0.00    -0.132 C  
HETATM   34  C   UNL     1     -10.166   7.337  66.811  1.00  0.00    -0.305 C  
HETATM   35  C   UNL     1      -9.950  11.230  68.936  1.00  0.00    -0.155 C  
HETATM   36  C   UNL     1      -9.678   8.225  69.166  1.00  0.00    -0.171 C  
HETATM   37  C   UNL     1     -10.561   9.674  69.133  1.00  0.00    -0.220 C  
HETATM   38  O   UNL     1      -8.894   8.043  70.354  1.00  0.00    -0.138 OA 
HETATM   39  H   UNL     1      -9.195   8.586  71.073  1.00  0.00     0.000 HD 
BRANCH  13  40
HETATM   40  O   UNL     1      -6.014  10.449  66.509  1.00  0.00    -0.060 OA 
BRANCH  40  41
HETATM   41  C   UNL     1      -6.351   9.929  67.846  1.00  0.00    -0.055 C  
HETATM   42  C   UNL     1      -7.697   8.196  69.296  1.00  0.00    -0.104 C  
HETATM   43  C   UNL     1      -5.221  10.229  71.373  1.00  0.00    -0.080 C  
HETATM   44  O   UNL     1      -7.298   7.589  67.102  1.00  0.00    -0.089 OA 
HETATM   45  C   UNL     1      -6.820   8.569  70.471  1.00  0.00    -0.039 C  
HETATM   46  H   UNL     1      -7.521   6.677  67.247  1.00  0.00     0.000 HD 
HETATM   47  C   UNL     1      -6.203   9.986  70.241  1.00  0.00    -0.094 C  
HETATM   48  C   UNL     1      -6.728   8.382  68.092  1.00  0.00    -0.065 C  
HETATM   49  O   UNL     1      -5.507  10.237  68.975  1.00  0.00    -0.039 OA 
BRANCH  42  50
HETATM   50  N   UNL     1      -8.442   6.892  69.351  1.00  0.00    -0.132 NA 
HETATM   51  C   UNL     1      -8.319   5.967  68.227  1.00  0.00    -0.112 C  
HETATM   52  C   UNL     1      -8.320   6.163  70.612  1.00  0.00    -0.126 C  
ENDBRANCH  42  50
ENDBRANCH  40  41
ENDBRANCH  13  40
BRANCH  35  53
HETATM   53  C   UNL     1      -8.465  11.179  68.875  1.00  0.00    -0.095 C  
HETATM   54  C   UNL     1      -8.118  11.829  70.205  1.00  0.00     3.248 C  
ENDBRANCH  35  53
ENDBRANCH  11  12
ENDBRANCH   1  11
BRANCH   4  55
HETATM   55  O   UNL     1      -8.647  16.225  65.461  1.00  0.00    -0.101 OA 
HETATM   56  C   UNL     1      -9.038  16.127  66.825  1.00  0.00    -0.230 C  
ENDBRANCH   4  55
TORSDOF 7
ENDMDL
MODEL      168
REMARK 921   NORMALIZED FREE ENERGY PREDICTED BY IDOCK:  100.10 KCAL/MOL
REMARK 922        TOTAL FREE ENERGY PREDICTED BY IDOCK:  138.37 KCAL/MOL
REMARK 923 INTER-LIGAND FREE ENERGY PREDICTED BY IDOCK:   25.30 KCAL/MOL
REMARK 924 INTRA-LIGAND FREE ENERGY PREDICTED BY IDOCK:  113.07 KCAL/MOL
REMARK 927      BINDING AFFINITY PREDICTED BY RF-SCORE:    0.00 PKD
ROOT
HETATM    1  C   UNL     1     -10.943   6.898  66.122  1.00  0.00     1.443 C  
HETATM    2  O   UNL     1      -6.602   7.539  65.699  1.00  0.00    -0.044 OA 
HETATM    3  C   UNL     1     -10.257   7.108  64.702  1.00  0.00     5.109 C  
HETATM    4  C   UNL     1      -8.820   7.755  64.629  1.00  0.00     0.475 C  
HETATM    5  C   UNL     1      -7.786   6.909  68.230  1.00  0.00    -0.118 C  
HETATM    6  C   UNL     1      -7.979   7.126  65.754  1.00  0.00    -0.123 C  
HETATM    7  C   UNL     1      -8.127   7.467  63.256  1.00  0.00    -0.021 C  
HETATM    8  O   UNL     1      -9.986   6.808  67.210  1.00  0.00    -0.136 OA 
HETATM    9  H   UNL     1      -6.083   7.150  66.393  1.00  0.00     0.000 HD 
HETATM   10  C   UNL     1      -8.682   7.416  67.087  1.00  0.00    -0.121 C  
ENDROOT
BRANCH   1  11
HETATM   11  O   UNL     1     -12.330   7.564  66.316  1.00  0.00     5.724 OA 
BRANCH  11  12
HETATM   12  C   UNL     1     -12.471   8.571  67.404  1.00  0.00     8.848 C  
HETATM   13  C   UNL     1     -10.802   6.933  68.968  1.00  0.00    -0.212 C  
HETATM   14  C   UNL     1     -11.583  10.722  68.986  1.00  0.00    -0.370 C  
HETATM   15  C   UNL     1     -12.242   7.768  68.728  1.00  0.00     3.072 C  
HETATM   16  O   UNL     1     -11.101  11.253  65.409  1.00  0.00    -0.190 OA 
HETATM   17  C   UNL     1     -11.908  10.263  67.532  1.00  0.00     1.358 C  
HETATM   18  C   UNL     1     -13.120   8.440  69.828  1.00  0.00     3.101 C  
HETATM   19  C   UNL     1     -10.231   7.155  70.483  1.00  0.00    -0.196 C  
HETATM   20  O   UNL     1      -9.927   8.503  70.871  1.00  0.00    -0.178 OA 
HETATM   21  C   UNL     1     -11.360   6.658  71.441  1.00  0.00    -0.335 C  
HETATM   22  C   UNL     1     -10.910  11.063  66.616  1.00  0.00    -0.225 C  
HETATM   23  C   UNL     1      -8.964   6.304  70.633  1.00  0.00    -0.144 C  
HETATM   24  C   UNL     1      -9.793   8.745  72.286  1.00  0.00    -0.225 C  
HETATM   25  C   UNL     1      -7.545   6.853  70.960  1.00  0.00    -0.087 C  
HETATM   26  H   UNL     1      -8.302  13.103  68.609  1.00  0.00     0.000 HD 
HETATM   27  O   UNL     1      -9.808  11.683  67.262  1.00  0.00    -0.186 OA 
HETATM   28  C   UNL     1      -6.686   7.855  70.056  1.00  0.00    -0.041 C  
HETATM   29  C   UNL     1      -6.764   5.479  71.031  1.00  0.00    -0.045 C  
HETATM   30  O   UNL     1      -7.782  12.433  69.037  1.00  0.00     0.010 OA 
HETATM   31  C   UNL     1      -6.133  12.444  67.287  1.00  0.00    -0.143 C  
HETATM   32  O   UNL     1      -5.757   7.336  69.406  1.00  0.00    -0.022 OA 
HETATM   33  C   UNL     1      -6.639   9.463  70.094  1.00  0.00    -0.062 C  
HETATM   34  C   UNL     1      -7.472  10.263  71.055  1.00  0.00     1.248 C  
HETATM   35  C   UNL     1      -8.407  11.348  66.852  1.00  0.00    -0.159 C  
HETATM   36  C   UNL     1      -6.288  10.384  68.784  1.00  0.00    -0.047 C  
HETATM   37  C   UNL     1      -7.218  11.581  68.020  1.00  0.00    -0.085 C  
HETATM   38  O   UNL     1      -5.303   9.776  67.936  1.00  0.00    -0.039 OA 
HETATM   39  H   UNL     1      -5.099  10.310  67.177  1.00  0.00     0.000 HD 
BRANCH  13  40
HETATM   40  O   UNL     1      -9.907   7.010  67.814  1.00  0.00    -0.132 OA 
BRANCH  40  41
HETATM   41  C   UNL     1      -8.614   6.506  67.320  1.00  0.00    -0.111 C  
HETATM   42  C   UNL     1      -7.014   4.453  66.941  1.00  0.00    -0.063 C  
HETATM   43  C   UNL     1      -5.705   7.648  65.312  1.00  0.00    -0.037 C  
HETATM   44  O   UNL     1      -9.265   3.964  67.119  1.00  0.00    -0.147 OA 
HETATM   45  C   UNL     1      -6.187   5.328  66.024  1.00  0.00    -0.034 C  
HETATM   46  H   UNL     1      -9.168   3.086  66.769  1.00  0.00     0.000 HD 
HETATM   47  C   UNL     1      -6.439   6.832  66.360  1.00  0.00    -0.047 C  
HETATM   48  C   UNL     1      -8.449   5.018  66.725  1.00  0.00    -0.106 C  
HETATM   49  O   UNL     1      -7.827   7.303  66.412  1.00  0.00    -0.100 OA 
BRANCH  42  50
HETATM   50  N   UNL     1      -6.865   2.962  66.826  1.00  0.00    -0.047 NA 
HETATM   51  C   UNL     1      -6.121   2.418  65.692  1.00  0.00    -0.023 C  
HETATM   52  C   UNL     1      -6.465   2.284  68.058  1.00  0.00    -0.029 C  
ENDBRANCH  42  50
ENDBRANCH  40  41
ENDBRANCH  13  40
BRANCH  35  53
HETATM   53  C   UNL     1      -8.485   9.905  66.498  1.00  0.00    -0.127 C  
HETATM   54  C   UNL     1      -8.381   9.282  67.882  1.00  0.00    -0.116 C  
ENDBRANCH  35  53
ENDBRANCH  11  12
ENDBRANCH   1  11
BRANCH   4  55
HETATM   55  O   UNL     1      -9.014   9.174  64.779  1.00  0.00    -0.194 OA 
HETATM   56  C   UNL     1      -8.777  10.014  63.656  1.00  0.00    -0.218 C  
ENDBRANCH   4  55
TORSDOF 7
ENDMDL
MODEL      169
REMARK 921   NORMALIZED FREE ENERGY PREDICTED BY IDOCK:  101.89 KCAL/MOL
REMARK 922        TOTAL FREE ENERGY PREDICTED BY IDOCK:  140.90 KCAL/MOL
REMARK 923 INTER-LIGAND FREE ENERGY PREDICTED BY IDOCK:   52.94 KCAL/MOL
REMARK 924 INTRA-LIGAND FREE ENERGY PREDICTED BY IDOCK:   87.96 KCAL/MOL
REMARK 927      BINDING AFFINITY PREDICTED BY RF-SCORE:    0.00 PKD
ROOT
HETATM    1  C   UNL     1      -7.640   5.755  68.278  1.00  0.00    -0.085 C  
HETATM    2  O   UNL     1      -8.811   7.193  72.277  1.00  0.00    -0.128 OA 
HETATM    3  C   UNL     1      -6.576   5.973  69.439  1.00  0.00    -0.044 C  
HETATM    4  C   UNL     1      -6.956   6.880  70.674  1.00  0.00    -0.063 C  
HETATM    5  C   UNL     1     -10.764   6.561  70.278  1.00  0.00    -0.307 C  
HETATM    6  C   UNL     1      -8.400   6.525  71.071  1.00  0.00    -0.126 C  
HETATM    7  C   UNL     1      -6.015   6.618  71.895  1.00  0.00    -0.038 C  
HETATM    8  O   UNL     1      -9.011   5.946  68.717  1.00  0.00    -0.117 OA 
HETATM    9  H   UNL     1      -9.702   6.973  72.522  1.00  0.00     0.000 HD 
HETATM   10  C   UNL     1      -9.301   6.784  69.856  1.00  0.00    -0.157 C  
ENDROOT
BRANCH   1  11
HETATM   11  O   UNL     1      -7.184   6.152  66.849  1.00  0.00    -0.071 OA 
BRANCH  11  12
HETATM   12  C   UNL     1      -8.170   6.016  65.742  1.00  0.00    -0.136 C  
HETATM   13  C   UNL     1     -10.068   7.193  67.454  1.00  0.00    -0.202 C  
HETATM   14  C   UNL     1      -9.721   6.993  63.607  1.00  0.00     4.197 C  
HETATM   15  C   UNL     1      -9.564   5.941  66.451  1.00  0.00    -0.173 C  
HETATM   16  O   UNL     1      -6.226   8.031  63.459  1.00  0.00    -0.069 OA 
HETATM   17  C   UNL     1      -8.268   6.803  64.140  1.00  0.00     0.051 C  
HETATM   18  C   UNL     1     -10.476   5.032  65.572  1.00  0.00     0.002 C  
HETATM   19  C   UNL     1     -11.633   7.580  67.183  1.00  0.00     1.576 C  
HETATM   20  O   UNL     1     -11.971   8.026  65.862  1.00  0.00     6.415 OA 
HETATM   21  C   UNL     1     -12.445   6.270  67.434  1.00  0.00     6.107 C  
HETATM   22  C   UNL     1      -7.458   8.025  63.568  1.00  0.00    -0.122 C  
HETATM   23  C   UNL     1     -12.023   8.673  68.186  1.00  0.00     3.248 C  
HETATM   24  C   UNL     1     -13.371   8.001  65.519  1.00  0.00    20.937 C  
HETATM   25  C   UNL     1     -12.518  10.101  67.812  1.00  0.00     4.339 C  
HETATM   26  H   UNL     1      -9.674  10.613  61.745  1.00  0.00     0.000 HD 
HETATM   27  O   UNL     1      -8.217   9.109  63.054  1.00  0.00    -0.160 OA 
HETATM   28  C   UNL     1     -11.686  11.214  67.021  1.00  0.00     0.318 C  
HETATM   29  C   UNL     1     -12.794  10.650  69.269  1.00  0.00     0.859 C  
HETATM   30  O   UNL     1     -10.218  10.965  62.441  1.00  0.00     0.127 OA 
HETATM   31  C   UNL     1      -8.732  12.819  62.810  1.00  0.00     5.035 C  
HETATM   32  O   UNL     1     -11.215  12.135  67.718  1.00  0.00    -0.240 OA 
HETATM   33  C   UNL     1     -11.624  11.495  65.438  1.00  0.00     0.012 C  
HETATM   34  C   UNL     1     -12.398  10.669  64.450  1.00  0.00     3.906 C  
HETATM   35  C   UNL     1      -8.040  10.487  63.614  1.00  0.00    -0.051 C  
HETATM   36  C   UNL     1     -10.322  12.156  64.691  1.00  0.00    -0.297 C  
HETATM   37  C   UNL     1      -9.353  11.528  63.448  1.00  0.00    -0.174 C  
HETATM   38  O   UNL     1      -9.670  13.145  65.501  1.00  0.00    -0.455 OA 
HETATM   39  H   UNL     1      -8.916  13.528  65.068  1.00  0.00     0.000 HD 
BRANCH  13  40
HETATM   40  O   UNL     1      -9.056   8.238  67.602  1.00  0.00    -0.131 OA 
BRANCH  40  41
HETATM   41  C   UNL     1      -8.916   9.689  67.818  1.00  0.00    -0.118 C  
HETATM   42  C   UNL     1      -9.926  12.099  67.519  1.00  0.00    -0.197 C  
HETATM   43  C   UNL     1      -6.800  12.084  69.713  1.00  0.00     0.164 C  
HETATM   44  O   UNL     1     -11.440  10.354  67.475  1.00  0.00    -0.523 OA 
HETATM   45  C   UNL     1      -8.909  12.598  68.523  1.00  0.00    -0.044 C  
HETATM   46  H   UNL     1     -12.194  10.921  67.593  1.00  0.00     0.000 HD 
HETATM   47  C   UNL     1      -7.700  11.611  68.586  1.00  0.00    -0.134 C  
HETATM   48  C   UNL     1     -10.195  10.649  68.019  1.00  0.00    -0.175 C  
HETATM   49  O   UNL     1      -7.984  10.187  68.799  1.00  0.00    -0.093 OA 
BRANCH  42  50
HETATM   50  N   UNL     1     -11.140  12.945  67.258  1.00  0.00    -0.265 NA 
HETATM   51  C   UNL     1     -12.458  12.317  67.320  1.00  0.00     1.125 C  
HETATM   52  C   UNL     1     -11.164  14.227  67.961  1.00  0.00    -0.280 C  
ENDBRANCH  42  50
ENDBRANCH  40  41
ENDBRANCH  13  40
BRANCH  35  53
HETATM   53  C   UNL     1      -7.775  10.243  65.057  1.00  0.00    -0.129 C  
HETATM   54  C   UNL     1      -6.893   9.007  64.964  1.00  0.00    -0.076 C  
ENDBRANCH  35  53
ENDBRANCH  11  12
ENDBRANCH   1  11
BRANCH   4  55
HETATM   55  O   UNL     1      -6.799   8.242  70.231  1.00  0.00    -0.036 OA 
HETATM   56  C   UNL     1      -6.981   8.533  68.851  1.00  0.00    -0.062 C  
ENDBRANCH   4  55
TORSDOF 7
ENDMDL
MODEL      170
REMARK 921   NORMALIZED FREE ENERGY PREDICTED BY IDOCK:  102.85 KCAL/MOL
REMARK 922        TOTAL FREE ENERGY PREDICTED BY IDOCK:  142.25 KCAL/MOL
REMARK 923 INTER-LIGAND FREE ENERGY PREDICTED BY IDOCK:   75.48 KCAL/MOL
REMARK 924 INTRA-LIGAND FREE ENERGY PREDICTED BY IDOCK:   66.77 KCAL/MOL
REMARK 927      BINDING AFFINITY PREDICTED BY RF-SCORE:    0.00 PKD
ROOT
HETATM    1  C   UNL     1      -9.208  14.348  65.839  1.00  0.00     0.066 C  
HETATM    2  O   UNL     1      -5.887  14.611  68.726  1.00  0.00    -0.082 OA 
HETATM    3  C   UNL     1      -9.087  15.548  66.877  1.00  0.00    -0.264 C  
HETATM    4  C   UNL     1      -8.163  15.379  68.145  1.00  0.00    -0.144 C  
HETATM    5  C   UNL     1      -5.956  12.589  66.698  1.00  0.00     0.838 C  
HETATM    6  C   UNL     1      -6.869  14.692  67.677  1.00  0.00    -0.183 C  
HETATM    7  C   UNL     1      -7.802  16.761  68.784  1.00  0.00    -0.243 C  
HETATM    8  O   UNL     1      -8.063  13.457  65.862  1.00  0.00     1.590 OA 
HETATM    9  H   UNL     1      -5.088  14.187  68.437  1.00  0.00     0.000 HD 
HETATM   10  C   UNL     1      -7.249  13.345  67.049  1.00  0.00     0.378 C  
ENDROOT
BRANCH   1  11
HETATM   11  O   UNL     1     -10.642  13.819  65.570  1.00  0.00    -0.286 OA 
BRANCH  11  12
HETATM   12  C   UNL     1     -10.807  12.364  65.308  1.00  0.00    -0.289 C  
HETATM   13  C   UNL     1      -8.471  11.952  66.820  1.00  0.00    -0.167 C  
HETATM   14  C   UNL     1     -11.538   9.738  66.009  1.00  0.00     3.065 C  
HETATM   15  C   UNL     1      -9.363  11.770  65.406  1.00  0.00    -0.095 C  
HETATM   16  O   UNL     1     -14.069  12.225  66.855  1.00  0.00     9.075 OA 
HETATM   17  C   UNL     1     -12.055  11.199  65.840  1.00  0.00     1.784 C  
HETATM   18  C   UNL     1      -9.294  10.569  64.413  1.00  0.00    -0.307 C  
HETATM   19  C   UNL     1      -7.714  10.562  67.229  1.00  0.00    -0.106 C  
HETATM   20  O   UNL     1      -8.546   9.419  67.479  1.00  0.00    -0.122 OA 
HETATM   21  C   UNL     1      -6.807  10.197  66.011  1.00  0.00    -0.112 C  
HETATM   22  C   UNL     1     -13.187  11.361  66.921  1.00  0.00     7.989 C  
HETATM   23  C   UNL     1      -6.873  10.841  68.481  1.00  0.00    -0.062 C  
HETATM   24  C   UNL     1      -7.888   8.137  67.463  1.00  0.00    -0.110 C  
HETATM   25  C   UNL     1      -7.039  10.126  69.853  1.00  0.00    -0.144 C  
HETATM   26  H   UNL     1     -13.488   8.323  69.290  1.00  0.00     0.000 HD 
HETATM   27  O   UNL     1     -13.237  10.379  67.944  1.00  0.00     5.446 OA 
HETATM   28  C   UNL     1      -8.333  10.170  70.792  1.00  0.00     1.135 C  
HETATM   29  C   UNL     1      -5.853  10.823  70.634  1.00  0.00    -0.111 C  
HETATM   30  O   UNL     1     -12.668   8.337  69.769  1.00  0.00     1.732 OA 
HETATM   31  C   UNL     1     -13.629   9.579  71.590  1.00  0.00    -0.426 C  
HETATM   32  O   UNL     1      -8.254  10.916  71.788  1.00  0.00     5.830 OA 
HETATM   33  C   UNL     1      -9.596   9.173  70.821  1.00  0.00    -0.338 C  
HETATM   34  C   UNL     1      -9.710   8.002  69.887  1.00  0.00    -0.180 C  
HETATM   35  C   UNL     1     -13.136  10.782  69.383  1.00  0.00     1.224 C  
HETATM   36  C   UNL     1     -11.096   9.634  71.299  1.00  0.00    -0.355 C  
HETATM   37  C   UNL     1     -12.561   9.608  70.443  1.00  0.00     0.148 C  
HETATM   38  O   UNL     1     -11.059  10.586  72.372  1.00  0.00     2.845 OA 
HETATM   39  H   UNL     1     -11.928  10.853  72.649  1.00  0.00     0.000 HD 
BRANCH  13  40
HETATM   40  O   UNL     1      -9.171  12.745  67.829  1.00  0.00    -0.183 OA 
BRANCH  40  41
HETATM   41  C   UNL     1      -9.060  13.192  69.228  1.00  0.00     0.914 C  
HETATM   42  C   UNL     1     -10.011  14.673  71.183  1.00  0.00     2.288 C  
HETATM   43  C   UNL     1      -7.226  12.333  72.343  1.00  0.00    10.342 C  
HETATM   44  O   UNL     1     -11.508  14.115  69.513  1.00  0.00    -0.259 OA 
HETATM   45  C   UNL     1      -9.144  13.883  72.140  1.00  0.00    10.778 C  
HETATM   46  H   UNL     1     -12.270  14.363  70.025  1.00  0.00     0.000 HD 
HETATM   47  C   UNL     1      -7.959  13.228  71.361  1.00  0.00     8.816 C  
HETATM   48  C   UNL     1     -10.351  13.610  70.097  1.00  0.00     1.545 C  
HETATM   49  O   UNL     1      -8.273  12.433  70.169  1.00  0.00     2.432 OA 
BRANCH  42  50
HETATM   50  N   UNL     1     -11.174  15.439  71.746  1.00  0.00    -0.374 NA 
HETATM   51  C   UNL     1     -11.106  16.899  71.770  1.00  0.00     1.047 C  
HETATM   52  C   UNL     1     -12.488  15.010  71.269  1.00  0.00    -0.334 C  
ENDBRANCH  42  50
ENDBRANCH  40  41
ENDBRANCH  13  40
BRANCH  35  53
HETATM   53  C   UNL     1     -12.196  11.934  69.355  1.00  0.00    -0.185 C  
HETATM   54  C   UNL     1     -10.869  11.202  69.485  1.00  0.00    -0.241 C  
ENDBRANCH  35  53
ENDBRANCH  11  12
ENDBRANCH   1  11
BRANCH   4  55
HETATM   55  O   UNL     1      -8.921  14.598  69.090  1.00  0.00    -0.133 OA 
HETATM   56  C   UNL     1      -9.759  15.279  70.016  1.00  0.00     0.009 C  
ENDBRANCH   4  55
TORSDOF 7
ENDMDL
MODEL      171
REMARK 921   NORMALIZED FREE ENERGY PREDICTED BY IDOCK:  103.94 KCAL/MOL
REMARK 922        TOTAL FREE ENERGY PREDICTED BY IDOCK:  143.79 KCAL/MOL
REMARK 923 INTER-LIGAND FREE ENERGY PREDICTED BY IDOCK:   42.10 KCAL/MOL
REMARK 924 INTRA-LIGAND FREE ENERGY PREDICTED BY IDOCK:  101.69 KCAL/MOL
REMARK 927      BINDING AFFINITY PREDICTED BY RF-SCORE:    0.00 PKD
ROOT
HETATM    1  C   UNL     1      -7.707  11.282  69.507  1.00  0.00     0.196 C  
HETATM    2  O   UNL     1      -9.105   7.217  70.482  1.00  0.00    -0.156 OA 
HETATM    3  C   UNL     1      -8.219  10.895  70.962  1.00  0.00     4.422 C  
HETATM    4  C   UNL     1      -9.098   9.597  71.150  1.00  0.00     0.448 C  
HETATM    5  C   UNL     1      -7.950   7.836  67.935  1.00  0.00    -0.125 C  
HETATM    6  C   UNL     1      -8.468   8.492  70.284  1.00  0.00    -0.128 C  
HETATM    7  C   UNL     1      -9.118   9.124  72.640  1.00  0.00     1.057 C  
HETATM    8  O   UNL     1      -7.628  10.146  68.608  1.00  0.00    -0.081 OA 
HETATM    9  H   UNL     1      -8.717   6.535  69.948  1.00  0.00     0.000 HD 
HETATM   10  C   UNL     1      -8.453   8.982  68.830  1.00  0.00    -0.131 C  
ENDROOT
BRANCH   1  11
HETATM   11  O   UNL     1      -8.103  12.693  68.997  1.00  0.00     0.135 OA 
BRANCH  11  12
HETATM   12  C   UNL     1      -8.118  12.921  67.526  1.00  0.00    -0.181 C  
HETATM   13  C   UNL     1     -10.712  13.964  67.839  1.00  0.00    -0.240 C  
HETATM   14  C   UNL     1      -7.924  14.514  65.214  1.00  0.00     6.311 C  
HETATM   15  C   UNL     1      -9.632  12.889  67.129  1.00  0.00    -0.225 C  
HETATM   16  O   UNL     1      -5.225  15.083  67.602  1.00  0.00    -0.292 OA 
HETATM   17  C   UNL     1      -7.170  14.026  66.488  1.00  0.00     2.060 C  
HETATM   18  C   UNL     1      -9.713  12.310  65.683  1.00  0.00    -0.205 C  
HETATM   19  C   UNL     1     -11.730  14.604  66.730  1.00  0.00    -0.341 C  
HETATM   20  O   UNL     1     -11.135  15.353  65.661  1.00  0.00    -0.322 OA 
HETATM   21  C   UNL     1     -12.462  13.391  66.074  1.00  0.00    -0.431 C  
HETATM   22  C   UNL     1      -6.227  15.220  66.889  1.00  0.00     0.935 C  
HETATM   23  C   UNL     1     -12.719  15.510  67.475  1.00  0.00     1.999 C  
HETATM   24  C   UNL     1     -11.967  15.586  64.507  1.00  0.00    -0.170 C  
HETATM   25  C   UNL     1     -12.897  17.037  67.232  1.00  0.00     5.361 C  
HETATM   26  H   UNL     1      -6.796  18.400  64.769  1.00  0.00     0.000 HD 
HETATM   27  O   UNL     1      -6.501  16.478  66.291  1.00  0.00    -0.125 OA 
HETATM   28  C   UNL     1     -11.790  18.167  67.460  1.00  0.00     2.172 C  
HETATM   29  C   UNL     1     -14.079  17.307  68.248  1.00  0.00     9.429 C  
HETATM   30  O   UNL     1      -7.674  18.670  65.011  1.00  0.00     0.448 OA 
HETATM   31  C   UNL     1      -6.858  20.193  66.683  1.00  0.00    -0.261 C  
HETATM   32  O   UNL     1     -11.923  18.854  68.493  1.00  0.00     2.578 OA 
HETATM   33  C   UNL     1     -10.716  18.757  66.417  1.00  0.00    -0.324 C  
HETATM   34  C   UNL     1     -10.625  18.263  65.001  1.00  0.00     1.165 C  
HETATM   35  C   UNL     1      -6.782  17.675  67.146  1.00  0.00    -0.165 C  
HETATM   36  C   UNL     1      -9.267  19.377  66.870  1.00  0.00    -0.322 C  
HETATM   37  C   UNL     1      -7.700  18.894  66.435  1.00  0.00    -0.273 C  
HETATM   38  O   UNL     1      -9.340  20.082  68.117  1.00  0.00    -0.323 OA 
HETATM   39  H   UNL     1      -8.500  20.441  68.379  1.00  0.00     0.000 HD 
BRANCH  13  40
HETATM   40  O   UNL     1     -10.081  14.811  68.849  1.00  0.00    -0.228 OA 
BRANCH  40  41
HETATM   41  C   UNL     1      -9.946  16.222  69.253  1.00  0.00    -0.259 C  
HETATM   42  C   UNL     1      -9.513  18.717  68.543  1.00  0.00    -0.358 C  
HETATM   43  C   UNL     1     -10.536  18.395  72.208  1.00  0.00     4.044 C  
HETATM   44  O   UNL     1     -10.310  17.317  66.888  1.00  0.00    -0.315 OA 
HETATM   45  C   UNL     1     -10.013  19.142  69.907  1.00  0.00     0.511 C  
HETATM   46  H   UNL     1     -10.549  18.032  66.309  1.00  0.00     0.000 HD 
HETATM   47  C   UNL     1      -9.879  17.954  70.913  1.00  0.00     3.801 C  
HETATM   48  C   UNL     1     -10.352  17.434  68.272  1.00  0.00    -0.374 C  
HETATM   49  O   UNL     1     -10.452  16.660  70.531  1.00  0.00     0.202 OA 
BRANCH  42  50
HETATM   50  N   UNL     1      -9.494  19.740  67.443  1.00  0.00    -0.326 NA 
HETATM   51  C   UNL     1      -9.668  19.290  66.064  1.00  0.00    -0.242 C  
HETATM   52  C   UNL     1     -10.312  20.927  67.688  1.00  0.00     0.448 C  
ENDBRANCH  42  50
ENDBRANCH  40  41
ENDBRANCH  13  40
BRANCH  35  53
HETATM   53  C   UNL     1      -7.517  17.106  68.307  1.00  0.00    -0.217 C  
HETATM   54  C   UNL     1      -8.528  16.230  67.582  1.00  0.00    -0.178 C  
ENDBRANCH  35  53
ENDBRANCH  11  12
ENDBRANCH   1  11
BRANCH   4  55
HETATM   55  O   UNL     1     -10.432   9.958  70.743  1.00  0.00    -0.290 OA 
HETATM   56  C   UNL     1     -10.859  11.301  70.931  1.00  0.00     1.986 C  
ENDBRANCH   4  55
TORSDOF 7
ENDMDL
MODEL      172
REMARK 921   NORMALIZED FREE ENERGY PREDICTED BY IDOCK:  104.01 KCAL/MOL
REMARK 922        TOTAL FREE ENERGY PREDICTED BY IDOCK:  143.88 KCAL/MOL
REMARK 923 INTER-LIGAND FREE ENERGY PREDICTED BY IDOCK:   92.21 KCAL/MOL
REMARK 924 INTRA-LIGAND FREE ENERGY PREDICTED BY IDOCK:   51.67 KCAL/MOL
REMARK 927      BINDING AFFINITY PREDICTED BY RF-SCORE:    0.00 PKD
ROOT
HETATM    1  C   UNL     1     -10.090   8.160  66.455  1.00  0.00    -0.126 C  
HETATM    2  O   UNL     1      -8.015   4.642  68.111  1.00  0.00    -0.084 OA 
HETATM    3  C   UNL     1      -8.541   7.902  66.205  1.00  0.00    -0.160 C  
HETATM    4  C   UNL     1      -7.764   6.905  67.150  1.00  0.00    -0.108 C  
HETATM    5  C   UNL     1     -10.851   4.962  68.352  1.00  0.00     0.695 C  
HETATM    6  C   UNL     1      -8.676   5.686  67.374  1.00  0.00    -0.107 C  
HETATM    7  C   UNL     1      -6.423   6.425  66.505  1.00  0.00    -0.047 C  
HETATM    8  O   UNL     1     -10.746   7.068  67.151  1.00  0.00    -0.301 OA 
HETATM    9  H   UNL     1      -8.577   3.889  68.249  1.00  0.00     0.000 HD 
HETATM   10  C   UNL     1      -9.985   6.184  68.001  1.00  0.00    -0.141 C  
ENDROOT
BRANCH   1  11
HETATM   11  O   UNL     1     -10.509   9.636  66.686  1.00  0.00    -0.221 OA 
BRANCH  11  12
HETATM   12  C   UNL     1      -9.453  10.681  66.593  1.00  0.00    -0.167 C  
HETATM   13  C   UNL     1     -10.976  12.207  68.401  1.00  0.00    -0.235 C  
HETATM   14  C   UNL     1      -7.208  12.095  67.531  1.00  0.00    -0.133 C  
HETATM   15  C   UNL     1     -10.184  12.024  66.929  1.00  0.00    -0.230 C  
HETATM   16  O   UNL     1      -6.845   8.472  67.763  1.00  0.00    -0.065 OA 
HETATM   17  C   UNL     1      -7.745  10.690  67.121  1.00  0.00    -0.110 C  
HETATM   18  C   UNL     1      -9.477  13.146  66.109  1.00  0.00    -0.156 C  
HETATM   19  C   UNL     1     -10.666  13.668  69.066  1.00  0.00    -0.165 C  
HETATM   20  O   UNL     1      -9.295  13.969  69.361  1.00  0.00     0.291 OA 
HETATM   21  C   UNL     1     -11.140  14.722  68.015  1.00  0.00    -0.294 C  
HETATM   22  C   UNL     1      -6.970   9.672  68.037  1.00  0.00    -0.078 C  
HETATM   23  C   UNL     1     -11.483  13.773  70.360  1.00  0.00    -0.023 C  
HETATM   24  C   UNL     1      -8.981  15.358  69.582  1.00  0.00    -0.156 C  
HETATM   25  C   UNL     1     -10.888  13.977  71.783  1.00  0.00     3.187 C  
HETATM   26  H   UNL     1      -4.780  11.385  70.720  1.00  0.00     0.000 HD 
HETATM   27  O   UNL     1      -6.297  10.212  69.164  1.00  0.00    -0.043 OA 
HETATM   28  C   UNL     1      -9.914  12.970  72.556  1.00  0.00    16.055 C  
HETATM   29  C   UNL     1     -12.239  14.062  72.600  1.00  0.00     0.183 C  
HETATM   30  O   UNL     1      -5.416  11.809  71.284  1.00  0.00    -0.335 OA 
HETATM   31  C   UNL     1      -5.457   9.953  72.813  1.00  0.00     0.210 C  
HETATM   32  O   UNL     1     -10.445  12.285  73.452  1.00  0.00    16.384 OA 
HETATM   33  C   UNL     1      -8.305  12.928  72.566  1.00  0.00    18.088 C  
HETATM   34  C   UNL     1      -7.476  13.903  71.779  1.00  0.00     5.122 C  
HETATM   35  C   UNL     1      -6.622   9.725  70.543  1.00  0.00    -0.117 C  
HETATM   36  C   UNL     1      -7.443  11.554  72.808  1.00  0.00    13.090 C  
HETATM   37  C   UNL     1      -6.306  10.798  71.800  1.00  0.00     1.615 C  
HETATM   38  O   UNL     1      -8.072  10.672  73.749  1.00  0.00     7.497 OA 
HETATM   39  H   UNL     1      -7.572   9.877  73.890  1.00  0.00     0.000 HD 
BRANCH  13  40
HETATM   40  O   UNL     1     -10.937  10.993  69.216  1.00  0.00    -0.223 OA 
BRANCH  40  41
HETATM   41  C   UNL     1     -11.817   9.968  69.804  1.00  0.00    -0.021 C  
HETATM   42  C   UNL     1     -12.679   7.483  69.780  1.00  0.00     1.937 C  
HETATM   43  C   UNL     1     -13.966   9.450  72.790  1.00  0.00    -0.112 C  
HETATM   44  O   UNL     1     -10.600   7.843  68.838  1.00  0.00    -0.284 OA 
HETATM   45  C   UNL     1     -13.284   7.730  71.145  1.00  0.00    -0.146 C  
HETATM   46  H   UNL     1     -10.369   6.921  68.840  1.00  0.00     0.000 HD 
HETATM   47  C   UNL     1     -13.506   9.262  71.355  1.00  0.00    -0.319 C  
HETATM   48  C   UNL     1     -11.424   8.405  69.807  1.00  0.00     0.262 C  
HETATM   49  O   UNL     1     -12.372  10.162  71.121  1.00  0.00    -0.322 OA 
BRANCH  42  50
HETATM   50  N   UNL     1     -12.447   6.062  69.353  1.00  0.00     2.845 NA 
HETATM   51  C   UNL     1     -11.148   5.703  68.787  1.00  0.00     0.132 C  
HETATM   52  C   UNL     1     -12.867   5.049  70.320  1.00  0.00    10.149 C  
ENDBRANCH  42  50
ENDBRANCH  40  41
ENDBRANCH  13  40
BRANCH  35  53
HETATM   53  C   UNL     1      -8.081   9.447  70.477  1.00  0.00    -0.212 C  
HETATM   54  C   UNL     1      -8.083   8.232  69.561  1.00  0.00    -0.114 C  
ENDBRANCH  35  53
ENDBRANCH  11  12
ENDBRANCH   1  11
BRANCH   4  55
HETATM   55  O   UNL     1      -7.479   7.640  68.356  1.00  0.00    -0.099 OA 
HETATM   56  C   UNL     1      -7.181   6.911  69.541  1.00  0.00    -0.081 C  
ENDBRANCH   4  55
TORSDOF 7
ENDMDL
MODEL      173
REMARK 921   NORMALIZED FREE ENERGY PREDICTED BY IDOCK:  105.54 KCAL/MOL
REMARK 922        TOTAL FREE ENERGY PREDICTED BY IDOCK:  146.05 KCAL/MOL
REMARK 923 INTER-LIGAND FREE ENERGY PREDICTED BY IDOCK:    6.00 KCAL/MOL
REMARK 924 INTRA-LIGAND FREE ENERGY PREDICTED BY IDOCK:  140.04 KCAL/MOL
REMARK 927      BINDING AFFINITY PREDICTED BY RF-SCORE:    0.00 PKD
ROOT
HETATM    1  C   UNL     1      -8.937   7.041  70.140  1.00  0.00    -0.145 C  
HETATM    2  O   UNL     1      -9.033   9.706  73.650  1.00  0.00     3.008 OA 
HETATM    3  C   UNL     1      -9.985   6.842  71.320  1.00  0.00    -0.189 C  
HETATM    4  C   UNL     1      -9.708   7.518  72.719  1.00  0.00    -0.187 C  
HETATM    5  C   UNL     1      -7.315  10.226  71.418  1.00  0.00     1.900 C  
HETATM    6  C   UNL     1      -9.189   8.940  72.442  1.00  0.00     0.149 C  
HETATM    7  C   UNL     1     -11.009   7.612  73.582  1.00  0.00     0.276 C  
HETATM    8  O   UNL     1      -8.137   8.243  70.285  1.00  0.00    -0.099 OA 
HETATM    9  H   UNL     1      -8.712  10.584  73.480  1.00  0.00     0.000 HD 
HETATM   10  C   UNL     1      -7.919   8.822  71.589  1.00  0.00    -0.085 C  
ENDROOT
BRANCH   1  11
HETATM   11  O   UNL     1      -8.349   5.745  69.522  1.00  0.00    -0.109 OA 
BRANCH  11  12
HETATM   12  C   UNL     1      -7.018   5.832  68.862  1.00  0.00    -0.068 C  
HETATM   13  C   UNL     1      -8.110   4.338  66.743  1.00  0.00    -0.101 C  
HETATM   14  C   UNL     1      -5.191   6.865  66.987  1.00  0.00    -0.016 C  
HETATM   15  C   UNL     1      -6.946   4.574  67.933  1.00  0.00    -0.056 C  
HETATM   16  O   UNL     1      -7.036   9.444  68.791  1.00  0.00    -0.067 OA 
HETATM   17  C   UNL     1      -6.119   7.223  68.188  1.00  0.00    -0.031 C  
HETATM   18  C   UNL     1      -5.450   4.139  67.868  1.00  0.00    -0.016 C  
HETATM   19  C   UNL     1      -7.432   3.859  65.334  1.00  0.00    -0.081 C  
HETATM   20  O   UNL     1      -6.486   4.754  64.732  1.00  0.00    -0.034 OA 
HETATM   21  C   UNL     1      -6.658   2.543  65.661  1.00  0.00    -0.031 C  
HETATM   22  C   UNL     1      -6.603   8.694  67.908  1.00  0.00    -0.061 C  
HETATM   23  C   UNL     1      -8.567   3.599  64.336  1.00  0.00    -0.097 C  
HETATM   24  C   UNL     1      -5.624   4.187  63.725  1.00  0.00    -0.013 C  
HETATM   25  C   UNL     1      -8.757   4.338  62.979  1.00  0.00    -0.111 C  
HETATM   26  H   UNL     1      -5.512  10.034  64.453  1.00  0.00     0.000 HD 
HETATM   27  O   UNL     1      -6.409   9.190  66.593  1.00  0.00    -0.064 OA 
HETATM   28  C   UNL     1      -9.029   5.901  62.782  1.00  0.00     0.437 C  
HETATM   29  C   UNL     1     -10.029   3.557  62.455  1.00  0.00    -0.120 C  
HETATM   30  O   UNL     1      -5.990   9.484  63.843  1.00  0.00    -0.086 OA 
HETATM   31  C   UNL     1      -7.785  11.072  63.652  1.00  0.00     0.563 C  
HETATM   32  O   UNL     1     -10.205   6.216  62.513  1.00  0.00     2.367 OA 
HETATM   33  C   UNL     1      -7.968   7.094  62.573  1.00  0.00    -0.125 C  
HETATM   34  C   UNL     1      -6.486   6.848  62.547  1.00  0.00    -0.047 C  
HETATM   35  C   UNL     1      -7.576   9.678  65.791  1.00  0.00    -0.103 C  
HETATM   36  C   UNL     1      -8.254   8.642  63.030  1.00  0.00    -0.179 C  
HETATM   37  C   UNL     1      -7.399   9.625  64.118  1.00  0.00    -0.122 C  
HETATM   38  O   UNL     1      -9.625   9.022  62.849  1.00  0.00    -0.196 OA 
HETATM   39  H   UNL     1      -9.791   9.919  63.114  1.00  0.00     0.000 HD 
BRANCH  13  40
HETATM   40  O   UNL     1      -9.148   5.367  66.758  1.00  0.00    -0.115 OA 
BRANCH  40  41
HETATM   41  C   UNL     1      -9.528   6.615  67.444  1.00  0.00    -0.129 C  
HETATM   42  C   UNL     1      -9.219   8.211  69.512  1.00  0.00    -0.158 C  
HETATM   43  C   UNL     1     -11.412   9.750  66.791  1.00  0.00     1.392 C  
HETATM   44  O   UNL     1      -7.453   6.795  69.052  1.00  0.00    -0.091 OA 
HETATM   45  C   UNL     1      -9.952   9.282  68.734  1.00  0.00    -0.193 C  
HETATM   46  H   UNL     1      -6.844   7.271  69.606  1.00  0.00     0.000 HD 
HETATM   47  C   UNL     1     -10.831   8.622  67.625  1.00  0.00    -0.010 C  
HETATM   48  C   UNL     1      -8.495   7.423  68.381  1.00  0.00    -0.125 C  
HETATM   49  O   UNL     1     -10.190   7.668  66.714  1.00  0.00    -0.267 OA 
BRANCH  42  50
HETATM   50  N   UNL     1      -8.367   8.634  70.674  1.00  0.00    -0.129 NA 
HETATM   51  C   UNL     1      -7.432   9.742  70.491  1.00  0.00    -0.101 C  
HETATM   52  C   UNL     1      -9.081   8.788  71.941  1.00  0.00    -0.220 C  
ENDBRANCH  42  50
ENDBRANCH  40  41
ENDBRANCH  13  40
BRANCH  35  53
HETATM   53  C   UNL     1      -8.683   8.775  66.205  1.00  0.00    -0.184 C  
HETATM   54  C   UNL     1      -9.202   8.341  64.842  1.00  0.00     0.533 C  
ENDBRANCH  35  53
ENDBRANCH  11  12
ENDBRANCH   1  11
BRANCH   4  55
HETATM   55  O   UNL     1      -8.750   6.675  73.387  1.00  0.00    -0.122 OA 
HETATM   56  C   UNL     1      -7.790   7.283  74.242  1.00  0.00    -0.135 C  
ENDBRANCH   4  55
TORSDOF 7
ENDMDL
MODEL      174
REMARK 921   NORMALIZED FREE ENERGY PREDICTED BY IDOCK:  105.96 KCAL/MOL
REMARK 922        TOTAL FREE ENERGY PREDICTED BY IDOCK:  146.64 KCAL/MOL
REMARK 923 INTER-LIGAND FREE ENERGY PREDICTED BY IDOCK:   59.99 KCAL/MOL
REMARK 924 INTRA-LIGAND FREE ENERGY PREDICTED BY IDOCK:   86.64 KCAL/MOL
REMARK 927      BINDING AFFINITY PREDICTED BY RF-SCORE:    0.00 PKD
ROOT
HETATM    1  C   UNL     1     -12.632  10.921  68.462  1.00  0.00     1.351 C  
HETATM    2  O   UNL     1      -9.574   7.777  68.903  1.00  0.00    -0.153 OA 
HETATM    3  C   UNL     1     -12.591   9.648  67.510  1.00  0.00     7.614 C  
HETATM    4  C   UNL     1     -11.264   8.799  67.416  1.00  0.00     0.727 C  
HETATM    5  C   UNL     1      -9.792   9.931  70.778  1.00  0.00     0.060 C  
HETATM    6  C   UNL     1     -10.713   8.654  68.846  1.00  0.00    -0.082 C  
HETATM    7  C   UNL     1     -11.531   7.374  66.828  1.00  0.00     1.448 C  
HETATM    8  O   UNL     1     -11.663  10.859  69.541  1.00  0.00    -0.275 OA 
HETATM    9  H   UNL     1      -9.234   7.688  69.785  1.00  0.00     0.000 HD 
HETATM   10  C   UNL     1     -10.467  10.063  69.402  1.00  0.00    -0.232 C  
ENDROOT
BRANCH   1  11
HETATM   11  O   UNL     1     -13.008  12.267  67.787  1.00  0.00     1.678 OA 
BRANCH  11  12
HETATM   12  C   UNL     1     -12.676  12.439  66.347  1.00  0.00     1.448 C  
HETATM   13  C   UNL     1     -11.624  14.961  67.016  1.00  0.00    -0.304 C  
HETATM   14  C   UNL     1     -10.927  12.466  64.143  1.00  0.00    -0.416 C  
HETATM   15  C   UNL     1     -12.661  13.987  66.118  1.00  0.00    -0.407 C  
HETATM   16  O   UNL     1     -10.563   9.510  66.250  1.00  0.00    -0.117 OA 
HETATM   17  C   UNL     1     -11.513  11.587  65.289  1.00  0.00    -0.091 C  
HETATM   18  C   UNL     1     -13.134  14.238  64.654  1.00  0.00     0.494 C  
HETATM   19  C   UNL     1     -10.894  16.080  66.074  1.00  0.00    -0.190 C  
HETATM   20  O   UNL     1     -10.079  15.591  64.999  1.00  0.00    -0.352 OA 
HETATM   21  C   UNL     1     -12.049  16.905  65.421  1.00  0.00     2.848 C  
HETATM   22  C   UNL     1     -10.363  10.581  65.664  1.00  0.00    -0.204 C  
HETATM   23  C   UNL     1     -10.030  16.962  66.984  1.00  0.00    -0.279 C  
HETATM   24  C   UNL     1      -9.754  16.539  63.963  1.00  0.00     6.361 C  
HETATM   25  C   UNL     1      -8.488  17.135  66.868  1.00  0.00    -0.249 C  
HETATM   26  H   UNL     1      -7.034  11.313  63.843  1.00  0.00     0.000 HD 
HETATM   27  O   UNL     1      -9.062  10.893  65.188  1.00  0.00    -0.197 OA 
HETATM   28  C   UNL     1      -7.391  15.986  67.050  1.00  0.00    -0.223 C  
HETATM   29  C   UNL     1      -8.275  18.192  68.025  1.00  0.00    -0.266 C  
HETATM   30  O   UNL     1      -6.770  12.153  64.200  1.00  0.00     4.143 OA 
HETATM   31  C   UNL     1      -5.380  11.127  65.872  1.00  0.00    -0.106 C  
HETATM   32  O   UNL     1      -6.778  15.990  68.135  1.00  0.00    -0.115 OA 
HETATM   33  C   UNL     1      -6.743  15.021  65.936  1.00  0.00     5.905 C  
HETATM   34  C   UNL     1      -7.137  15.096  64.489  1.00  0.00    16.747 C  
HETATM   35  C   UNL     1      -7.925  11.053  66.149  1.00  0.00    -0.129 C  
HETATM   36  C   UNL     1      -6.176  13.519  66.268  1.00  0.00     4.237 C  
HETATM   37  C   UNL     1      -6.647  12.018  65.630  1.00  0.00     2.355 C  
HETATM   38  O   UNL     1      -5.560  13.439  67.561  1.00  0.00    -0.304 OA 
HETATM   39  H   UNL     1      -5.231  12.569  67.753  1.00  0.00     0.000 HD 
BRANCH  13  40
HETATM   40  O   UNL     1     -10.859  14.205  68.006  1.00  0.00    -0.240 OA 
BRANCH  40  41
HETATM   41  C   UNL     1      -9.649  14.292  68.843  1.00  0.00    -0.084 C  
HETATM   42  C   UNL     1      -7.292  13.309  69.471  1.00  0.00     0.438 C  
HETATM   43  C   UNL     1      -8.005  16.630  71.217  1.00  0.00     6.737 C  
HETATM   44  O   UNL     1      -8.065  12.812  67.352  1.00  0.00    -0.168 OA 
HETATM   45  C   UNL     1      -7.012  14.591  70.226  1.00  0.00     0.133 C  
HETATM   46  H   UNL     1      -7.214  12.524  67.039  1.00  0.00     0.000 HD 
HETATM   47  C   UNL     1      -8.358  15.286  70.605  1.00  0.00     1.750 C  
HETATM   48  C   UNL     1      -8.207  13.805  68.314  1.00  0.00    -0.156 C  
HETATM   49  O   UNL     1      -9.338  15.516  69.539  1.00  0.00    -0.270 OA 
BRANCH  42  50
HETATM   50  N   UNL     1      -6.126  12.451  69.072  1.00  0.00    -0.071 NA 
HETATM   51  C   UNL     1      -6.384  11.092  68.601  1.00  0.00    -0.047 C  
HETATM   52  C   UNL     1      -5.147  13.102  68.202  1.00  0.00    -0.094 C  
ENDBRANCH  42  50
ENDBRANCH  40  41
ENDBRANCH  13  40
BRANCH  35  53
HETATM   53  C   UNL     1      -8.565  11.669  67.342  1.00  0.00    -0.149 C  
HETATM   54  C   UNL     1      -8.925  10.419  68.131  1.00  0.00    -0.132 C  
ENDBRANCH  35  53
ENDBRANCH  11  12
ENDBRANCH   1  11
BRANCH   4  55
HETATM   55  O   UNL     1     -10.388   9.525  66.532  1.00  0.00    -0.242 OA 
HETATM   56  C   UNL     1      -9.094   9.882  67.002  1.00  0.00    -0.138 C  
ENDBRANCH   4  55
TORSDOF 7
ENDMDL
MODEL      175
REMARK 921   NORMALIZED FREE ENERGY PREDICTED BY IDOCK:  106.22 KCAL/MOL
REMARK 922        TOTAL FREE ENERGY PREDICTED BY IDOCK:  147.00 KCAL/MOL
REMARK 923 INTER-LIGAND FREE ENERGY PREDICTED BY IDOCK:  100.24 KCAL/MOL
REMARK 924 INTRA-LIGAND FREE ENERGY PREDICTED BY IDOCK:   46.77 KCAL/MOL
REMARK 927      BINDING AFFINITY PREDICTED BY RF-SCORE:    0.00 PKD
ROOT
HETATM    1  C   UNL     1     -11.380  11.171  67.737  1.00  0.00    -0.293 C  
HETATM    2  O   UNL     1      -8.656   7.709  67.585  1.00  0.00    -0.116 OA 
HETATM    3  C   UNL     1      -9.945  11.198  68.421  1.00  0.00    -0.193 C  
HETATM    4  C   UNL     1      -9.206   9.835  68.718  1.00  0.00    -0.143 C  
HETATM    5  C   UNL     1     -11.127   7.739  66.135  1.00  0.00     2.501 C  
HETATM    6  C   UNL     1      -9.406   8.933  67.488  1.00  0.00    -0.136 C  
HETATM    7  C   UNL     1      -7.674  10.048  68.948  1.00  0.00    -0.089 C  
HETATM    8  O   UNL     1     -11.622   9.965  66.966  1.00  0.00     0.383 OA 
HETATM    9  H   UNL     1      -8.779   7.151  66.826  1.00  0.00     0.000 HD 
HETATM   10  C   UNL     1     -10.915   8.746  67.279  1.00  0.00     0.181 C  
ENDROOT
BRANCH   1  11
HETATM   11  O   UNL     1     -12.522  11.879  68.513  1.00  0.00    -0.146 OA 
BRANCH  11  12
HETATM   12  C   UNL     1     -12.597  11.666  69.984  1.00  0.00     0.019 C  
HETATM   13  C   UNL     1      -9.816  11.245  69.941  1.00  0.00     1.047 C  
HETATM   14  C   UNL     1     -12.281  12.448  72.669  1.00  0.00     2.908 C  
HETATM   15  C   UNL     1     -11.376  10.747  70.322  1.00  0.00    -0.374 C  
HETATM   16  O   UNL     1     -13.969  14.948  70.618  1.00  0.00    -0.059 OA 
HETATM   17  C   UNL     1     -12.994  12.782  71.324  1.00  0.00    -0.310 C  
HETATM   18  C   UNL     1     -11.797   9.852  71.528  1.00  0.00    -0.445 C  
HETATM   19  C   UNL     1      -8.778  10.941  71.168  1.00  0.00     5.641 C  
HETATM   20  O   UNL     1      -9.056  11.575  72.425  1.00  0.00    15.259 OA 
HETATM   21  C   UNL     1      -8.853   9.401  71.417  1.00  0.00     0.242 C  
HETATM   22  C   UNL     1     -13.144  14.348  71.317  1.00  0.00    -0.351 C  
HETATM   23  C   UNL     1      -7.376  11.359  70.706  1.00  0.00     2.930 C  
HETATM   24  C   UNL     1      -8.388  11.026  73.578  1.00  0.00    15.723 C  
HETATM   25  C   UNL     1      -6.490  12.440  71.389  1.00  0.00     2.584 C  
HETATM   26  H   UNL     1     -11.352  16.071  74.276  1.00  0.00     0.000 HD 
HETATM   27  O   UNL     1     -12.360  15.068  72.257  1.00  0.00    -0.323 OA 
HETATM   28  C   UNL     1      -6.836  13.995  71.531  1.00  0.00     2.002 C  
HETATM   29  C   UNL     1      -5.206  12.314  70.475  1.00  0.00    -0.126 C  
HETATM   30  O   UNL     1     -10.434  15.898  74.106  1.00  0.00     4.992 OA 
HETATM   31  C   UNL     1     -10.134  18.002  72.982  1.00  0.00     6.879 C  
HETATM   32  O   UNL     1      -6.235  14.757  70.748  1.00  0.00    -0.130 OA 
HETATM   33  C   UNL     1      -7.599  14.757  72.726  1.00  0.00     5.767 C  
HETATM   34  C   UNL     1      -8.121  14.028  73.932  1.00  0.00     8.433 C  
HETATM   35  C   UNL     1     -11.401  16.120  71.791  1.00  0.00    -0.126 C  
HETATM   36  C   UNL     1      -8.462  16.134  72.509  1.00  0.00    13.223 C  
HETATM   37  C   UNL     1     -10.103  16.443  72.813  1.00  0.00     6.996 C  
HETATM   38  O   UNL     1      -7.874  16.999  71.527  1.00  0.00     7.178 OA 
HETATM   39  H   UNL     1      -8.374  17.797  71.402  1.00  0.00     0.000 HD 
BRANCH  13  40
HETATM   40  O   UNL     1      -9.789  12.529  69.243  1.00  0.00     0.339 OA 
BRANCH  40  41
HETATM   41  C   UNL     1      -9.664  13.107  67.894  1.00  0.00    -0.221 C  
HETATM   42  C   UNL     1     -10.602  13.282  65.442  1.00  0.00    -0.296 C  
HETATM   43  C   UNL     1      -7.789  15.775  66.113  1.00  0.00     0.607 C  
HETATM   44  O   UNL     1     -12.114  12.627  67.061  1.00  0.00    -0.480 OA 
HETATM   45  C   UNL     1      -9.719  14.495  65.242  1.00  0.00    -0.088 C  
HETATM   46  H   UNL     1     -12.871  12.784  66.508  1.00  0.00     0.000 HD 
HETATM   47  C   UNL     1      -8.539  14.464  66.265  1.00  0.00     0.410 C  
HETATM   48  C   UNL     1     -10.948  13.376  66.957  1.00  0.00    -0.287 C  
HETATM   49  O   UNL     1      -8.862  14.288  67.684  1.00  0.00    -0.177 OA 
BRANCH  42  50
HETATM   50  N   UNL     1     -11.762  13.086  64.509  1.00  0.00    -0.349 NA 
HETATM   51  C   UNL     1     -12.751  14.155  64.385  1.00  0.00    -0.001 C  
HETATM   52  C   UNL     1     -11.411  12.576  63.184  1.00  0.00    -0.153 C  
ENDBRANCH  42  50
ENDBRANCH  40  41
ENDBRANCH  13  40
BRANCH  35  53
HETATM   53  C   UNL     1     -10.899  15.583  70.499  1.00  0.00    -0.353 C  
HETATM   54  C   UNL     1     -11.480  16.608  69.537  1.00  0.00     0.168 C  
ENDBRANCH  35  53
ENDBRANCH  11  12
ENDBRANCH   1  11
BRANCH   4  55
HETATM   55  O   UNL     1      -9.803   9.312  69.920  1.00  0.00    -0.178 OA 
HETATM   56  C   UNL     1     -10.614   8.147  69.823  1.00  0.00    -0.231 C  
ENDBRANCH   4  55
TORSDOF 7
ENDMDL
MODEL      176
REMARK 921   NORMALIZED FREE ENERGY PREDICTED BY IDOCK:  106.25 KCAL/MOL
REMARK 922        TOTAL FREE ENERGY PREDICTED BY IDOCK:  147.04 KCAL/MOL
REMARK 923 INTER-LIGAND FREE ENERGY PREDICTED BY IDOCK:   57.35 KCAL/MOL
REMARK 924 INTRA-LIGAND FREE ENERGY PREDICTED BY IDOCK:   89.70 KCAL/MOL
REMARK 927      BINDING AFFINITY PREDICTED BY RF-SCORE:    0.00 PKD
ROOT
HETATM    1  C   UNL     1      -9.275   8.756  66.807  1.00  0.00    -0.169 C  
HETATM    2  O   UNL     1     -12.767   8.797  69.497  1.00  0.00     1.588 OA 
HETATM    3  C   UNL     1      -9.475   9.885  67.910  1.00  0.00    -0.149 C  
HETATM    4  C   UNL     1     -10.908  10.109  68.531  1.00  0.00    -0.237 C  
HETATM    5  C   UNL     1     -12.288   6.624  67.692  1.00  0.00     4.656 C  
HETATM    6  C   UNL     1     -11.511   8.719  68.799  1.00  0.00     0.861 C  
HETATM    7  C   UNL     1     -10.835  10.898  69.880  1.00  0.00    -0.205 C  
HETATM    8  O   UNL     1     -10.271   7.703  66.881  1.00  0.00    -0.255 OA 
HETATM    9  H   UNL     1     -13.139   7.939  69.662  1.00  0.00     0.000 HD 
HETATM   10  C   UNL     1     -11.566   7.963  67.464  1.00  0.00     1.792 C  
ENDROOT
BRANCH   1  11
HETATM   11  O   UNL     1      -8.691   9.224  65.448  1.00  0.00    -0.156 OA 
BRANCH  11  12
HETATM   12  C   UNL     1      -9.475  10.212  64.657  1.00  0.00    -0.297 C  
HETATM   13  C   UNL     1     -10.841  10.844  67.034  1.00  0.00    -0.266 C  
HETATM   14  C   UNL     1     -10.116  12.807  63.781  1.00  0.00    -0.039 C  
HETATM   15  C   UNL     1     -10.831  10.356  65.425  1.00  0.00     0.213 C  
HETATM   16  O   UNL     1      -6.546  12.070  63.647  1.00  0.00     3.248 OA 
HETATM   17  C   UNL     1      -8.992  11.729  63.844  1.00  0.00     0.463 C  
HETATM   18  C   UNL     1     -11.930  10.651  64.359  1.00  0.00     2.800 C  
HETATM   19  C   UNL     1     -12.009  11.953  67.313  1.00  0.00     0.010 C  
HETATM   20  O   UNL     1     -11.930  13.179  66.571  1.00  0.00    -0.390 OA 
HETATM   21  C   UNL     1     -13.352  11.268  66.904  1.00  0.00     9.599 C  
HETATM   22  C   UNL     1      -7.649  12.542  63.947  1.00  0.00     6.906 C  
HETATM   23  C   UNL     1     -11.991  12.283  68.811  1.00  0.00    -0.281 C  
HETATM   24  C   UNL     1     -13.131  13.976  66.528  1.00  0.00     0.984 C  
HETATM   25  C   UNL     1     -11.731  13.692  69.418  1.00  0.00    -0.379 C  
HETATM   26  H   UNL     1      -8.189  16.346  64.362  1.00  0.00     0.000 HD 
HETATM   27  O   UNL     1      -7.759  13.915  64.291  1.00  0.00    10.570 OA 
HETATM   28  C   UNL     1     -10.389  14.550  69.279  1.00  0.00    -0.142 C  
HETATM   29  C   UNL     1     -11.918  13.335  70.947  1.00  0.00    -0.090 C  
HETATM   30  O   UNL     1      -8.601  16.417  65.215  1.00  0.00     0.414 OA 
HETATM   31  C   UNL     1      -6.500  16.814  66.315  1.00  0.00     0.216 C  
HETATM   32  O   UNL     1      -9.649  14.564  70.283  1.00  0.00     0.732 OA 
HETATM   33  C   UNL     1      -9.997  15.641  68.163  1.00  0.00    -0.217 C  
HETATM   34  C   UNL     1     -10.923  15.995  67.034  1.00  0.00    -0.154 C  
HETATM   35  C   UNL     1      -7.053  14.450  65.499  1.00  0.00     8.903 C  
HETATM   36  C   UNL     1      -8.451  15.958  67.717  1.00  0.00    -0.158 C  
HETATM   37  C   UNL     1      -7.717  15.832  66.193  1.00  0.00     0.827 C  
HETATM   38  O   UNL     1      -7.536  15.873  68.819  1.00  0.00    -0.148 OA 
HETATM   39  H   UNL     1      -6.640  16.057  68.561  1.00  0.00     0.000 HD 
BRANCH  13  40
HETATM   40  O   UNL     1      -9.495  11.027  67.575  1.00  0.00    -0.162 OA 
BRANCH  40  41
HETATM   41  C   UNL     1      -8.544  10.433  68.531  1.00  0.00    -0.134 C  
HETATM   42  C   UNL     1      -7.516   8.262  69.603  1.00  0.00    -0.081 C  
HETATM   43  C   UNL     1      -5.678  11.433  70.673  1.00  0.00    -0.119 C  
HETATM   44  O   UNL     1      -8.471   8.006  67.515  1.00  0.00    -0.125 OA 
HETATM   45  C   UNL     1      -6.405   9.122  70.165  1.00  0.00    -0.044 C  
HETATM   46  H   UNL     1      -8.068   7.159  67.363  1.00  0.00     0.000 HD 
HETATM   47  C   UNL     1      -6.880  10.608  70.252  1.00  0.00    -0.038 C  
HETATM   48  C   UNL     1      -7.859   8.997  68.274  1.00  0.00    -0.100 C  
HETATM   49  O   UNL     1      -7.452  11.220  69.049  1.00  0.00    -0.121 OA 
BRANCH  42  50
HETATM   50  N   UNL     1      -7.284   6.781  69.499  1.00  0.00    -0.079 NA 
HETATM   51  C   UNL     1      -6.402   6.281  68.447  1.00  0.00    -0.047 C  
HETATM   52  C   UNL     1      -6.981   6.113  70.764  1.00  0.00    -0.067 C  
ENDBRANCH  42  50
ENDBRANCH  40  41
ENDBRANCH  13  40
BRANCH  35  53
HETATM   53  C   UNL     1      -7.121  13.323  66.466  1.00  0.00     1.812 C  
HETATM   54  C   UNL     1      -5.667  12.874  66.461  1.00  0.00     1.850 C  
ENDBRANCH  35  53
ENDBRANCH  11  12
ENDBRANCH   1  11
BRANCH   4  55
HETATM   55  O   UNL     1     -11.646  10.881  67.564  1.00  0.00    -0.526 OA 
HETATM   56  C   UNL     1     -12.945  11.344  67.913  1.00  0.00     4.276 C  
ENDBRANCH   4  55
TORSDOF 7
ENDMDL
MODEL      177
REMARK 921   NORMALIZED FREE ENERGY PREDICTED BY IDOCK:  107.82 KCAL/MOL
REMARK 922        TOTAL FREE ENERGY PREDICTED BY IDOCK:  149.25 KCAL/MOL
REMARK 923 INTER-LIGAND FREE ENERGY PREDICTED BY IDOCK:   53.02 KCAL/MOL
REMARK 924 INTRA-LIGAND FREE ENERGY PREDICTED BY IDOCK:   96.23 KCAL/MOL
REMARK 927      BINDING AFFINITY PREDICTED BY RF-SCORE:    0.00 PKD
ROOT
HETATM    1  C   UNL     1     -10.485  13.178  71.740  1.00  0.00     8.582 C  
HETATM    2  O   UNL     1      -8.046  16.228  69.696  1.00  0.00    -0.023 OA 
HETATM    3  C   UNL     1      -8.932  13.352  72.037  1.00  0.00    15.045 C  
HETATM    4  C   UNL     1      -8.031  14.129  70.999  1.00  0.00     3.811 C  
HETATM    5  C   UNL     1     -10.886  16.093  69.342  1.00  0.00    -0.320 C  
HETATM    6  C   UNL     1      -8.826  15.365  70.543  1.00  0.00     1.417 C  
HETATM    7  C   UNL     1      -6.686  14.599  71.642  1.00  0.00     1.255 C  
HETATM    8  O   UNL     1     -11.014  14.196  70.851  1.00  0.00     0.442 OA 
HETATM    9  H   UNL     1      -8.537  16.991  69.414  1.00  0.00     0.000 HD 
HETATM   10  C   UNL     1     -10.143  14.878  69.923  1.00  0.00     0.057 C  
ENDROOT
BRANCH   1  11
HETATM   11  O   UNL     1     -11.016  11.720  71.710  1.00  0.00     4.370 OA 
BRANCH  11  12
HETATM   12  C   UNL     1     -11.989  11.358  70.644  1.00  0.00    -0.314 C  
HETATM   13  C   UNL     1     -10.875  13.425  69.095  1.00  0.00    -0.114 C  
HETATM   14  C   UNL     1     -12.742  10.154  68.214  1.00  0.00     4.135 C  
HETATM   15  C   UNL     1     -12.192  12.672  69.819  1.00  0.00    -0.209 C  
HETATM   16  O   UNL     1     -10.770   7.968  70.368  1.00  0.00    -0.225 OA 
HETATM   17  C   UNL     1     -12.144   9.893  69.630  1.00  0.00     0.218 C  
HETATM   18  C   UNL     1     -13.660  12.658  69.291  1.00  0.00     4.527 C  
HETATM   19  C   UNL     1     -11.227  13.907  67.573  1.00  0.00    -0.303 C  
HETATM   20  O   UNL     1     -11.608  12.885  66.641  1.00  0.00    -0.333 OA 
HETATM   21  C   UNL     1     -12.450  14.871  67.704  1.00  0.00     0.545 C  
HETATM   22  C   UNL     1     -11.146   8.692  69.438  1.00  0.00     0.086 C  
HETATM   23  C   UNL     1     -10.000  14.643  67.021  1.00  0.00    -0.246 C  
HETATM   24  C   UNL     1     -12.272  13.331  65.441  1.00  0.00    -0.456 C  
HETATM   25  C   UNL     1      -9.190  14.220  65.761  1.00  0.00     0.187 C  
HETATM   26  H   UNL     1     -10.673   7.667  65.743  1.00  0.00     0.000 HD 
HETATM   27  O   UNL     1     -10.772   8.379  68.105  1.00  0.00    -0.152 OA 
HETATM   28  C   UNL     1      -8.376  12.857  65.573  1.00  0.00     2.201 C  
HETATM   29  C   UNL     1      -8.148  15.411  65.733  1.00  0.00     1.955 C  
HETATM   30  O   UNL     1     -10.245   8.423  65.359  1.00  0.00     1.024 OA 
HETATM   31  C   UNL     1      -8.056   7.479  65.676  1.00  0.00    -0.128 C  
HETATM   32  O   UNL     1      -7.138  12.945  65.688  1.00  0.00     3.204 OA 
HETATM   33  C   UNL     1      -8.877  11.457  64.956  1.00  0.00     0.149 C  
HETATM   34  C   UNL     1     -10.281  11.262  64.457  1.00  0.00    -0.370 C  
HETATM   35  C   UNL     1      -9.328   8.388  67.705  1.00  0.00    -0.134 C  
HETATM   36  C   UNL     1      -8.248  10.006  65.389  1.00  0.00    -0.149 C  
HETATM   37  C   UNL     1      -9.014   8.655  66.073  1.00  0.00    -0.184 C  
HETATM   38  O   UNL     1      -6.839  10.076  65.648  1.00  0.00    -0.099 OA 
HETATM   39  H   UNL     1      -6.474   9.235  65.898  1.00  0.00     0.000 HD 
BRANCH  13  40
HETATM   40  O   UNL     1      -9.610  12.755  69.391  1.00  0.00     0.668 OA 
BRANCH  40  41
HETATM   41  C   UNL     1      -9.035  11.415  69.604  1.00  0.00     1.048 C  
HETATM   42  C   UNL     1      -7.241   9.618  68.916  1.00  0.00    -0.072 C  
HETATM   43  C   UNL     1      -9.189   8.617  72.044  1.00  0.00    -0.338 C  
HETATM   44  O   UNL     1      -6.727  11.812  68.403  1.00  0.00    -0.059 OA 
HETATM   45  C   UNL     1      -7.566   8.874  70.193  1.00  0.00    -0.074 C  
HETATM   46  H   UNL     1      -5.809  11.626  68.241  1.00  0.00     0.000 HD 
HETATM   47  C   UNL     1      -8.992   9.275  70.690  1.00  0.00    -0.243 C  
HETATM   48  C   UNL     1      -7.478  11.100  69.331  1.00  0.00    -0.026 C  
HETATM   49  O   UNL     1      -9.296  10.703  70.831  1.00  0.00     1.555 OA 
BRANCH  42  50
HETATM   50  N   UNL     1      -5.936   9.323  68.234  1.00  0.00    -0.045 NA 
HETATM   51  C   UNL     1      -5.395   7.967  68.312  1.00  0.00    -0.033 C  
HETATM   52  C   UNL     1      -5.825   9.826  66.865  1.00  0.00    -0.051 C  
ENDBRANCH  42  50
ENDBRANCH  40  41
ENDBRANCH  13  40
BRANCH  35  53
HETATM   53  C   UNL     1      -8.751   9.494  68.514  1.00  0.00    -0.124 C  
HETATM   54  C   UNL     1      -9.401   9.212  69.860  1.00  0.00    -0.198 C  
ENDBRANCH  35  53
ENDBRANCH  11  12
ENDBRANCH   1  11
BRANCH   4  55
HETATM   55  O   UNL     1      -7.755  13.196  69.936  1.00  0.00     1.039 OA 
HETATM   56  C   UNL     1      -8.818  12.820  69.070  1.00  0.00     0.521 C  
ENDBRANCH   4  55
TORSDOF 7
ENDMDL
MODEL      178
REMARK 921   NORMALIZED FREE ENERGY PREDICTED BY IDOCK:  111.40 KCAL/MOL
REMARK 922        TOTAL FREE ENERGY PREDICTED BY IDOCK:  154.30 KCAL/MOL
REMARK 923 INTER-LIGAND FREE ENERGY PREDICTED BY IDOCK:   95.41 KCAL/MOL
REMARK 924 INTRA-LIGAND FREE ENERGY PREDICTED BY IDOCK:   58.90 KCAL/MOL
REMARK 927      BINDING AFFINITY PREDICTED BY RF-SCORE:    0.00 PKD
ROOT
HETATM    1  C   UNL     1     -12.088  10.826  66.772  1.00  0.00     2.333 C  
HETATM    2  O   UNL     1      -9.426  12.926  69.589  1.00  0.00     0.688 OA 
HETATM    3  C   UNL     1     -12.118  12.407  66.939  1.00  0.00    -0.097 C  
HETATM    4  C   UNL     1     -11.487  13.058  68.231  1.00  0.00    -0.312 C  
HETATM    5  C   UNL     1      -9.187  10.111  69.113  1.00  0.00    -0.204 C  
HETATM    6  C   UNL     1     -10.163  12.324  68.510  1.00  0.00    -0.206 C  
HETATM    7  C   UNL     1     -11.189  14.579  68.024  1.00  0.00    -0.308 C  
HETATM    8  O   UNL     1     -11.024  10.192  67.529  1.00  0.00    -0.298 OA 
HETATM    9  H   UNL     1      -8.609  12.473  69.761  1.00  0.00     0.000 HD 
HETATM   10  C   UNL     1     -10.480  10.835  68.702  1.00  0.00    -0.192 C  
ENDROOT
BRANCH   1  11
HETATM   11  O   UNL     1     -13.462  10.134  66.571  1.00  0.00    12.924 OA 
BRANCH  11  12
HETATM   12  C   UNL     1     -13.806   8.998  67.470  1.00  0.00    21.843 C  
HETATM   13  C   UNL     1     -11.494   7.708  66.521  1.00  0.00     2.586 C  
HETATM   14  C   UNL     1     -13.527   7.448  69.802  1.00  0.00     3.890 C  
HETATM   15  C   UNL     1     -13.151   7.743  66.803  1.00  0.00    15.539 C  
HETATM   16  O   UNL     1     -13.707  11.033  70.454  1.00  0.00     0.808 OA 
HETATM   17  C   UNL     1     -13.852   8.870  69.253  1.00  0.00     7.017 C  
HETATM   18  C   UNL     1     -14.063   6.522  67.131  1.00  0.00    22.025 C  
HETATM   19  C   UNL     1     -10.850   6.262  66.935  1.00  0.00    -0.354 C  
HETATM   20  O   UNL     1     -10.986   5.860  68.305  1.00  0.00    -0.274 OA 
HETATM   21  C   UNL     1     -11.609   5.199  66.079  1.00  0.00     1.334 C  
HETATM   22  C   UNL     1     -13.313   9.865  70.347  1.00  0.00     0.257 C  
HETATM   23  C   UNL     1      -9.359   6.297  66.577  1.00  0.00    -0.173 C  
HETATM   24  C   UNL     1     -10.769   4.463  68.584  1.00  0.00     1.389 C  
HETATM   25  C   UNL     1      -8.189   6.118  67.587  1.00  0.00    -0.113 C  
HETATM   26  H   UNL     1     -11.346   8.114  73.174  1.00  0.00     0.000 HD 
HETATM   27  O   UNL     1     -12.423   9.329  71.313  1.00  0.00    -0.310 OA 
HETATM   28  C   UNL     1      -7.849   7.076  68.822  1.00  0.00    -0.118 C  
HETATM   29  C   UNL     1      -6.979   6.194  66.571  1.00  0.00    -0.067 C  
HETATM   30  O   UNL     1     -10.577   7.777  72.729  1.00  0.00    -0.281 OA 
HETATM   31  C   UNL     1      -9.265   9.707  73.306  1.00  0.00     5.008 C  
HETATM   32  O   UNL     1      -6.886   7.851  68.656  1.00  0.00    -0.059 OA 
HETATM   33  C   UNL     1      -8.356   6.981  70.346  1.00  0.00    -0.129 C  
HETATM   34  C   UNL     1      -9.288   5.897  70.810  1.00  0.00    -0.180 C  
HETATM   35  C   UNL     1     -11.055   9.914  71.485  1.00  0.00     0.002 C  
HETATM   36  C   UNL     1      -8.510   8.285  71.327  1.00  0.00    -0.136 C  
HETATM   37  C   UNL     1      -9.884   8.886  72.122  1.00  0.00    -0.182 C  
HETATM   38  O   UNL     1      -7.490   9.267  71.096  1.00  0.00    -0.243 OA 
HETATM   39  H   UNL     1      -7.579  10.023  71.665  1.00  0.00     0.000 HD 
BRANCH  13  40
HETATM   40  O   UNL     1     -10.831   8.955  66.901  1.00  0.00    -0.162 OA 
BRANCH  40  41
HETATM   41  C   UNL     1      -9.591   9.718  66.678  1.00  0.00    -0.187 C  
HETATM   42  C   UNL     1      -8.070  11.073  65.013  1.00  0.00     0.246 C  
HETATM   43  C   UNL     1      -6.817  11.252  68.615  1.00  0.00    -0.076 C  
HETATM   44  O   UNL     1     -10.312  10.949  64.466  1.00  0.00    -0.325 OA 
HETATM   45  C   UNL     1      -7.295  11.581  66.209  1.00  0.00     0.133 C  
HETATM   46  H   UNL     1     -10.261  11.652  63.828  1.00  0.00     0.000 HD 
HETATM   47  C   UNL     1      -7.487  10.607  67.415  1.00  0.00    -0.094 C  
HETATM   48  C   UNL     1      -9.504  10.910  65.597  1.00  0.00    -0.215 C  
HETATM   49  O   UNL     1      -8.856  10.248  67.800  1.00  0.00    -0.125 OA 
BRANCH  42  50
HETATM   50  N   UNL     1      -7.964  11.834  63.722  1.00  0.00     1.760 NA 
HETATM   51  C   UNL     1      -6.967  11.413  62.740  1.00  0.00     0.935 C  
HETATM   52  C   UNL     1      -9.237  12.103  63.056  1.00  0.00     0.880 C  
ENDBRANCH  42  50
ENDBRANCH  40  41
ENDBRANCH  13  40
BRANCH  35  53
HETATM   53  C   UNL     1     -10.673  10.313  70.105  1.00  0.00    -0.334 C  
HETATM   54  C   UNL     1      -9.201   9.927  70.110  1.00  0.00    -0.184 C  
ENDBRANCH  35  53
ENDBRANCH  11  12
ENDBRANCH   1  11
BRANCH   4  55
HETATM   55  O   UNL     1     -12.465  12.899  69.276  1.00  0.00    -0.003 OA 
HETATM   56  C   UNL     1     -12.043  13.032  70.628  1.00  0.00    -0.248 C  
ENDBRANCH   4  55
TORSDOF 7
ENDMDL
MODEL      179
REMARK 921   NORMALIZED FREE ENERGY PREDICTED BY IDOCK:  114.12 KCAL/MOL
REMARK 922        TOTAL FREE ENERGY PREDICTED BY IDOCK:  158.14 KCAL/MOL
REMARK 923 INTER-LIGAND FREE ENERGY PREDICTED BY IDOCK:  123.52 KCAL/MOL
REMARK 924 INTRA-LIGAND FREE ENERGY PREDICTED BY IDOCK:   34.62 KCAL/MOL
REMARK 927      BINDING AFFINITY PREDICTED BY RF-SCORE:    0.00 PKD
ROOT
HETATM    1  C   UNL     1     -12.040  12.975  70.602  1.00  0.00    -0.248 C  
HETATM    2  O   UNL     1      -8.819  15.237  68.616  1.00  0.00    -0.169 OA 
HETATM    3  C   UNL     1     -12.344  14.088  69.507  1.00  0.00    -0.275 C  
HETATM    4  C   UNL     1     -11.229  15.149  69.156  1.00  0.00    -0.279 C  
HETATM    5  C   UNL     1      -8.251  13.063  70.394  1.00  0.00     4.614 C  
HETATM    6  C   UNL     1      -9.892  14.392  69.069  1.00  0.00    -0.101 C  
HETATM    7  C   UNL     1     -11.508  15.847  67.785  1.00  0.00    -0.128 C  
HETATM    8  O   UNL     1     -10.623  12.705  70.763  1.00  0.00     2.922 OA 
HETATM    9  H   UNL     1      -7.994  14.770  68.562  1.00  0.00     0.000 HD 
HETATM   10  C   UNL     1      -9.646  13.712  70.422  1.00  0.00     3.642 C  
ENDROOT
BRANCH   1  11
HETATM   11  O   UNL     1     -13.018  12.914  71.804  1.00  0.00    -0.362 OA 
BRANCH  11  12
HETATM   12  C   UNL     1     -12.915  11.749  72.725  1.00  0.00     2.065 C  
HETATM   13  C   UNL     1     -12.606  10.130  70.445  1.00  0.00    -0.145 C  
HETATM   14  C   UNL     1     -11.509   9.761  74.136  1.00  0.00    13.276 C  
HETATM   15  C   UNL     1     -13.393  10.523  71.879  1.00  0.00    -0.461 C  
HETATM   16  O   UNL     1     -10.040  13.085  74.458  1.00  0.00    10.029 OA 
HETATM   17  C   UNL     1     -11.673  11.298  73.930  1.00  0.00    16.037 C  
HETATM   18  C   UNL     1     -14.078   9.527  72.864  1.00  0.00     0.283 C  
HETATM   19  C   UNL     1     -12.356   8.519  70.324  1.00  0.00     0.644 C  
HETATM   20  O   UNL     1     -11.555   7.909  71.347  1.00  0.00    -0.261 OA 
HETATM   21  C   UNL     1     -13.771   7.862  70.412  1.00  0.00     1.386 C  
HETATM   22  C   UNL     1     -10.238  11.899  74.169  1.00  0.00    23.663 C  
HETATM   23  C   UNL     1     -11.705   8.250  68.962  1.00  0.00     1.352 C  
HETATM   24  C   UNL     1     -11.648   6.475  71.457  1.00  0.00    -0.315 C  
HETATM   25  C   UNL     1     -10.309   7.596  68.748  1.00  0.00    -0.218 C  
HETATM   26  H   UNL     1      -7.508   9.206  74.639  1.00  0.00     0.000 HD 
HETATM   27  O   UNL     1      -9.154  10.984  74.161  1.00  0.00    13.181 OA 
HETATM   28  C   UNL     1      -8.903   8.185  69.231  1.00  0.00    -0.144 C  
HETATM   29  C   UNL     1     -10.299   7.561  67.166  1.00  0.00    -0.384 C  
HETATM   30  O   UNL     1      -7.472   8.780  73.791  1.00  0.00    -0.393 OA 
HETATM   31  C   UNL     1      -5.662  10.177  73.047  1.00  0.00     0.665 C  
HETATM   32  O   UNL     1      -8.204   8.713  68.344  1.00  0.00    -0.119 OA 
HETATM   33  C   UNL     1      -8.121   7.928  70.614  1.00  0.00    -0.102 C  
HETATM   34  C   UNL     1      -8.676   7.042  71.692  1.00  0.00    -0.116 C  
HETATM   35  C   UNL     1      -8.019  11.167  73.200  1.00  0.00    15.445 C  
HETATM   36  C   UNL     1      -7.094   9.018  71.282  1.00  0.00    -0.079 C  
HETATM   37  C   UNL     1      -7.158   9.778  72.798  1.00  0.00     2.076 C  
HETATM   38  O   UNL     1      -6.344   9.740  70.295  1.00  0.00    -0.063 OA 
HETATM   39  H   UNL     1      -5.749  10.371  70.682  1.00  0.00     0.000 HD 
BRANCH  13  40
HETATM   40  O   UNL     1     -11.544  11.077  70.109  1.00  0.00    -0.296 OA 
BRANCH  40  41
HETATM   41  C   UNL     1     -10.904  11.732  68.955  1.00  0.00    -0.223 C  
HETATM   42  C   UNL     1      -8.683  12.474  67.757  1.00  0.00    -0.178 C  
HETATM   43  C   UNL     1     -11.770  13.002  65.572  1.00  0.00    -0.408 C  
HETATM   44  O   UNL     1      -8.489  10.731  69.260  1.00  0.00    -0.291 OA 
HETATM   45  C   UNL     1      -9.494  12.709  66.501  1.00  0.00    -0.247 C  
HETATM   46  H   UNL     1      -7.629  10.472  68.947  1.00  0.00     0.000 HD 
HETATM   47  C   UNL     1     -10.995  12.928  66.875  1.00  0.00    -0.266 C  
HETATM   48  C   UNL     1      -9.447  11.293  68.424  1.00  0.00    -0.192 C  
HETATM   49  O   UNL     1     -11.644  11.930  67.733  1.00  0.00    -0.337 OA 
BRANCH  42  50
HETATM   50  N   UNL     1      -7.196  12.308  67.620  1.00  0.00    -0.116 NA 
HETATM   51  C   UNL     1      -6.684  11.314  66.679  1.00  0.00    -0.132 C  
HETATM   52  C   UNL     1      -6.444  13.555  67.486  1.00  0.00    -0.100 C  
ENDBRANCH  42  50
ENDBRANCH  40  41
ENDBRANCH  13  40
BRANCH  35  53
HETATM   53  C   UNL     1      -8.679  11.715  71.985  1.00  0.00    16.904 C  
HETATM   54  C   UNL     1      -8.565  10.518  71.053  1.00  0.00     3.134 C  
ENDBRANCH  35  53
ENDBRANCH  11  12
ENDBRANCH   1  11
BRANCH   4  55
HETATM   55  O   UNL     1     -11.268  16.131  70.210  1.00  0.00    -0.356 OA 
HETATM   56  C   UNL     1     -11.194  15.683  71.558  1.00  0.00    -0.301 C  
ENDBRANCH   4  55
TORSDOF 7
ENDMDL
MODEL      180
REMARK 921   NORMALIZED FREE ENERGY PREDICTED BY IDOCK:  116.40 KCAL/MOL
REMARK 922        TOTAL FREE ENERGY PREDICTED BY IDOCK:  161.34 KCAL/MOL
REMARK 923 INTER-LIGAND FREE ENERGY PREDICTED BY IDOCK:   92.54 KCAL/MOL
REMARK 924 INTRA-LIGAND FREE ENERGY PREDICTED BY IDOCK:   68.80 KCAL/MOL
REMARK 927      BINDING AFFINITY PREDICTED BY RF-SCORE:    0.00 PKD
ROOT
HETATM    1  C   UNL     1     -10.298  10.156  68.523  1.00  0.00    -0.180 C  
HETATM    2  O   UNL     1     -10.051  10.261  64.123  1.00  0.00    -0.355 OA 
HETATM    3  C   UNL     1     -11.258  11.073  67.648  1.00  0.00    -0.373 C  
HETATM    4  C   UNL     1     -10.857  11.408  66.159  1.00  0.00    -0.255 C  
HETATM    5  C   UNL     1      -8.495   8.419  65.670  1.00  0.00    -0.179 C  
HETATM    6  C   UNL     1     -10.321  10.111  65.529  1.00  0.00    -0.126 C  
HETATM    7  C   UNL     1     -12.085  11.906  65.328  1.00  0.00     0.022 C  
HETATM    8  O   UNL     1      -9.455   9.285  67.724  1.00  0.00    -0.138 OA 
HETATM    9  H   UNL     1      -9.721   9.460  63.734  1.00  0.00     0.000 HD 
HETATM   10  C   UNL     1      -9.123   9.640  66.364  1.00  0.00    -0.156 C  
ENDROOT
BRANCH   1  11
HETATM   11  O   UNL     1      -9.795  10.769  69.857  1.00  0.00     0.064 OA 
BRANCH  11  12
HETATM   12  C   UNL     1     -10.699  11.709  70.574  1.00  0.00     1.875 C  
HETATM   13  C   UNL     1      -8.686  13.655  70.307  1.00  0.00     3.478 C  
HETATM   14  C   UNL     1     -12.528  13.843  70.714  1.00  0.00    -0.445 C  
HETATM   15  C   UNL     1      -9.745  12.750  71.248  1.00  0.00    11.362 C  
HETATM   16  O   UNL     1     -13.332  11.411  68.117  1.00  0.00     3.709 OA 
HETATM   17  C   UNL     1     -12.268  12.430  70.110  1.00  0.00    -0.303 C  
HETATM   18  C   UNL     1     -10.429  13.205  72.575  1.00  0.00    11.478 C  
HETATM   19  C   UNL     1      -8.670  15.224  70.769  1.00  0.00     2.090 C  
HETATM   20  O   UNL     1      -9.913  15.936  70.688  1.00  0.00     0.360 OA 
HETATM   21  C   UNL     1      -8.254  15.220  72.275  1.00  0.00     7.152 C  
HETATM   22  C   UNL     1     -12.997  12.441  68.715  1.00  0.00     2.304 C  
HETATM   23  C   UNL     1      -7.629  15.952  69.910  1.00  0.00     0.294 C  
HETATM   24  C   UNL     1      -9.992  17.168  71.433  1.00  0.00     4.743 C  
HETATM   25  C   UNL     1      -7.927  17.146  68.957  1.00  0.00    -0.136 C  
HETATM   26  H   UNL     1     -14.420  15.903  67.756  1.00  0.00     0.000 HD 
HETATM   27  O   UNL     1     -13.379  13.709  68.204  1.00  0.00     2.539 OA 
HETATM   28  C   UNL     1      -8.874  17.117  67.669  1.00  0.00    -0.218 C  
HETATM   29  C   UNL     1      -6.452  17.436  68.465  1.00  0.00    -0.180 C  
HETATM   30  O   UNL     1     -13.642  16.436  67.645  1.00  0.00     4.897 OA 
HETATM   31  C   UNL     1     -13.580  16.045  65.274  1.00  0.00     4.114 C  
HETATM   32  O   UNL     1      -8.289  17.072  66.569  1.00  0.00    -0.230 OA 
HETATM   33  C   UNL     1     -10.446  17.446  67.562  1.00  0.00    -0.354 C  
HETATM   34  C   UNL     1     -11.262  17.840  68.760  1.00  0.00     0.824 C  
HETATM   35  C   UNL     1     -12.882  14.164  66.867  1.00  0.00     0.678 C  
HETATM   36  C   UNL     1     -11.429  16.781  66.430  1.00  0.00     0.989 C  
HETATM   37  C   UNL     1     -12.819  15.829  66.628  1.00  0.00     2.991 C  
HETATM   38  O   UNL     1     -10.767  16.599  65.170  1.00  0.00    -0.621 OA 
HETATM   39  H   UNL     1     -11.337  16.215  64.514  1.00  0.00     0.000 HD 
BRANCH  13  40
HETATM   40  O   UNL     1      -8.742  13.295  68.891  1.00  0.00     0.074 OA 
BRANCH  40  41
HETATM   41  C   UNL     1      -8.255  13.727  67.570  1.00  0.00    -0.188 C  
HETATM   42  C   UNL     1      -7.597  15.707  65.968  1.00  0.00     1.726 C  
HETATM   43  C   UNL     1      -6.734  12.290  64.499  1.00  0.00     6.587 C  
HETATM   44  O   UNL     1      -7.508  16.162  68.232  1.00  0.00    -0.138 OA 
HETATM   45  C   UNL     1      -6.936  14.692  65.062  1.00  0.00    13.921 C  
HETATM   46  H   UNL     1      -6.999  16.957  68.117  1.00  0.00     0.000 HD 
HETATM   47  C   UNL     1      -7.543  13.276  65.322  1.00  0.00     6.743 C  
HETATM   48  C   UNL     1      -7.391  15.073  67.375  1.00  0.00    -0.201 C  
HETATM   49  O   UNL     1      -7.584  12.788  66.705  1.00  0.00     0.204 OA 
BRANCH  42  50
HETATM   50  N   UNL     1      -7.201  17.149  65.827  1.00  0.00    -0.123 NA 
HETATM   51  C   UNL     1      -5.870  17.464  65.314  1.00  0.00     0.943 C  
HETATM   52  C   UNL     1      -8.198  18.005  65.185  1.00  0.00     2.405 C  
ENDBRANCH  42  50
ENDBRANCH  40  41
ENDBRANCH  13  40
BRANCH  35  53
HETATM   53  C   UNL     1     -11.509  13.597  66.796  1.00  0.00    -0.370 C  
HETATM   54  C   UNL     1     -11.124  13.998  65.380  1.00  0.00    -0.318 C  
ENDBRANCH  35  53
ENDBRANCH  11  12
ENDBRANCH   1  11
BRANCH   4  55
HETATM   55  O   UNL     1      -9.875  12.459  66.238  1.00  0.00    -0.237 OA 
HETATM   56  C   UNL     1      -9.524  12.965  67.520  1.00  0.00    -0.198 C  
ENDBRANCH   4  55
TORSDOF 7
ENDMDL
MODEL      181
REMARK 921   NORMALIZED FREE ENERGY PREDICTED BY IDOCK:  119.97 KCAL/MOL
REMARK 922        TOTAL FREE ENERGY PREDICTED BY IDOCK:  166.38 KCAL/MOL
REMARK 923 INTER-LIGAND FREE ENERGY PREDICTED BY IDOCK:  158.43 KCAL/MOL
REMARK 924 INTRA-LIGAND FREE ENERGY PREDICTED BY IDOCK:    7.95 KCAL/MOL
REMARK 927      BINDING AFFINITY PREDICTED BY RF-SCORE:    0.00 PKD
ROOT
HETATM    1  C   UNL     1     -11.345   7.497  66.992  1.00  0.00     0.817 C  
HETATM    2  O   UNL     1      -9.998   4.739  63.828  1.00  0.00    -0.352 OA 
HETATM    3  C   UNL     1     -11.033   7.998  65.515  1.00  0.00     4.966 C  
HETATM    4  C   UNL     1     -10.158   7.093  64.563  1.00  0.00     4.922 C  
HETATM    5  C   UNL     1     -10.800   3.786  66.408  1.00  0.00     2.111 C  
HETATM    6  C   UNL     1     -10.632   5.641  64.752  1.00  0.00     2.356 C  
HETATM    7  C   UNL     1     -10.335   7.494  63.062  1.00  0.00     8.565 C  
HETATM    8  O   UNL     1     -11.269   6.054  67.133  1.00  0.00    -0.236 OA 
HETATM    9  H   UNL     1     -10.291   3.843  63.944  1.00  0.00     0.000 HD 
HETATM   10  C   UNL     1     -10.455   5.275  66.231  1.00  0.00    -0.255 C  
ENDROOT
BRANCH   1  11
HETATM   11  O   UNL     1     -10.915   8.447  68.141  1.00  0.00     0.007 OA 
BRANCH  11  12
HETATM   12  C   UNL     1     -11.869   8.654  69.265  1.00  0.00     1.318 C  
HETATM   13  C   UNL     1      -9.751   9.849  70.679  1.00  0.00     0.080 C  
HETATM   14  C   UNL     1     -13.599  10.199  70.857  1.00  0.00    -0.012 C  
HETATM   15  C   UNL     1     -10.975   8.703  70.548  1.00  0.00    -0.266 C  
HETATM   16  O   UNL     1     -14.133  10.646  67.276  1.00  0.00    14.965 OA 
HETATM   17  C   UNL     1     -13.321   9.687  69.411  1.00  0.00     3.245 C  
HETATM   18  C   UNL     1     -11.819   8.110  71.717  1.00  0.00    -0.346 C  
HETATM   19  C   UNL     1      -9.731  10.532  72.165  1.00  0.00     7.665 C  
HETATM   20  O   UNL     1     -10.916  11.230  72.575  1.00  0.00     6.582 OA 
HETATM   21  C   UNL     1      -9.535   9.353  73.171  1.00  0.00     3.298 C  
HETATM   22  C   UNL     1     -13.841  10.830  68.463  1.00  0.00     8.868 C  
HETATM   23  C   UNL     1      -8.545  11.504  72.215  1.00  0.00    17.547 C  
HETATM   24  C   UNL     1     -11.044  11.494  73.986  1.00  0.00    20.020 C  
HETATM   25  C   UNL     1      -8.649  13.034  72.475  1.00  0.00    18.641 C  
HETATM   26  H   UNL     1     -14.953  14.007  70.362  1.00  0.00     0.000 HD 
HETATM   27  O   UNL     1     -14.088  12.093  69.063  1.00  0.00     6.626 OA 
HETATM   28  C   UNL     1      -9.402  14.102  71.554  1.00  0.00     6.746 C  
HETATM   29  C   UNL     1      -7.107  13.387  72.459  1.00  0.00     6.156 C  
HETATM   30  O   UNL     1     -14.143  14.331  70.739  1.00  0.00     0.111 OA 
HETATM   31  C   UNL     1     -13.761  15.828  68.897  1.00  0.00     4.485 C  
HETATM   32  O   UNL     1      -8.669  14.810  70.835  1.00  0.00     1.800 OA 
HETATM   33  C   UNL     1     -10.926  14.614  71.637  1.00  0.00     0.776 C  
HETATM   34  C   UNL     1     -11.886  14.095  72.669  1.00  0.00     0.676 C  
HETATM   35  C   UNL     1     -13.384  13.317  68.562  1.00  0.00     4.208 C  
HETATM   36  C   UNL     1     -11.766  15.155  70.337  1.00  0.00    -0.293 C  
HETATM   37  C   UNL     1     -13.212  14.576  69.665  1.00  0.00     1.025 C  
HETATM   38  O   UNL     1     -10.940  15.881  69.415  1.00  0.00    -0.262 OA 
HETATM   39  H   UNL     1     -11.427  16.195  68.663  1.00  0.00     0.000 HD 
BRANCH  13  40
HETATM   40  O   UNL     1      -9.621  10.673  69.479  1.00  0.00    -0.157 OA 
BRANCH  40  41
HETATM   41  C   UNL     1      -8.930  10.719  68.178  1.00  0.00    -0.140 C  
HETATM   42  C   UNL     1      -9.024  11.316  65.618  1.00  0.00    -0.163 C  
HETATM   43  C   UNL     1      -5.513  10.348  66.767  1.00  0.00    -0.043 C  
HETATM   44  O   UNL     1     -10.528  12.428  66.974  1.00  0.00    -0.219 OA 
HETATM   45  C   UNL     1      -7.516  11.192  65.583  1.00  0.00     0.240 C  
HETATM   46  H   UNL     1     -10.733  13.084  66.317  1.00  0.00     0.000 HD 
HETATM   47  C   UNL     1      -7.030  10.302  66.771  1.00  0.00    -0.093 C  
HETATM   48  C   UNL     1      -9.276  11.832  67.065  1.00  0.00    -0.187 C  
HETATM   49  O   UNL     1      -7.491  10.645  68.121  1.00  0.00    -0.087 OA 
BRANCH  42  50
HETATM   50  N   UNL     1      -9.700  12.080  64.516  1.00  0.00    -0.138 NA 
HETATM   51  C   UNL     1      -8.972  13.171  63.870  1.00  0.00     3.704 C  
HETATM   52  C   UNL     1     -10.360  11.254  63.505  1.00  0.00    -0.408 C  
ENDBRANCH  42  50
ENDBRANCH  40  41
ENDBRANCH  13  40
BRANCH  35  53
HETATM   53  C   UNL     1     -12.043  12.808  68.170  1.00  0.00    -0.158 C  
HETATM   54  C   UNL     1     -11.185  13.449  69.251  1.00  0.00    -0.275 C  
ENDBRANCH  35  53
ENDBRANCH  11  12
ENDBRANCH   1  11
BRANCH   4  55
HETATM   55  O   UNL     1      -8.788   7.307  64.958  1.00  0.00     0.123 OA 
HETATM   56  C   UNL     1      -8.336   6.732  66.177  1.00  0.00    -0.130 C  
ENDBRANCH   4  55
TORSDOF 7
ENDMDL
