MODEL        1
REMARK 921   NORMALIZED FREE ENERGY PREDICTED BY IDOCK:   -6.80 KCAL/MOL
REMARK 922        TOTAL FREE ENERGY PREDICTED BY IDOCK:   -8.69 KCAL/MOL
REMARK 923 INTER-LIGAND FREE ENERGY PREDICTED BY IDOCK:   -7.99 KCAL/MOL
REMARK 924 INTRA-LIGAND FREE ENERGY PREDICTED BY IDOCK:   -0.69 KCAL/MOL
REMARK 927      BINDING AFFINITY PREDICTED BY RF-SCORE:    0.00 PKD
ROOT
HETATM    1  C   UNL     1     -13.035  12.634  71.446  1.00  0.00    -0.258 C  
HETATM    2  N   UNL     1     -13.160  14.079  71.614  1.00  0.00    -0.341 NA 
HETATM    3  C   UNL     1     -13.258  14.437  73.032  1.00  0.00    -0.446 C  
HETATM    4  C   UNL     1     -12.958  15.917  73.012  1.00  0.00    -0.630 C  
HETATM    5  C   UNL     1     -11.835  16.030  71.997  1.00  0.00    -0.623 C  
HETATM    6  C   UNL     1     -12.014  14.831  71.052  1.00  0.00    -0.331 C  
ENDROOT
BRANCH   6   7
HETATM    7  C   UNL     1     -12.317  15.249  69.604  1.00  0.00    -0.245 C  
BRANCH   7   8
HETATM    8  C   UNL     1     -11.109  15.203  68.660  1.00  0.00    -0.271 C  
BRANCH   8   9
HETATM    9  O   UNL     1     -11.460  14.560  67.437  1.00  0.00    -0.335 OA 
HETATM   10  C   UNL     1     -10.473  13.663  66.856  1.00  0.00    -0.272 C  
HETATM   11  C   UNL     1     -10.243  12.452  67.794  1.00  0.00    -0.212 A  
HETATM   12  C   UNL     1     -11.073  13.145  65.516  1.00  0.00    -0.299 A  
HETATM   13  C   UNL     1      -9.187  14.479  66.561  1.00  0.00    -0.282 C  
HETATM   14  C   UNL     1      -8.966  12.072  68.249  1.00  0.00    -0.186 A  
HETATM   15  C   UNL     1     -12.470  13.082  65.330  1.00  0.00    -0.555 A  
HETATM   16  C   UNL     1     -13.029  12.485  64.196  1.00  0.00    -0.233 A  
HETATM   17  C   UNL     1      -8.788  10.935  69.045  1.00  0.00    -0.105 A  
HETATM   18  C   UNL     1      -9.883  10.153  69.398  1.00  0.00    -0.229 A  
HETATM   19  C   UNL     1     -12.206  11.961  63.206  1.00  0.00    -0.487 A  
HETATM   20 CL   UNL     1      -9.654   8.735  70.343  1.00  0.00    -0.194 Cl 
HETATM   21  C   UNL     1     -11.160  10.512  68.981  1.00  0.00    -0.300 A  
HETATM   22  C   UNL     1     -10.824  12.041  63.345  1.00  0.00    -0.471 A  
HETATM   23  C   UNL     1     -10.265  12.617  64.491  1.00  0.00    -0.331 A  
HETATM   24  C   UNL     1     -11.337  11.656  68.197  1.00  0.00    -0.358 A  
ENDBRANCH   8   9
ENDBRANCH   7   8
ENDBRANCH   6   7
TORSDOF 3
ENDMDL
MODEL        2
REMARK 921   NORMALIZED FREE ENERGY PREDICTED BY IDOCK:   -6.76 KCAL/MOL
REMARK 922        TOTAL FREE ENERGY PREDICTED BY IDOCK:   -8.65 KCAL/MOL
REMARK 923 INTER-LIGAND FREE ENERGY PREDICTED BY IDOCK:   -7.93 KCAL/MOL
REMARK 924 INTRA-LIGAND FREE ENERGY PREDICTED BY IDOCK:   -0.72 KCAL/MOL
REMARK 927      BINDING AFFINITY PREDICTED BY RF-SCORE:    0.00 PKD
ROOT
HETATM    1  C   UNL     1     -12.877  12.043  71.849  1.00  0.00    -0.233 C  
HETATM    2  N   UNL     1     -13.217  13.357  71.313  1.00  0.00    -0.230 NA 
HETATM    3  C   UNL     1     -14.285  13.984  72.096  1.00  0.00    -0.535 C  
HETATM    4  C   UNL     1     -14.192  15.430  71.670  1.00  0.00    -0.621 C  
HETATM    5  C   UNL     1     -12.696  15.672  71.590  1.00  0.00    -0.522 C  
HETATM    6  C   UNL     1     -12.072  14.297  71.305  1.00  0.00    -0.316 C  
ENDROOT
BRANCH   6   7
HETATM    7  C   UNL     1     -11.348  14.235  69.951  1.00  0.00    -0.254 C  
BRANCH   7   8
HETATM    8  C   UNL     1     -12.271  14.051  68.741  1.00  0.00    -0.202 C  
BRANCH   8   9
HETATM    9  O   UNL     1     -11.716  13.102  67.832  1.00  0.00    -0.319 OA 
HETATM   10  C   UNL     1     -11.519  13.540  66.459  1.00  0.00    -0.339 C  
HETATM   11  C   UNL     1     -10.466  14.675  66.413  1.00  0.00    -0.296 A  
HETATM   12  C   UNL     1     -10.963  12.316  65.675  1.00  0.00    -0.338 A  
HETATM   13  C   UNL     1     -12.898  13.942  65.873  1.00  0.00    -0.387 C  
HETATM   14  C   UNL     1     -10.713  15.918  65.799  1.00  0.00    -0.325 A  
HETATM   15  C   UNL     1     -10.240  11.303  66.340  1.00  0.00    -0.273 A  
HETATM   16  C   UNL     1      -9.608  10.274  65.635  1.00  0.00    -0.289 A  
HETATM   17  C   UNL     1      -9.717  16.898  65.721  1.00  0.00    -0.123 A  
HETATM   18  C   UNL     1      -8.454  16.653  66.249  1.00  0.00    -0.320 A  
HETATM   19  C   UNL     1      -9.706  10.216  64.249  1.00  0.00    -0.326 A  
HETATM   20 CL   UNL     1      -7.222  17.845  66.114  1.00  0.00    -0.323 Cl 
HETATM   21  C   UNL     1      -8.184  15.443  66.878  1.00  0.00    -0.281 A  
HETATM   22  C   UNL     1     -10.442  11.180  63.569  1.00  0.00    -0.422 A  
HETATM   23  C   UNL     1     -11.054  12.223  64.272  1.00  0.00    -0.401 A  
HETATM   24  C   UNL     1      -9.185  14.470  66.967  1.00  0.00    -0.253 A  
ENDBRANCH   8   9
ENDBRANCH   7   8
ENDBRANCH   6   7
TORSDOF 3
ENDMDL
MODEL        3
REMARK 921   NORMALIZED FREE ENERGY PREDICTED BY IDOCK:   -6.71 KCAL/MOL
REMARK 922        TOTAL FREE ENERGY PREDICTED BY IDOCK:   -8.58 KCAL/MOL
REMARK 923 INTER-LIGAND FREE ENERGY PREDICTED BY IDOCK:   -7.64 KCAL/MOL
REMARK 924 INTRA-LIGAND FREE ENERGY PREDICTED BY IDOCK:   -0.94 KCAL/MOL
REMARK 927      BINDING AFFINITY PREDICTED BY RF-SCORE:    0.00 PKD
ROOT
HETATM    1  C   UNL     1     -14.254  13.613  72.444  1.00  0.00    -0.383 C  
HETATM    2  N   UNL     1     -13.016  13.411  71.698  1.00  0.00    -0.367 NA 
HETATM    3  C   UNL     1     -12.909  12.030  71.222  1.00  0.00    -0.265 C  
HETATM    4  C   UNL     1     -11.834  12.136  70.166  1.00  0.00    -0.368 C  
HETATM    5  C   UNL     1     -12.160  13.443  69.468  1.00  0.00    -0.334 C  
HETATM    6  C   UNL     1     -12.900  14.293  70.513  1.00  0.00    -0.275 C  
ENDROOT
BRANCH   6   7
HETATM    7  C   UNL     1     -12.146  15.579  70.884  1.00  0.00    -0.433 C  
BRANCH   7   8
HETATM    8  C   UNL     1     -10.674  15.603  70.455  1.00  0.00    -0.317 C  
BRANCH   8   9
HETATM    9  O   UNL     1     -10.435  16.690  69.563  1.00  0.00    -0.305 OA 
HETATM   10  C   UNL     1      -9.479  16.464  68.490  1.00  0.00    -0.227 C  
HETATM   11  C   UNL     1     -10.014  15.377  67.525  1.00  0.00    -0.226 A  
HETATM   12  C   UNL     1      -9.360  17.805  67.708  1.00  0.00    -0.257 A  
HETATM   13  C   UNL     1      -8.106  16.116  69.125  1.00  0.00    -0.230 C  
HETATM   14  C   UNL     1      -9.271  14.232  67.181  1.00  0.00    -0.230 A  
HETATM   15  C   UNL     1     -10.427  18.728  67.695  1.00  0.00    -0.495 A  
HETATM   16  C   UNL     1     -10.399  19.866  66.884  1.00  0.00    -0.596 A  
HETATM   17  C   UNL     1      -9.761  13.301  66.258  1.00  0.00    -0.274 A  
HETATM   18  C   UNL     1     -10.999  13.500  65.657  1.00  0.00    -0.289 A  
HETATM   19  C   UNL     1      -9.291  20.125  66.085  1.00  0.00    -0.365 A  
HETATM   20 CL   UNL     1     -11.578  12.374  64.494  1.00  0.00    -0.387 Cl 
HETATM   21  C   UNL     1     -11.766  14.611  65.990  1.00  0.00    -0.306 A  
HETATM   22  C   UNL     1      -8.208  19.252  66.104  1.00  0.00    -0.291 A  
HETATM   23  C   UNL     1      -8.246  18.101  66.898  1.00  0.00    -0.258 A  
HETATM   24  C   UNL     1     -11.281  15.533  66.923  1.00  0.00    -0.159 A  
ENDBRANCH   8   9
ENDBRANCH   7   8
ENDBRANCH   6   7
TORSDOF 3
ENDMDL
MODEL        4
REMARK 921   NORMALIZED FREE ENERGY PREDICTED BY IDOCK:   -6.53 KCAL/MOL
REMARK 922        TOTAL FREE ENERGY PREDICTED BY IDOCK:   -8.37 KCAL/MOL
REMARK 923 INTER-LIGAND FREE ENERGY PREDICTED BY IDOCK:   -7.62 KCAL/MOL
REMARK 924 INTRA-LIGAND FREE ENERGY PREDICTED BY IDOCK:   -0.75 KCAL/MOL
REMARK 927      BINDING AFFINITY PREDICTED BY RF-SCORE:    0.00 PKD
ROOT
HETATM    1  C   UNL     1     -10.767  19.533  67.300  1.00  0.00    -0.484 C  
HETATM    2  N   UNL     1      -9.986  18.303  67.218  1.00  0.00    -0.320 NA 
HETATM    3  C   UNL     1      -8.714  18.532  66.527  1.00  0.00    -0.286 C  
HETATM    4  C   UNL     1      -7.913  17.310  66.912  1.00  0.00    -0.257 C  
HETATM    5  C   UNL     1      -8.269  17.107  68.373  1.00  0.00    -0.253 C  
HETATM    6  C   UNL     1      -9.665  17.728  68.545  1.00  0.00    -0.343 C  
ENDROOT
BRANCH   6   7
HETATM    7  C   UNL     1     -10.734  16.699  68.947  1.00  0.00    -0.337 C  
BRANCH   7   8
HETATM    8  C   UNL     1     -10.296  15.236  68.812  1.00  0.00    -0.232 C  
BRANCH   8   9
HETATM    9  O   UNL     1     -10.811  14.672  67.608  1.00  0.00    -0.272 OA 
HETATM   10  C   UNL     1     -10.190  13.445  67.135  1.00  0.00    -0.247 C  
HETATM   11  C   UNL     1     -10.440  12.301  68.150  1.00  0.00    -0.228 A  
HETATM   12  C   UNL     1     -10.890  13.078  65.793  1.00  0.00    -0.292 A  
HETATM   13  C   UNL     1      -8.688  13.729  66.870  1.00  0.00    -0.172 C  
HETATM   14  C   UNL     1      -9.398  11.528  68.697  1.00  0.00    -0.142 A  
HETATM   15  C   UNL     1     -12.210  13.501  65.531  1.00  0.00    -0.490 A  
HETATM   16  C   UNL     1     -12.907  13.060  64.402  1.00  0.00    -0.171 A  
HETATM   17  C   UNL     1      -9.665  10.462  69.563  1.00  0.00    -0.196 A  
HETATM   18  C   UNL     1     -10.978  10.146  69.896  1.00  0.00    -0.293 A  
HETATM   19  C   UNL     1     -12.292  12.209  63.491  1.00  0.00    -0.682 A  
HETATM   20 CL   UNL     1     -11.303   8.810  70.928  1.00  0.00    -0.309 Cl 
HETATM   21  C   UNL     1     -12.028  10.903  69.387  1.00  0.00    -0.393 A  
HETATM   22  C   UNL     1     -10.978  11.805  63.705  1.00  0.00    -0.513 A  
HETATM   23  C   UNL     1     -10.289  12.226  64.846  1.00  0.00    -0.319 A  
HETATM   24  C   UNL     1     -11.759  11.976  68.532  1.00  0.00    -0.387 A  
ENDBRANCH   8   9
ENDBRANCH   7   8
ENDBRANCH   6   7
TORSDOF 3
ENDMDL
MODEL        5
REMARK 921   NORMALIZED FREE ENERGY PREDICTED BY IDOCK:   -6.41 KCAL/MOL
REMARK 922        TOTAL FREE ENERGY PREDICTED BY IDOCK:   -8.23 KCAL/MOL
REMARK 923 INTER-LIGAND FREE ENERGY PREDICTED BY IDOCK:   -7.55 KCAL/MOL
REMARK 924 INTRA-LIGAND FREE ENERGY PREDICTED BY IDOCK:   -0.68 KCAL/MOL
REMARK 927      BINDING AFFINITY PREDICTED BY RF-SCORE:    0.00 PKD
ROOT
HETATM    1  C   UNL     1      -7.511  18.756  68.384  1.00  0.00    -0.298 C  
HETATM    2  N   UNL     1      -8.889  18.612  67.926  1.00  0.00    -0.282 NA 
HETATM    3  C   UNL     1      -9.692  19.780  68.300  1.00  0.00    -0.395 C  
HETATM    4  C   UNL     1     -10.903  19.637  67.408  1.00  0.00    -0.497 C  
HETATM    5  C   UNL     1     -10.310  19.174  66.090  1.00  0.00    -0.561 C  
HETATM    6  C   UNL     1      -9.002  18.456  66.458  1.00  0.00    -0.286 C  
ENDROOT
BRANCH   6   7
HETATM    7  C   UNL     1      -9.011  16.965  66.085  1.00  0.00    -0.271 C  
BRANCH   7   8
HETATM    8  C   UNL     1     -10.399  16.314  66.089  1.00  0.00    -0.341 C  
BRANCH   8   9
HETATM    9  O   UNL     1     -10.849  16.111  67.427  1.00  0.00    -0.322 OA 
HETATM   10  C   UNL     1     -11.038  14.735  67.858  1.00  0.00    -0.293 C  
HETATM   11  C   UNL     1      -9.678  13.993  67.868  1.00  0.00    -0.229 A  
HETATM   12  C   UNL     1     -11.580  14.795  69.317  1.00  0.00    -0.331 A  
HETATM   13  C   UNL     1     -12.103  14.079  66.941  1.00  0.00    -0.465 C  
HETATM   14  C   UNL     1      -9.469  12.779  67.187  1.00  0.00    -0.223 A  
HETATM   15  C   UNL     1     -11.292  15.898  70.147  1.00  0.00    -0.369 A  
HETATM   16  C   UNL     1     -11.642  15.905  71.500  1.00  0.00    -0.537 A  
HETATM   17  C   UNL     1      -8.246  12.104  67.268  1.00  0.00    -0.180 A  
HETATM   18  C   UNL     1      -7.211  12.627  68.035  1.00  0.00    -0.112 A  
HETATM   19  C   UNL     1     -12.315  14.820  72.052  1.00  0.00    -0.416 A  
HETATM   20 CL   UNL     1      -5.724  11.773  68.164  1.00  0.00    -0.046 Cl 
HETATM   21  C   UNL     1      -7.379  13.834  68.704  1.00  0.00    -0.117 A  
HETATM   22  C   UNL     1     -12.645  13.733  71.249  1.00  0.00    -0.444 A  
HETATM   23  C   UNL     1     -12.273  13.716  69.901  1.00  0.00    -0.367 A  
HETATM   24  C   UNL     1      -8.598  14.514  68.611  1.00  0.00    -0.168 A  
ENDBRANCH   8   9
ENDBRANCH   7   8
ENDBRANCH   6   7
TORSDOF 3
ENDMDL
MODEL        6
REMARK 921   NORMALIZED FREE ENERGY PREDICTED BY IDOCK:   -6.37 KCAL/MOL
REMARK 922        TOTAL FREE ENERGY PREDICTED BY IDOCK:   -8.18 KCAL/MOL
REMARK 923 INTER-LIGAND FREE ENERGY PREDICTED BY IDOCK:   -7.46 KCAL/MOL
REMARK 924 INTRA-LIGAND FREE ENERGY PREDICTED BY IDOCK:   -0.72 KCAL/MOL
REMARK 927      BINDING AFFINITY PREDICTED BY RF-SCORE:    0.00 PKD
ROOT
HETATM    1  C   UNL     1      -6.588  18.150  67.983  1.00  0.00    -0.194 C  
HETATM    2  N   UNL     1      -7.870  18.098  68.680  1.00  0.00    -0.305 NA 
HETATM    3  C   UNL     1      -8.636  19.328  68.462  1.00  0.00    -0.365 C  
HETATM    4  C   UNL     1     -10.029  18.918  68.881  1.00  0.00    -0.437 C  
HETATM    5  C   UNL     1     -10.159  17.512  68.325  1.00  0.00    -0.346 C  
HETATM    6  C   UNL     1      -8.724  16.968  68.245  1.00  0.00    -0.241 C  
ENDROOT
BRANCH   6   7
HETATM    7  C   UNL     1      -8.491  15.751  69.154  1.00  0.00    -0.251 C  
BRANCH   7   8
HETATM    8  C   UNL     1      -8.139  14.457  68.411  1.00  0.00    -0.143 C  
BRANCH   8   9
HETATM    9  O   UNL     1      -9.025  14.257  67.312  1.00  0.00    -0.192 OA 
HETATM   10  C   UNL     1      -9.453  12.892  67.050  1.00  0.00    -0.235 C  
HETATM   11  C   UNL     1     -10.299  12.366  68.237  1.00  0.00    -0.232 A  
HETATM   12  C   UNL     1     -10.357  12.943  65.782  1.00  0.00    -0.297 A  
HETATM   13  C   UNL     1      -8.196  12.035  66.750  1.00  0.00    -0.110 C  
HETATM   14  C   UNL     1     -10.004  11.165  68.908  1.00  0.00    -0.188 A  
HETATM   15  C   UNL     1     -11.061  14.118  65.448  1.00  0.00    -0.321 A  
HETATM   16  C   UNL     1     -11.988  14.140  64.401  1.00  0.00    -0.478 A  
HETATM   17  C   UNL     1     -10.826  10.688  69.936  1.00  0.00    -0.301 A  
HETATM   18  C   UNL     1     -11.961  11.401  70.308  1.00  0.00    -0.373 A  
HETATM   19  C   UNL     1     -12.214  12.996  63.645  1.00  0.00    -0.568 A  
HETATM   20 CL   UNL     1     -12.989  10.791  71.544  1.00  0.00    -0.541 Cl 
HETATM   21  C   UNL     1     -12.269  12.601  69.677  1.00  0.00    -0.177 A  
HETATM   22  C   UNL     1     -11.508  11.832  63.929  1.00  0.00    -0.481 A  
HETATM   23  C   UNL     1     -10.597  11.803  64.991  1.00  0.00    -0.338 A  
HETATM   24  C   UNL     1     -11.439  13.082  68.660  1.00  0.00    -0.344 A  
ENDBRANCH   8   9
ENDBRANCH   7   8
ENDBRANCH   6   7
TORSDOF 3
ENDMDL
MODEL        7
REMARK 921   NORMALIZED FREE ENERGY PREDICTED BY IDOCK:   -6.36 KCAL/MOL
REMARK 922        TOTAL FREE ENERGY PREDICTED BY IDOCK:   -8.17 KCAL/MOL
REMARK 923 INTER-LIGAND FREE ENERGY PREDICTED BY IDOCK:   -7.27 KCAL/MOL
REMARK 924 INTRA-LIGAND FREE ENERGY PREDICTED BY IDOCK:   -0.90 KCAL/MOL
REMARK 927      BINDING AFFINITY PREDICTED BY RF-SCORE:    0.00 PKD
ROOT
HETATM    1  C   UNL     1      -6.342  18.067  67.364  1.00  0.00    -0.160 C  
HETATM    2  N   UNL     1      -7.458  18.243  68.288  1.00  0.00    -0.269 NA 
HETATM    3  C   UNL     1      -8.187  19.481  68.001  1.00  0.00    -0.316 C  
HETATM    4  C   UNL     1      -9.486  19.269  68.743  1.00  0.00    -0.459 C  
HETATM    5  C   UNL     1      -9.799  17.807  68.483  1.00  0.00    -0.355 C  
HETATM    6  C   UNL     1      -8.440  17.135  68.232  1.00  0.00    -0.236 C  
ENDROOT
BRANCH   6   7
HETATM    7  C   UNL     1      -8.093  16.070  69.285  1.00  0.00    -0.212 C  
BRANCH   7   8
HETATM    8  C   UNL     1      -8.229  14.622  68.798  1.00  0.00    -0.156 C  
BRANCH   8   9
HETATM    9  O   UNL     1      -9.099  14.558  67.670  1.00  0.00    -0.185 OA 
HETATM   10  C   UNL     1     -10.112  13.514  67.677  1.00  0.00    -0.229 C  
HETATM   11  C   UNL     1     -11.114  13.759  68.833  1.00  0.00    -0.300 A  
HETATM   12  C   UNL     1     -10.878  13.625  66.326  1.00  0.00    -0.282 A  
HETATM   13  C   UNL     1      -9.397  12.140  67.750  1.00  0.00    -0.193 C  
HETATM   14  C   UNL     1     -11.418  12.779  69.797  1.00  0.00    -0.199 A  
HETATM   15  C   UNL     1     -10.951  14.855  65.640  1.00  0.00    -0.347 A  
HETATM   16  C   UNL     1     -11.753  15.012  64.505  1.00  0.00    -0.372 A  
HETATM   17  C   UNL     1     -12.375  13.013  70.791  1.00  0.00    -0.394 A  
HETATM   18  C   UNL     1     -13.049  14.229  70.838  1.00  0.00    -0.304 A  
HETATM   19  C   UNL     1     -12.481  13.935  64.012  1.00  0.00    -0.263 A  
HETATM   20 CL   UNL     1     -14.253  14.496  72.036  1.00  0.00    -0.584 Cl 
HETATM   21  C   UNL     1     -12.758  15.224  69.912  1.00  0.00    -0.130 A  
HETATM   22  C   UNL     1     -12.401  12.700  64.647  1.00  0.00    -0.546 A  
HETATM   23  C   UNL     1     -11.617  12.550  65.796  1.00  0.00    -0.439 A  
HETATM   24  C   UNL     1     -11.792  14.993  68.927  1.00  0.00    -0.337 A  
ENDBRANCH   8   9
ENDBRANCH   7   8
ENDBRANCH   6   7
TORSDOF 3
ENDMDL
MODEL        8
REMARK 921   NORMALIZED FREE ENERGY PREDICTED BY IDOCK:   -6.35 KCAL/MOL
REMARK 922        TOTAL FREE ENERGY PREDICTED BY IDOCK:   -8.15 KCAL/MOL
REMARK 923 INTER-LIGAND FREE ENERGY PREDICTED BY IDOCK:   -7.48 KCAL/MOL
REMARK 924 INTRA-LIGAND FREE ENERGY PREDICTED BY IDOCK:   -0.68 KCAL/MOL
REMARK 927      BINDING AFFINITY PREDICTED BY RF-SCORE:    0.00 PKD
ROOT
HETATM    1  C   UNL     1     -13.172   9.767  71.371  1.00  0.00    -0.398 C  
HETATM    2  N   UNL     1     -11.775  10.141  71.172  1.00  0.00    -0.369 NA 
HETATM    3  C   UNL     1     -10.879   9.047  71.555  1.00  0.00    -0.346 C  
HETATM    4  C   UNL     1      -9.579   9.452  70.901  1.00  0.00    -0.301 C  
HETATM    5  C   UNL     1     -10.022   9.998  69.556  1.00  0.00    -0.249 C  
HETATM    6  C   UNL     1     -11.461  10.493  69.768  1.00  0.00    -0.294 C  
ENDROOT
BRANCH   6   7
HETATM    7  C   UNL     1     -11.612  12.008  69.557  1.00  0.00    -0.389 C  
BRANCH   7   8
HETATM    8  C   UNL     1     -12.152  12.411  68.181  1.00  0.00    -0.040 C  
BRANCH   8   9
HETATM    9  O   UNL     1     -11.454  11.716  67.150  1.00  0.00    -0.403 OA 
HETATM   10  C   UNL     1     -11.182  12.451  65.925  1.00  0.00    -0.336 C  
HETATM   11  C   UNL     1     -10.218  13.629  66.219  1.00  0.00    -0.296 A  
HETATM   12  C   UNL     1     -10.472  11.460  64.957  1.00  0.00    -0.361 A  
HETATM   13  C   UNL     1     -12.536  12.891  65.309  1.00  0.00    -0.552 C  
HETATM   14  C   UNL     1     -10.509  14.959  65.861  1.00  0.00    -0.327 A  
HETATM   15  C   UNL     1      -9.730  10.371  65.459  1.00  0.00    -0.307 A  
HETATM   16  C   UNL     1      -8.966   9.557  64.616  1.00  0.00    -0.266 A  
HETATM   17  C   UNL     1      -9.588  15.988  66.086  1.00  0.00    -0.366 A  
HETATM   18  C   UNL     1      -8.357  15.706  66.669  1.00  0.00    -0.275 A  
HETATM   19  C   UNL     1      -8.947   9.795  63.246  1.00  0.00    -0.274 A  
HETATM   20 CL   UNL     1      -7.213  16.968  66.906  1.00  0.00    -0.221 Cl 
HETATM   21  C   UNL     1      -8.047  14.406  67.051  1.00  0.00    -0.095 A  
HETATM   22  C   UNL     1      -9.698  10.841  62.718  1.00  0.00    -0.297 A  
HETATM   23  C   UNL     1     -10.443  11.669  63.564  1.00  0.00    -0.498 A  
HETATM   24  C   UNL     1      -8.974  13.381  66.838  1.00  0.00    -0.216 A  
ENDBRANCH   8   9
ENDBRANCH   7   8
ENDBRANCH   6   7
TORSDOF 3
ENDMDL
MODEL        9
REMARK 921   NORMALIZED FREE ENERGY PREDICTED BY IDOCK:   -6.33 KCAL/MOL
REMARK 922        TOTAL FREE ENERGY PREDICTED BY IDOCK:   -8.13 KCAL/MOL
REMARK 923 INTER-LIGAND FREE ENERGY PREDICTED BY IDOCK:   -7.46 KCAL/MOL
REMARK 924 INTRA-LIGAND FREE ENERGY PREDICTED BY IDOCK:   -0.67 KCAL/MOL
REMARK 927      BINDING AFFINITY PREDICTED BY RF-SCORE:    0.00 PKD
ROOT
HETATM    1  C   UNL     1     -10.803  16.556  69.533  1.00  0.00    -0.315 C  
HETATM    2  N   UNL     1     -11.096  15.464  70.456  1.00  0.00    -0.316 NA 
HETATM    3  C   UNL     1     -11.588  15.976  71.737  1.00  0.00    -0.448 C  
HETATM    4  C   UNL     1     -12.210  14.747  72.358  1.00  0.00    -0.371 C  
HETATM    5  C   UNL     1     -12.899  14.076  71.185  1.00  0.00    -0.427 C  
HETATM    6  C   UNL     1     -12.118  14.524  69.939  1.00  0.00    -0.336 C  
ENDROOT
BRANCH   6   7
HETATM    7  C   UNL     1     -11.438  13.357  69.205  1.00  0.00    -0.345 C  
BRANCH   7   8
HETATM    8  C   UNL     1     -12.212  12.828  67.991  1.00  0.00     0.074 C  
BRANCH   8   9
HETATM    9  O   UNL     1     -11.328  12.165  67.090  1.00  0.00    -0.288 OA 
HETATM   10  C   UNL     1     -11.140  12.774  65.782  1.00  0.00    -0.285 C  
HETATM   11  C   UNL     1     -10.455  14.155  65.936  1.00  0.00    -0.313 A  
HETATM   12  C   UNL     1     -10.188  11.835  64.985  1.00  0.00    -0.314 A  
HETATM   13  C   UNL     1     -12.516  12.835  65.070  1.00  0.00    -0.572 C  
HETATM   14  C   UNL     1     -10.990  15.336  65.386  1.00  0.00    -0.380 A  
HETATM   15  C   UNL     1      -9.270  11.001  65.657  1.00  0.00    -0.231 A  
HETATM   16  C   UNL     1      -8.309  10.263  64.961  1.00  0.00    -0.169 A  
HETATM   17  C   UNL     1     -10.312  16.555  65.491  1.00  0.00    -0.307 A  
HETATM   18  C   UNL     1      -9.085  16.618  66.144  1.00  0.00    -0.283 A  
HETATM   19  C   UNL     1      -8.258  10.317  63.572  1.00  0.00    -0.159 A  
HETATM   20 CL   UNL     1      -8.238  18.111  66.235  1.00  0.00    -0.272 Cl 
HETATM   21  C   UNL     1      -8.540  15.474  66.714  1.00  0.00    -0.307 A  
HETATM   22  C   UNL     1      -9.174  11.102  62.880  1.00  0.00    -0.359 A  
HETATM   23  C   UNL     1     -10.120  11.860  63.578  1.00  0.00    -0.464 A  
HETATM   24  C   UNL     1      -9.224  14.258  66.620  1.00  0.00    -0.276 A  
ENDBRANCH   8   9
ENDBRANCH   7   8
ENDBRANCH   6   7
TORSDOF 3
ENDMDL
MODEL       10
REMARK 921   NORMALIZED FREE ENERGY PREDICTED BY IDOCK:   -6.29 KCAL/MOL
REMARK 922        TOTAL FREE ENERGY PREDICTED BY IDOCK:   -8.09 KCAL/MOL
REMARK 923 INTER-LIGAND FREE ENERGY PREDICTED BY IDOCK:   -7.45 KCAL/MOL
REMARK 924 INTRA-LIGAND FREE ENERGY PREDICTED BY IDOCK:   -0.64 KCAL/MOL
REMARK 927      BINDING AFFINITY PREDICTED BY RF-SCORE:    0.00 PKD
ROOT
HETATM    1  C   UNL     1     -10.819   7.163  71.057  1.00  0.00    -0.240 C  
HETATM    2  N   UNL     1     -11.942   8.075  70.865  1.00  0.00    -0.242 NA 
HETATM    3  C   UNL     1     -13.052   7.738  71.760  1.00  0.00    -0.322 C  
HETATM    4  C   UNL     1     -13.895   8.992  71.714  1.00  0.00    -0.453 C  
HETATM    5  C   UNL     1     -12.863  10.104  71.727  1.00  0.00    -0.554 C  
HETATM    6  C   UNL     1     -11.592   9.492  71.117  1.00  0.00    -0.367 C  
ENDROOT
BRANCH   6   7
HETATM    7  C   UNL     1     -11.169  10.173  69.805  1.00  0.00    -0.325 C  
BRANCH   7   8
HETATM    8  C   UNL     1     -11.664  11.615  69.645  1.00  0.00    -0.350 C  
BRANCH   8   9
HETATM    9  O   UNL     1     -11.882  11.915  68.268  1.00  0.00    -0.377 OA 
HETATM   10  C   UNL     1     -11.282  13.137  67.756  1.00  0.00    -0.277 C  
HETATM   11  C   UNL     1      -9.737  13.033  67.815  1.00  0.00    -0.218 A  
HETATM   12  C   UNL     1     -11.714  13.256  66.265  1.00  0.00    -0.412 A  
HETATM   13  C   UNL     1     -11.860  14.335  68.555  1.00  0.00    -0.382 C  
HETATM   14  C   UNL     1      -8.933  13.999  68.450  1.00  0.00    -0.189 A  
HETATM   15  C   UNL     1     -12.034  12.106  65.514  1.00  0.00    -0.290 A  
HETATM   16  C   UNL     1     -12.280  12.176  64.140  1.00  0.00    -0.509 A  
HETATM   17  C   UNL     1      -7.537  13.905  68.431  1.00  0.00    -0.130 A  
HETATM   18  C   UNL     1      -6.918  12.848  67.772  1.00  0.00    -0.138 A  
HETATM   19  C   UNL     1     -12.240  13.402  63.485  1.00  0.00    -0.468 A  
HETATM   20 CL   UNL     1      -5.202  12.760  67.717  1.00  0.00    -0.104 Cl 
HETATM   21  C   UNL     1      -7.685  11.868  67.152  1.00  0.00    -0.163 A  
HETATM   22  C   UNL     1     -11.962  14.559  64.207  1.00  0.00    -0.419 A  
HETATM   23  C   UNL     1     -11.693  14.486  65.577  1.00  0.00    -0.343 A  
HETATM   24  C   UNL     1      -9.080  11.956  67.184  1.00  0.00    -0.178 A  
ENDBRANCH   8   9
ENDBRANCH   7   8
ENDBRANCH   6   7
TORSDOF 3
ENDMDL
MODEL       11
REMARK 921   NORMALIZED FREE ENERGY PREDICTED BY IDOCK:   -6.27 KCAL/MOL
REMARK 922        TOTAL FREE ENERGY PREDICTED BY IDOCK:   -8.06 KCAL/MOL
REMARK 923 INTER-LIGAND FREE ENERGY PREDICTED BY IDOCK:   -7.01 KCAL/MOL
REMARK 924 INTRA-LIGAND FREE ENERGY PREDICTED BY IDOCK:   -1.06 KCAL/MOL
REMARK 927      BINDING AFFINITY PREDICTED BY RF-SCORE:    0.00 PKD
ROOT
HETATM    1  C   UNL     1     -12.085  13.264  63.561  1.00  0.00    -0.482 C  
HETATM    2  N   UNL     1     -11.957  13.816  64.906  1.00  0.00    -0.371 NA 
HETATM    3  C   UNL     1     -12.145  12.776  65.922  1.00  0.00    -0.426 C  
HETATM    4  C   UNL     1     -11.575  13.428  67.160  1.00  0.00    -0.399 C  
HETATM    5  C   UNL     1     -10.344  14.147  66.638  1.00  0.00    -0.277 C  
HETATM    6  C   UNL     1     -10.636  14.438  65.157  1.00  0.00    -0.410 C  
ENDROOT
BRANCH   6   7
HETATM    7  C   UNL     1     -10.692  15.941  64.841  1.00  0.00    -0.365 C  
BRANCH   7   8
HETATM    8  C   UNL     1     -10.730  16.852  66.074  1.00  0.00    -0.125 C  
BRANCH   8   9
HETATM    9  O   UNL     1      -9.694  17.829  66.001  1.00  0.00    -0.496 OA 
HETATM   10  C   UNL     1      -9.029  18.179  67.246  1.00  0.00    -0.248 C  
HETATM   11  C   UNL     1      -8.265  16.950  67.800  1.00  0.00    -0.195 A  
HETATM   12  C   UNL     1      -7.995  19.291  66.904  1.00  0.00    -0.278 A  
HETATM   13  C   UNL     1     -10.091  18.748  68.224  1.00  0.00    -0.431 C  
HETATM   14  C   UNL     1      -8.450  16.465  69.109  1.00  0.00    -0.181 A  
HETATM   15  C   UNL     1      -7.446  19.389  65.608  1.00  0.00    -0.167 A  
HETATM   16  C   UNL     1      -6.411  20.284  65.319  1.00  0.00    -0.315 A  
HETATM   17  C   UNL     1      -7.697  15.391  69.597  1.00  0.00    -0.156 A  
HETATM   18  C   UNL     1      -6.743  14.784  68.788  1.00  0.00    -0.090 A  
HETATM   19  C   UNL     1      -5.917  21.123  66.311  1.00  0.00    -0.328 A  
HETATM   20 CL   UNL     1      -5.793  13.491  69.405  1.00  0.00    -0.089 Cl 
HETATM   21  C   UNL     1      -6.550  15.227  67.484  1.00  0.00    -0.181 A  
HETATM   22  C   UNL     1      -6.464  21.074  67.590  1.00  0.00    -0.417 A  
HETATM   23  C   UNL     1      -7.483  20.163  67.885  1.00  0.00    -0.316 A  
HETATM   24  C   UNL     1      -7.312  16.292  66.994  1.00  0.00    -0.264 A  
ENDBRANCH   8   9
ENDBRANCH   7   8
ENDBRANCH   6   7
TORSDOF 3
ENDMDL
MODEL       12
REMARK 921   NORMALIZED FREE ENERGY PREDICTED BY IDOCK:   -6.24 KCAL/MOL
REMARK 922        TOTAL FREE ENERGY PREDICTED BY IDOCK:   -8.03 KCAL/MOL
REMARK 923 INTER-LIGAND FREE ENERGY PREDICTED BY IDOCK:   -7.45 KCAL/MOL
REMARK 924 INTRA-LIGAND FREE ENERGY PREDICTED BY IDOCK:   -0.58 KCAL/MOL
REMARK 927      BINDING AFFINITY PREDICTED BY RF-SCORE:    0.00 PKD
ROOT
HETATM    1  C   UNL     1     -11.255  11.005  66.862  1.00  0.00    -0.136 C  
HETATM    2  N   UNL     1     -10.958  11.811  65.681  1.00  0.00    -0.300 NA 
HETATM    3  C   UNL     1     -10.178  11.046  64.705  1.00  0.00    -0.319 C  
HETATM    4  C   UNL     1     -10.340  11.867  63.448  1.00  0.00    -0.481 C  
HETATM    5  C   UNL     1     -11.796  12.293  63.497  1.00  0.00    -0.601 C  
HETATM    6  C   UNL     1     -12.173  12.296  64.987  1.00  0.00    -0.304 C  
ENDROOT
BRANCH   6   7
HETATM    7  C   UNL     1     -12.556  13.691  65.506  1.00  0.00    -0.541 C  
BRANCH   7   8
HETATM    8  C   UNL     1     -11.465  14.389  66.327  1.00  0.00    -0.359 C  
BRANCH   8   9
HETATM    9  O   UNL     1     -11.905  14.589  67.668  1.00  0.00    -0.371 OA 
HETATM   10  C   UNL     1     -10.901  14.996  68.639  1.00  0.00    -0.249 C  
HETATM   11  C   UNL     1     -10.353  16.400  68.274  1.00  0.00    -0.279 A  
HETATM   12  C   UNL     1     -11.621  15.089  70.016  1.00  0.00    -0.324 A  
HETATM   13  C   UNL     1      -9.810  13.896  68.702  1.00  0.00    -0.175 C  
HETATM   14  C   UNL     1      -8.979  16.663  68.119  1.00  0.00    -0.210 A  
HETATM   15  C   UNL     1     -13.006  15.349  70.088  1.00  0.00    -0.104 A  
HETATM   16  C   UNL     1     -13.642  15.581  71.311  1.00  0.00    -0.520 A  
HETATM   17  C   UNL     1      -8.515  17.956  67.851  1.00  0.00    -0.251 A  
HETATM   18  C   UNL     1      -9.415  19.010  67.738  1.00  0.00    -0.304 A  
HETATM   19  C   UNL     1     -12.917  15.531  72.496  1.00  0.00    -0.520 A  
HETATM   20 CL   UNL     1      -8.836  20.603  67.448  1.00  0.00    -0.397 Cl 
HETATM   21  C   UNL     1     -10.780  18.779  67.866  1.00  0.00    -0.347 A  
HETATM   22  C   UNL     1     -11.557  15.241  72.458  1.00  0.00    -0.498 A  
HETATM   23  C   UNL     1     -10.915  15.032  71.233  1.00  0.00    -0.074 A  
HETATM   24  C   UNL     1     -11.242  17.484  68.121  1.00  0.00     0.208 A  
ENDBRANCH   8   9
ENDBRANCH   7   8
ENDBRANCH   6   7
TORSDOF 3
ENDMDL
MODEL       13
REMARK 921   NORMALIZED FREE ENERGY PREDICTED BY IDOCK:   -6.21 KCAL/MOL
REMARK 922        TOTAL FREE ENERGY PREDICTED BY IDOCK:   -7.99 KCAL/MOL
REMARK 923 INTER-LIGAND FREE ENERGY PREDICTED BY IDOCK:   -7.43 KCAL/MOL
REMARK 924 INTRA-LIGAND FREE ENERGY PREDICTED BY IDOCK:   -0.57 KCAL/MOL
REMARK 927      BINDING AFFINITY PREDICTED BY RF-SCORE:    0.00 PKD
ROOT
HETATM    1  C   UNL     1     -12.830  14.034  65.497  1.00  0.00    -0.419 C  
HETATM    2  N   UNL     1     -12.029  12.893  65.064  1.00  0.00    -0.378 NA 
HETATM    3  C   UNL     1     -12.546  12.333  63.813  1.00  0.00    -0.470 C  
HETATM    4  C   UNL     1     -11.387  11.488  63.336  1.00  0.00    -0.303 C  
HETATM    5  C   UNL     1     -10.177  12.345  63.658  1.00  0.00    -0.383 C  
HETATM    6  C   UNL     1     -10.606  13.234  64.836  1.00  0.00    -0.366 C  
ENDROOT
BRANCH   6   7
HETATM    7  C   UNL     1      -9.790  12.973  66.113  1.00  0.00    -0.275 C  
BRANCH   7   8
HETATM    8  C   UNL     1      -9.440  14.232  66.915  1.00  0.00    -0.263 C  
BRANCH   8   9
HETATM    9  O   UNL     1     -10.369  14.415  67.981  1.00  0.00    -0.223 OA 
HETATM   10  C   UNL     1      -9.971  15.308  69.058  1.00  0.00    -0.229 C  
HETATM   11  C   UNL     1      -9.822  16.753  68.518  1.00  0.00    -0.257 A  
HETATM   12  C   UNL     1     -11.122  15.287  70.106  1.00  0.00    -0.312 A  
HETATM   13  C   UNL     1      -8.677  14.746  69.705  1.00  0.00     0.203 C  
HETATM   14  C   UNL     1      -8.652  17.515  68.695  1.00  0.00    -0.259 A  
HETATM   15  C   UNL     1     -12.444  14.987  69.716  1.00  0.00    -0.216 A  
HETATM   16  C   UNL     1     -13.513  15.106  70.609  1.00  0.00    -0.243 A  
HETATM   17  C   UNL     1      -8.575  18.839  68.248  1.00  0.00    -0.357 A  
HETATM   18  C   UNL     1      -9.668  19.428  67.621  1.00  0.00    -0.331 A  
HETATM   19  C   UNL     1     -13.285  15.501  71.922  1.00  0.00    -0.553 A  
HETATM   20 CL   UNL     1      -9.582  21.067  67.111  1.00  0.00    -0.392 Cl 
HETATM   21  C   UNL     1     -10.832  18.695  67.414  1.00  0.00    -0.381 A  
HETATM   22  C   UNL     1     -11.987  15.769  72.345  1.00  0.00    -0.600 A  
HETATM   23  C   UNL     1     -10.920  15.673  71.445  1.00  0.00    -0.150 A  
HETATM   24  C   UNL     1     -10.902  17.368  67.849  1.00  0.00    -0.270 A  
ENDBRANCH   8   9
ENDBRANCH   7   8
ENDBRANCH   6   7
TORSDOF 3
ENDMDL
MODEL       14
REMARK 921   NORMALIZED FREE ENERGY PREDICTED BY IDOCK:   -6.17 KCAL/MOL
REMARK 922        TOTAL FREE ENERGY PREDICTED BY IDOCK:   -7.95 KCAL/MOL
REMARK 923 INTER-LIGAND FREE ENERGY PREDICTED BY IDOCK:   -7.22 KCAL/MOL
REMARK 924 INTRA-LIGAND FREE ENERGY PREDICTED BY IDOCK:   -0.73 KCAL/MOL
REMARK 927      BINDING AFFINITY PREDICTED BY RF-SCORE:    0.00 PKD
ROOT
HETATM    1  C   UNL     1      -7.110  20.046  65.341  1.00  0.00    -0.278 C  
HETATM    2  N   UNL     1      -7.453  19.305  66.551  1.00  0.00    -0.234 NA 
HETATM    3  C   UNL     1      -6.424  19.474  67.581  1.00  0.00    -0.216 C  
HETATM    4  C   UNL     1      -7.140  19.012  68.829  1.00  0.00    -0.353 C  
HETATM    5  C   UNL     1      -8.534  19.587  68.663  1.00  0.00    -0.364 C  
HETATM    6  C   UNL     1      -8.742  19.729  67.147  1.00  0.00    -0.323 C  
ENDROOT
BRANCH   6   7
HETATM    7  C   UNL     1      -9.884  18.850  66.613  1.00  0.00    -0.396 C  
BRANCH   7   8
HETATM    8  C   UNL     1     -10.553  17.962  67.668  1.00  0.00    -0.387 C  
BRANCH   8   9
HETATM    9  O   UNL     1     -10.780  16.655  67.145  1.00  0.00    -0.294 OA 
HETATM   10  C   UNL     1     -10.310  15.534  67.944  1.00  0.00    -0.250 C  
HETATM   11  C   UNL     1     -11.090  15.477  69.282  1.00  0.00    -0.285 A  
HETATM   12  C   UNL     1     -10.626  14.243  67.132  1.00  0.00    -0.279 A  
HETATM   13  C   UNL     1      -8.775  15.668  68.119  1.00  0.00    -0.168 C  
HETATM   14  C   UNL     1     -10.448  15.445  70.535  1.00  0.00    -0.140 A  
HETATM   15  C   UNL     1     -11.685  14.219  66.201  1.00  0.00    -0.397 A  
HETATM   16  C   UNL     1     -12.077  13.034  65.572  1.00  0.00    -0.501 A  
HETATM   17  C   UNL     1     -11.182  15.331  71.722  1.00  0.00    -0.364 A  
HETATM   18  C   UNL     1     -12.569  15.240  71.678  1.00  0.00    -0.375 A  
HETATM   19  C   UNL     1     -11.402  11.847  65.836  1.00  0.00    -0.365 A  
HETATM   20 CL   UNL     1     -13.462  15.059  73.136  1.00  0.00    -0.502 Cl 
HETATM   21  C   UNL     1     -13.233  15.288  70.457  1.00  0.00    -0.278 A  
HETATM   22  C   UNL     1     -10.330  11.848  66.722  1.00  0.00    -0.238 A  
HETATM   23  C   UNL     1      -9.953  13.028  67.370  1.00  0.00    -0.228 A  
HETATM   24  C   UNL     1     -12.499  15.416  69.274  1.00  0.00    -0.004 A  
ENDBRANCH   8   9
ENDBRANCH   7   8
ENDBRANCH   6   7
TORSDOF 3
ENDMDL
MODEL       15
REMARK 921   NORMALIZED FREE ENERGY PREDICTED BY IDOCK:   -6.16 KCAL/MOL
REMARK 922        TOTAL FREE ENERGY PREDICTED BY IDOCK:   -7.94 KCAL/MOL
REMARK 923 INTER-LIGAND FREE ENERGY PREDICTED BY IDOCK:   -7.45 KCAL/MOL
REMARK 924 INTRA-LIGAND FREE ENERGY PREDICTED BY IDOCK:   -0.49 KCAL/MOL
REMARK 927      BINDING AFFINITY PREDICTED BY RF-SCORE:    0.00 PKD
ROOT
HETATM    1  C   UNL     1      -9.450  11.641  63.414  1.00  0.00    -0.212 C  
HETATM    2  N   UNL     1     -10.319  12.459  64.255  1.00  0.00    -0.346 NA 
HETATM    3  C   UNL     1     -11.703  12.420  63.775  1.00  0.00    -0.483 C  
HETATM    4  C   UNL     1     -12.471  12.944  64.966  1.00  0.00    -0.553 C  
HETATM    5  C   UNL     1     -11.771  12.294  66.145  1.00  0.00    -0.440 C  
HETATM    6  C   UNL     1     -10.334  12.024  65.671  1.00  0.00    -0.253 C  
ENDROOT
BRANCH   6   7
HETATM    7  C   UNL     1      -9.281  12.804  66.474  1.00  0.00    -0.190 C  
BRANCH   7   8
HETATM    8  C   UNL     1      -9.803  13.430  67.773  1.00  0.00    -0.234 C  
BRANCH   8   9
HETATM    9  O   UNL     1      -9.423  14.803  67.850  1.00  0.00    -0.197 OA 
HETATM   10  C   UNL     1     -10.496  15.779  67.959  1.00  0.00    -0.270 C  
HETATM   11  C   UNL     1     -11.251  15.585  69.299  1.00  0.00    -0.312 A  
HETATM   12  C   UNL     1      -9.823  17.183  67.968  1.00  0.00    -0.283 A  
HETATM   13  C   UNL     1     -11.402  15.651  66.706  1.00  0.00     0.013 C  
HETATM   14  C   UNL     1     -12.647  15.414  69.367  1.00  0.00     0.071 A  
HETATM   15  C   UNL     1      -8.499  17.344  68.425  1.00  0.00    -0.263 A  
HETATM   16  C   UNL     1      -7.928  18.611  68.580  1.00  0.00    -0.365 A  
HETATM   17  C   UNL     1     -13.303  15.305  70.598  1.00  0.00    -0.320 A  
HETATM   18  C   UNL     1     -12.578  15.369  71.783  1.00  0.00    -0.384 A  
HETATM   19  C   UNL     1      -8.658  19.749  68.254  1.00  0.00    -0.317 A  
HETATM   20 CL   UNL     1     -13.395  15.275  73.294  1.00  0.00    -0.560 Cl 
HETATM   21  C   UNL     1     -11.197  15.519  71.748  1.00  0.00    -0.376 A  
HETATM   22  C   UNL     1      -9.954  19.619  67.767  1.00  0.00    -0.514 A  
HETATM   23  C   UNL     1     -10.533  18.353  67.635  1.00  0.00    -0.445 A  
HETATM   24  C   UNL     1     -10.540  15.614  70.517  1.00  0.00    -0.217 A  
ENDBRANCH   8   9
ENDBRANCH   7   8
ENDBRANCH   6   7
TORSDOF 3
ENDMDL
MODEL       16
REMARK 921   NORMALIZED FREE ENERGY PREDICTED BY IDOCK:   -6.10 KCAL/MOL
REMARK 922        TOTAL FREE ENERGY PREDICTED BY IDOCK:   -7.87 KCAL/MOL
REMARK 923 INTER-LIGAND FREE ENERGY PREDICTED BY IDOCK:   -7.45 KCAL/MOL
REMARK 924 INTRA-LIGAND FREE ENERGY PREDICTED BY IDOCK:   -0.42 KCAL/MOL
REMARK 927      BINDING AFFINITY PREDICTED BY RF-SCORE:    0.00 PKD
ROOT
HETATM    1  C   UNL     1     -11.062  10.845  66.864  1.00  0.00    -0.167 C  
HETATM    2  N   UNL     1     -10.905  11.881  65.848  1.00  0.00    -0.287 NA 
HETATM    3  C   UNL     1     -10.244  11.350  64.653  1.00  0.00    -0.294 C  
HETATM    4  C   UNL     1     -10.554  12.406  63.617  1.00  0.00    -0.481 C  
HETATM    5  C   UNL     1     -11.994  12.776  63.919  1.00  0.00    -0.554 C  
HETATM    6  C   UNL     1     -12.194  12.467  65.411  1.00  0.00    -0.412 C  
ENDROOT
BRANCH   6   7
HETATM    7  C   UNL     1     -12.515  13.718  66.245  1.00  0.00    -0.441 C  
BRANCH   7   8
HETATM    8  C   UNL     1     -11.476  14.840  66.139  1.00  0.00    -0.311 C  
BRANCH   8   9
HETATM    9  O   UNL     1     -10.273  14.468  66.808  1.00  0.00    -0.259 OA 
HETATM   10  C   UNL     1      -9.978  15.144  68.061  1.00  0.00    -0.221 C  
HETATM   11  C   UNL     1     -11.051  14.785  69.120  1.00  0.00    -0.278 A  
HETATM   12  C   UNL     1      -8.602  14.603  68.548  1.00  0.00    -0.170 A  
HETATM   13  C   UNL     1      -9.862  16.665  67.780  1.00  0.00    -0.252 C  
HETATM   14  C   UNL     1     -11.776  15.760  69.831  1.00  0.00    -0.365 A  
HETATM   15  C   UNL     1      -8.157  13.320  68.167  1.00  0.00    -0.159 A  
HETATM   16  C   UNL     1      -6.997  12.759  68.710  1.00  0.00    -0.096 A  
HETATM   17  C   UNL     1     -12.693  15.401  70.825  1.00  0.00    -0.516 A  
HETATM   18  C   UNL     1     -12.900  14.060  71.130  1.00  0.00    -0.357 A  
HETATM   19  C   UNL     1      -6.237  13.477  69.625  1.00  0.00    -0.121 A  
HETATM   20 CL   UNL     1     -13.998  13.625  72.380  1.00  0.00    -0.669 Cl 
HETATM   21  C   UNL     1     -12.214  13.071  70.433  1.00  0.00    -0.386 A  
HETATM   22  C   UNL     1      -6.631  14.759  69.993  1.00  0.00    -0.168 A  
HETATM   23  C   UNL     1      -7.804  15.312  69.468  1.00  0.00    -0.204 A  
HETATM   24  C   UNL     1     -11.308  13.432  69.431  1.00  0.00    -0.286 A  
ENDBRANCH   8   9
ENDBRANCH   7   8
ENDBRANCH   6   7
TORSDOF 3
ENDMDL
MODEL       17
REMARK 921   NORMALIZED FREE ENERGY PREDICTED BY IDOCK:   -6.07 KCAL/MOL
REMARK 922        TOTAL FREE ENERGY PREDICTED BY IDOCK:   -7.83 KCAL/MOL
REMARK 923 INTER-LIGAND FREE ENERGY PREDICTED BY IDOCK:   -6.91 KCAL/MOL
REMARK 924 INTRA-LIGAND FREE ENERGY PREDICTED BY IDOCK:   -0.92 KCAL/MOL
REMARK 927      BINDING AFFINITY PREDICTED BY RF-SCORE:    0.00 PKD
ROOT
HETATM    1  C   UNL     1     -14.226  15.443  71.963  1.00  0.00    -0.552 C  
HETATM    2  N   UNL     1     -13.197  14.412  71.866  1.00  0.00    -0.341 NA 
HETATM    3  C   UNL     1     -13.739  13.095  72.210  1.00  0.00    -0.551 C  
HETATM    4  C   UNL     1     -12.688  12.160  71.658  1.00  0.00    -0.314 C  
HETATM    5  C   UNL     1     -12.310  12.804  70.338  1.00  0.00    -0.324 C  
HETATM    6  C   UNL     1     -12.608  14.302  70.511  1.00  0.00    -0.353 C  
ENDROOT
BRANCH   6   7
HETATM    7  C   UNL     1     -11.351  15.180  70.410  1.00  0.00    -0.323 C  
BRANCH   7   8
HETATM    8  C   UNL     1     -11.243  15.996  69.116  1.00  0.00    -0.342 C  
BRANCH   8   9
HETATM    9  O   UNL     1     -11.595  15.192  67.992  1.00  0.00    -0.334 OA 
HETATM   10  C   UNL     1     -10.622  15.102  66.915  1.00  0.00    -0.297 C  
HETATM   11  C   UNL     1      -9.339  14.394  67.419  1.00  0.00    -0.199 A  
HETATM   12  C   UNL     1     -11.266  14.225  65.802  1.00  0.00    -0.317 A  
HETATM   13  C   UNL     1     -10.372  16.530  66.363  1.00  0.00    -0.316 C  
HETATM   14  C   UNL     1      -8.056  14.960  67.290  1.00  0.00    -0.234 A  
HETATM   15  C   UNL     1     -12.248  13.265  66.121  1.00  0.00    -0.466 A  
HETATM   16  C   UNL     1     -12.732  12.368  65.163  1.00  0.00    -0.053 A  
HETATM   17  C   UNL     1      -6.913  14.265  67.700  1.00  0.00    -0.202 A  
HETATM   18  C   UNL     1      -7.030  12.990  68.244  1.00  0.00    -0.101 A  
HETATM   19  C   UNL     1     -12.266  12.427  63.854  1.00  0.00    -0.603 A  
HETATM   20 CL   UNL     1      -5.619  12.125  68.710  1.00  0.00    -0.050 Cl 
HETATM   21  C   UNL     1      -8.284  12.412  68.403  1.00  0.00    -0.144 A  
HETATM   22  C   UNL     1     -11.323  13.388  63.502  1.00  0.00     0.030 A  
HETATM   23  C   UNL     1     -10.822  14.269  64.465  1.00  0.00    -0.305 A  
HETATM   24  C   UNL     1      -9.426  13.113  68.004  1.00  0.00    -0.220 A  
ENDBRANCH   8   9
ENDBRANCH   7   8
ENDBRANCH   6   7
TORSDOF 3
ENDMDL
MODEL       18
REMARK 921   NORMALIZED FREE ENERGY PREDICTED BY IDOCK:   -6.04 KCAL/MOL
REMARK 922        TOTAL FREE ENERGY PREDICTED BY IDOCK:   -7.79 KCAL/MOL
REMARK 923 INTER-LIGAND FREE ENERGY PREDICTED BY IDOCK:   -7.23 KCAL/MOL
REMARK 924 INTRA-LIGAND FREE ENERGY PREDICTED BY IDOCK:   -0.56 KCAL/MOL
REMARK 927      BINDING AFFINITY PREDICTED BY RF-SCORE:    0.00 PKD
ROOT
HETATM    1  C   UNL     1     -14.003   8.295  71.876  1.00  0.00    -0.403 C  
HETATM    2  N   UNL     1     -12.716   8.974  71.998  1.00  0.00    -0.369 NA 
HETATM    3  C   UNL     1     -11.664   8.037  72.403  1.00  0.00    -0.386 C  
HETATM    4  C   UNL     1     -10.405   8.802  72.067  1.00  0.00    -0.411 C  
HETATM    5  C   UNL     1     -10.742   9.461  70.743  1.00  0.00    -0.373 C  
HETATM    6  C   UNL     1     -12.272   9.610  70.736  1.00  0.00    -0.230 C  
ENDROOT
BRANCH   6   7
HETATM    7  C   UNL     1     -12.731  11.076  70.695  1.00  0.00    -0.375 C  
BRANCH   7   8
HETATM    8  C   UNL     1     -11.673  12.064  70.190  1.00  0.00    -0.233 C  
BRANCH   8   9
HETATM    9  O   UNL     1     -11.794  12.244  68.781  1.00  0.00    -0.309 OA 
HETATM   10  C   UNL     1     -11.456  13.556  68.252  1.00  0.00    -0.310 C  
HETATM   11  C   UNL     1      -9.951  13.846  68.479  1.00  0.00    -0.221 A  
HETATM   12  C   UNL     1     -11.725  13.503  66.719  1.00  0.00    -0.430 A  
HETATM   13  C   UNL     1     -12.399  14.602  68.903  1.00  0.00    -0.069 C  
HETATM   14  C   UNL     1      -9.489  15.008  69.127  1.00  0.00    -0.195 A  
HETATM   15  C   UNL     1     -11.662  12.280  66.020  1.00  0.00    -0.451 A  
HETATM   16  C   UNL     1     -11.754  12.231  64.625  1.00  0.00    -0.420 A  
HETATM   17  C   UNL     1      -8.120  15.267  69.259  1.00  0.00    -0.236 A  
HETATM   18  C   UNL     1      -7.188  14.374  68.742  1.00  0.00    -0.128 A  
HETATM   19  C   UNL     1     -11.939  13.400  63.897  1.00  0.00    -0.520 A  
HETATM   20 CL   UNL     1      -5.508  14.717  68.872  1.00  0.00    -0.086 Cl 
HETATM   21  C   UNL     1      -7.612  13.208  68.114  1.00  0.00    -0.141 A  
HETATM   22  C   UNL     1     -12.041  14.618  64.562  1.00  0.00    -0.490 A  
HETATM   23  C   UNL     1     -11.925  14.670  65.955  1.00  0.00    -0.248 A  
HETATM   24  C   UNL     1      -8.980  12.944  67.994  1.00  0.00    -0.196 A  
ENDBRANCH   8   9
ENDBRANCH   7   8
ENDBRANCH   6   7
TORSDOF 3
ENDMDL
MODEL       19
REMARK 921   NORMALIZED FREE ENERGY PREDICTED BY IDOCK:   -6.03 KCAL/MOL
REMARK 922        TOTAL FREE ENERGY PREDICTED BY IDOCK:   -7.79 KCAL/MOL
REMARK 923 INTER-LIGAND FREE ENERGY PREDICTED BY IDOCK:   -6.70 KCAL/MOL
REMARK 924 INTRA-LIGAND FREE ENERGY PREDICTED BY IDOCK:   -1.09 KCAL/MOL
REMARK 927      BINDING AFFINITY PREDICTED BY RF-SCORE:    0.00 PKD
ROOT
HETATM    1  C   UNL     1      -5.706  14.065  70.948  1.00  0.00    -0.207 C  
HETATM    2  N   UNL     1      -6.354  14.758  69.839  1.00  0.00    -0.147 NA 
HETATM    3  C   UNL     1      -6.262  16.211  70.001  1.00  0.00    -0.120 C  
HETATM    4  C   UNL     1      -6.590  16.711  68.613  1.00  0.00    -0.159 C  
HETATM    5  C   UNL     1      -5.868  15.728  67.710  1.00  0.00    -0.168 C  
HETATM    6  C   UNL     1      -5.764  14.426  68.521  1.00  0.00    -0.096 C  
ENDROOT
BRANCH   6   7
HETATM    7  C   UNL     1      -6.529  13.258  67.880  1.00  0.00    -0.147 C  
BRANCH   7   8
HETATM    8  C   UNL     1      -8.002  13.154  68.293  1.00  0.00    -0.148 C  
BRANCH   8   9
HETATM    9  O   UNL     1      -8.821  12.902  67.154  1.00  0.00    -0.196 OA 
HETATM   10  C   UNL     1     -10.191  13.388  67.206  1.00  0.00    -0.241 C  
HETATM   11  C   UNL     1     -10.200  14.937  67.264  1.00  0.00    -0.241 A  
HETATM   12  C   UNL     1     -10.875  12.939  65.881  1.00  0.00    -0.294 A  
HETATM   13  C   UNL     1     -10.903  12.713  68.407  1.00  0.00    -0.268 C  
HETATM   14  C   UNL     1     -10.883  15.657  68.263  1.00  0.00    -0.298 A  
HETATM   15  C   UNL     1     -10.112  12.717  64.716  1.00  0.00    -0.240 A  
HETATM   16  C   UNL     1     -10.719  12.458  63.484  1.00  0.00    -0.473 A  
HETATM   17  C   UNL     1     -10.922  17.055  68.250  1.00  0.00    -0.269 A  
HETATM   18  C   UNL     1     -10.283  17.761  67.236  1.00  0.00    -0.350 A  
HETATM   19  C   UNL     1     -12.105  12.386  63.390  1.00  0.00    -0.620 A  
HETATM   20 CL   UNL     1     -10.368  19.478  67.202  1.00  0.00    -0.529 Cl 
HETATM   21  C   UNL     1      -9.584  17.080  66.246  1.00  0.00    -0.289 A  
HETATM   22  C   UNL     1     -12.882  12.565  64.530  1.00  0.00    -0.352 A  
HETATM   23  C   UNL     1     -12.276  12.848  65.758  1.00  0.00    -0.498 A  
HETATM   24  C   UNL     1      -9.535  15.683  66.268  1.00  0.00    -0.351 A  
ENDBRANCH   8   9
ENDBRANCH   7   8
ENDBRANCH   6   7
TORSDOF 3
ENDMDL
MODEL       20
REMARK 921   NORMALIZED FREE ENERGY PREDICTED BY IDOCK:   -5.99 KCAL/MOL
REMARK 922        TOTAL FREE ENERGY PREDICTED BY IDOCK:   -7.74 KCAL/MOL
REMARK 923 INTER-LIGAND FREE ENERGY PREDICTED BY IDOCK:   -7.07 KCAL/MOL
REMARK 924 INTRA-LIGAND FREE ENERGY PREDICTED BY IDOCK:   -0.67 KCAL/MOL
REMARK 927      BINDING AFFINITY PREDICTED BY RF-SCORE:    0.00 PKD
ROOT
HETATM    1  C   UNL     1     -11.061   6.444  69.386  1.00  0.00    -0.387 C  
HETATM    2  N   UNL     1     -11.021   7.815  69.884  1.00  0.00    -0.228 NA 
HETATM    3  C   UNL     1     -11.902   7.979  71.044  1.00  0.00    -0.263 C  
HETATM    4  C   UNL     1     -11.412   9.279  71.639  1.00  0.00    -0.468 C  
HETATM    5  C   UNL     1      -9.905   9.178  71.498  1.00  0.00    -0.335 C  
HETATM    6  C   UNL     1      -9.666   8.244  70.301  1.00  0.00    -0.175 C  
ENDROOT
BRANCH   6   7
HETATM    7  C   UNL     1      -8.949   8.938  69.132  1.00  0.00    -0.140 C  
BRANCH   7   8
HETATM    8  C   UNL     1      -9.236  10.439  69.007  1.00  0.00    -0.187 C  
BRANCH   8   9
HETATM    9  O   UNL     1      -9.737  10.742  67.706  1.00  0.00    -0.159 OA 
HETATM   10  C   UNL     1     -10.629  11.885  67.593  1.00  0.00    -0.211 C  
HETATM   11  C   UNL     1      -9.867  13.187  67.948  1.00  0.00    -0.231 A  
HETATM   12  C   UNL     1     -11.070  11.961  66.102  1.00  0.00    -0.374 A  
HETATM   13  C   UNL     1     -11.872  11.624  68.484  1.00  0.00    -0.357 C  
HETATM   14  C   UNL     1     -10.326  14.095  68.921  1.00  0.00    -0.204 A  
HETATM   15  C   UNL     1     -10.250  11.437  65.081  1.00  0.00    -0.328 A  
HETATM   16  C   UNL     1     -10.556  11.625  63.730  1.00  0.00    -0.473 A  
HETATM   17  C   UNL     1      -9.645  15.292  69.172  1.00  0.00    -0.243 A  
HETATM   18  C   UNL     1      -8.497  15.605  68.453  1.00  0.00    -0.164 A  
HETATM   19  C   UNL     1     -11.705  12.317  63.365  1.00  0.00    -0.542 A  
HETATM   20 CL   UNL     1      -7.687  17.096  68.737  1.00  0.00    -0.260 Cl 
HETATM   21  C   UNL     1      -8.008  14.720  67.499  1.00  0.00    -0.207 A  
HETATM   22  C   UNL     1     -12.552  12.814  64.350  1.00  0.00    -0.431 A  
HETATM   23  C   UNL     1     -12.234  12.646  65.701  1.00  0.00    -0.474 A  
HETATM   24  C   UNL     1      -8.681  13.518  67.259  1.00  0.00    -0.228 A  
ENDBRANCH   8   9
ENDBRANCH   7   8
ENDBRANCH   6   7
TORSDOF 3
ENDMDL
MODEL       21
REMARK 921   NORMALIZED FREE ENERGY PREDICTED BY IDOCK:   -5.97 KCAL/MOL
REMARK 922        TOTAL FREE ENERGY PREDICTED BY IDOCK:   -7.72 KCAL/MOL
REMARK 923 INTER-LIGAND FREE ENERGY PREDICTED BY IDOCK:   -6.67 KCAL/MOL
REMARK 924 INTRA-LIGAND FREE ENERGY PREDICTED BY IDOCK:   -1.05 KCAL/MOL
REMARK 927      BINDING AFFINITY PREDICTED BY RF-SCORE:    0.00 PKD
ROOT
HETATM    1  C   UNL     1     -14.117   8.551  71.828  1.00  0.00    -0.444 C  
HETATM    2  N   UNL     1     -12.827   9.219  71.966  1.00  0.00    -0.391 NA 
HETATM    3  C   UNL     1     -11.787   8.275  72.385  1.00  0.00    -0.396 C  
HETATM    4  C   UNL     1     -10.518   9.030  72.064  1.00  0.00    -0.309 C  
HETATM    5  C   UNL     1     -10.834   9.691  70.735  1.00  0.00    -0.400 C  
HETATM    6  C   UNL     1     -12.362   9.852  70.709  1.00  0.00    -0.273 C  
ENDROOT
BRANCH   6   7
HETATM    7  C   UNL     1     -12.810  11.321  70.661  1.00  0.00    -0.226 C  
BRANCH   7   8
HETATM    8  C   UNL     1     -11.696  12.318  70.321  1.00  0.00    -0.137 C  
BRANCH   8   9
HETATM    9  O   UNL     1     -11.901  12.866  69.020  1.00  0.00    -0.299 OA 
HETATM   10  C   UNL     1     -10.713  13.155  68.231  1.00  0.00    -0.245 C  
HETATM   11  C   UNL     1      -9.964  11.838  67.904  1.00  0.00    -0.187 A  
HETATM   12  C   UNL     1     -11.206  13.788  66.897  1.00  0.00    -0.326 A  
HETATM   13  C   UNL     1      -9.853  14.188  69.004  1.00  0.00    -0.034 C  
HETATM   14  C   UNL     1      -8.599  11.648  68.193  1.00  0.00    -0.158 A  
HETATM   15  C   UNL     1     -12.492  13.500  66.395  1.00  0.00    -0.349 A  
HETATM   16  C   UNL     1     -12.898  13.939  65.131  1.00  0.00    -0.383 A  
HETATM   17  C   UNL     1      -7.939  10.469  67.827  1.00  0.00    -0.106 A  
HETATM   18  C   UNL     1      -8.629   9.462  67.161  1.00  0.00    -0.128 A  
HETATM   19  C   UNL     1     -12.039  14.702  64.349  1.00  0.00    -0.481 A  
HETATM   20 CL   UNL     1      -7.803   8.033  66.678  1.00  0.00    -0.097 Cl 
HETATM   21  C   UNL     1      -9.982   9.612  66.878  1.00  0.00    -0.272 A  
HETATM   22  C   UNL     1     -10.778  15.033  64.833  1.00  0.00    -0.420 A  
HETATM   23  C   UNL     1     -10.362  14.574  66.087  1.00  0.00    -0.305 A  
HETATM   24  C   UNL     1     -10.643  10.784  67.257  1.00  0.00    -0.304 A  
ENDBRANCH   8   9
ENDBRANCH   7   8
ENDBRANCH   6   7
TORSDOF 3
ENDMDL
MODEL       22
REMARK 921   NORMALIZED FREE ENERGY PREDICTED BY IDOCK:   -5.85 KCAL/MOL
REMARK 922        TOTAL FREE ENERGY PREDICTED BY IDOCK:   -7.57 KCAL/MOL
REMARK 923 INTER-LIGAND FREE ENERGY PREDICTED BY IDOCK:   -6.61 KCAL/MOL
REMARK 924 INTRA-LIGAND FREE ENERGY PREDICTED BY IDOCK:   -0.97 KCAL/MOL
REMARK 927      BINDING AFFINITY PREDICTED BY RF-SCORE:    0.00 PKD
ROOT
HETATM    1  C   UNL     1     -13.249  10.581  71.793  1.00  0.00    -0.417 C  
HETATM    2  N   UNL     1     -13.134   9.155  72.081  1.00  0.00    -0.415 NA 
HETATM    3  C   UNL     1     -14.395   8.460  71.812  1.00  0.00    -0.472 C  
HETATM    4  C   UNL     1     -13.962   7.013  71.758  1.00  0.00    -0.342 C  
HETATM    5  C   UNL     1     -12.641   7.074  71.014  1.00  0.00    -0.338 C  
HETATM    6  C   UNL     1     -12.085   8.482  71.279  1.00  0.00    -0.286 C  
ENDROOT
BRANCH   6   7
HETATM    7  C   UNL     1     -10.757   8.467  72.054  1.00  0.00    -0.410 C  
BRANCH   7   8
HETATM    8  C   UNL     1      -9.548   8.976  71.260  1.00  0.00    -0.291 C  
BRANCH   8   9
HETATM    9  O   UNL     1      -9.964   9.913  70.269  1.00  0.00    -0.254 OA 
HETATM   10  C   UNL     1      -9.192   9.956  69.037  1.00  0.00    -0.168 C  
HETATM   11  C   UNL     1      -9.333   8.612  68.279  1.00  0.00    -0.143 A  
HETATM   12  C   UNL     1      -9.810  11.086  68.161  1.00  0.00    -0.185 A  
HETATM   13  C   UNL     1      -7.727  10.324  69.392  1.00  0.00    -0.146 C  
HETATM   14  C   UNL     1      -8.222   7.853  67.862  1.00  0.00    -0.129 A  
HETATM   15  C   UNL     1     -11.163  11.454  68.312  1.00  0.00    -0.326 A  
HETATM   16  C   UNL     1     -11.774  12.360  67.440  1.00  0.00    -0.417 A  
HETATM   17  C   UNL     1      -8.385   6.675  67.125  1.00  0.00    -0.113 A  
HETATM   18  C   UNL     1      -9.660   6.236  66.785  1.00  0.00    -0.153 A  
HETATM   19  C   UNL     1     -11.041  12.941  66.411  1.00  0.00    -0.316 A  
HETATM   20 CL   UNL     1      -9.853   4.810  65.844  1.00  0.00    -0.204 Cl 
HETATM   21  C   UNL     1     -10.778   6.953  67.198  1.00  0.00    -0.436 A  
HETATM   22  C   UNL     1      -9.695  12.624  66.261  1.00  0.00    -0.260 A  
HETATM   23  C   UNL     1      -9.089  11.700  67.118  1.00  0.00    -0.171 A  
HETATM   24  C   UNL     1     -10.614   8.123  67.946  1.00  0.00    -0.212 A  
ENDBRANCH   8   9
ENDBRANCH   7   8
ENDBRANCH   6   7
TORSDOF 3
ENDMDL
MODEL       23
REMARK 921   NORMALIZED FREE ENERGY PREDICTED BY IDOCK:   -5.85 KCAL/MOL
REMARK 922        TOTAL FREE ENERGY PREDICTED BY IDOCK:   -7.57 KCAL/MOL
REMARK 923 INTER-LIGAND FREE ENERGY PREDICTED BY IDOCK:   -6.82 KCAL/MOL
REMARK 924 INTRA-LIGAND FREE ENERGY PREDICTED BY IDOCK:   -0.75 KCAL/MOL
REMARK 927      BINDING AFFINITY PREDICTED BY RF-SCORE:    0.00 PKD
ROOT
HETATM    1  C   UNL     1     -10.859  19.025  66.854  1.00  0.00    -0.305 C  
HETATM    2  N   UNL     1      -9.806  18.294  66.155  1.00  0.00    -0.505 NA 
HETATM    3  C   UNL     1      -8.480  18.710  66.621  1.00  0.00    -0.292 C  
HETATM    4  C   UNL     1      -7.597  17.591  66.118  1.00  0.00    -0.320 C  
HETATM    5  C   UNL     1      -8.434  16.350  66.367  1.00  0.00    -0.364 C  
HETATM    6  C   UNL     1      -9.895  16.827  66.340  1.00  0.00    -0.297 C  
ENDROOT
BRANCH   6   7
HETATM    7  C   UNL     1     -10.710  16.200  65.198  1.00  0.00    -0.391 C  
BRANCH   7   8
HETATM    8  C   UNL     1     -10.800  14.670  65.242  1.00  0.00    -0.377 C  
BRANCH   8   9
HETATM    9  O   UNL     1     -11.261  14.237  66.520  1.00  0.00    -0.316 OA 
HETATM   10  C   UNL     1     -11.057  12.836  66.855  1.00  0.00    -0.270 C  
HETATM   11  C   UNL     1      -9.540  12.532  66.948  1.00  0.00    -0.229 A  
HETATM   12  C   UNL     1     -11.693  12.615  68.259  1.00  0.00    -0.389 A  
HETATM   13  C   UNL     1     -11.806  11.970  65.809  1.00  0.00    -0.236 C  
HETATM   14  C   UNL     1      -8.927  11.493  66.223  1.00  0.00    -0.199 A  
HETATM   15  C   UNL     1     -11.811  13.683  69.172  1.00  0.00    -0.394 A  
HETATM   16  C   UNL     1     -12.242  13.477  70.486  1.00  0.00    -0.433 A  
HETATM   17  C   UNL     1      -7.566  11.206  66.379  1.00  0.00    -0.109 A  
HETATM   18  C   UNL     1      -6.794  11.949  67.266  1.00  0.00    -0.142 A  
HETATM   19  C   UNL     1     -12.594  12.201  70.912  1.00  0.00    -0.340 A  
HETATM   20 CL   UNL     1      -5.132  11.567  67.483  1.00  0.00    -0.046 Cl 
HETATM   21  C   UNL     1      -7.366  12.994  67.982  1.00  0.00    -0.123 A  
HETATM   22  C   UNL     1     -12.522  11.134  70.023  1.00  0.00    -0.292 A  
HETATM   23  C   UNL     1     -12.068  11.336  68.716  1.00  0.00    -0.258 A  
HETATM   24  C   UNL     1      -8.723  13.288  67.815  1.00  0.00    -0.194 A  
ENDBRANCH   8   9
ENDBRANCH   7   8
ENDBRANCH   6   7
TORSDOF 3
ENDMDL
MODEL       24
REMARK 921   NORMALIZED FREE ENERGY PREDICTED BY IDOCK:   -5.84 KCAL/MOL
REMARK 922        TOTAL FREE ENERGY PREDICTED BY IDOCK:   -7.56 KCAL/MOL
REMARK 923 INTER-LIGAND FREE ENERGY PREDICTED BY IDOCK:   -6.37 KCAL/MOL
REMARK 924 INTRA-LIGAND FREE ENERGY PREDICTED BY IDOCK:   -1.20 KCAL/MOL
REMARK 927      BINDING AFFINITY PREDICTED BY RF-SCORE:    0.00 PKD
ROOT
HETATM    1  C   UNL     1      -8.568   9.473  66.594  1.00  0.00    -0.134 C  
HETATM    2  N   UNL     1      -9.564  10.487  66.925  1.00  0.00    -0.172 NA 
HETATM    3  C   UNL     1     -10.803   9.869  67.406  1.00  0.00    -0.227 C  
HETATM    4  C   UNL     1     -11.507  11.031  68.068  1.00  0.00    -0.365 C  
HETATM    5  C   UNL     1     -10.380  11.762  68.774  1.00  0.00    -0.198 C  
HETATM    6  C   UNL     1      -9.110  11.429  67.975  1.00  0.00    -0.171 C  
ENDROOT
BRANCH   6   7
HETATM    7  C   UNL     1      -8.465  12.666  67.329  1.00  0.00    -0.193 C  
BRANCH   7   8
HETATM    8  C   UNL     1      -9.296  13.311  66.214  1.00  0.00    -0.120 C  
BRANCH   8   9
HETATM    9  O   UNL     1      -9.072  14.719  66.179  1.00  0.00    -0.246 OA 
HETATM   10  C   UNL     1     -10.212  15.576  66.462  1.00  0.00    -0.283 C  
HETATM   11  C   UNL     1     -10.679  15.367  67.925  1.00  0.00    -0.286 A  
HETATM   12  C   UNL     1      -9.719  17.044  66.305  1.00  0.00    -0.302 A  
HETATM   13  C   UNL     1     -11.313  15.288  65.407  1.00  0.00    -0.253 C  
HETATM   14  C   UNL     1     -12.009  15.048  68.261  1.00  0.00    -0.214 A  
HETATM   15  C   UNL     1      -8.360  17.371  66.498  1.00  0.00    -0.308 A  
HETATM   16  C   UNL     1      -7.923  18.699  66.506  1.00  0.00    -0.296 A  
HETATM   17  C   UNL     1     -12.409  14.928  69.596  1.00  0.00    -0.244 A  
HETATM   18  C   UNL     1     -11.491  15.130  70.621  1.00  0.00    -0.305 A  
HETATM   19  C   UNL     1      -8.828  19.733  66.293  1.00  0.00    -0.417 A  
HETATM   20 CL   UNL     1     -11.997  15.021  72.260  1.00  0.00    -0.444 Cl 
HETATM   21  C   UNL     1     -10.166  15.428  70.321  1.00  0.00    -0.134 A  
HETATM   22  C   UNL     1     -10.168  19.438  66.064  1.00  0.00    -0.540 A  
HETATM   23  C   UNL     1     -10.610  18.111  66.079  1.00  0.00    -0.278 A  
HETATM   24  C   UNL     1      -9.765  15.534  68.986  1.00  0.00    -0.237 A  
ENDBRANCH   8   9
ENDBRANCH   7   8
ENDBRANCH   6   7
TORSDOF 3
ENDMDL
MODEL       25
REMARK 921   NORMALIZED FREE ENERGY PREDICTED BY IDOCK:   -5.84 KCAL/MOL
REMARK 922        TOTAL FREE ENERGY PREDICTED BY IDOCK:   -7.56 KCAL/MOL
REMARK 923 INTER-LIGAND FREE ENERGY PREDICTED BY IDOCK:   -7.08 KCAL/MOL
REMARK 924 INTRA-LIGAND FREE ENERGY PREDICTED BY IDOCK:   -0.48 KCAL/MOL
REMARK 927      BINDING AFFINITY PREDICTED BY RF-SCORE:    0.00 PKD
ROOT
HETATM    1  C   UNL     1     -10.301   8.719  70.234  1.00  0.00    -0.203 C  
HETATM    2  N   UNL     1     -11.678   9.113  70.516  1.00  0.00    -0.208 NA 
HETATM    3  C   UNL     1     -12.139   8.543  71.784  1.00  0.00    -0.333 C  
HETATM    4  C   UNL     1     -13.362   9.377  72.087  1.00  0.00    -0.545 C  
HETATM    5  C   UNL     1     -12.937  10.776  71.681  1.00  0.00    -0.581 C  
HETATM    6  C   UNL     1     -11.856  10.581  70.606  1.00  0.00    -0.360 C  
ENDROOT
BRANCH   6   7
HETATM    7  C   UNL     1     -12.263  11.148  69.236  1.00  0.00    -0.295 C  
BRANCH   7   8
HETATM    8  C   UNL     1     -11.299  12.194  68.665  1.00  0.00    -0.280 C  
BRANCH   8   9
HETATM    9  O   UNL     1     -10.615  11.670  67.529  1.00  0.00    -0.197 OA 
HETATM   10  C   UNL     1     -10.663  12.460  66.308  1.00  0.00    -0.256 C  
HETATM   11  C   UNL     1      -9.932  13.809  66.522  1.00  0.00    -0.290 A  
HETATM   12  C   UNL     1      -9.899  11.649  65.221  1.00  0.00    -0.279 A  
HETATM   13  C   UNL     1     -12.148  12.614  65.885  1.00  0.00    -0.459 C  
HETATM   14  C   UNL     1     -10.535  15.053  66.255  1.00  0.00    -0.309 A  
HETATM   15  C   UNL     1      -8.889  10.733  65.583  1.00  0.00    -0.202 A  
HETATM   16  C   UNL     1      -8.092  10.106  64.620  1.00  0.00    -0.153 A  
HETATM   17  C   UNL     1      -9.824  16.249  66.401  1.00  0.00    -0.310 A  
HETATM   18  C   UNL     1      -8.495  16.225  66.811  1.00  0.00    -0.247 A  
HETATM   19  C   UNL     1      -8.303  10.358  63.269  1.00  0.00    -0.163 A  
HETATM   20 CL   UNL     1      -7.614  17.694  66.950  1.00  0.00    -0.228 Cl 
HETATM   21  C   UNL     1      -7.877  15.014  67.101  1.00  0.00    -0.224 A  
HETATM   22  C   UNL     1      -9.315  11.229  62.881  1.00  0.00    -0.376 A  
HETATM   23  C   UNL     1     -10.097  11.874  63.844  1.00  0.00    -0.396 A  
HETATM   24  C   UNL     1      -8.593  13.820  66.968  1.00  0.00    -0.182 A  
ENDBRANCH   8   9
ENDBRANCH   7   8
ENDBRANCH   6   7
TORSDOF 3
ENDMDL
MODEL       26
REMARK 921   NORMALIZED FREE ENERGY PREDICTED BY IDOCK:   -5.84 KCAL/MOL
REMARK 922        TOTAL FREE ENERGY PREDICTED BY IDOCK:   -7.56 KCAL/MOL
REMARK 923 INTER-LIGAND FREE ENERGY PREDICTED BY IDOCK:   -6.92 KCAL/MOL
REMARK 924 INTRA-LIGAND FREE ENERGY PREDICTED BY IDOCK:   -0.64 KCAL/MOL
REMARK 927      BINDING AFFINITY PREDICTED BY RF-SCORE:    0.00 PKD
ROOT
HETATM    1  C   UNL     1      -9.976   8.808  71.694  1.00  0.00    -0.311 C  
HETATM    2  N   UNL     1     -11.314   9.142  71.217  1.00  0.00    -0.306 NA 
HETATM    3  C   UNL     1     -12.311   8.956  72.275  1.00  0.00    -0.360 C  
HETATM    4  C   UNL     1     -13.495   9.727  71.741  1.00  0.00    -0.463 C  
HETATM    5  C   UNL     1     -12.859  10.963  71.132  1.00  0.00    -0.508 C  
HETATM    6  C   UNL     1     -11.431  10.542  70.747  1.00  0.00    -0.285 C  
ENDROOT
BRANCH   6   7
HETATM    7  C   UNL     1     -11.172  10.614  69.234  1.00  0.00    -0.332 C  
BRANCH   7   8
HETATM    8  C   UNL     1      -9.810  11.204  68.846  1.00  0.00    -0.162 C  
BRANCH   8   9
HETATM    9  O   UNL     1      -9.892  12.625  68.761  1.00  0.00    -0.116 OA 
HETATM   10  C   UNL     1      -9.423  13.239  67.529  1.00  0.00    -0.220 C  
HETATM   11  C   UNL     1     -10.322  12.801  66.345  1.00  0.00    -0.271 A  
HETATM   12  C   UNL     1      -9.566  14.779  67.714  1.00  0.00    -0.209 A  
HETATM   13  C   UNL     1      -7.926  12.881  67.343  1.00  0.00    -0.178 C  
HETATM   14  C   UNL     1      -9.805  12.225  65.169  1.00  0.00    -0.178 A  
HETATM   15  C   UNL     1     -10.525  15.311  68.600  1.00  0.00    -0.235 A  
HETATM   16  C   UNL     1     -10.769  16.686  68.672  1.00  0.00    -0.349 A  
HETATM   17  C   UNL     1     -10.639  11.898  64.095  1.00  0.00    -0.397 A  
HETATM   18  C   UNL     1     -12.006  12.145  64.173  1.00  0.00    -0.408 A  
HETATM   19  C   UNL     1     -10.040  17.566  67.881  1.00  0.00    -0.330 A  
HETATM   20 CL   UNL     1     -13.021  11.778  62.835  1.00  0.00     0.044 Cl 
HETATM   21  C   UNL     1     -12.550  12.695  65.328  1.00  0.00    -0.388 A  
HETATM   22  C   UNL     1      -9.062  17.073  67.024  1.00  0.00    -0.234 A  
HETATM   23  C   UNL     1      -8.834  15.696  66.934  1.00  0.00    -0.279 A  
HETATM   24  C   UNL     1     -11.716  13.008  66.406  1.00  0.00    -0.444 A  
ENDBRANCH   8   9
ENDBRANCH   7   8
ENDBRANCH   6   7
TORSDOF 3
ENDMDL
MODEL       27
REMARK 921   NORMALIZED FREE ENERGY PREDICTED BY IDOCK:   -5.83 KCAL/MOL
REMARK 922        TOTAL FREE ENERGY PREDICTED BY IDOCK:   -7.55 KCAL/MOL
REMARK 923 INTER-LIGAND FREE ENERGY PREDICTED BY IDOCK:   -7.43 KCAL/MOL
REMARK 924 INTRA-LIGAND FREE ENERGY PREDICTED BY IDOCK:   -0.12 KCAL/MOL
REMARK 927      BINDING AFFINITY PREDICTED BY RF-SCORE:    0.00 PKD
ROOT
HETATM    1  C   UNL     1     -10.888  11.337  66.820  1.00  0.00    -0.282 C  
HETATM    2  N   UNL     1     -10.902  11.956  65.498  1.00  0.00    -0.288 NA 
HETATM    3  C   UNL     1     -10.405  11.029  64.479  1.00  0.00    -0.354 C  
HETATM    4  C   UNL     1     -10.883  11.672  63.198  1.00  0.00    -0.281 C  
HETATM    5  C   UNL     1     -12.274  12.162  63.554  1.00  0.00    -0.670 C  
HETATM    6  C   UNL     1     -12.253  12.391  65.073  1.00  0.00    -0.399 C  
ENDROOT
BRANCH   6   7
HETATM    7  C   UNL     1     -12.481  13.860  65.462  1.00  0.00    -0.541 C  
BRANCH   7   8
HETATM    8  C   UNL     1     -11.806  14.287  66.771  1.00  0.00    -0.426 C  
BRANCH   8   9
HETATM    9  O   UNL     1     -11.480  15.675  66.731  1.00  0.00    -0.091 OA 
HETATM   10  C   UNL     1     -10.769  16.218  67.878  1.00  0.00    -0.329 C  
HETATM   11  C   UNL     1      -9.366  15.568  67.986  1.00  0.00    -0.193 A  
HETATM   12  C   UNL     1     -10.589  17.742  67.611  1.00  0.00    -0.385 A  
HETATM   13  C   UNL     1     -11.650  16.018  69.138  1.00  0.00    -0.337 C  
HETATM   14  C   UNL     1      -8.904  14.946  69.161  1.00  0.00    -0.145 A  
HETATM   15  C   UNL     1     -10.554  18.242  66.293  1.00  0.00    -0.320 A  
HETATM   16  C   UNL     1     -10.248  19.581  66.028  1.00  0.00    -0.567 A  
HETATM   17  C   UNL     1      -7.609  14.424  69.243  1.00  0.00    -0.029 A  
HETATM   18  C   UNL     1      -6.748  14.519  68.154  1.00  0.00    -0.125 A  
HETATM   19  C   UNL     1      -9.996  20.459  67.076  1.00  0.00    -0.568 A  
HETATM   20 CL   UNL     1      -5.144  13.912  68.274  1.00  0.00    -0.103 Cl 
HETATM   21  C   UNL     1      -7.181  15.110  66.973  1.00  0.00     0.060 A  
HETATM   22  C   UNL     1     -10.059  20.002  68.388  1.00  0.00    -0.513 A  
HETATM   23  C   UNL     1     -10.342  18.658  68.652  1.00  0.00    -0.256 A  
HETATM   24  C   UNL     1      -8.481  15.619  66.888  1.00  0.00    -0.286 A  
ENDBRANCH   8   9
ENDBRANCH   7   8
ENDBRANCH   6   7
TORSDOF 3
ENDMDL
MODEL       28
REMARK 921   NORMALIZED FREE ENERGY PREDICTED BY IDOCK:   -5.80 KCAL/MOL
REMARK 922        TOTAL FREE ENERGY PREDICTED BY IDOCK:   -7.51 KCAL/MOL
REMARK 923 INTER-LIGAND FREE ENERGY PREDICTED BY IDOCK:   -6.90 KCAL/MOL
REMARK 924 INTRA-LIGAND FREE ENERGY PREDICTED BY IDOCK:   -0.61 KCAL/MOL
REMARK 927      BINDING AFFINITY PREDICTED BY RF-SCORE:    0.00 PKD
ROOT
HETATM    1  C   UNL     1     -10.388   6.703  68.446  1.00  0.00    -0.193 C  
HETATM    2  N   UNL     1     -10.553   7.898  69.268  1.00  0.00    -0.214 NA 
HETATM    3  C   UNL     1     -11.248   7.583  70.520  1.00  0.00    -0.269 C  
HETATM    4  C   UNL     1     -10.948   8.797  71.369  1.00  0.00    -0.360 C  
HETATM    5  C   UNL     1      -9.496   9.096  71.045  1.00  0.00    -0.344 C  
HETATM    6  C   UNL     1      -9.267   8.537  69.632  1.00  0.00    -0.157 C  
ENDROOT
BRANCH   6   7
HETATM    7  C   UNL     1      -8.911   9.625  68.606  1.00  0.00    -0.128 C  
BRANCH   7   8
HETATM    8  C   UNL     1      -9.174  11.060  69.079  1.00  0.00    -0.064 C  
BRANCH   8   9
HETATM    9  O   UNL     1      -9.592  11.874  67.985  1.00  0.00    -0.180 OA 
HETATM   10  C   UNL     1     -10.976  12.320  67.986  1.00  0.00    -0.225 C  
HETATM   11  C   UNL     1     -11.227  13.260  69.193  1.00  0.00    -0.305 A  
HETATM   12  C   UNL     1     -11.185  13.132  66.674  1.00  0.00    -0.335 A  
HETATM   13  C   UNL     1     -11.892  11.068  67.967  1.00  0.00    -0.152 C  
HETATM   14  C   UNL     1     -12.262  13.044  70.122  1.00  0.00    -0.342 A  
HETATM   15  C   UNL     1     -10.100  13.780  66.048  1.00  0.00    -0.320 A  
HETATM   16  C   UNL     1     -10.289  14.632  64.956  1.00  0.00    -0.432 A  
HETATM   17  C   UNL     1     -12.500  13.947  71.164  1.00  0.00    -0.450 A  
HETATM   18  C   UNL     1     -11.711  15.085  71.294  1.00  0.00    -0.347 A  
HETATM   19  C   UNL     1     -11.566  14.837  64.444  1.00  0.00    -0.304 A  
HETATM   20 CL   UNL     1     -12.032  16.212  72.552  1.00  0.00    -0.624 Cl 
HETATM   21  C   UNL     1     -10.669  15.317  70.403  1.00  0.00    -0.268 A  
HETATM   22  C   UNL     1     -12.651  14.183  65.019  1.00  0.00    -0.399 A  
HETATM   23  C   UNL     1     -12.464  13.349  66.126  1.00  0.00    -0.389 A  
HETATM   24  C   UNL     1     -10.424  14.406  69.371  1.00  0.00    -0.097 A  
ENDBRANCH   8   9
ENDBRANCH   7   8
ENDBRANCH   6   7
TORSDOF 3
ENDMDL
MODEL       29
REMARK 921   NORMALIZED FREE ENERGY PREDICTED BY IDOCK:   -5.76 KCAL/MOL
REMARK 922        TOTAL FREE ENERGY PREDICTED BY IDOCK:   -7.47 KCAL/MOL
REMARK 923 INTER-LIGAND FREE ENERGY PREDICTED BY IDOCK:   -6.90 KCAL/MOL
REMARK 924 INTRA-LIGAND FREE ENERGY PREDICTED BY IDOCK:   -0.56 KCAL/MOL
REMARK 927      BINDING AFFINITY PREDICTED BY RF-SCORE:    0.00 PKD
ROOT
HETATM    1  C   UNL     1      -7.967   9.831  65.526  1.00  0.00    -0.123 C  
HETATM    2  N   UNL     1      -8.874  10.938  65.237  1.00  0.00    -0.190 NA 
HETATM    3  C   UNL     1      -9.865  10.557  64.228  1.00  0.00    -0.338 C  
HETATM    4  C   UNL     1     -10.914  11.634  64.382  1.00  0.00    -0.399 C  
HETATM    5  C   UNL     1     -10.996  11.825  65.885  1.00  0.00    -0.354 C  
HETATM    6  C   UNL     1      -9.620  11.406  66.428  1.00  0.00    -0.205 C  
ENDROOT
BRANCH   6   7
HETATM    7  C   UNL     1      -8.865  12.560  67.105  1.00  0.00    -0.202 C  
BRANCH   7   8
HETATM    8  C   UNL     1      -9.671  13.315  68.168  1.00  0.00    -0.227 C  
BRANCH   8   9
HETATM    9  O   UNL     1      -9.369  14.708  68.123  1.00  0.00    -0.186 OA 
HETATM   10  C   UNL     1     -10.497  15.626  68.084  1.00  0.00    -0.259 C  
HETATM   11  C   UNL     1     -11.309  15.522  69.400  1.00  0.00    -0.321 A  
HETATM   12  C   UNL     1      -9.902  17.061  67.983  1.00  0.00    -0.275 A  
HETATM   13  C   UNL     1     -11.329  15.324  66.810  1.00  0.00    -0.183 C  
HETATM   14  C   UNL     1     -12.695  15.277  69.421  1.00  0.00     0.189 A  
HETATM   15  C   UNL     1      -8.613  17.343  68.481  1.00  0.00    -0.270 A  
HETATM   16  C   UNL     1      -8.119  18.650  68.533  1.00  0.00    -0.370 A  
HETATM   17  C   UNL     1     -13.408  15.251  70.625  1.00  0.00    -0.320 A  
HETATM   18  C   UNL     1     -12.749  15.474  71.830  1.00  0.00    -0.417 A  
HETATM   19  C   UNL     1      -8.891  19.706  68.061  1.00  0.00    -0.371 A  
HETATM   20 CL   UNL     1     -13.636  15.481  73.303  1.00  0.00    -0.493 Cl 
HETATM   21  C   UNL     1     -11.377  15.700  71.844  1.00  0.00    -0.421 A  
HETATM   22  C   UNL     1     -10.151  19.454  67.530  1.00  0.00    -0.507 A  
HETATM   23  C   UNL     1     -10.655  18.150  67.500  1.00  0.00    -0.419 A  
HETATM   24  C   UNL     1     -10.665  15.712  70.641  1.00  0.00    -0.242 A  
ENDBRANCH   8   9
ENDBRANCH   7   8
ENDBRANCH   6   7
TORSDOF 3
ENDMDL
MODEL       30
REMARK 921   NORMALIZED FREE ENERGY PREDICTED BY IDOCK:   -5.69 KCAL/MOL
REMARK 922        TOTAL FREE ENERGY PREDICTED BY IDOCK:   -7.38 KCAL/MOL
REMARK 923 INTER-LIGAND FREE ENERGY PREDICTED BY IDOCK:   -6.66 KCAL/MOL
REMARK 924 INTRA-LIGAND FREE ENERGY PREDICTED BY IDOCK:   -0.72 KCAL/MOL
REMARK 927      BINDING AFFINITY PREDICTED BY RF-SCORE:    0.00 PKD
ROOT
HETATM    1  C   UNL     1      -5.428  13.650  70.960  1.00  0.00    -0.195 C  
HETATM    2  N   UNL     1      -6.367  14.083  69.930  1.00  0.00    -0.139 NA 
HETATM    3  C   UNL     1      -6.628  15.522  70.027  1.00  0.00    -0.079 C  
HETATM    4  C   UNL     1      -7.245  15.828  68.682  1.00  0.00    -0.135 C  
HETATM    5  C   UNL     1      -6.418  14.994  67.722  1.00  0.00    -0.183 C  
HETATM    6  C   UNL     1      -5.884  13.818  68.554  1.00  0.00    -0.090 C  
ENDROOT
BRANCH   6   7
HETATM    7  C   UNL     1      -6.402  12.455  68.067  1.00  0.00    -0.082 C  
BRANCH   7   8
HETATM    8  C   UNL     1      -7.864  12.163  68.422  1.00  0.00    -0.149 C  
BRANCH   8   9
HETATM    9  O   UNL     1      -8.734  12.711  67.434  1.00  0.00    -0.172 OA 
HETATM   10  C   UNL     1     -10.028  12.068  67.264  1.00  0.00    -0.194 C  
HETATM   11  C   UNL     1     -10.872  12.233  68.553  1.00  0.00    -0.267 A  
HETATM   12  C   UNL     1     -10.748  12.813  66.102  1.00  0.00    -0.297 A  
HETATM   13  C   UNL     1      -9.789  10.590  66.857  1.00  0.00    -0.235 C  
HETATM   14  C   UNL     1     -11.452  11.141  69.227  1.00  0.00    -0.363 A  
HETATM   15  C   UNL     1     -10.438  14.158  65.808  1.00  0.00    -0.320 A  
HETATM   16  C   UNL     1     -11.174  14.887  64.869  1.00  0.00    -0.415 A  
HETATM   17  C   UNL     1     -12.261  11.332  70.353  1.00  0.00    -0.453 A  
HETATM   18  C   UNL     1     -12.509  12.617  70.824  1.00  0.00    -0.270 A  
HETATM   19  C   UNL     1     -12.219  14.284  64.180  1.00  0.00    -0.410 A  
HETATM   20 CL   UNL     1     -13.536  12.848  72.183  1.00  0.00    -0.642 Cl 
HETATM   21  C   UNL     1     -11.935  13.714  70.191  1.00  0.00    -0.407 A  
HETATM   22  C   UNL     1     -12.524  12.949  64.423  1.00  0.00    -0.447 A  
HETATM   23  C   UNL     1     -11.804  12.225  65.379  1.00  0.00    -0.418 A  
HETATM   24  C   UNL     1     -11.116  13.521  69.074  1.00  0.00    -0.293 A  
ENDBRANCH   8   9
ENDBRANCH   7   8
ENDBRANCH   6   7
TORSDOF 3
ENDMDL
MODEL       31
REMARK 921   NORMALIZED FREE ENERGY PREDICTED BY IDOCK:   -5.67 KCAL/MOL
REMARK 922        TOTAL FREE ENERGY PREDICTED BY IDOCK:   -7.36 KCAL/MOL
REMARK 923 INTER-LIGAND FREE ENERGY PREDICTED BY IDOCK:   -6.31 KCAL/MOL
REMARK 924 INTRA-LIGAND FREE ENERGY PREDICTED BY IDOCK:   -1.04 KCAL/MOL
REMARK 927      BINDING AFFINITY PREDICTED BY RF-SCORE:    0.00 PKD
ROOT
HETATM    1  C   UNL     1     -10.602  11.421  64.215  1.00  0.00    -0.355 C  
HETATM    2  N   UNL     1     -11.118  12.660  64.789  1.00  0.00    -0.289 NA 
HETATM    3  C   UNL     1     -12.583  12.688  64.751  1.00  0.00    -0.454 C  
HETATM    4  C   UNL     1     -12.910  13.792  65.729  1.00  0.00    -0.430 C  
HETATM    5  C   UNL     1     -11.913  13.567  66.851  1.00  0.00    -0.447 C  
HETATM    6  C   UNL     1     -10.714  12.861  66.200  1.00  0.00    -0.272 C  
ENDROOT
BRANCH   6   7
HETATM    7  C   UNL     1      -9.421  13.689  66.266  1.00  0.00    -0.209 C  
BRANCH   7   8
HETATM    8  C   UNL     1      -9.562  15.134  65.772  1.00  0.00    -0.309 C  
BRANCH   8   9
HETATM    9  O   UNL     1      -8.701  15.997  66.511  1.00  0.00    -0.242 OA 
HETATM   10  C   UNL     1      -9.335  17.020  67.328  1.00  0.00    -0.237 C  
HETATM   11  C   UNL     1     -10.161  16.356  68.459  1.00  0.00    -0.257 A  
HETATM   12  C   UNL     1      -8.188  17.850  67.976  1.00  0.00    -0.257 A  
HETATM   13  C   UNL     1     -10.172  17.938  66.398  1.00  0.00    -0.372 C  
HETATM   14  C   UNL     1     -11.522  16.646  68.677  1.00  0.00    -0.046 A  
HETATM   15  C   UNL     1      -6.919  17.275  68.194  1.00  0.00    -0.181 A  
HETATM   16  C   UNL     1      -5.923  17.953  68.905  1.00  0.00    -0.202 A  
HETATM   17  C   UNL     1     -12.221  16.074  69.747  1.00  0.00    -0.027 A  
HETATM   18  C   UNL     1     -11.573  15.207  70.620  1.00  0.00    -0.309 A  
HETATM   19  C   UNL     1      -6.161  19.233  69.391  1.00  0.00    -0.324 A  
HETATM   20 CL   UNL     1     -12.426  14.540  71.955  1.00  0.00    -0.397 Cl 
HETATM   21  C   UNL     1     -10.235  14.887  70.419  1.00  0.00     0.262 A  
HETATM   22  C   UNL     1      -7.391  19.840  69.159  1.00  0.00    -0.290 A  
HETATM   23  C   UNL     1      -8.396  19.153  68.468  1.00  0.00    -0.399 A  
HETATM   24  C   UNL     1      -9.541  15.448  69.343  1.00  0.00    -0.270 A  
ENDBRANCH   8   9
ENDBRANCH   7   8
ENDBRANCH   6   7
TORSDOF 3
ENDMDL
MODEL       32
REMARK 921   NORMALIZED FREE ENERGY PREDICTED BY IDOCK:   -5.66 KCAL/MOL
REMARK 922        TOTAL FREE ENERGY PREDICTED BY IDOCK:   -7.35 KCAL/MOL
REMARK 923 INTER-LIGAND FREE ENERGY PREDICTED BY IDOCK:   -6.87 KCAL/MOL
REMARK 924 INTRA-LIGAND FREE ENERGY PREDICTED BY IDOCK:   -0.47 KCAL/MOL
REMARK 927      BINDING AFFINITY PREDICTED BY RF-SCORE:    0.00 PKD
ROOT
HETATM    1  C   UNL     1     -13.138  11.723  63.215  1.00  0.00     0.246 C  
HETATM    2  N   UNL     1     -12.079  12.004  64.179  1.00  0.00    -0.377 NA 
HETATM    3  C   UNL     1     -10.874  11.226  63.877  1.00  0.00    -0.354 C  
HETATM    4  C   UNL     1      -9.816  11.944  64.682  1.00  0.00    -0.207 C  
HETATM    5  C   UNL     1     -10.171  13.407  64.493  1.00  0.00    -0.321 C  
HETATM    6  C   UNL     1     -11.681  13.431  64.209  1.00  0.00    -0.412 C  
ENDROOT
BRANCH   6   7
HETATM    7  C   UNL     1     -12.483  14.179  65.286  1.00  0.00    -0.474 C  
BRANCH   7   8
HETATM    8  C   UNL     1     -11.639  15.061  66.213  1.00  0.00    -0.160 C  
BRANCH   8   9
HETATM    9  O   UNL     1     -12.103  14.954  67.557  1.00  0.00    -0.246 OA 
HETATM   10  C   UNL     1     -11.536  13.888  68.368  1.00  0.00    -0.332 C  
HETATM   11  C   UNL     1     -10.020  14.132  68.577  1.00  0.00    -0.235 A  
HETATM   12  C   UNL     1     -12.243  13.956  69.753  1.00  0.00    -0.388 A  
HETATM   13  C   UNL     1     -11.864  12.532  67.690  1.00  0.00    -0.381 C  
HETATM   14  C   UNL     1      -9.044  13.164  68.271  1.00  0.00    -0.181 A  
HETATM   15  C   UNL     1     -12.781  15.170  70.229  1.00  0.00    -0.340 A  
HETATM   16  C   UNL     1     -13.287  15.286  71.527  1.00  0.00    -0.559 A  
HETATM   17  C   UNL     1      -7.689  13.395  68.530  1.00  0.00    -0.124 A  
HETATM   18  C   UNL     1      -7.283  14.596  69.104  1.00  0.00    -0.142 A  
HETATM   19  C   UNL     1     -13.295  14.184  72.373  1.00  0.00    -0.591 A  
HETATM   20 CL   UNL     1      -5.621  14.858  69.458  1.00  0.00    -0.096 Cl 
HETATM   21  C   UNL     1      -8.220  15.579  69.400  1.00  0.00    -0.247 A  
HETATM   22  C   UNL     1     -12.805  12.963  71.920  1.00  0.00    -0.315 A  
HETATM   23  C   UNL     1     -12.276  12.853  70.630  1.00  0.00    -0.386 A  
HETATM   24  C   UNL     1      -9.573  15.352  69.128  1.00  0.00    -0.253 A  
ENDBRANCH   8   9
ENDBRANCH   7   8
ENDBRANCH   6   7
TORSDOF 3
ENDMDL
MODEL       33
REMARK 921   NORMALIZED FREE ENERGY PREDICTED BY IDOCK:   -5.63 KCAL/MOL
REMARK 922        TOTAL FREE ENERGY PREDICTED BY IDOCK:   -7.31 KCAL/MOL
REMARK 923 INTER-LIGAND FREE ENERGY PREDICTED BY IDOCK:   -6.44 KCAL/MOL
REMARK 924 INTRA-LIGAND FREE ENERGY PREDICTED BY IDOCK:   -0.87 KCAL/MOL
REMARK 927      BINDING AFFINITY PREDICTED BY RF-SCORE:    0.00 PKD
ROOT
HETATM    1  C   UNL     1      -9.758  11.509  63.088  1.00  0.00    -0.390 C  
HETATM    2  N   UNL     1     -10.414  11.074  64.317  1.00  0.00    -0.356 NA 
HETATM    3  C   UNL     1      -9.771   9.875  64.861  1.00  0.00    -0.262 C  
HETATM    4  C   UNL     1     -10.292   9.845  66.279  1.00  0.00    -0.233 C  
HETATM    5  C   UNL     1     -10.263  11.305  66.690  1.00  0.00    -0.268 C  
HETATM    6  C   UNL     1     -10.393  12.103  65.383  1.00  0.00    -0.269 C  
ENDROOT
BRANCH   6   7
HETATM    7  C   UNL     1     -11.674  12.950  65.323  1.00  0.00    -0.399 C  
BRANCH   7   8
HETATM    8  C   UNL     1     -11.471  14.438  65.633  1.00  0.00    -0.336 C  
BRANCH   8   9
HETATM    9  O   UNL     1     -10.221  14.643  66.288  1.00  0.00    -0.273 OA 
HETATM   10  C   UNL     1     -10.207  15.569  67.409  1.00  0.00    -0.255 C  
HETATM   11  C   UNL     1     -11.080  15.014  68.563  1.00  0.00    -0.279 A  
HETATM   12  C   UNL     1      -8.732  15.654  67.901  1.00  0.00    -0.166 A  
HETATM   13  C   UNL     1     -10.659  16.962  66.897  1.00  0.00    -0.214 C  
HETATM   14  C   UNL     1     -12.119  15.756  69.156  1.00  0.00    -0.217 A  
HETATM   15  C   UNL     1      -7.842  14.579  67.694  1.00  0.00    -0.194 A  
HETATM   16  C   UNL     1      -6.561  14.575  68.255  1.00  0.00    -0.119 A  
HETATM   17  C   UNL     1     -12.846  15.248  70.238  1.00  0.00    -0.298 A  
HETATM   18  C   UNL     1     -12.546  13.991  70.751  1.00  0.00    -0.360 A  
HETATM   19  C   UNL     1      -6.127  15.657  69.012  1.00  0.00    -0.107 A  
HETATM   20 CL   UNL     1     -13.416  13.388  72.106  1.00  0.00    -0.598 Cl 
HETATM   21  C   UNL     1     -11.538  13.225  70.176  1.00  0.00    -0.155 A  
HETATM   22  C   UNL     1      -6.970  16.746  69.203  1.00  0.00    -0.231 A  
HETATM   23  C   UNL     1      -8.260  16.741  68.662  1.00  0.00    -0.252 A  
HETATM   24  C   UNL     1     -10.821  13.729  69.086  1.00  0.00    -0.205 A  
ENDBRANCH   8   9
ENDBRANCH   7   8
ENDBRANCH   6   7
TORSDOF 3
ENDMDL
MODEL       34
REMARK 921   NORMALIZED FREE ENERGY PREDICTED BY IDOCK:   -5.62 KCAL/MOL
REMARK 922        TOTAL FREE ENERGY PREDICTED BY IDOCK:   -7.30 KCAL/MOL
REMARK 923 INTER-LIGAND FREE ENERGY PREDICTED BY IDOCK:   -6.83 KCAL/MOL
REMARK 924 INTRA-LIGAND FREE ENERGY PREDICTED BY IDOCK:   -0.47 KCAL/MOL
REMARK 927      BINDING AFFINITY PREDICTED BY RF-SCORE:    0.00 PKD
ROOT
HETATM    1  C   UNL     1     -13.496   8.610  72.076  1.00  0.00    -0.403 C  
HETATM    2  N   UNL     1     -12.062   8.880  72.046  1.00  0.00    -0.360 NA 
HETATM    3  C   UNL     1     -11.313   7.822  72.730  1.00  0.00    -0.389 C  
HETATM    4  C   UNL     1      -9.904   8.052  72.235  1.00  0.00    -0.301 C  
HETATM    5  C   UNL     1     -10.102   8.391  70.769  1.00  0.00    -0.226 C  
HETATM    6  C   UNL     1     -11.517   8.982  70.672  1.00  0.00    -0.248 C  
ENDROOT
BRANCH   6   7
HETATM    7  C   UNL     1     -11.525  10.448  70.209  1.00  0.00    -0.406 C  
BRANCH   7   8
HETATM    8  C   UNL     1     -10.417  10.809  69.213  1.00  0.00    -0.217 C  
BRANCH   8   9
HETATM    9  O   UNL     1     -10.921  11.683  68.205  1.00  0.00    -0.199 OA 
HETATM   10  C   UNL     1      -9.946  12.304  67.322  1.00  0.00    -0.204 C  
HETATM   11  C   UNL     1      -9.238  11.219  66.472  1.00  0.00    -0.200 A  
HETATM   12  C   UNL     1     -10.742  13.241  66.366  1.00  0.00    -0.291 A  
HETATM   13  C   UNL     1      -8.977  13.153  68.185  1.00  0.00    -0.195 C  
HETATM   14  C   UNL     1      -7.837  11.091  66.415  1.00  0.00    -0.150 A  
HETATM   15  C   UNL     1     -12.095  12.980  66.065  1.00  0.00    -0.493 A  
HETATM   16  C   UNL     1     -12.783  13.721  65.099  1.00  0.00    -0.439 A  
HETATM   17  C   UNL     1      -7.230  10.140  65.587  1.00  0.00    -0.137 A  
HETATM   18  C   UNL     1      -8.010   9.302  64.799  1.00  0.00    -0.123 A  
HETATM   19  C   UNL     1     -12.144  14.758  64.429  1.00  0.00    -0.457 A  
HETATM   20 CL   UNL     1      -7.258   8.162  63.755  1.00  0.00    -0.091 Cl 
HETATM   21  C   UNL     1      -9.397   9.390  64.848  1.00  0.00    -0.218 A  
HETATM   22  C   UNL     1     -10.821  15.062  64.732  1.00  0.00    -0.375 A  
HETATM   23  C   UNL     1     -10.125  14.306  65.681  1.00  0.00    -0.364 A  
HETATM   24  C   UNL     1     -10.003  10.332  65.685  1.00  0.00    -0.347 A  
ENDBRANCH   8   9
ENDBRANCH   7   8
ENDBRANCH   6   7
TORSDOF 3
ENDMDL
MODEL       35
REMARK 921   NORMALIZED FREE ENERGY PREDICTED BY IDOCK:   -5.62 KCAL/MOL
REMARK 922        TOTAL FREE ENERGY PREDICTED BY IDOCK:   -7.30 KCAL/MOL
REMARK 923 INTER-LIGAND FREE ENERGY PREDICTED BY IDOCK:   -6.69 KCAL/MOL
REMARK 924 INTRA-LIGAND FREE ENERGY PREDICTED BY IDOCK:   -0.61 KCAL/MOL
REMARK 927      BINDING AFFINITY PREDICTED BY RF-SCORE:    0.00 PKD
ROOT
HETATM    1  C   UNL     1     -11.907   9.445  71.155  1.00  0.00    -0.338 C  
HETATM    2  N   UNL     1     -11.092   8.362  70.615  1.00  0.00    -0.255 NA 
HETATM    3  C   UNL     1     -11.798   7.081  70.696  1.00  0.00    -0.330 C  
HETATM    4  C   UNL     1     -11.006   6.216  69.743  1.00  0.00    -0.459 C  
HETATM    5  C   UNL     1     -10.705   7.155  68.590  1.00  0.00    -0.198 C  
HETATM    6  C   UNL     1     -10.719   8.567  69.196  1.00  0.00    -0.110 C  
ENDROOT
BRANCH   6   7
HETATM    7  C   UNL     1      -9.356   9.271  69.105  1.00  0.00    -0.157 C  
BRANCH   7   8
HETATM    8  C   UNL     1      -9.352  10.550  68.258  1.00  0.00    -0.156 C  
BRANCH   8   9
HETATM    9  O   UNL     1     -10.091  11.580  68.911  1.00  0.00    -0.199 OA 
HETATM   10  C   UNL     1      -9.976  12.923  68.365  1.00  0.00    -0.211 C  
HETATM   11  C   UNL     1     -10.572  12.964  66.935  1.00  0.00    -0.262 A  
HETATM   12  C   UNL     1     -10.823  13.853  69.282  1.00  0.00    -0.170 A  
HETATM   13  C   UNL     1      -8.486  13.351  68.433  1.00  0.00    -0.135 C  
HETATM   14  C   UNL     1      -9.854  13.446  65.824  1.00  0.00    -0.213 A  
HETATM   15  C   UNL     1     -11.913  13.341  70.015  1.00  0.00    -0.399 A  
HETATM   16  C   UNL     1     -12.774  14.183  70.727  1.00  0.00    -0.414 A  
HETATM   17  C   UNL     1     -10.445  13.528  64.559  1.00  0.00    -0.426 A  
HETATM   18  C   UNL     1     -11.767  13.133  64.380  1.00  0.00    -0.380 A  
HETATM   19  C   UNL     1     -12.549  15.555  70.746  1.00  0.00    -0.505 A  
HETATM   20 CL   UNL     1     -12.501  13.273  62.832  1.00  0.00     0.053 Cl 
HETATM   21  C   UNL     1     -12.497  12.635  65.453  1.00  0.00    -0.421 A  
HETATM   22  C   UNL     1     -11.460  16.084  70.062  1.00  0.00    -0.334 A  
HETATM   23  C   UNL     1     -10.613  15.245  69.330  1.00  0.00    -0.257 A  
HETATM   24  C   UNL     1     -11.900  12.542  66.714  1.00  0.00    -0.416 A  
ENDBRANCH   8   9
ENDBRANCH   7   8
ENDBRANCH   6   7
TORSDOF 3
ENDMDL
MODEL       36
REMARK 921   NORMALIZED FREE ENERGY PREDICTED BY IDOCK:   -5.57 KCAL/MOL
REMARK 922        TOTAL FREE ENERGY PREDICTED BY IDOCK:   -7.25 KCAL/MOL
REMARK 923 INTER-LIGAND FREE ENERGY PREDICTED BY IDOCK:   -6.62 KCAL/MOL
REMARK 924 INTRA-LIGAND FREE ENERGY PREDICTED BY IDOCK:   -0.63 KCAL/MOL
REMARK 927      BINDING AFFINITY PREDICTED BY RF-SCORE:    0.00 PKD
ROOT
HETATM    1  C   UNL     1      -6.362  17.898  69.487  1.00  0.00    -0.212 C  
HETATM    2  N   UNL     1      -7.575  17.418  68.833  1.00  0.00    -0.251 NA 
HETATM    3  C   UNL     1      -8.351  18.533  68.282  1.00  0.00    -0.322 C  
HETATM    4  C   UNL     1      -9.287  17.832  67.325  1.00  0.00    -0.254 C  
HETATM    5  C   UNL     1      -8.403  16.777  66.685  1.00  0.00    -0.296 C  
HETATM    6  C   UNL     1      -7.304  16.481  67.718  1.00  0.00    -0.138 C  
ENDROOT
BRANCH   6   7
HETATM    7  C   UNL     1      -7.334  15.032  68.228  1.00  0.00    -0.111 C  
BRANCH   7   8
HETATM    8  C   UNL     1      -8.156  14.068  67.365  1.00  0.00    -0.185 C  
BRANCH   8   9
HETATM    9  O   UNL     1      -8.792  13.088  68.183  1.00  0.00    -0.186 OA 
HETATM   10  C   UNL     1     -10.241  13.156  68.289  1.00  0.00    -0.250 C  
HETATM   11  C   UNL     1     -10.885  12.878  66.907  1.00  0.00    -0.278 A  
HETATM   12  C   UNL     1     -10.671  12.027  69.271  1.00  0.00    -0.063 A  
HETATM   13  C   UNL     1     -10.622  14.534  68.890  1.00  0.00    -0.249 C  
HETATM   14  C   UNL     1     -11.810  13.754  66.308  1.00  0.00    -0.426 A  
HETATM   15  C   UNL     1      -9.875  10.875  69.436  1.00  0.00    -0.055 A  
HETATM   16  C   UNL     1     -10.313   9.788  70.198  1.00  0.00    -0.335 A  
HETATM   17  C   UNL     1     -12.419  13.441  65.088  1.00  0.00    -0.509 A  
HETATM   18  C   UNL     1     -12.118  12.244  64.445  1.00  0.00    -0.399 A  
HETATM   19  C   UNL     1     -11.547   9.837  70.839  1.00  0.00    -0.441 A  
HETATM   20 CL   UNL     1     -12.899  11.846  62.966  1.00  0.00    -0.300 Cl 
HETATM   21  C   UNL     1     -11.194  11.367  65.001  1.00  0.00    -0.159 A  
HETATM   22  C   UNL     1     -12.337  10.975  70.724  1.00  0.00    -0.496 A  
HETATM   23  C   UNL     1     -11.910  12.053  69.942  1.00  0.00    -0.405 A  
HETATM   24  C   UNL     1     -10.577  11.688  66.214  1.00  0.00    -0.301 A  
ENDBRANCH   8   9
ENDBRANCH   7   8
ENDBRANCH   6   7
TORSDOF 3
ENDMDL
MODEL       37
REMARK 921   NORMALIZED FREE ENERGY PREDICTED BY IDOCK:   -5.55 KCAL/MOL
REMARK 922        TOTAL FREE ENERGY PREDICTED BY IDOCK:   -7.22 KCAL/MOL
REMARK 923 INTER-LIGAND FREE ENERGY PREDICTED BY IDOCK:   -6.68 KCAL/MOL
REMARK 924 INTRA-LIGAND FREE ENERGY PREDICTED BY IDOCK:   -0.53 KCAL/MOL
REMARK 927      BINDING AFFINITY PREDICTED BY RF-SCORE:    0.00 PKD
ROOT
HETATM    1  C   UNL     1     -10.883   7.438  72.128  1.00  0.00    -0.235 C  
HETATM    2  N   UNL     1     -11.908   8.301  71.549  1.00  0.00    -0.282 NA 
HETATM    3  C   UNL     1     -13.009   8.515  72.491  1.00  0.00    -0.249 C  
HETATM    4  C   UNL     1     -13.712   9.714  71.899  1.00  0.00    -0.376 C  
HETATM    5  C   UNL     1     -12.566  10.595  71.437  1.00  0.00    -0.526 C  
HETATM    6  C   UNL     1     -11.396   9.636  71.164  1.00  0.00    -0.386 C  
ENDROOT
BRANCH   6   7
HETATM    7  C   UNL     1     -10.957   9.629  69.691  1.00  0.00    -0.253 C  
BRANCH   7   8
HETATM    8  C   UNL     1      -9.998  10.761  69.304  1.00  0.00    -0.159 C  
BRANCH   8   9
HETATM    9  O   UNL     1     -10.592  11.598  68.314  1.00  0.00    -0.190 OA 
HETATM   10  C   UNL     1      -9.691  12.265  67.387  1.00  0.00    -0.185 C  
HETATM   11  C   UNL     1      -8.959  11.215  66.514  1.00  0.00    -0.185 A  
HETATM   12  C   UNL     1     -10.576  13.149  66.461  1.00  0.00    -0.290 A  
HETATM   13  C   UNL     1      -8.736  13.174  68.205  1.00  0.00    -0.193 C  
HETATM   14  C   UNL     1      -7.556  11.166  66.399  1.00  0.00    -0.109 A  
HETATM   15  C   UNL     1     -11.924  12.811  66.217  1.00  0.00    -0.460 A  
HETATM   16  C   UNL     1     -12.692  13.504  65.277  1.00  0.00    -0.481 A  
HETATM   17  C   UNL     1      -6.931  10.244  65.552  1.00  0.00    -0.138 A  
HETATM   18  C   UNL     1      -7.695   9.357  64.801  1.00  0.00    -0.116 A  
HETATM   19  C   UNL     1     -12.141  14.571  64.576  1.00  0.00    -0.501 A  
HETATM   20 CL   UNL     1      -6.924   8.253  63.732  1.00  0.00    -0.078 Cl 
HETATM   21  C   UNL     1      -9.082   9.368  64.907  1.00  0.00    -0.258 A  
HETATM   22  C   UNL     1     -10.825  14.950  64.821  1.00  0.00    -0.382 A  
HETATM   23  C   UNL     1     -10.050  14.242  65.745  1.00  0.00    -0.356 A  
HETATM   24  C   UNL     1      -9.704  10.281  65.764  1.00  0.00    -0.297 A  
ENDBRANCH   8   9
ENDBRANCH   7   8
ENDBRANCH   6   7
TORSDOF 3
ENDMDL
MODEL       38
REMARK 921   NORMALIZED FREE ENERGY PREDICTED BY IDOCK:   -5.53 KCAL/MOL
REMARK 922        TOTAL FREE ENERGY PREDICTED BY IDOCK:   -7.20 KCAL/MOL
REMARK 923 INTER-LIGAND FREE ENERGY PREDICTED BY IDOCK:   -6.59 KCAL/MOL
REMARK 924 INTRA-LIGAND FREE ENERGY PREDICTED BY IDOCK:   -0.61 KCAL/MOL
REMARK 927      BINDING AFFINITY PREDICTED BY RF-SCORE:    0.00 PKD
ROOT
HETATM    1  C   UNL     1     -10.888   6.004  69.561  1.00  0.00    -0.369 C  
HETATM    2  N   UNL     1     -11.253   7.238  70.248  1.00  0.00    -0.273 NA 
HETATM    3  C   UNL     1     -11.556   6.985  71.659  1.00  0.00    -0.285 C  
HETATM    4  C   UNL     1     -11.490   8.371  72.257  1.00  0.00    -0.454 C  
HETATM    5  C   UNL     1     -10.297   8.995  71.556  1.00  0.00    -0.412 C  
HETATM    6  C   UNL     1     -10.186   8.265  70.208  1.00  0.00    -0.196 C  
ENDROOT
BRANCH   6   7
HETATM    7  C   UNL     1     -10.395   9.196  69.003  1.00  0.00    -0.229 C  
BRANCH   7   8
HETATM    8  C   UNL     1      -9.839  10.613  69.185  1.00  0.00    -0.200 C  
BRANCH   8   9
HETATM    9  O   UNL     1     -10.449  11.509  68.260  1.00  0.00    -0.183 OA 
HETATM   10  C   UNL     1      -9.565  12.231  67.358  1.00  0.00    -0.179 C  
HETATM   11  C   UNL     1      -8.852  11.235  66.409  1.00  0.00    -0.184 A  
HETATM   12  C   UNL     1     -10.466  13.170  66.504  1.00  0.00    -0.283 A  
HETATM   13  C   UNL     1      -8.592  13.087  68.211  1.00  0.00    -0.167 C  
HETATM   14  C   UNL     1      -7.452  11.191  66.264  1.00  0.00    -0.064 A  
HETATM   15  C   UNL     1     -11.818  12.849  66.267  1.00  0.00    -0.477 A  
HETATM   16  C   UNL     1     -12.603  13.600  65.385  1.00  0.00    -0.533 A  
HETATM   17  C   UNL     1      -6.846  10.321  65.351  1.00  0.00    -0.140 A  
HETATM   18  C   UNL     1      -7.626   9.482  64.562  1.00  0.00    -0.114 A  
HETATM   19  C   UNL     1     -12.063  14.706  64.740  1.00  0.00    -0.428 A  
HETATM   20 CL   UNL     1      -6.878   8.444  63.414  1.00  0.00    -0.085 Cl 
HETATM   21  C   UNL     1      -9.010   9.488  64.696  1.00  0.00    -0.266 A  
HETATM   22  C   UNL     1     -10.742  15.068  64.982  1.00  0.00    -0.448 A  
HETATM   23  C   UNL     1      -9.950  14.304  65.846  1.00  0.00    -0.340 A  
HETATM   24  C   UNL     1      -9.614  10.349  65.618  1.00  0.00    -0.281 A  
ENDBRANCH   8   9
ENDBRANCH   7   8
ENDBRANCH   6   7
TORSDOF 3
ENDMDL
MODEL       39
REMARK 921   NORMALIZED FREE ENERGY PREDICTED BY IDOCK:   -5.51 KCAL/MOL
REMARK 922        TOTAL FREE ENERGY PREDICTED BY IDOCK:   -7.17 KCAL/MOL
REMARK 923 INTER-LIGAND FREE ENERGY PREDICTED BY IDOCK:   -6.62 KCAL/MOL
REMARK 924 INTRA-LIGAND FREE ENERGY PREDICTED BY IDOCK:   -0.55 KCAL/MOL
REMARK 927      BINDING AFFINITY PREDICTED BY RF-SCORE:    0.00 PKD
ROOT
HETATM    1  C   UNL     1     -13.957  15.622  72.584  1.00  0.00    -0.525 C  
HETATM    2  N   UNL     1     -13.147  14.430  72.352  1.00  0.00    -0.383 NA 
HETATM    3  C   UNL     1     -13.970  13.218  72.400  1.00  0.00    -0.456 C  
HETATM    4  C   UNL     1     -13.074  12.194  71.742  1.00  0.00    -0.457 C  
HETATM    5  C   UNL     1     -12.445  12.968  70.598  1.00  0.00    -0.347 C  
HETATM    6  C   UNL     1     -12.459  14.440  71.041  1.00  0.00    -0.355 C  
ENDROOT
BRANCH   6   7
HETATM    7  C   UNL     1     -11.049  15.034  71.189  1.00  0.00    -0.201 C  
BRANCH   7   8
HETATM    8  C   UNL     1     -10.460  15.613  69.898  1.00  0.00    -0.320 C  
BRANCH   8   9
HETATM    9  O   UNL     1     -10.220  14.573  68.952  1.00  0.00    -0.231 OA 
HETATM   10  C   UNL     1     -10.418  14.900  67.548  1.00  0.00    -0.254 C  
HETATM   11  C   UNL     1      -9.391  15.972  67.105  1.00  0.00    -0.222 A  
HETATM   12  C   UNL     1     -10.149  13.594  66.744  1.00  0.00    -0.269 A  
HETATM   13  C   UNL     1     -11.895  15.330  67.351  1.00  0.00    -0.007 C  
HETATM   14  C   UNL     1      -9.769  17.178  66.486  1.00  0.00    -0.299 A  
HETATM   15  C   UNL     1      -9.295  12.596  67.256  1.00  0.00    -0.195 A  
HETATM   16  C   UNL     1      -8.925  11.487  66.489  1.00  0.00    -0.190 A  
HETATM   17  C   UNL     1      -8.810  18.096  66.043  1.00  0.00     0.011 A  
HETATM   18  C   UNL     1      -7.456  17.824  66.205  1.00  0.00    -0.293 A  
HETATM   19  C   UNL     1      -9.422  11.333  65.200  1.00  0.00    -0.242 A  
HETATM   20 CL   UNL     1      -6.282  18.936  65.622  1.00  0.00    -0.258 Cl 
HETATM   21  C   UNL     1      -7.051  16.650  66.830  1.00  0.00    -0.271 A  
HETATM   22  C   UNL     1     -10.296  12.283  64.681  1.00  0.00    -0.330 A  
HETATM   23  C   UNL     1     -10.647  13.405  65.439  1.00  0.00    -0.310 A  
HETATM   24  C   UNL     1      -8.010  15.740  67.285  1.00  0.00    -0.216 A  
ENDBRANCH   8   9
ENDBRANCH   7   8
ENDBRANCH   6   7
TORSDOF 3
ENDMDL
MODEL       40
REMARK 921   NORMALIZED FREE ENERGY PREDICTED BY IDOCK:   -5.50 KCAL/MOL
REMARK 922        TOTAL FREE ENERGY PREDICTED BY IDOCK:   -7.16 KCAL/MOL
REMARK 923 INTER-LIGAND FREE ENERGY PREDICTED BY IDOCK:   -6.12 KCAL/MOL
REMARK 924 INTRA-LIGAND FREE ENERGY PREDICTED BY IDOCK:   -1.03 KCAL/MOL
REMARK 927      BINDING AFFINITY PREDICTED BY RF-SCORE:    0.00 PKD
ROOT
HETATM    1  C   UNL     1      -7.435   6.678  65.937  1.00  0.00    -0.081 C  
HETATM    2  N   UNL     1      -8.880   6.880  65.925  1.00  0.00    -0.139 NA 
HETATM    3  C   UNL     1      -9.570   5.784  66.609  1.00  0.00    -0.152 C  
HETATM    4  C   UNL     1     -10.942   6.368  66.854  1.00  0.00    -0.413 C  
HETATM    5  C   UNL     1     -10.642   7.802  67.249  1.00  0.00    -0.376 C  
HETATM    6  C   UNL     1      -9.297   8.139  66.586  1.00  0.00    -0.197 C  
ENDROOT
BRANCH   6   7
HETATM    7  C   UNL     1      -9.406   9.268  65.549  1.00  0.00    -0.303 C  
BRANCH   7   8
HETATM    8  C   UNL     1     -10.405  10.374  65.910  1.00  0.00    -0.190 C  
BRANCH   8   9
HETATM    9  O   UNL     1      -9.740  11.447  66.572  1.00  0.00    -0.193 OA 
HETATM   10  C   UNL     1     -10.458  12.102  67.654  1.00  0.00    -0.206 C  
HETATM   11  C   UNL     1     -10.682  11.104  68.819  1.00  0.00    -0.236 A  
HETATM   12  C   UNL     1      -9.547  13.258  68.161  1.00  0.00    -0.227 A  
HETATM   13  C   UNL     1     -11.771  12.696  67.079  1.00  0.00    -0.438 C  
HETATM   14  C   UNL     1     -11.953  10.846  69.366  1.00  0.00    -0.393 A  
HETATM   15  C   UNL     1      -8.146  13.188  68.011  1.00  0.00    -0.157 A  
HETATM   16  C   UNL     1      -7.302  14.142  68.587  1.00  0.00    -0.126 A  
HETATM   17  C   UNL     1     -12.111   9.986  70.459  1.00  0.00    -0.338 A  
HETATM   18  C   UNL     1     -11.000   9.371  71.027  1.00  0.00    -0.338 A  
HETATM   19  C   UNL     1      -7.838  15.205  69.305  1.00  0.00    -0.206 A  
HETATM   20 CL   UNL     1     -11.194   8.347  72.395  1.00  0.00    -0.441 Cl 
HETATM   21  C   UNL     1      -9.734   9.590  70.498  1.00  0.00    -0.325 A  
HETATM   22  C   UNL     1      -9.218  15.319  69.439  1.00  0.00    -0.233 A  
HETATM   23  C   UNL     1     -10.062  14.352  68.883  1.00  0.00    -0.202 A  
HETATM   24  C   UNL     1      -9.580  10.440  69.397  1.00  0.00    -0.213 A  
ENDBRANCH   8   9
ENDBRANCH   7   8
ENDBRANCH   6   7
TORSDOF 3
ENDMDL
MODEL       41
REMARK 921   NORMALIZED FREE ENERGY PREDICTED BY IDOCK:   -5.48 KCAL/MOL
REMARK 922        TOTAL FREE ENERGY PREDICTED BY IDOCK:   -7.13 KCAL/MOL
REMARK 923 INTER-LIGAND FREE ENERGY PREDICTED BY IDOCK:   -6.32 KCAL/MOL
REMARK 924 INTRA-LIGAND FREE ENERGY PREDICTED BY IDOCK:   -0.82 KCAL/MOL
REMARK 927      BINDING AFFINITY PREDICTED BY RF-SCORE:    0.00 PKD
ROOT
HETATM    1  C   UNL     1     -10.499   7.576  67.631  1.00  0.00    -0.250 C  
HETATM    2  N   UNL     1     -10.279   7.892  69.040  1.00  0.00    -0.206 NA 
HETATM    3  C   UNL     1      -9.025   7.306  69.520  1.00  0.00    -0.144 C  
HETATM    4  C   UNL     1      -8.783   8.069  70.801  1.00  0.00    -0.139 C  
HETATM    5  C   UNL     1      -9.186   9.487  70.442  1.00  0.00    -0.305 C  
HETATM    6  C   UNL     1     -10.213   9.347  69.307  1.00  0.00    -0.202 C  
ENDROOT
BRANCH   6   7
HETATM    7  C   UNL     1     -11.604   9.878  69.688  1.00  0.00    -0.095 C  
BRANCH   7   8
HETATM    8  C   UNL     1     -11.766  11.397  69.558  1.00  0.00    -0.348 C  
BRANCH   8   9
HETATM    9  O   UNL     1     -11.963  11.761  68.193  1.00  0.00    -0.521 OA 
HETATM   10  C   UNL     1     -11.441  13.052  67.773  1.00  0.00    -0.316 C  
HETATM   11  C   UNL     1      -9.895  13.058  67.880  1.00  0.00    -0.224 A  
HETATM   12  C   UNL     1     -11.834  13.227  66.276  1.00  0.00    -0.444 A  
HETATM   13  C   UNL     1     -12.131  14.155  68.617  1.00  0.00    -0.320 C  
HETATM   14  C   UNL     1      -9.186  14.041  68.597  1.00  0.00    -0.119 A  
HETATM   15  C   UNL     1     -12.043  12.102  65.451  1.00  0.00    -0.231 A  
HETATM   16  C   UNL     1     -12.251  12.235  64.075  1.00  0.00    -0.569 A  
HETATM   17  C   UNL     1      -7.787  14.051  68.621  1.00  0.00    -0.130 A  
HETATM   18  C   UNL     1      -7.070  13.082  67.926  1.00  0.00    -0.128 A  
HETATM   19  C   UNL     1     -12.283  13.497  63.493  1.00  0.00    -0.410 A  
HETATM   20 CL   UNL     1      -5.352  13.123  67.926  1.00  0.00    -0.107 Cl 
HETATM   21  C   UNL     1      -7.742  12.087  67.225  1.00  0.00    -0.168 A  
HETATM   22  C   UNL     1     -12.116  14.626  64.287  1.00  0.00    -0.437 A  
HETATM   23  C   UNL     1     -11.884  14.492  65.660  1.00  0.00    -0.326 A  
HETATM   24  C   UNL     1      -9.140  12.070  67.213  1.00  0.00    -0.178 A  
ENDBRANCH   8   9
ENDBRANCH   7   8
ENDBRANCH   6   7
TORSDOF 3
ENDMDL
MODEL       42
REMARK 921   NORMALIZED FREE ENERGY PREDICTED BY IDOCK:   -5.45 KCAL/MOL
REMARK 922        TOTAL FREE ENERGY PREDICTED BY IDOCK:   -7.10 KCAL/MOL
REMARK 923 INTER-LIGAND FREE ENERGY PREDICTED BY IDOCK:   -6.26 KCAL/MOL
REMARK 924 INTRA-LIGAND FREE ENERGY PREDICTED BY IDOCK:   -0.83 KCAL/MOL
REMARK 927      BINDING AFFINITY PREDICTED BY RF-SCORE:    0.00 PKD
ROOT
HETATM    1  C   UNL     1      -6.695  10.423  62.971  1.00  0.00    -0.090 C  
HETATM    2  N   UNL     1      -7.792   9.598  63.470  1.00  0.00    -0.129 NA 
HETATM    3  C   UNL     1      -7.285   8.470  64.256  1.00  0.00    -0.095 C  
HETATM    4  C   UNL     1      -8.519   8.017  65.001  1.00  0.00    -0.089 C  
HETATM    5  C   UNL     1      -9.190   9.323  65.387  1.00  0.00    -0.284 C  
HETATM    6  C   UNL     1      -8.735  10.345  64.334  1.00  0.00    -0.198 C  
ENDROOT
BRANCH   6   7
HETATM    7  C   UNL     1      -9.897  10.898  63.493  1.00  0.00    -0.407 C  
BRANCH   7   8
HETATM    8  C   UNL     1     -10.987  11.612  64.300  1.00  0.00    -0.355 C  
BRANCH   8   9
HETATM    9  O   UNL     1     -10.473  12.811  64.877  1.00  0.00    -0.299 OA 
HETATM   10  C   UNL     1     -11.125  13.294  66.084  1.00  0.00    -0.285 C  
HETATM   11  C   UNL     1     -10.923  12.278  67.236  1.00  0.00    -0.301 A  
HETATM   12  C   UNL     1     -10.420  14.628  66.469  1.00  0.00    -0.290 A  
HETATM   13  C   UNL     1     -12.614  13.578  65.754  1.00  0.00    -0.490 C  
HETATM   14  C   UNL     1     -11.995  11.747  67.979  1.00  0.00    -0.195 A  
HETATM   15  C   UNL     1      -9.084  14.872  66.087  1.00  0.00    -0.202 A  
HETATM   16  C   UNL     1      -8.387  15.993  66.546  1.00  0.00    -0.348 A  
HETATM   17  C   UNL     1     -11.771  10.880  69.054  1.00  0.00    -0.391 A  
HETATM   18  C   UNL     1     -10.473  10.531  69.410  1.00  0.00    -0.240 A  
HETATM   19  C   UNL     1      -9.016  16.914  67.376  1.00  0.00    -0.215 A  
HETATM   20 CL   UNL     1     -10.202   9.497  70.757  1.00  0.00    -0.360 Cl 
HETATM   21  C   UNL     1      -9.394  11.024  68.685  1.00  0.00    -0.196 A  
HETATM   22  C   UNL     1     -10.343  16.718  67.741  1.00  0.00    -0.318 A  
HETATM   23  C   UNL     1     -11.034  15.584  67.301  1.00  0.00    -0.303 A  
HETATM   24  C   UNL     1      -9.620  11.880  67.603  1.00  0.00    -0.185 A  
ENDBRANCH   8   9
ENDBRANCH   7   8
ENDBRANCH   6   7
TORSDOF 3
ENDMDL
MODEL       43
REMARK 921   NORMALIZED FREE ENERGY PREDICTED BY IDOCK:   -5.45 KCAL/MOL
REMARK 922        TOTAL FREE ENERGY PREDICTED BY IDOCK:   -7.10 KCAL/MOL
REMARK 923 INTER-LIGAND FREE ENERGY PREDICTED BY IDOCK:   -6.47 KCAL/MOL
REMARK 924 INTRA-LIGAND FREE ENERGY PREDICTED BY IDOCK:   -0.63 KCAL/MOL
REMARK 927      BINDING AFFINITY PREDICTED BY RF-SCORE:    0.00 PKD
ROOT
HETATM    1  C   UNL     1     -10.535   6.568  70.671  1.00  0.00    -0.214 C  
HETATM    2  N   UNL     1     -11.493   7.670  70.654  1.00  0.00    -0.279 NA 
HETATM    3  C   UNL     1     -12.714   7.317  71.382  1.00  0.00    -0.389 C  
HETATM    4  C   UNL     1     -13.357   8.665  71.606  1.00  0.00    -0.386 C  
HETATM    5  C   UNL     1     -12.179   9.560  71.945  1.00  0.00    -0.432 C  
HETATM    6  C   UNL     1     -10.963   8.911  71.266  1.00  0.00    -0.293 C  
ENDROOT
BRANCH   6   7
HETATM    7  C   UNL     1     -10.331   9.804  70.186  1.00  0.00    -0.335 C  
BRANCH   7   8
HETATM    8  C   UNL     1     -11.334  10.641  69.382  1.00  0.00    -0.284 C  
BRANCH   8   9
HETATM    9  O   UNL     1     -11.027  10.582  67.991  1.00  0.00    -0.247 OA 
HETATM   10  C   UNL     1     -10.802  11.848  67.311  1.00  0.00    -0.247 C  
HETATM   11  C   UNL     1      -9.538  12.538  67.884  1.00  0.00    -0.206 A  
HETATM   12  C   UNL     1     -10.547  11.511  65.813  1.00  0.00    -0.315 A  
HETATM   13  C   UNL     1     -12.091  12.703  67.433  1.00  0.00    -0.179 C  
HETATM   14  C   UNL     1      -9.548  13.858  68.372  1.00  0.00    -0.215 A  
HETATM   15  C   UNL     1     -10.023  10.257  65.436  1.00  0.00    -0.371 A  
HETATM   16  C   UNL     1      -9.649   9.988  64.116  1.00  0.00    -0.274 A  
HETATM   17  C   UNL     1      -8.374  14.472  68.824  1.00  0.00    -0.149 A  
HETATM   18  C   UNL     1      -7.168  13.779  68.792  1.00  0.00    -0.106 A  
HETATM   19  C   UNL     1      -9.816  10.957  63.133  1.00  0.00    -0.392 A  
HETATM   20 CL   UNL     1      -5.722  14.551  69.312  1.00  0.00    -0.091 Cl 
HETATM   21  C   UNL     1      -7.130  12.467  68.334  1.00  0.00    -0.107 A  
HETATM   22  C   UNL     1     -10.364  12.191  63.468  1.00  0.00    -0.473 A  
HETATM   23  C   UNL     1     -10.715  12.468  64.793  1.00  0.00    -0.333 A  
HETATM   24  C   UNL     1      -8.306  11.851  67.895  1.00  0.00    -0.152 A  
ENDBRANCH   8   9
ENDBRANCH   7   8
ENDBRANCH   6   7
TORSDOF 3
ENDMDL
MODEL       44
REMARK 921   NORMALIZED FREE ENERGY PREDICTED BY IDOCK:   -5.43 KCAL/MOL
REMARK 922        TOTAL FREE ENERGY PREDICTED BY IDOCK:   -7.08 KCAL/MOL
REMARK 923 INTER-LIGAND FREE ENERGY PREDICTED BY IDOCK:   -6.40 KCAL/MOL
REMARK 924 INTRA-LIGAND FREE ENERGY PREDICTED BY IDOCK:   -0.68 KCAL/MOL
REMARK 927      BINDING AFFINITY PREDICTED BY RF-SCORE:    0.00 PKD
ROOT
HETATM    1  C   UNL     1     -11.863  14.956  68.872  1.00  0.00    -0.301 C  
HETATM    2  N   UNL     1     -11.583  15.637  67.612  1.00  0.00    -0.171 NA 
HETATM    3  C   UNL     1     -10.788  16.848  67.833  1.00  0.00    -0.310 C  
HETATM    4  C   UNL     1     -10.267  17.149  66.447  1.00  0.00    -0.331 C  
HETATM    5  C   UNL     1      -9.921  15.776  65.901  1.00  0.00    -0.380 C  
HETATM    6  C   UNL     1     -10.836  14.794  66.649  1.00  0.00    -0.319 C  
ENDROOT
BRANCH   6   7
HETATM    7  C   UNL     1     -11.816  14.060  65.719  1.00  0.00    -0.393 C  
BRANCH   7   8
HETATM    8  C   UNL     1     -11.623  12.541  65.658  1.00  0.00    -0.389 C  
BRANCH   8   9
HETATM    9  O   UNL     1     -11.764  11.969  66.956  1.00  0.00    -0.510 OA 
HETATM   10  C   UNL     1     -10.796  10.953  67.339  1.00  0.00    -0.279 C  
HETATM   11  C   UNL     1      -9.380  11.577  67.422  1.00  0.00    -0.168 A  
HETATM   12  C   UNL     1     -11.204  10.459  68.758  1.00  0.00    -0.295 A  
HETATM   13  C   UNL     1     -10.903   9.775  66.335  1.00  0.00     0.118 C  
HETATM   14  C   UNL     1      -8.275  11.051  66.726  1.00  0.00    -0.149 A  
HETATM   15  C   UNL     1     -11.922  11.300  69.634  1.00  0.00    -0.423 A  
HETATM   16  C   UNL     1     -12.169  10.932  70.960  1.00  0.00    -0.464 A  
HETATM   17  C   UNL     1      -6.997  11.603  66.873  1.00  0.00    -0.123 A  
HETATM   18  C   UNL     1      -6.799  12.687  67.722  1.00  0.00    -0.128 A  
HETATM   19  C   UNL     1     -11.729   9.702  71.436  1.00  0.00    -0.478 A  
HETATM   20 CL   UNL     1      -5.221  13.335  67.930  1.00  0.00    -0.107 Cl 
HETATM   21  C   UNL     1      -7.874  13.240  68.408  1.00  0.00    -0.137 A  
HETATM   22  C   UNL     1     -11.049   8.837  70.585  1.00  0.00    -0.285 A  
HETATM   23  C   UNL     1     -10.781   9.215  69.265  1.00  0.00    -0.199 A  
HETATM   24  C   UNL     1      -9.152  12.696  68.250  1.00  0.00    -0.181 A  
ENDBRANCH   8   9
ENDBRANCH   7   8
ENDBRANCH   6   7
TORSDOF 3
ENDMDL
MODEL       45
REMARK 921   NORMALIZED FREE ENERGY PREDICTED BY IDOCK:   -5.41 KCAL/MOL
REMARK 922        TOTAL FREE ENERGY PREDICTED BY IDOCK:   -7.05 KCAL/MOL
REMARK 923 INTER-LIGAND FREE ENERGY PREDICTED BY IDOCK:   -5.73 KCAL/MOL
REMARK 924 INTRA-LIGAND FREE ENERGY PREDICTED BY IDOCK:   -1.32 KCAL/MOL
REMARK 927      BINDING AFFINITY PREDICTED BY RF-SCORE:    0.00 PKD
ROOT
HETATM    1  C   UNL     1      -7.489  15.953  69.333  1.00  0.00    -0.213 C  
HETATM    2  N   UNL     1      -8.529  15.249  68.589  1.00  0.00    -0.158 NA 
HETATM    3  C   UNL     1      -9.663  16.133  68.306  1.00  0.00    -0.220 C  
HETATM    4  C   UNL     1     -10.393  15.383  67.217  1.00  0.00    -0.271 C  
HETATM    5  C   UNL     1      -9.268  14.843  66.353  1.00  0.00    -0.317 C  
HETATM    6  C   UNL     1      -8.056  14.716  67.290  1.00  0.00    -0.206 C  
ENDROOT
BRANCH   6   7
HETATM    7  C   UNL     1      -7.577  13.265  67.458  1.00  0.00    -0.169 C  
BRANCH   7   8
HETATM    8  C   UNL     1      -8.401  12.431  68.446  1.00  0.00    -0.137 C  
BRANCH   8   9
HETATM    9  O   UNL     1      -8.501  11.082  67.994  1.00  0.00    -0.121 OA 
HETATM   10  C   UNL     1      -9.838  10.570  67.738  1.00  0.00    -0.165 C  
HETATM   11  C   UNL     1     -10.483  11.345  66.561  1.00  0.00    -0.292 A  
HETATM   12  C   UNL     1      -9.672   9.080  67.317  1.00  0.00    -0.232 A  
HETATM   13  C   UNL     1     -10.650  10.644  69.057  1.00  0.00    -0.249 C  
HETATM   14  C   UNL     1     -11.742  11.968  66.660  1.00  0.00    -0.331 A  
HETATM   15  C   UNL     1      -8.476   8.629  66.720  1.00  0.00    -0.117 A  
HETATM   16  C   UNL     1      -8.361   7.335  66.203  1.00  0.00    -0.133 A  
HETATM   17  C   UNL     1     -12.323  12.606  65.559  1.00  0.00    -0.455 A  
HETATM   18  C   UNL     1     -11.659  12.629  64.337  1.00  0.00    -0.357 A  
HETATM   19  C   UNL     1      -9.429   6.450  66.295  1.00  0.00    -0.133 A  
HETATM   20 CL   UNL     1     -12.395  13.380  62.976  1.00  0.00    -0.188 Cl 
HETATM   21  C   UNL     1     -10.407  12.040  64.211  1.00  0.00    -0.357 A  
HETATM   22  C   UNL     1     -10.608   6.855  66.911  1.00  0.00    -0.372 A  
HETATM   23  C   UNL     1     -10.732   8.156  67.407  1.00  0.00    -0.247 A  
HETATM   24  C   UNL     1      -9.822  11.414  65.317  1.00  0.00    -0.290 A  
ENDBRANCH   8   9
ENDBRANCH   7   8
ENDBRANCH   6   7
TORSDOF 3
ENDMDL
MODEL       46
REMARK 921   NORMALIZED FREE ENERGY PREDICTED BY IDOCK:   -5.41 KCAL/MOL
REMARK 922        TOTAL FREE ENERGY PREDICTED BY IDOCK:   -7.05 KCAL/MOL
REMARK 923 INTER-LIGAND FREE ENERGY PREDICTED BY IDOCK:   -6.16 KCAL/MOL
REMARK 924 INTRA-LIGAND FREE ENERGY PREDICTED BY IDOCK:   -0.89 KCAL/MOL
REMARK 927      BINDING AFFINITY PREDICTED BY RF-SCORE:    0.00 PKD
ROOT
HETATM    1  C   UNL     1     -10.725  14.229  69.367  1.00  0.00    -0.128 C  
HETATM    2  N   UNL     1     -11.459  13.128  68.750  1.00  0.00    -0.285 NA 
HETATM    3  C   UNL     1     -11.195  13.062  67.310  1.00  0.00    -0.289 C  
HETATM    4  C   UNL     1     -11.675  11.673  66.958  1.00  0.00    -0.176 C  
HETATM    5  C   UNL     1     -11.202  10.835  68.131  1.00  0.00    -0.365 C  
HETATM    6  C   UNL     1     -11.111  11.805  69.319  1.00  0.00    -0.218 C  
ENDROOT
BRANCH   6   7
HETATM    7  C   UNL     1     -12.079  11.450  70.459  1.00  0.00    -0.487 C  
BRANCH   7   8
HETATM    8  C   UNL     1     -12.473   9.970  70.525  1.00  0.00    -0.176 C  
BRANCH   8   9
HETATM    9  O   UNL     1     -11.647   9.278  71.458  1.00  0.00    -0.329 OA 
HETATM   10  C   UNL     1     -11.572   7.831  71.326  1.00  0.00    -0.277 C  
HETATM   11  C   UNL     1     -10.906   7.458  69.977  1.00  0.00    -0.266 A  
HETATM   12  C   UNL     1     -10.663   7.323  72.483  1.00  0.00    -0.301 A  
HETATM   13  C   UNL     1     -12.999   7.250  71.500  1.00  0.00    -0.434 C  
HETATM   14  C   UNL     1     -11.506   6.587  69.048  1.00  0.00    -0.195 A  
HETATM   15  C   UNL     1      -9.679   8.162  73.048  1.00  0.00    -0.327 A  
HETATM   16  C   UNL     1      -8.758   7.681  73.983  1.00  0.00    -0.303 A  
HETATM   17  C   UNL     1     -10.848   6.222  67.867  1.00  0.00    -0.417 A  
HETATM   18  C   UNL     1      -9.577   6.718  67.596  1.00  0.00    -0.125 A  
HETATM   19  C   UNL     1      -8.815   6.356  74.400  1.00  0.00    -0.164 A  
HETATM   20 CL   UNL     1      -8.757   6.235  66.164  1.00  0.00    -0.142 Cl 
HETATM   21  C   UNL     1      -8.966   7.595  68.485  1.00  0.00    -0.129 A  
HETATM   22  C   UNL     1      -9.797   5.514  73.887  1.00  0.00    -0.180 A  
HETATM   23  C   UNL     1     -10.703   5.989  72.934  1.00  0.00    -0.277 A  
HETATM   24  C   UNL     1      -9.630   7.968  69.657  1.00  0.00    -0.168 A  
ENDBRANCH   8   9
ENDBRANCH   7   8
ENDBRANCH   6   7
TORSDOF 3
ENDMDL
MODEL       47
REMARK 921   NORMALIZED FREE ENERGY PREDICTED BY IDOCK:   -5.40 KCAL/MOL
REMARK 922        TOTAL FREE ENERGY PREDICTED BY IDOCK:   -7.04 KCAL/MOL
REMARK 923 INTER-LIGAND FREE ENERGY PREDICTED BY IDOCK:   -6.29 KCAL/MOL
REMARK 924 INTRA-LIGAND FREE ENERGY PREDICTED BY IDOCK:   -0.75 KCAL/MOL
REMARK 927      BINDING AFFINITY PREDICTED BY RF-SCORE:    0.00 PKD
ROOT
HETATM    1  C   UNL     1      -7.035   8.354  67.640  1.00  0.00    -0.075 C  
HETATM    2  N   UNL     1      -8.236   9.135  67.921  1.00  0.00    -0.112 NA 
HETATM    3  C   UNL     1      -9.404   8.265  68.077  1.00  0.00    -0.132 C  
HETATM    4  C   UNL     1     -10.399   9.179  68.754  1.00  0.00    -0.235 C  
HETATM    5  C   UNL     1      -9.545   9.946  69.747  1.00  0.00    -0.261 C  
HETATM    6  C   UNL     1      -8.127   9.948  69.155  1.00  0.00    -0.118 C  
ENDROOT
BRANCH   6   7
HETATM    7  C   UNL     1      -7.621  11.358  68.814  1.00  0.00    -0.132 C  
BRANCH   7   8
HETATM    8  C   UNL     1      -8.719  12.422  68.705  1.00  0.00     0.036 C  
BRANCH   8   9
HETATM    9  O   UNL     1      -9.396  12.310  67.455  1.00  0.00    -0.175 OA 
HETATM   10  C   UNL     1     -10.609  13.095  67.289  1.00  0.00    -0.246 C  
HETATM   11  C   UNL     1     -10.269  14.607  67.328  1.00  0.00    -0.241 A  
HETATM   12  C   UNL     1     -11.174  12.751  65.879  1.00  0.00    -0.334 A  
HETATM   13  C   UNL     1     -11.628  12.655  68.372  1.00  0.00    -0.370 C  
HETATM   14  C   UNL     1     -10.908  15.508  68.201  1.00  0.00    -0.296 A  
HETATM   15  C   UNL     1     -10.319  12.308  64.849  1.00  0.00    -0.319 A  
HETATM   16  C   UNL     1     -10.780  12.136  63.541  1.00  0.00    -0.509 A  
HETATM   17  C   UNL     1     -10.620  16.877  68.166  1.00  0.00    -0.360 A  
HETATM   18  C   UNL     1      -9.693  17.372  67.255  1.00  0.00    -0.267 A  
HETATM   19  C   UNL     1     -12.115  12.375  63.234  1.00  0.00    -0.519 A  
HETATM   20 CL   UNL     1      -9.373  19.060  67.189  1.00  0.00    -0.329 Cl 
HETATM   21  C   UNL     1      -9.031  16.505  66.393  1.00  0.00    -0.340 A  
HETATM   22  C   UNL     1     -12.990  12.778  64.238  1.00  0.00    -0.129 A  
HETATM   23  C   UNL     1     -12.524  12.973  65.542  1.00  0.00    -0.496 A  
HETATM   24  C   UNL     1      -9.310  15.135  66.438  1.00  0.00    -0.332 A  
ENDBRANCH   8   9
ENDBRANCH   7   8
ENDBRANCH   6   7
TORSDOF 3
ENDMDL
MODEL       48
REMARK 921   NORMALIZED FREE ENERGY PREDICTED BY IDOCK:   -5.35 KCAL/MOL
REMARK 922        TOTAL FREE ENERGY PREDICTED BY IDOCK:   -6.98 KCAL/MOL
REMARK 923 INTER-LIGAND FREE ENERGY PREDICTED BY IDOCK:   -6.57 KCAL/MOL
REMARK 924 INTRA-LIGAND FREE ENERGY PREDICTED BY IDOCK:   -0.42 KCAL/MOL
REMARK 927      BINDING AFFINITY PREDICTED BY RF-SCORE:    0.00 PKD
ROOT
HETATM    1  C   UNL     1     -10.123  20.266  66.470  1.00  0.00    -0.388 C  
HETATM    2  N   UNL     1      -9.437  18.997  66.693  1.00  0.00    -0.329 NA 
HETATM    3  C   UNL     1      -8.013  19.105  66.366  1.00  0.00    -0.294 C  
HETATM    4  C   UNL     1      -7.435  17.882  67.041  1.00  0.00    -0.223 C  
HETATM    5  C   UNL     1      -8.188  17.823  68.356  1.00  0.00    -0.298 C  
HETATM    6  C   UNL     1      -9.531  18.523  68.093  1.00  0.00    -0.317 C  
ENDROOT
BRANCH   6   7
HETATM    7  C   UNL     1     -10.738  17.585  68.253  1.00  0.00    -0.309 C  
BRANCH   7   8
HETATM    8  C   UNL     1     -10.380  16.104  68.417  1.00  0.00    -0.257 C  
BRANCH   8   9
HETATM    9  O   UNL     1     -10.943  15.336  67.356  1.00  0.00    -0.309 OA 
HETATM   10  C   UNL     1     -10.039  14.468  66.618  1.00  0.00    -0.272 C  
HETATM   11  C   UNL     1      -9.491  13.360  67.552  1.00  0.00    -0.219 A  
HETATM   12  C   UNL     1     -10.882  13.797  65.494  1.00  0.00    -0.299 A  
HETATM   13  C   UNL     1      -8.934  15.347  65.976  1.00  0.00    -0.201 C  
HETATM   14  C   UNL     1      -8.114  13.114  67.715  1.00  0.00    -0.165 A  
HETATM   15  C   UNL     1     -12.272  13.617  65.647  1.00  0.00    -0.490 A  
HETATM   16  C   UNL     1     -13.021  12.888  64.719  1.00  0.00    -0.224 A  
HETATM   17  C   UNL     1      -7.657  12.064  68.519  1.00  0.00    -0.126 A  
HETATM   18  C   UNL     1      -8.566  11.237  69.171  1.00  0.00     0.120 A  
HETATM   19  C   UNL     1     -12.403  12.343  63.598  1.00  0.00    -0.647 A  
HETATM   20 CL   UNL     1      -7.999   9.923  70.125  1.00  0.00    -0.197 Cl 
HETATM   21  C   UNL     1      -9.931  11.465  69.045  1.00  0.00    -0.087 A  
HETATM   22  C   UNL     1     -11.040  12.535  63.402  1.00  0.00    -0.419 A  
HETATM   23  C   UNL     1     -10.286  13.244  64.343  1.00  0.00    -0.372 A  
HETATM   24  C   UNL     1     -10.387  12.524  68.252  1.00  0.00    -0.241 A  
ENDBRANCH   8   9
ENDBRANCH   7   8
ENDBRANCH   6   7
TORSDOF 3
ENDMDL
MODEL       49
REMARK 921   NORMALIZED FREE ENERGY PREDICTED BY IDOCK:   -5.35 KCAL/MOL
REMARK 922        TOTAL FREE ENERGY PREDICTED BY IDOCK:   -6.98 KCAL/MOL
REMARK 923 INTER-LIGAND FREE ENERGY PREDICTED BY IDOCK:   -6.37 KCAL/MOL
REMARK 924 INTRA-LIGAND FREE ENERGY PREDICTED BY IDOCK:   -0.60 KCAL/MOL
REMARK 927      BINDING AFFINITY PREDICTED BY RF-SCORE:    0.00 PKD
ROOT
HETATM    1  C   UNL     1     -14.044   8.661  71.979  1.00  0.00    -0.453 C  
HETATM    2  N   UNL     1     -12.608   8.900  72.098  1.00  0.00    -0.384 NA 
HETATM    3  C   UNL     1     -11.903   7.678  72.493  1.00  0.00    -0.263 C  
HETATM    4  C   UNL     1     -10.468   8.010  72.155  1.00  0.00    -0.329 C  
HETATM    5  C   UNL     1     -10.586   8.750  70.835  1.00  0.00    -0.276 C  
HETATM    6  C   UNL     1     -11.991   9.373  70.837  1.00  0.00    -0.280 C  
ENDROOT
BRANCH   6   7
HETATM    7  C   UNL     1     -11.966  10.909  70.806  1.00  0.00    -0.449 C  
BRANCH   7   8
HETATM    8  C   UNL     1     -11.810  11.517  69.407  1.00  0.00    -0.350 C  
BRANCH   8   9
HETATM    9  O   UNL     1     -10.434  11.567  69.038  1.00  0.00    -0.203 OA 
HETATM   10  C   UNL     1     -10.116  11.328  67.639  1.00  0.00    -0.179 C  
HETATM   11  C   UNL     1     -10.719  12.454  66.761  1.00  0.00    -0.263 A  
HETATM   12  C   UNL     1      -8.565  11.381  67.517  1.00  0.00    -0.137 A  
HETATM   13  C   UNL     1     -10.613   9.908  67.262  1.00  0.00    -0.316 C  
HETATM   14  C   UNL     1     -11.556  12.194  65.660  1.00  0.00    -0.409 A  
HETATM   15  C   UNL     1      -7.797  12.132  68.431  1.00  0.00    -0.149 A  
HETATM   16  C   UNL     1      -6.422  12.313  68.253  1.00  0.00    -0.056 A  
HETATM   17  C   UNL     1     -12.032  13.232  64.851  1.00  0.00    -0.417 A  
HETATM   18  C   UNL     1     -11.676  14.549  65.125  1.00  0.00    -0.376 A  
HETATM   19  C   UNL     1      -5.775  11.724  67.173  1.00  0.00    -0.131 A  
HETATM   20 CL   UNL     1     -12.230  15.816  64.104  1.00  0.00    -0.095 Cl 
HETATM   21  C   UNL     1     -10.866  14.840  66.216  1.00  0.00    -0.322 A  
HETATM   22  C   UNL     1      -6.500  10.947  66.275  1.00  0.00    -0.129 A  
HETATM   23  C   UNL     1      -7.880  10.786  66.440  1.00  0.00    -0.148 A  
HETATM   24  C   UNL     1     -10.402  13.802  67.031  1.00  0.00    -0.260 A  
ENDBRANCH   8   9
ENDBRANCH   7   8
ENDBRANCH   6   7
TORSDOF 3
ENDMDL
MODEL       50
REMARK 921   NORMALIZED FREE ENERGY PREDICTED BY IDOCK:   -5.34 KCAL/MOL
REMARK 922        TOTAL FREE ENERGY PREDICTED BY IDOCK:   -6.97 KCAL/MOL
REMARK 923 INTER-LIGAND FREE ENERGY PREDICTED BY IDOCK:   -6.48 KCAL/MOL
REMARK 924 INTRA-LIGAND FREE ENERGY PREDICTED BY IDOCK:   -0.49 KCAL/MOL
REMARK 927      BINDING AFFINITY PREDICTED BY RF-SCORE:    0.00 PKD
ROOT
HETATM    1  C   UNL     1     -10.318   7.952  66.841  1.00  0.00    -0.330 C  
HETATM    2  N   UNL     1     -10.520   8.718  68.067  1.00  0.00    -0.222 NA 
HETATM    3  C   UNL     1     -10.289   7.886  69.251  1.00  0.00    -0.220 C  
HETATM    4  C   UNL     1     -10.131   8.918  70.343  1.00  0.00    -0.232 C  
HETATM    5  C   UNL     1      -9.315  10.009  69.675  1.00  0.00    -0.242 C  
HETATM    6  C   UNL     1      -9.622   9.891  68.174  1.00  0.00    -0.139 C  
ENDROOT
BRANCH   6   7
HETATM    7  C   UNL     1     -10.315  11.139  67.604  1.00  0.00    -0.223 C  
BRANCH   7   8
HETATM    8  C   UNL     1     -10.656  12.213  68.645  1.00  0.00    -0.223 C  
BRANCH   8   9
HETATM    9  O   UNL     1     -10.111  13.472  68.256  1.00  0.00    -0.236 OA 
HETATM   10  C   UNL     1     -11.034  14.593  68.173  1.00  0.00    -0.261 C  
HETATM   11  C   UNL     1     -11.601  14.915  69.579  1.00  0.00    -0.333 A  
HETATM   12  C   UNL     1     -10.207  15.817  67.681  1.00  0.00    -0.266 A  
HETATM   13  C   UNL     1     -12.123  14.252  67.123  1.00  0.00    -0.412 C  
HETATM   14  C   UNL     1     -12.981  14.991  69.844  1.00  0.00     0.072 A  
HETATM   15  C   UNL     1      -8.820  15.894  67.924  1.00  0.00    -0.179 A  
HETATM   16  C   UNL     1      -8.089  17.046  67.621  1.00  0.00    -0.190 A  
HETATM   17  C   UNL     1     -13.457  15.346  71.111  1.00  0.00    -0.565 A  
HETATM   18  C   UNL     1     -12.563  15.636  72.136  1.00  0.00    -0.426 A  
HETATM   19  C   UNL     1      -8.720  18.141  67.041  1.00  0.00    -0.263 A  
HETATM   20 CL   UNL     1     -13.153  16.111  73.680  1.00  0.00    -0.629 Cl 
HETATM   21  C   UNL     1     -11.194  15.552  71.912  1.00  0.00    -0.352 A  
HETATM   22  C   UNL     1     -10.080  18.080  66.756  1.00  0.00    -0.357 A  
HETATM   23  C   UNL     1     -10.817  16.937  67.081  1.00  0.00    -0.088 A  
HETATM   24  C   UNL     1     -10.720  15.184  70.648  1.00  0.00    -0.160 A  
ENDBRANCH   8   9
ENDBRANCH   7   8
ENDBRANCH   6   7
TORSDOF 3
ENDMDL
MODEL       51
REMARK 921   NORMALIZED FREE ENERGY PREDICTED BY IDOCK:   -5.34 KCAL/MOL
REMARK 922        TOTAL FREE ENERGY PREDICTED BY IDOCK:   -6.97 KCAL/MOL
REMARK 923 INTER-LIGAND FREE ENERGY PREDICTED BY IDOCK:   -6.32 KCAL/MOL
REMARK 924 INTRA-LIGAND FREE ENERGY PREDICTED BY IDOCK:   -0.65 KCAL/MOL
REMARK 927      BINDING AFFINITY PREDICTED BY RF-SCORE:    0.00 PKD
ROOT
HETATM    1  C   UNL     1      -5.328  12.755  70.512  1.00  0.00    -0.141 C  
HETATM    2  N   UNL     1      -5.812  14.067  70.092  1.00  0.00    -0.130 NA 
HETATM    3  C   UNL     1      -5.404  15.106  71.041  1.00  0.00    -0.109 C  
HETATM    4  C   UNL     1      -5.618  16.372  70.243  1.00  0.00    -0.176 C  
HETATM    5  C   UNL     1      -5.130  15.995  68.857  1.00  0.00    -0.100 C  
HETATM    6  C   UNL     1      -5.312  14.472  68.758  1.00  0.00    -0.089 C  
ENDROOT
BRANCH   6   7
HETATM    7  C   UNL     1      -6.315  14.057  67.670  1.00  0.00    -0.134 C  
BRANCH   7   8
HETATM    8  C   UNL     1      -7.779  14.373  67.996  1.00  0.00    -0.138 C  
BRANCH   8   9
HETATM    9  O   UNL     1      -8.062  15.745  67.727  1.00  0.00    -0.137 OA 
HETATM   10  C   UNL     1      -9.394  16.059  67.235  1.00  0.00    -0.210 C  
HETATM   11  C   UNL     1     -10.450  15.726  68.319  1.00  0.00    -0.259 A  
HETATM   12  C   UNL     1      -9.423  17.593  66.971  1.00  0.00    -0.266 A  
HETATM   13  C   UNL     1      -9.611  15.303  65.898  1.00  0.00    -0.377 C  
HETATM   14  C   UNL     1     -11.559  14.895  68.071  1.00  0.00    -0.363 A  
HETATM   15  C   UNL     1      -8.569  18.462  67.682  1.00  0.00    -0.268 A  
HETATM   16  C   UNL     1      -8.681  19.851  67.567  1.00  0.00    -0.401 A  
HETATM   17  C   UNL     1     -12.527  14.666  69.056  1.00  0.00     0.029 A  
HETATM   18  C   UNL     1     -12.408  15.267  70.304  1.00  0.00    -0.366 A  
HETATM   19  C   UNL     1      -9.630  20.406  66.717  1.00  0.00    -0.512 A  
HETATM   20 CL   UNL     1     -13.620  15.014  71.496  1.00  0.00    -0.489 Cl 
HETATM   21  C   UNL     1     -11.314  16.078  70.586  1.00  0.00    -0.424 A  
HETATM   22  C   UNL     1     -10.461  19.574  65.975  1.00  0.00    -0.611 A  
HETATM   23  C   UNL     1     -10.366  18.185  66.108  1.00  0.00    -0.394 A  
HETATM   24  C   UNL     1     -10.341  16.295  69.606  1.00  0.00    -0.261 A  
ENDBRANCH   8   9
ENDBRANCH   7   8
ENDBRANCH   6   7
TORSDOF 3
ENDMDL
MODEL       52
REMARK 921   NORMALIZED FREE ENERGY PREDICTED BY IDOCK:   -5.33 KCAL/MOL
REMARK 922        TOTAL FREE ENERGY PREDICTED BY IDOCK:   -6.96 KCAL/MOL
REMARK 923 INTER-LIGAND FREE ENERGY PREDICTED BY IDOCK:   -5.94 KCAL/MOL
REMARK 924 INTRA-LIGAND FREE ENERGY PREDICTED BY IDOCK:   -1.01 KCAL/MOL
REMARK 927      BINDING AFFINITY PREDICTED BY RF-SCORE:    0.00 PKD
ROOT
HETATM    1  C   UNL     1      -8.117   9.773  65.540  1.00  0.00    -0.125 C  
HETATM    2  N   UNL     1      -8.983  10.038  66.685  1.00  0.00    -0.138 NA 
HETATM    3  C   UNL     1     -10.254   9.319  66.561  1.00  0.00    -0.246 C  
HETATM    4  C   UNL     1     -10.795   9.377  67.971  1.00  0.00    -0.197 C  
HETATM    5  C   UNL     1      -9.562   9.150  68.826  1.00  0.00    -0.161 C  
HETATM    6  C   UNL     1      -8.378   9.638  67.977  1.00  0.00    -0.117 C  
ENDROOT
BRANCH   6   7
HETATM    7  C   UNL     1      -7.640  10.830  68.606  1.00  0.00    -0.106 C  
BRANCH   7   8
HETATM    8  C   UNL     1      -8.136  12.205  68.143  1.00  0.00    -0.161 C  
BRANCH   8   9
HETATM    9  O   UNL     1      -9.263  12.613  68.916  1.00  0.00     0.092 OA 
HETATM   10  C   UNL     1      -9.901  13.866  68.543  1.00  0.00    -0.214 C  
HETATM   11  C   UNL     1     -10.518  13.743  67.127  1.00  0.00    -0.272 A  
HETATM   12  C   UNL     1     -11.051  14.103  69.565  1.00  0.00    -0.222 A  
HETATM   13  C   UNL     1      -8.854  15.003  68.673  1.00  0.00    -0.185 C  
HETATM   14  C   UNL     1     -10.228  14.649  66.089  1.00  0.00    -0.313 A  
HETATM   15  C   UNL     1     -11.665  13.017  70.223  1.00  0.00    -0.192 A  
HETATM   16  C   UNL     1     -12.792  13.196  71.030  1.00  0.00    -0.295 A  
HETATM   17  C   UNL     1     -10.851  14.545  64.841  1.00  0.00    -0.436 A  
HETATM   18  C   UNL     1     -11.780  13.536  64.607  1.00  0.00    -0.381 A  
HETATM   19  C   UNL     1     -13.318  14.469  71.223  1.00  0.00    -0.430 A  
HETATM   20 CL   UNL     1     -12.573  13.436  63.085  1.00  0.00    -0.114 Cl 
HETATM   21  C   UNL     1     -12.074  12.614  65.605  1.00  0.00    -0.502 A  
HETATM   22  C   UNL     1     -12.711  15.563  70.616  1.00  0.00    -0.487 A  
HETATM   23  C   UNL     1     -11.598  15.382  69.789  1.00  0.00    -0.339 A  
HETATM   24  C   UNL     1     -11.440  12.712  66.848  1.00  0.00    -0.402 A  
ENDBRANCH   8   9
ENDBRANCH   7   8
ENDBRANCH   6   7
TORSDOF 3
ENDMDL
MODEL       53
REMARK 921   NORMALIZED FREE ENERGY PREDICTED BY IDOCK:   -5.33 KCAL/MOL
REMARK 922        TOTAL FREE ENERGY PREDICTED BY IDOCK:   -6.96 KCAL/MOL
REMARK 923 INTER-LIGAND FREE ENERGY PREDICTED BY IDOCK:   -6.11 KCAL/MOL
REMARK 924 INTRA-LIGAND FREE ENERGY PREDICTED BY IDOCK:   -0.85 KCAL/MOL
REMARK 927      BINDING AFFINITY PREDICTED BY RF-SCORE:    0.00 PKD
ROOT
HETATM    1  C   UNL     1     -10.258   6.705  74.317  1.00  0.00    -0.326 C  
HETATM    2  N   UNL     1      -9.781   5.428  73.795  1.00  0.00    -0.147 NA 
HETATM    3  C   UNL     1     -10.775   4.371  74.000  1.00  0.00    -0.269 C  
HETATM    4  C   UNL     1     -10.299   3.293  73.055  1.00  0.00    -0.245 C  
HETATM    5  C   UNL     1      -9.864   4.073  71.828  1.00  0.00    -0.249 C  
HETATM    6  C   UNL     1      -9.479   5.469  72.345  1.00  0.00    -0.143 C  
ENDROOT
BRANCH   6   7
HETATM    7  C   UNL     1      -7.995   5.802  72.124  1.00  0.00    -0.107 C  
BRANCH   7   8
HETATM    8  C   UNL     1      -7.733   7.197  71.544  1.00  0.00    -0.089 C  
BRANCH   8   9
HETATM    9  O   UNL     1      -8.919   7.987  71.596  1.00  0.00    -0.132 OA 
HETATM   10  C   UNL     1      -9.260   8.744  70.402  1.00  0.00    -0.180 C  
HETATM   11  C   UNL     1      -9.578   7.774  69.235  1.00  0.00    -0.159 A  
HETATM   12  C   UNL     1     -10.547   9.553  70.738  1.00  0.00    -0.387 A  
HETATM   13  C   UNL     1      -8.099   9.727  70.098  1.00  0.00    -0.202 C  
HETATM   14  C   UNL     1      -8.939   7.854  67.983  1.00  0.00    -0.127 A  
HETATM   15  C   UNL     1     -11.447   9.097  71.723  1.00  0.00    -0.452 A  
HETATM   16  C   UNL     1     -12.677   9.728  71.936  1.00  0.00    -0.501 A  
HETATM   17  C   UNL     1      -9.296   7.002  66.932  1.00  0.00    -0.185 A  
HETATM   18  C   UNL     1     -10.302   6.057  67.111  1.00  0.00    -0.230 A  
HETATM   19  C   UNL     1     -13.025  10.848  71.190  1.00  0.00    -0.449 A  
HETATM   20 CL   UNL     1     -10.764   5.040  65.805  1.00  0.00    -0.213 Cl 
HETATM   21  C   UNL     1     -10.939   5.941  68.342  1.00  0.00    -0.264 A  
HETATM   22  C   UNL     1     -12.141  11.342  70.236  1.00  0.00    -0.459 A  
HETATM   23  C   UNL     1     -10.922  10.697  70.006  1.00  0.00    -0.325 A  
HETATM   24  C   UNL     1     -10.571   6.784  69.395  1.00  0.00    -0.265 A  
ENDBRANCH   8   9
ENDBRANCH   7   8
ENDBRANCH   6   7
TORSDOF 3
ENDMDL
MODEL       54
REMARK 921   NORMALIZED FREE ENERGY PREDICTED BY IDOCK:   -5.31 KCAL/MOL
REMARK 922        TOTAL FREE ENERGY PREDICTED BY IDOCK:   -6.94 KCAL/MOL
REMARK 923 INTER-LIGAND FREE ENERGY PREDICTED BY IDOCK:   -6.29 KCAL/MOL
REMARK 924 INTRA-LIGAND FREE ENERGY PREDICTED BY IDOCK:   -0.65 KCAL/MOL
REMARK 927      BINDING AFFINITY PREDICTED BY RF-SCORE:    0.00 PKD
ROOT
HETATM    1  C   UNL     1     -10.951  16.514  69.807  1.00  0.00    -0.292 C  
HETATM    2  N   UNL     1     -11.500  15.478  70.677  1.00  0.00    -0.323 NA 
HETATM    3  C   UNL     1     -11.960  16.046  71.946  1.00  0.00    -0.525 C  
HETATM    4  C   UNL     1     -12.839  14.945  72.493  1.00  0.00    -0.457 C  
HETATM    5  C   UNL     1     -13.573  14.444  71.262  1.00  0.00    -0.389 C  
HETATM    6  C   UNL     1     -12.649  14.762  70.076  1.00  0.00    -0.224 C  
ENDROOT
BRANCH   6   7
HETATM    7  C   UNL     1     -12.162  13.504  69.341  1.00  0.00    -0.278 C  
BRANCH   7   8
HETATM    8  C   UNL     1     -12.283  13.567  67.814  1.00  0.00    -0.157 C  
BRANCH   8   9
HETATM    9  O   UNL     1     -11.618  12.457  67.216  1.00  0.00    -0.330 OA 
HETATM   10  C   UNL     1     -10.589  12.755  66.232  1.00  0.00    -0.257 C  
HETATM   11  C   UNL     1      -9.411  13.501  66.910  1.00  0.00    -0.258 A  
HETATM   12  C   UNL     1     -10.069  11.388  65.700  1.00  0.00    -0.293 A  
HETATM   13  C   UNL     1     -11.242  13.545  65.068  1.00  0.00    -0.334 C  
HETATM   14  C   UNL     1      -8.919  14.733  66.439  1.00  0.00    -0.223 A  
HETATM   15  C   UNL     1     -10.150  10.227  66.498  1.00  0.00    -0.290 A  
HETATM   16  C   UNL     1      -9.558   9.025  66.099  1.00  0.00    -0.341 A  
HETATM   17  C   UNL     1      -7.813  15.347  67.038  1.00  0.00    -0.244 A  
HETATM   18  C   UNL     1      -7.176  14.740  68.115  1.00  0.00    -0.122 A  
HETATM   19  C   UNL     1      -8.895   8.944  64.880  1.00  0.00    -0.161 A  
HETATM   20 CL   UNL     1      -5.794  15.479  68.821  1.00  0.00    -0.094 Cl 
HETATM   21  C   UNL     1      -7.650  13.532  68.615  1.00  0.00    -0.108 A  
HETATM   22  C   UNL     1      -8.830  10.063  64.056  1.00  0.00    -0.246 A  
HETATM   23  C   UNL     1      -9.401  11.272  64.465  1.00  0.00    -0.149 A  
HETATM   24  C   UNL     1      -8.763  12.926  68.024  1.00  0.00    -0.191 A  
ENDBRANCH   8   9
ENDBRANCH   7   8
ENDBRANCH   6   7
TORSDOF 3
ENDMDL
MODEL       55
REMARK 921   NORMALIZED FREE ENERGY PREDICTED BY IDOCK:   -5.30 KCAL/MOL
REMARK 922        TOTAL FREE ENERGY PREDICTED BY IDOCK:   -6.92 KCAL/MOL
REMARK 923 INTER-LIGAND FREE ENERGY PREDICTED BY IDOCK:   -6.16 KCAL/MOL
REMARK 924 INTRA-LIGAND FREE ENERGY PREDICTED BY IDOCK:   -0.77 KCAL/MOL
REMARK 927      BINDING AFFINITY PREDICTED BY RF-SCORE:    0.00 PKD
ROOT
HETATM    1  C   UNL     1      -5.470  11.413  66.511  1.00  0.00    -0.137 C  
HETATM    2  N   UNL     1      -6.340  11.435  67.683  1.00  0.00    -0.058 NA 
HETATM    3  C   UNL     1      -6.361  10.129  68.347  1.00  0.00    -0.049 C  
HETATM    4  C   UNL     1      -6.938  10.466  69.702  1.00  0.00    -0.127 C  
HETATM    5  C   UNL     1      -6.271  11.785  70.045  1.00  0.00    -0.136 C  
HETATM    6  C   UNL     1      -5.926  12.434  68.696  1.00  0.00    -0.059 C  
ENDROOT
BRANCH   6   7
HETATM    7  C   UNL     1      -6.665  13.761  68.461  1.00  0.00    -0.094 C  
BRANCH   7   8
HETATM    8  C   UNL     1      -8.135  13.759  68.898  1.00  0.00     0.059 C  
BRANCH   8   9
HETATM    9  O   UNL     1      -8.989  13.913  67.766  1.00  0.00    -0.171 OA 
HETATM   10  C   UNL     1     -10.231  13.157  67.769  1.00  0.00    -0.231 C  
HETATM   11  C   UNL     1     -11.144  13.645  68.922  1.00  0.00    -0.292 A  
HETATM   12  C   UNL     1     -10.940  13.456  66.416  1.00  0.00    -0.297 A  
HETATM   13  C   UNL     1      -9.883  11.647  67.844  1.00  0.00    -0.189 C  
HETATM   14  C   UNL     1     -11.687  12.772  69.884  1.00  0.00    -0.321 A  
HETATM   15  C   UNL     1     -10.701  14.665  65.730  1.00  0.00    -0.321 A  
HETATM   16  C   UNL     1     -11.434  15.017  64.593  1.00  0.00    -0.382 A  
HETATM   17  C   UNL     1     -12.559  13.238  70.875  1.00  0.00    -0.386 A  
HETATM   18  C   UNL     1     -12.908  14.584  70.920  1.00  0.00    -0.360 A  
HETATM   19  C   UNL     1     -12.407  14.157  64.096  1.00  0.00    -0.372 A  
HETATM   20 CL   UNL     1     -14.010  15.144  72.115  1.00  0.00    -0.575 Cl 
HETATM   21  C   UNL     1     -12.373  15.474  69.996  1.00  0.00    -0.345 A  
HETATM   22  C   UNL     1     -12.640  12.941  64.731  1.00  0.00    -0.493 A  
HETATM   23  C   UNL     1     -11.923  12.600  65.882  1.00  0.00    -0.497 A  
HETATM   24  C   UNL     1     -11.492  15.009  69.015  1.00  0.00    -0.322 A  
ENDBRANCH   8   9
ENDBRANCH   7   8
ENDBRANCH   6   7
TORSDOF 3
ENDMDL
MODEL       56
REMARK 921   NORMALIZED FREE ENERGY PREDICTED BY IDOCK:   -5.30 KCAL/MOL
REMARK 922        TOTAL FREE ENERGY PREDICTED BY IDOCK:   -6.92 KCAL/MOL
REMARK 923 INTER-LIGAND FREE ENERGY PREDICTED BY IDOCK:   -5.99 KCAL/MOL
REMARK 924 INTRA-LIGAND FREE ENERGY PREDICTED BY IDOCK:   -0.93 KCAL/MOL
REMARK 927      BINDING AFFINITY PREDICTED BY RF-SCORE:    0.00 PKD
ROOT
HETATM    1  C   UNL     1     -12.905  12.120  63.736  1.00  0.00    -0.333 C  
HETATM    2  N   UNL     1     -11.771  12.985  64.046  1.00  0.00    -0.406 NA 
HETATM    3  C   UNL     1     -12.214  14.355  64.321  1.00  0.00    -0.423 C  
HETATM    4  C   UNL     1     -11.007  14.952  65.006  1.00  0.00    -0.432 C  
HETATM    5  C   UNL     1     -10.523  13.827  65.902  1.00  0.00    -0.300 C  
HETATM    6  C   UNL     1     -10.997  12.531  65.224  1.00  0.00    -0.293 C  
ENDROOT
BRANCH   6   7
HETATM    7  C   UNL     1      -9.835  11.629  64.777  1.00  0.00    -0.261 C  
BRANCH   7   8
HETATM    8  C   UNL     1      -9.770  10.272  65.487  1.00  0.00    -0.265 C  
BRANCH   8   9
HETATM    9  O   UNL     1     -10.477  10.324  66.724  1.00  0.00    -0.234 OA 
HETATM   10  C   UNL     1      -9.771   9.861  67.908  1.00  0.00    -0.140 C  
HETATM   11  C   UNL     1      -8.562  10.786  68.198  1.00  0.00    -0.129 A  
HETATM   12  C   UNL     1     -10.772   9.968  69.096  1.00  0.00    -0.244 A  
HETATM   13  C   UNL     1      -9.384   8.374  67.695  1.00  0.00    -0.158 C  
HETATM   14  C   UNL     1      -7.251  10.297  68.354  1.00  0.00    -0.080 A  
HETATM   15  C   UNL     1     -11.827  10.904  69.066  1.00  0.00    -0.370 A  
HETATM   16  C   UNL     1     -12.645  11.118  70.179  1.00  0.00    -0.249 A  
HETATM   17  C   UNL     1      -6.193  11.154  68.677  1.00  0.00    -0.043 A  
HETATM   18  C   UNL     1      -6.425  12.514  68.854  1.00  0.00    -0.091 A  
HETATM   19  C   UNL     1     -12.447  10.382  71.342  1.00  0.00    -0.521 A  
HETATM   20 CL   UNL     1      -5.129  13.555  69.290  1.00  0.00    -0.077 Cl 
HETATM   21  C   UNL     1      -7.705  13.030  68.687  1.00  0.00    -0.069 A  
HETATM   22  C   UNL     1     -11.437   9.426  71.389  1.00  0.00    -0.449 A  
HETATM   23  C   UNL     1     -10.604   9.229  70.283  1.00  0.00    -0.278 A  
HETATM   24  C   UNL     1      -8.759  12.174  68.352  1.00  0.00    -0.141 A  
ENDBRANCH   8   9
ENDBRANCH   7   8
ENDBRANCH   6   7
TORSDOF 3
ENDMDL
MODEL       57
REMARK 921   NORMALIZED FREE ENERGY PREDICTED BY IDOCK:   -5.29 KCAL/MOL
REMARK 922        TOTAL FREE ENERGY PREDICTED BY IDOCK:   -6.91 KCAL/MOL
REMARK 923 INTER-LIGAND FREE ENERGY PREDICTED BY IDOCK:   -6.31 KCAL/MOL
REMARK 924 INTRA-LIGAND FREE ENERGY PREDICTED BY IDOCK:   -0.60 KCAL/MOL
REMARK 927      BINDING AFFINITY PREDICTED BY RF-SCORE:    0.00 PKD
ROOT
HETATM    1  C   UNL     1     -12.030  14.439  69.264  1.00  0.00    -0.324 C  
HETATM    2  N   UNL     1     -12.107  13.947  70.636  1.00  0.00    -0.348 NA 
HETATM    3  C   UNL     1     -12.754  14.928  71.511  1.00  0.00    -0.331 C  
HETATM    4  C   UNL     1     -13.106  14.095  72.722  1.00  0.00    -0.573 C  
HETATM    5  C   UNL     1     -13.577  12.785  72.118  1.00  0.00    -0.547 C  
HETATM    6  C   UNL     1     -12.867  12.682  70.759  1.00  0.00    -0.021 C  
ENDROOT
BRANCH   6   7
HETATM    7  C   UNL     1     -11.912  11.481  70.671  1.00  0.00    -0.391 C  
BRANCH   7   8
HETATM    8  C   UNL     1     -12.539  10.136  71.056  1.00  0.00    -0.381 C  
BRANCH   8   9
HETATM    9  O   UNL     1     -11.616   9.357  71.814  1.00  0.00    -0.377 OA 
HETATM   10  C   UNL     1     -11.234   8.066  71.263  1.00  0.00    -0.256 C  
HETATM   11  C   UNL     1     -10.461   8.266  69.935  1.00  0.00    -0.223 A  
HETATM   12  C   UNL     1     -10.277   7.404  72.298  1.00  0.00    -0.237 A  
HETATM   13  C   UNL     1     -12.513   7.200  71.119  1.00  0.00    -0.400 C  
HETATM   14  C   UNL     1     -10.834   7.631  68.735  1.00  0.00    -0.025 A  
HETATM   15  C   UNL     1      -9.511   8.196  73.179  1.00  0.00    -0.316 A  
HETATM   16  C   UNL     1      -8.541   7.630  74.012  1.00  0.00    -0.297 A  
HETATM   17  C   UNL     1     -10.076   7.785  67.569  1.00  0.00    -0.272 A  
HETATM   18  C   UNL     1      -8.929   8.572  67.581  1.00  0.00    -0.135 A  
HETATM   19  C   UNL     1      -8.331   6.256  74.006  1.00  0.00    -0.113 A  
HETATM   20 CL   UNL     1      -7.980   8.726  66.156  1.00  0.00    -0.101 Cl 
HETATM   21  C   UNL     1      -8.545   9.227  68.746  1.00  0.00    -0.131 A  
HETATM   22  C   UNL     1      -9.097   5.446  73.174  1.00  0.00    -0.126 A  
HETATM   23  C   UNL     1     -10.051   6.014  72.323  1.00  0.00    -0.205 A  
HETATM   24  C   UNL     1      -9.311   9.083  69.907  1.00  0.00    -0.182 A  
ENDBRANCH   8   9
ENDBRANCH   7   8
ENDBRANCH   6   7
TORSDOF 3
ENDMDL
MODEL       58
REMARK 921   NORMALIZED FREE ENERGY PREDICTED BY IDOCK:   -5.28 KCAL/MOL
REMARK 922        TOTAL FREE ENERGY PREDICTED BY IDOCK:   -6.90 KCAL/MOL
REMARK 923 INTER-LIGAND FREE ENERGY PREDICTED BY IDOCK:   -6.09 KCAL/MOL
REMARK 924 INTRA-LIGAND FREE ENERGY PREDICTED BY IDOCK:   -0.82 KCAL/MOL
REMARK 927      BINDING AFFINITY PREDICTED BY RF-SCORE:    0.00 PKD
ROOT
HETATM    1  C   UNL     1     -12.784  11.889  63.373  1.00  0.00    -0.366 C  
HETATM    2  N   UNL     1     -11.740  12.358  64.279  1.00  0.00    -0.355 NA 
HETATM    3  C   UNL     1     -10.422  12.286  63.643  1.00  0.00    -0.450 C  
HETATM    4  C   UNL     1      -9.585  13.173  64.536  1.00  0.00     0.418 C  
HETATM    5  C   UNL     1     -10.516  14.329  64.847  1.00  0.00    -0.454 C  
HETATM    6  C   UNL     1     -11.937  13.759  64.720  1.00  0.00    -0.404 C  
ENDROOT
BRANCH   6   7
HETATM    7  C   UNL     1     -12.718  13.790  66.043  1.00  0.00    -0.407 C  
BRANCH   7   8
HETATM    8  C   UNL     1     -11.996  13.136  67.227  1.00  0.00    -0.335 C  
BRANCH   8   9
HETATM    9  O   UNL     1     -12.516  13.629  68.460  1.00  0.00    -0.095 OA 
HETATM   10  C   UNL     1     -11.555  13.918  69.512  1.00  0.00    -0.301 C  
HETATM   11  C   UNL     1     -10.626  15.079  69.075  1.00  0.00    -0.245 A  
HETATM   12  C   UNL     1     -12.375  14.380  70.752  1.00  0.00    -0.417 A  
HETATM   13  C   UNL     1     -10.798  12.608  69.856  1.00  0.00     0.624 C  
HETATM   14  C   UNL     1      -9.222  14.978  69.091  1.00  0.00    -0.183 A  
HETATM   15  C   UNL     1     -13.645  14.974  70.594  1.00  0.00    -0.132 A  
HETATM   16  C   UNL     1     -14.332  15.528  71.679  1.00  0.00    -0.510 A  
HETATM   17  C   UNL     1      -8.414  16.068  68.749  1.00  0.00    -0.228 A  
HETATM   18  C   UNL     1      -8.993  17.280  68.389  1.00  0.00    -0.269 A  
HETATM   19  C   UNL     1     -13.780  15.477  72.954  1.00  0.00    -0.599 A  
HETATM   20 CL   UNL     1      -7.995  18.627  68.008  1.00  0.00    -0.284 Cl 
HETATM   21  C   UNL     1     -10.377  17.406  68.344  1.00  0.00    -0.379 A  
HETATM   22  C   UNL     1     -12.545  14.865  73.146  1.00  0.00    -0.559 A  
HETATM   23  C   UNL     1     -11.847  14.332  72.057  1.00  0.00     0.200 A  
HETATM   24  C   UNL     1     -11.183  16.312  68.674  1.00  0.00    -0.354 A  
ENDBRANCH   8   9
ENDBRANCH   7   8
ENDBRANCH   6   7
TORSDOF 3
ENDMDL
MODEL       59
REMARK 921   NORMALIZED FREE ENERGY PREDICTED BY IDOCK:   -5.28 KCAL/MOL
REMARK 922        TOTAL FREE ENERGY PREDICTED BY IDOCK:   -6.90 KCAL/MOL
REMARK 923 INTER-LIGAND FREE ENERGY PREDICTED BY IDOCK:   -6.33 KCAL/MOL
REMARK 924 INTRA-LIGAND FREE ENERGY PREDICTED BY IDOCK:   -0.57 KCAL/MOL
REMARK 927      BINDING AFFINITY PREDICTED BY RF-SCORE:    0.00 PKD
ROOT
HETATM    1  C   UNL     1      -7.022  18.918  69.070  1.00  0.00    -0.311 C  
HETATM    2  N   UNL     1      -8.265  18.367  68.538  1.00  0.00    -0.317 NA 
HETATM    3  C   UNL     1      -9.351  19.347  68.619  1.00  0.00    -0.390 C  
HETATM    4  C   UNL     1     -10.378  18.768  67.673  1.00  0.00    -0.476 C  
HETATM    5  C   UNL     1      -9.537  18.257  66.519  1.00  0.00    -0.320 C  
HETATM    6  C   UNL     1      -8.156  17.951  67.120  1.00  0.00    -0.212 C  
ENDROOT
BRANCH   6   7
HETATM    7  C   UNL     1      -7.781  16.463  67.034  1.00  0.00    -0.250 C  
BRANCH   7   8
HETATM    8  C   UNL     1      -8.976  15.505  66.962  1.00  0.00    -0.226 C  
BRANCH   8   9
HETATM    9  O   UNL     1      -9.714  15.540  68.182  1.00  0.00    -0.206 OA 
HETATM   10  C   UNL     1     -11.016  14.892  68.183  1.00  0.00    -0.272 C  
HETATM   11  C   UNL     1     -10.847  13.367  67.960  1.00  0.00    -0.264 A  
HETATM   12  C   UNL     1     -11.628  15.120  69.597  1.00  0.00    -0.335 A  
HETATM   13  C   UNL     1     -11.907  15.584  67.119  1.00  0.00     0.267 C  
HETATM   14  C   UNL     1     -11.527  12.667  66.946  1.00  0.00    -0.402 A  
HETATM   15  C   UNL     1     -10.795  15.324  70.717  1.00  0.00    -0.255 A  
HETATM   16  C   UNL     1     -11.316  15.384  72.013  1.00  0.00    -0.466 A  
HETATM   17  C   UNL     1     -11.399  11.280  66.813  1.00  0.00    -0.187 A  
HETATM   18  C   UNL     1     -10.593  10.566  67.694  1.00  0.00    -0.250 A  
HETATM   19  C   UNL     1     -12.687  15.271  72.219  1.00  0.00    -0.435 A  
HETATM   20 CL   UNL     1     -10.471   8.857  67.551  1.00  0.00    -0.332 Cl 
HETATM   21  C   UNL     1      -9.894  11.231  68.694  1.00  0.00    -0.208 A  
HETATM   22  C   UNL     1     -13.536  15.106  71.130  1.00  0.00    -0.533 A  
HETATM   23  C   UNL     1     -13.012  15.022  69.836  1.00  0.00     0.072 A  
HETATM   24  C   UNL     1     -10.013  12.619  68.818  1.00  0.00    -0.023 A  
ENDBRANCH   8   9
ENDBRANCH   7   8
ENDBRANCH   6   7
TORSDOF 3
ENDMDL
MODEL       60
REMARK 921   NORMALIZED FREE ENERGY PREDICTED BY IDOCK:   -5.24 KCAL/MOL
REMARK 922        TOTAL FREE ENERGY PREDICTED BY IDOCK:   -6.85 KCAL/MOL
REMARK 923 INTER-LIGAND FREE ENERGY PREDICTED BY IDOCK:   -6.34 KCAL/MOL
REMARK 924 INTRA-LIGAND FREE ENERGY PREDICTED BY IDOCK:   -0.51 KCAL/MOL
REMARK 927      BINDING AFFINITY PREDICTED BY RF-SCORE:    0.00 PKD
ROOT
HETATM    1  C   UNL     1      -7.743   6.013  66.330  1.00  0.00    -0.102 C  
HETATM    2  N   UNL     1      -8.592   4.924  66.803  1.00  0.00    -0.109 NA 
HETATM    3  C   UNL     1      -7.865   3.652  66.801  1.00  0.00    -0.084 C  
HETATM    4  C   UNL     1      -8.732   2.785  67.685  1.00  0.00    -0.137 C  
HETATM    5  C   UNL     1      -9.150   3.730  68.796  1.00  0.00    -0.199 C  
HETATM    6  C   UNL     1      -9.098   5.137  68.179  1.00  0.00    -0.112 C  
ENDROOT
BRANCH   6   7
HETATM    7  C   UNL     1     -10.472   5.824  68.135  1.00  0.00    -0.277 C  
BRANCH   7   8
HETATM    8  C   UNL     1     -11.062   6.162  69.510  1.00  0.00    -0.420 C  
BRANCH   8   9
HETATM    9  O   UNL     1     -11.352   7.555  69.596  1.00  0.00    -0.081 OA 
HETATM   10  C   UNL     1     -11.660   8.084  70.916  1.00  0.00    -0.269 C  
HETATM   11  C   UNL     1     -10.419   7.963  71.836  1.00  0.00    -0.284 A  
HETATM   12  C   UNL     1     -11.990   9.594  70.726  1.00  0.00    -0.356 A  
HETATM   13  C   UNL     1     -12.914   7.348  71.456  1.00  0.00    -0.421 C  
HETATM   14  C   UNL     1     -10.463   7.331  73.093  1.00  0.00    -0.385 A  
HETATM   15  C   UNL     1     -11.453  10.318  69.642  1.00  0.00    -0.297 A  
HETATM   16  C   UNL     1     -11.616  11.702  69.535  1.00  0.00    -0.397 A  
HETATM   17  C   UNL     1      -9.338   7.294  73.925  1.00  0.00    -0.304 A  
HETATM   18  C   UNL     1      -8.150   7.893  73.519  1.00  0.00    -0.188 A  
HETATM   19  C   UNL     1     -12.345  12.394  70.495  1.00  0.00    -0.346 A  
HETATM   20 CL   UNL     1      -6.784   7.881  74.562  1.00  0.00    -0.122 Cl 
HETATM   21  C   UNL     1      -8.070   8.509  72.275  1.00  0.00    -0.150 A  
HETATM   22  C   UNL     1     -12.917  11.702  71.557  1.00  0.00    -0.463 A  
HETATM   23  C   UNL     1     -12.734  10.321  71.677  1.00  0.00    -0.561 A  
HETATM   24  C   UNL     1      -9.190   8.533  71.440  1.00  0.00    -0.272 A  
ENDBRANCH   8   9
ENDBRANCH   7   8
ENDBRANCH   6   7
TORSDOF 3
ENDMDL
MODEL       61
REMARK 921   NORMALIZED FREE ENERGY PREDICTED BY IDOCK:   -5.22 KCAL/MOL
REMARK 922        TOTAL FREE ENERGY PREDICTED BY IDOCK:   -6.82 KCAL/MOL
REMARK 923 INTER-LIGAND FREE ENERGY PREDICTED BY IDOCK:   -6.25 KCAL/MOL
REMARK 924 INTRA-LIGAND FREE ENERGY PREDICTED BY IDOCK:   -0.58 KCAL/MOL
REMARK 927      BINDING AFFINITY PREDICTED BY RF-SCORE:    0.00 PKD
ROOT
HETATM    1  C   UNL     1     -11.123  15.077  68.108  1.00  0.00    -0.291 C  
HETATM    2  N   UNL     1     -11.724  14.057  67.254  1.00  0.00    -0.368 NA 
HETATM    3  C   UNL     1     -11.550  14.388  65.837  1.00  0.00    -0.361 C  
HETATM    4  C   UNL     1     -11.839  13.069  65.160  1.00  0.00    -0.404 C  
HETATM    5  C   UNL     1     -11.169  12.057  66.070  1.00  0.00    -0.385 C  
HETATM    6  C   UNL     1     -11.145  12.709  67.462  1.00  0.00    -0.272 C  
ENDROOT
BRANCH   6   7
HETATM    7  C   UNL     1     -11.971  11.935  68.502  1.00  0.00    -0.273 C  
BRANCH   7   8
HETATM    8  C   UNL     1     -11.162  10.953  69.358  1.00  0.00    -0.272 C  
BRANCH   8   9
HETATM    9  O   UNL     1     -10.888   9.762  68.623  1.00  0.00    -0.222 OA 
HETATM   10  C   UNL     1      -9.678   9.035  68.972  1.00  0.00    -0.167 C  
HETATM   11  C   UNL     1      -9.786   8.494  70.420  1.00  0.00    -0.198 A  
HETATM   12  C   UNL     1      -9.586   7.825  67.997  1.00  0.00    -0.166 A  
HETATM   13  C   UNL     1      -8.463   9.972  68.744  1.00  0.00    -0.126 C  
HETATM   14  C   UNL     1      -8.811   8.750  71.403  1.00  0.00    -0.292 A  
HETATM   15  C   UNL     1     -10.750   7.279  67.416  1.00  0.00    -0.358 A  
HETATM   16  C   UNL     1     -10.706   6.106  66.657  1.00  0.00    -0.301 A  
HETATM   17  C   UNL     1      -8.910   8.193  72.683  1.00  0.00    -0.285 A  
HETATM   18  C   UNL     1      -9.982   7.367  73.004  1.00  0.00    -0.249 A  
HETATM   19  C   UNL     1      -9.493   5.464  66.436  1.00  0.00    -0.164 A  
HETATM   20 CL   UNL     1     -10.077   6.654  74.565  1.00  0.00    -0.355 Cl 
HETATM   21  C   UNL     1     -10.971   7.111  72.061  1.00  0.00    -0.267 A  
HETATM   22  C   UNL     1      -8.323   5.999  66.966  1.00  0.00    -0.105 A  
HETATM   23  C   UNL     1      -8.371   7.160  67.745  1.00  0.00    -0.118 A  
HETATM   24  C   UNL     1     -10.878   7.678  70.787  1.00  0.00    -0.246 A  
ENDBRANCH   8   9
ENDBRANCH   7   8
ENDBRANCH   6   7
TORSDOF 3
ENDMDL
MODEL       62
REMARK 921   NORMALIZED FREE ENERGY PREDICTED BY IDOCK:   -5.21 KCAL/MOL
REMARK 922        TOTAL FREE ENERGY PREDICTED BY IDOCK:   -6.81 KCAL/MOL
REMARK 923 INTER-LIGAND FREE ENERGY PREDICTED BY IDOCK:   -5.44 KCAL/MOL
REMARK 924 INTRA-LIGAND FREE ENERGY PREDICTED BY IDOCK:   -1.37 KCAL/MOL
REMARK 927      BINDING AFFINITY PREDICTED BY RF-SCORE:    0.00 PKD
ROOT
HETATM    1  C   UNL     1      -6.651   2.318  69.826  1.00  0.00    -0.029 C  
HETATM    2  N   UNL     1      -7.120   3.636  69.411  1.00  0.00    -0.045 NA 
HETATM    3  C   UNL     1      -6.154   4.280  68.517  1.00  0.00    -0.031 C  
HETATM    4  C   UNL     1      -6.979   5.382  67.892  1.00  0.00    -0.065 C  
HETATM    5  C   UNL     1      -8.321   4.717  67.652  1.00  0.00    -0.103 C  
HETATM    6  C   UNL     1      -8.417   3.595  68.698  1.00  0.00    -0.083 C  
ENDROOT
BRANCH   6   7
HETATM    7  C   UNL     1      -9.572   3.799  69.692  1.00  0.00    -0.242 C  
BRANCH   7   8
HETATM    8  C   UNL     1      -9.279   4.800  70.815  1.00  0.00    -0.139 C  
BRANCH   8   9
HETATM    9  O   UNL     1     -10.447   5.560  71.120  1.00  0.00    -0.223 OA 
HETATM   10  C   UNL     1     -10.317   7.008  71.090  1.00  0.00    -0.206 C  
HETATM   11  C   UNL     1     -10.000   7.481  69.649  1.00  0.00    -0.184 A  
HETATM   12  C   UNL     1     -11.700   7.589  71.509  1.00  0.00    -0.309 A  
HETATM   13  C   UNL     1      -9.248   7.424  72.134  1.00  0.00    -0.158 C  
HETATM   14  C   UNL     1      -8.897   8.299  69.342  1.00  0.00    -0.146 A  
HETATM   15  C   UNL     1     -12.884   6.853  71.298  1.00  0.00    -0.336 A  
HETATM   16  C   UNL     1     -14.143   7.413  71.530  1.00  0.00    -0.541 A  
HETATM   17  C   UNL     1      -8.676   8.759  68.039  1.00  0.00    -0.141 A  
HETATM   18  C   UNL     1      -9.556   8.413  67.019  1.00  0.00    -0.190 A  
HETATM   19  C   UNL     1     -14.251   8.715  72.006  1.00  0.00    -0.524 A  
HETATM   20 CL   UNL     1      -9.303   9.013  65.428  1.00  0.00    -0.258 Cl 
HETATM   21  C   UNL     1     -10.645   7.591  67.286  1.00  0.00    -0.394 A  
HETATM   22  C   UNL     1     -13.099   9.453  72.258  1.00  0.00    -0.509 A  
HETATM   23  C   UNL     1     -11.840   8.901  72.003  1.00  0.00    -0.438 A  
HETATM   24  C   UNL     1     -10.857   7.121  68.586  1.00  0.00    -0.149 A  
ENDBRANCH   8   9
ENDBRANCH   7   8
ENDBRANCH   6   7
TORSDOF 3
ENDMDL
MODEL       63
REMARK 921   NORMALIZED FREE ENERGY PREDICTED BY IDOCK:   -5.17 KCAL/MOL
REMARK 922        TOTAL FREE ENERGY PREDICTED BY IDOCK:   -6.77 KCAL/MOL
REMARK 923 INTER-LIGAND FREE ENERGY PREDICTED BY IDOCK:   -6.07 KCAL/MOL
REMARK 924 INTRA-LIGAND FREE ENERGY PREDICTED BY IDOCK:   -0.69 KCAL/MOL
REMARK 927      BINDING AFFINITY PREDICTED BY RF-SCORE:    0.00 PKD
ROOT
HETATM    1  C   UNL     1     -11.496  14.773  69.514  1.00  0.00    -0.298 C  
HETATM    2  N   UNL     1     -12.004  13.713  68.649  1.00  0.00    -0.364 NA 
HETATM    3  C   UNL     1     -11.678  13.979  67.245  1.00  0.00    -0.389 C  
HETATM    4  C   UNL     1     -11.897  12.629  66.602  1.00  0.00    -0.449 C  
HETATM    5  C   UNL     1     -11.331  11.662  67.625  1.00  0.00    -0.362 C  
HETATM    6  C   UNL     1     -11.455  12.378  68.980  1.00  0.00    -0.300 C  
ENDROOT
BRANCH   6   7
HETATM    7  C   UNL     1     -12.390  11.651  69.959  1.00  0.00    -0.261 C  
BRANCH   7   8
HETATM    8  C   UNL     1     -11.926  10.246  70.362  1.00  0.00    -0.303 C  
BRANCH   8   9
HETATM    9  O   UNL     1     -10.502  10.191  70.419  1.00  0.00    -0.280 OA 
HETATM   10  C   UNL     1      -9.902   8.891  70.674  1.00  0.00    -0.212 C  
HETATM   11  C   UNL     1     -10.208   7.928  69.499  1.00  0.00    -0.208 A  
HETATM   12  C   UNL     1      -8.362   9.115  70.743  1.00  0.00    -0.248 A  
HETATM   13  C   UNL     1     -10.408   8.381  72.049  1.00  0.00    -0.374 C  
HETATM   14  C   UNL     1     -10.798   6.664  69.686  1.00  0.00    -0.336 A  
HETATM   15  C   UNL     1      -7.761  10.193  70.060  1.00  0.00    -0.150 A  
HETATM   16  C   UNL     1      -6.371  10.326  69.988  1.00  0.00    -0.101 A  
HETATM   17  C   UNL     1     -11.003   5.794  68.608  1.00  0.00    -0.198 A  
HETATM   18  C   UNL     1     -10.618   6.170  67.326  1.00  0.00    -0.290 A  
HETATM   19  C   UNL     1      -5.547   9.402  70.620  1.00  0.00    -0.045 A  
HETATM   20 CL   UNL     1     -10.835   5.082  66.012  1.00  0.00    -0.271 Cl 
HETATM   21  C   UNL     1     -10.050   7.420  67.106  1.00  0.00    -0.314 A  
HETATM   22  C   UNL     1      -6.113   8.349  71.331  1.00  0.00    -0.041 A  
HETATM   23  C   UNL     1      -7.503   8.201  71.384  1.00  0.00    -0.079 A  
HETATM   24  C   UNL     1      -9.858   8.293  68.182  1.00  0.00    -0.198 A  
ENDBRANCH   8   9
ENDBRANCH   7   8
ENDBRANCH   6   7
TORSDOF 3
ENDMDL
MODEL       64
REMARK 921   NORMALIZED FREE ENERGY PREDICTED BY IDOCK:   -5.16 KCAL/MOL
REMARK 922        TOTAL FREE ENERGY PREDICTED BY IDOCK:   -6.76 KCAL/MOL
REMARK 923 INTER-LIGAND FREE ENERGY PREDICTED BY IDOCK:   -6.06 KCAL/MOL
REMARK 924 INTRA-LIGAND FREE ENERGY PREDICTED BY IDOCK:   -0.69 KCAL/MOL
REMARK 927      BINDING AFFINITY PREDICTED BY RF-SCORE:    0.00 PKD
ROOT
HETATM    1  C   UNL     1     -10.833  15.244  67.694  1.00  0.00    -0.295 C  
HETATM    2  N   UNL     1     -10.989  13.824  67.398  1.00  0.00    -0.280 NA 
HETATM    3  C   UNL     1     -11.951  13.615  66.313  1.00  0.00    -0.423 C  
HETATM    4  C   UNL     1     -11.657  12.194  65.891  1.00  0.00    -0.425 C  
HETATM    5  C   UNL     1     -10.143  12.120  65.953  1.00  0.00    -0.270 C  
HETATM    6  C   UNL     1      -9.722  13.172  66.991  1.00  0.00    -0.241 C  
ENDROOT
BRANCH   6   7
HETATM    7  C   UNL     1      -9.026  12.560  68.217  1.00  0.00    -0.178 C  
BRANCH   7   8
HETATM    8  C   UNL     1      -8.704  11.067  68.090  1.00  0.00    -0.141 C  
BRANCH   8   9
HETATM    9  O   UNL     1      -8.988  10.391  69.313  1.00  0.00    -0.176 OA 
HETATM   10  C   UNL     1     -10.101   9.454  69.306  1.00  0.00    -0.196 C  
HETATM   11  C   UNL     1      -9.788   8.270  68.357  1.00  0.00    -0.187 A  
HETATM   12  C   UNL     1     -10.232   8.905  70.757  1.00  0.00    -0.282 A  
HETATM   13  C   UNL     1     -11.390  10.231  68.932  1.00  0.00    -0.230 C  
HETATM   14  C   UNL     1     -10.653   7.878  67.319  1.00  0.00    -0.365 A  
HETATM   15  C   UNL     1      -9.114   8.867  71.616  1.00  0.00    -0.280 A  
HETATM   16  C   UNL     1      -9.175   8.246  72.867  1.00  0.00    -0.329 A  
HETATM   17  C   UNL     1     -10.369   6.764  66.521  1.00  0.00    -0.116 A  
HETATM   18  C   UNL     1      -9.217   6.018  66.749  1.00  0.00    -0.136 A  
HETATM   19  C   UNL     1     -10.363   7.671  73.303  1.00  0.00    -0.405 A  
HETATM   20 CL   UNL     1      -8.893   4.627  65.791  1.00  0.00    -0.123 Cl 
HETATM   21  C   UNL     1      -8.333   6.391  67.755  1.00  0.00    -0.118 A  
HETATM   22  C   UNL     1     -11.492   7.725  72.492  1.00  0.00    -0.428 A  
HETATM   23  C   UNL     1     -11.425   8.326  71.231  1.00  0.00    -0.314 A  
HETATM   24  C   UNL     1      -8.612   7.512  68.542  1.00  0.00    -0.129 A  
ENDBRANCH   8   9
ENDBRANCH   7   8
ENDBRANCH   6   7
TORSDOF 3
ENDMDL
MODEL       65
REMARK 921   NORMALIZED FREE ENERGY PREDICTED BY IDOCK:   -5.16 KCAL/MOL
REMARK 922        TOTAL FREE ENERGY PREDICTED BY IDOCK:   -6.76 KCAL/MOL
REMARK 923 INTER-LIGAND FREE ENERGY PREDICTED BY IDOCK:   -6.15 KCAL/MOL
REMARK 924 INTRA-LIGAND FREE ENERGY PREDICTED BY IDOCK:   -0.61 KCAL/MOL
REMARK 927      BINDING AFFINITY PREDICTED BY RF-SCORE:    0.00 PKD
ROOT
HETATM    1  C   UNL     1     -10.249   8.305  71.630  1.00  0.00    -0.221 C  
HETATM    2  N   UNL     1     -11.621   8.707  71.336  1.00  0.00    -0.277 NA 
HETATM    3  C   UNL     1     -12.520   8.355  72.438  1.00  0.00    -0.331 C  
HETATM    4  C   UNL     1     -13.739   9.197  72.141  1.00  0.00    -0.531 C  
HETATM    5  C   UNL     1     -13.146  10.514  71.676  1.00  0.00    -0.551 C  
HETATM    6  C   UNL     1     -11.765  10.163  71.102  1.00  0.00    -0.366 C  
ENDROOT
BRANCH   6   7
HETATM    7  C   UNL     1     -11.642  10.470  69.601  1.00  0.00    -0.342 C  
BRANCH   7   8
HETATM    8  C   UNL     1     -10.314  11.114  69.187  1.00  0.00    -0.161 C  
BRANCH   8   9
HETATM    9  O   UNL     1     -10.207  11.162  67.766  1.00  0.00    -0.174 OA 
HETATM   10  C   UNL     1      -9.144  10.378  67.156  1.00  0.00    -0.139 C  
HETATM   11  C   UNL     1      -9.395   8.869  67.402  1.00  0.00    -0.165 A  
HETATM   12  C   UNL     1      -9.212  10.648  65.625  1.00  0.00    -0.227 A  
HETATM   13  C   UNL     1      -7.786  10.885  67.708  1.00  0.00    -0.109 C  
HETATM   14  C   UNL     1      -8.430   8.022  67.980  1.00  0.00    -0.126 A  
HETATM   15  C   UNL     1     -10.425  11.027  65.013  1.00  0.00    -0.344 A  
HETATM   16  C   UNL     1     -10.541  11.131  63.624  1.00  0.00    -0.414 A  
HETATM   17  C   UNL     1      -8.667   6.651  68.130  1.00  0.00    -0.117 A  
HETATM   18  C   UNL     1      -9.869   6.099  67.701  1.00  0.00    -0.120 A  
HETATM   19  C   UNL     1      -9.440  10.886  62.811  1.00  0.00    -0.359 A  
HETATM   20 CL   UNL     1     -10.139   4.408  67.851  1.00  0.00    -0.078 Cl 
HETATM   21  C   UNL     1     -10.850   6.913  67.144  1.00  0.00    -0.447 A  
HETATM   22  C   UNL     1      -8.221  10.545  63.388  1.00  0.00    -0.098 A  
HETATM   23  C   UNL     1      -8.110  10.418  64.777  1.00  0.00    -0.124 A  
HETATM   24  C   UNL     1     -10.617   8.285  67.007  1.00  0.00    -0.328 A  
ENDBRANCH   8   9
ENDBRANCH   7   8
ENDBRANCH   6   7
TORSDOF 3
ENDMDL
MODEL       66
REMARK 921   NORMALIZED FREE ENERGY PREDICTED BY IDOCK:   -5.14 KCAL/MOL
REMARK 922        TOTAL FREE ENERGY PREDICTED BY IDOCK:   -6.74 KCAL/MOL
REMARK 923 INTER-LIGAND FREE ENERGY PREDICTED BY IDOCK:   -6.11 KCAL/MOL
REMARK 924 INTRA-LIGAND FREE ENERGY PREDICTED BY IDOCK:   -0.63 KCAL/MOL
REMARK 927      BINDING AFFINITY PREDICTED BY RF-SCORE:    0.00 PKD
ROOT
HETATM    1  C   UNL     1     -11.223   6.343  69.341  1.00  0.00    -0.394 C  
HETATM    2  N   UNL     1     -11.191   7.540  70.175  1.00  0.00    -0.236 NA 
HETATM    3  C   UNL     1     -12.258   7.510  71.179  1.00  0.00    -0.301 C  
HETATM    4  C   UNL     1     -11.806   8.566  72.161  1.00  0.00    -0.448 C  
HETATM    5  C   UNL     1     -10.307   8.344  72.244  1.00  0.00    -0.403 C  
HETATM    6  C   UNL     1      -9.911   7.708  70.902  1.00  0.00    -0.176 C  
ENDROOT
BRANCH   6   7
HETATM    7  C   UNL     1      -8.951   8.586  70.083  1.00  0.00    -0.148 C  
BRANCH   7   8
HETATM    8  C   UNL     1      -9.555   9.905  69.588  1.00  0.00    -0.227 C  
BRANCH   8   9
HETATM    9  O   UNL     1      -9.548   9.951  68.163  1.00  0.00    -0.138 OA 
HETATM   10  C   UNL     1     -10.234  11.070  67.536  1.00  0.00    -0.188 C  
HETATM   11  C   UNL     1      -9.519  12.397  67.897  1.00  0.00    -0.198 A  
HETATM   12  C   UNL     1     -10.128  10.854  65.998  1.00  0.00    -0.303 A  
HETATM   13  C   UNL     1     -11.725  11.028  67.960  1.00  0.00    -0.257 C  
HETATM   14  C   UNL     1     -10.193  13.495  68.463  1.00  0.00    -0.229 A  
HETATM   15  C   UNL     1      -9.062  10.113  65.447  1.00  0.00    -0.227 A  
HETATM   16  C   UNL     1      -8.867  10.031  64.065  1.00  0.00    -0.246 A  
HETATM   17  C   UNL     1      -9.529  14.700  68.718  1.00  0.00    -0.199 A  
HETATM   18  C   UNL     1      -8.179  14.831  68.410  1.00  0.00    -0.154 A  
HETATM   19  C   UNL     1      -9.750  10.664  63.197  1.00  0.00    -0.375 A  
HETATM   20 CL   UNL     1      -7.377  16.326  68.689  1.00  0.00    -0.169 Cl 
HETATM   21  C   UNL     1      -7.480  13.758  67.868  1.00  0.00    -0.153 A  
HETATM   22  C   UNL     1     -10.832  11.372  63.711  1.00  0.00    -0.468 A  
HETATM   23  C   UNL     1     -11.013  11.474  65.094  1.00  0.00    -0.298 A  
HETATM   24  C   UNL     1      -8.143  12.551  67.626  1.00  0.00    -0.171 A  
ENDBRANCH   8   9
ENDBRANCH   7   8
ENDBRANCH   6   7
TORSDOF 3
ENDMDL
MODEL       67
REMARK 921   NORMALIZED FREE ENERGY PREDICTED BY IDOCK:   -5.13 KCAL/MOL
REMARK 922        TOTAL FREE ENERGY PREDICTED BY IDOCK:   -6.72 KCAL/MOL
REMARK 923 INTER-LIGAND FREE ENERGY PREDICTED BY IDOCK:   -6.13 KCAL/MOL
REMARK 924 INTRA-LIGAND FREE ENERGY PREDICTED BY IDOCK:   -0.59 KCAL/MOL
REMARK 927      BINDING AFFINITY PREDICTED BY RF-SCORE:    0.00 PKD
ROOT
HETATM    1  C   UNL     1     -12.409  12.324  63.847  1.00  0.00    -0.509 C  
HETATM    2  N   UNL     1     -11.575  13.029  64.815  1.00  0.00    -0.316 NA 
HETATM    3  C   UNL     1     -11.718  14.480  64.674  1.00  0.00    -0.431 C  
HETATM    4  C   UNL     1     -11.144  14.989  65.976  1.00  0.00    -0.329 C  
HETATM    5  C   UNL     1     -11.669  13.997  66.998  1.00  0.00    -0.425 C  
HETATM    6  C   UNL     1     -11.902  12.692  66.220  1.00  0.00    -0.410 C  
ENDROOT
BRANCH   6   7
HETATM    7  C   UNL     1     -11.013  11.536  66.706  1.00  0.00    -0.347 C  
BRANCH   7   8
HETATM    8  C   UNL     1     -11.278  11.089  68.149  1.00  0.00    -0.302 C  
BRANCH   8   9
HETATM    9  O   UNL     1     -10.049  10.828  68.822  1.00  0.00    -0.175 OA 
HETATM   10  C   UNL     1      -9.971   9.604  69.603  1.00  0.00    -0.221 C  
HETATM   11  C   UNL     1     -10.086   8.372  68.669  1.00  0.00    -0.210 A  
HETATM   12  C   UNL     1      -8.565   9.588  70.272  1.00  0.00    -0.258 A  
HETATM   13  C   UNL     1     -11.063   9.657  70.704  1.00  0.00    -0.384 C  
HETATM   14  C   UNL     1     -11.032   7.349  68.872  1.00  0.00    -0.006 A  
HETATM   15  C   UNL     1      -7.481  10.273  69.684  1.00  0.00    -0.159 A  
HETATM   16  C   UNL     1      -6.182  10.152  70.186  1.00  0.00    -0.090 A  
HETATM   17  C   UNL     1     -11.067   6.221  68.045  1.00  0.00    -0.365 A  
HETATM   18  C   UNL     1     -10.154   6.092  67.003  1.00  0.00    -0.179 A  
HETATM   19  C   UNL     1      -5.938   9.365  71.305  1.00  0.00    -0.076 A  
HETATM   20 CL   UNL     1     -10.175   4.685  66.015  1.00  0.00    -0.285 Cl 
HETATM   21  C   UNL     1      -9.220   7.094  66.765  1.00  0.00    -0.188 A  
HETATM   22  C   UNL     1      -6.993   8.706  71.928  1.00  0.00    -0.091 A  
HETATM   23  C   UNL     1      -8.289   8.808  71.412  1.00  0.00    -0.222 A  
HETATM   24  C   UNL     1      -9.196   8.227  67.584  1.00  0.00    -0.150 A  
ENDBRANCH   8   9
ENDBRANCH   7   8
ENDBRANCH   6   7
TORSDOF 3
ENDMDL
MODEL       68
REMARK 921   NORMALIZED FREE ENERGY PREDICTED BY IDOCK:   -5.08 KCAL/MOL
REMARK 922        TOTAL FREE ENERGY PREDICTED BY IDOCK:   -6.67 KCAL/MOL
REMARK 923 INTER-LIGAND FREE ENERGY PREDICTED BY IDOCK:   -6.00 KCAL/MOL
REMARK 924 INTRA-LIGAND FREE ENERGY PREDICTED BY IDOCK:   -0.67 KCAL/MOL
REMARK 927      BINDING AFFINITY PREDICTED BY RF-SCORE:    0.00 PKD
ROOT
HETATM    1  C   UNL     1     -10.731  19.275  67.248  1.00  0.00    -0.488 C  
HETATM    2  N   UNL     1      -9.287  19.280  67.037  1.00  0.00    -0.308 NA 
HETATM    3  C   UNL     1      -8.644  20.333  67.827  1.00  0.00    -0.206 C  
HETATM    4  C   UNL     1      -7.193  19.912  67.805  1.00  0.00    -0.313 C  
HETATM    5  C   UNL     1      -7.266  18.405  67.964  1.00  0.00    -0.248 C  
HETATM    6  C   UNL     1      -8.639  18.000  67.406  1.00  0.00    -0.244 C  
ENDROOT
BRANCH   6   7
HETATM    7  C   UNL     1      -8.540  17.085  66.175  1.00  0.00    -0.252 C  
BRANCH   7   8
HETATM    8  C   UNL     1      -9.346  15.785  66.278  1.00  0.00    -0.325 C  
BRANCH   8   9
HETATM    9  O   UNL     1      -9.963  15.683  67.560  1.00  0.00    -0.228 OA 
HETATM   10  C   UNL     1     -10.747  14.486  67.822  1.00  0.00    -0.256 C  
HETATM   11  C   UNL     1      -9.825  13.240  67.816  1.00  0.00    -0.224 A  
HETATM   12  C   UNL     1     -11.349  14.650  69.248  1.00  0.00    -0.313 A  
HETATM   13  C   UNL     1     -11.897  14.419  66.783  1.00  0.00    -0.431 C  
HETATM   14  C   UNL     1     -10.077  12.112  67.013  1.00  0.00    -0.219 A  
HETATM   15  C   UNL     1     -10.708  15.456  70.212  1.00  0.00    -0.320 A  
HETATM   16  C   UNL     1     -11.150  15.499  71.538  1.00  0.00    -0.294 A  
HETATM   17  C   UNL     1      -9.259  10.979  67.079  1.00  0.00    -0.164 A  
HETATM   18  C   UNL     1      -8.177  10.950  67.952  1.00  0.00    -0.114 A  
HETATM   19  C   UNL     1     -12.261  14.760  71.927  1.00  0.00    -0.415 A  
HETATM   20 CL   UNL     1      -7.198   9.540  68.059  1.00  0.00    -0.081 Cl 
HETATM   21  C   UNL     1      -7.890  12.056  68.745  1.00  0.00    -0.033 A  
HETATM   22  C   UNL     1     -12.935  13.985  70.990  1.00  0.00    -0.378 A  
HETATM   23  C   UNL     1     -12.479  13.922  69.669  1.00  0.00    -0.192 A  
HETATM   24  C   UNL     1      -8.701  13.192  68.667  1.00  0.00     0.045 A  
ENDBRANCH   8   9
ENDBRANCH   7   8
ENDBRANCH   6   7
TORSDOF 3
ENDMDL
MODEL       69
REMARK 921   NORMALIZED FREE ENERGY PREDICTED BY IDOCK:   -5.06 KCAL/MOL
REMARK 922        TOTAL FREE ENERGY PREDICTED BY IDOCK:   -6.65 KCAL/MOL
REMARK 923 INTER-LIGAND FREE ENERGY PREDICTED BY IDOCK:   -6.06 KCAL/MOL
REMARK 924 INTRA-LIGAND FREE ENERGY PREDICTED BY IDOCK:   -0.59 KCAL/MOL
REMARK 927      BINDING AFFINITY PREDICTED BY RF-SCORE:    0.00 PKD
ROOT
HETATM    1  C   UNL     1     -10.344  15.672  68.288  1.00  0.00    -0.244 C  
HETATM    2  N   UNL     1     -11.029  15.495  67.011  1.00  0.00    -0.311 NA 
HETATM    3  C   UNL     1     -10.596  16.502  66.039  1.00  0.00    -0.253 C  
HETATM    4  C   UNL     1     -11.069  15.912  64.731  1.00  0.00    -0.397 C  
HETATM    5  C   UNL     1     -10.765  14.433  64.887  1.00  0.00    -0.444 C  
HETATM    6  C   UNL     1     -10.791  14.167  66.401  1.00  0.00    -0.304 C  
ENDROOT
BRANCH   6   7
HETATM    7  C   UNL     1     -11.899  13.187  66.819  1.00  0.00    -0.444 C  
BRANCH   7   8
HETATM    8  C   UNL     1     -11.404  11.787  67.198  1.00  0.00    -0.322 C  
BRANCH   8   9
HETATM    9  O   UNL     1     -10.561  11.264  66.175  1.00  0.00    -0.251 OA 
HETATM   10  C   UNL     1      -9.332  10.612  66.601  1.00  0.00    -0.165 C  
HETATM   11  C   UNL     1      -9.666   9.337  67.416  1.00  0.00    -0.208 A  
HETATM   12  C   UNL     1      -8.578  10.189  65.306  1.00  0.00    -0.169 A  
HETATM   13  C   UNL     1      -8.476  11.646  67.379  1.00  0.00    -0.150 C  
HETATM   14  C   UNL     1      -9.149   9.101  68.704  1.00  0.00    -0.136 A  
HETATM   15  C   UNL     1      -9.285   9.939  64.111  1.00  0.00    -0.312 A  
HETATM   16  C   UNL     1      -8.647   9.418  62.981  1.00  0.00    -0.222 A  
HETATM   17  C   UNL     1      -9.421   7.910  69.386  1.00  0.00    -0.156 A  
HETATM   18  C   UNL     1     -10.210   6.931  68.792  1.00  0.00    -0.174 A  
HETATM   19  C   UNL     1      -7.281   9.159  63.008  1.00  0.00    -0.094 A  
HETATM   20 CL   UNL     1     -10.508   5.452  69.618  1.00  0.00    -0.365 Cl 
HETATM   21  C   UNL     1     -10.751   7.142  67.529  1.00  0.00    -0.344 A  
HETATM   22  C   UNL     1      -6.551   9.430  64.161  1.00  0.00    -0.095 A  
HETATM   23  C   UNL     1      -7.193   9.929  65.299  1.00  0.00    -0.131 A  
HETATM   24  C   UNL     1     -10.489   8.339  66.854  1.00  0.00    -0.365 A  
ENDBRANCH   8   9
ENDBRANCH   7   8
ENDBRANCH   6   7
TORSDOF 3
ENDMDL
MODEL       70
REMARK 921   NORMALIZED FREE ENERGY PREDICTED BY IDOCK:   -5.05 KCAL/MOL
REMARK 922        TOTAL FREE ENERGY PREDICTED BY IDOCK:   -6.63 KCAL/MOL
REMARK 923 INTER-LIGAND FREE ENERGY PREDICTED BY IDOCK:   -6.05 KCAL/MOL
REMARK 924 INTRA-LIGAND FREE ENERGY PREDICTED BY IDOCK:   -0.58 KCAL/MOL
REMARK 927      BINDING AFFINITY PREDICTED BY RF-SCORE:    0.00 PKD
ROOT
HETATM    1  C   UNL     1      -5.972   8.115  68.292  1.00  0.00    -0.041 C  
HETATM    2  N   UNL     1      -5.700   9.081  67.233  1.00  0.00    -0.042 NA 
HETATM    3  C   UNL     1      -5.279   8.407  66.002  1.00  0.00    -0.028 C  
HETATM    4  C   UNL     1      -5.459   9.490  64.964  1.00  0.00    -0.047 C  
HETATM    5  C   UNL     1      -6.756  10.158  65.380  1.00  0.00    -0.121 C  
HETATM    6  C   UNL     1      -6.875   9.918  66.893  1.00  0.00    -0.087 C  
ENDROOT
BRANCH   6   7
HETATM    7  C   UNL     1      -6.849  11.219  67.711  1.00  0.00    -0.074 C  
BRANCH   7   8
HETATM    8  C   UNL     1      -8.192  11.603  68.343  1.00  0.00    -0.155 C  
BRANCH   8   9
HETATM    9  O   UNL     1      -8.992  12.325  67.409  1.00  0.00    -0.169 OA 
HETATM   10  C   UNL     1     -10.371  11.891  67.248  1.00  0.00    -0.205 C  
HETATM   11  C   UNL     1     -11.151  12.112  68.569  1.00  0.00    -0.295 A  
HETATM   12  C   UNL     1     -10.998  12.795  66.146  1.00  0.00    -0.310 A  
HETATM   13  C   UNL     1     -10.365  10.418  66.763  1.00  0.00    -0.294 C  
HETATM   14  C   UNL     1     -11.873  11.085  69.207  1.00  0.00    -0.411 A  
HETATM   15  C   UNL     1     -10.497  14.092  65.908  1.00  0.00    -0.314 A  
HETATM   16  C   UNL     1     -11.136  14.970  65.028  1.00  0.00    -0.421 A  
HETATM   17  C   UNL     1     -12.618  11.334  70.365  1.00  0.00    -0.292 A  
HETATM   18  C   UNL     1     -12.660  12.616  70.904  1.00  0.00    -0.249 A  
HETATM   19  C   UNL     1     -12.276  14.565  64.342  1.00  0.00    -0.480 A  
HETATM   20 CL   UNL     1     -13.609  12.926  72.304  1.00  0.00    -0.658 Cl 
HETATM   21  C   UNL     1     -11.943  13.647  70.308  1.00  0.00    -0.397 A  
HETATM   22  C   UNL     1     -12.772  13.279  64.530  1.00  0.00    -0.229 A  
HETATM   23  C   UNL     1     -12.146  12.408  65.428  1.00  0.00    -0.428 A  
HETATM   24  C   UNL     1     -11.188  13.393  69.159  1.00  0.00    -0.300 A  
ENDBRANCH   8   9
ENDBRANCH   7   8
ENDBRANCH   6   7
TORSDOF 3
ENDMDL
MODEL       71
REMARK 921   NORMALIZED FREE ENERGY PREDICTED BY IDOCK:   -5.05 KCAL/MOL
REMARK 922        TOTAL FREE ENERGY PREDICTED BY IDOCK:   -6.62 KCAL/MOL
REMARK 923 INTER-LIGAND FREE ENERGY PREDICTED BY IDOCK:   -6.03 KCAL/MOL
REMARK 924 INTRA-LIGAND FREE ENERGY PREDICTED BY IDOCK:   -0.60 KCAL/MOL
REMARK 927      BINDING AFFINITY PREDICTED BY RF-SCORE:    0.00 PKD
ROOT
HETATM    1  C   UNL     1      -7.454   8.522  66.151  1.00  0.00    -0.089 C  
HETATM    2  N   UNL     1      -7.828   8.852  67.524  1.00  0.00    -0.101 NA 
HETATM    3  C   UNL     1      -8.118   7.640  68.295  1.00  0.00    -0.124 C  
HETATM    4  C   UNL     1      -8.062   8.143  69.718  1.00  0.00    -0.116 C  
HETATM    5  C   UNL     1      -6.881   9.096  69.703  1.00  0.00    -0.054 C  
HETATM    6  C   UNL     1      -6.772   9.592  68.253  1.00  0.00    -0.058 C  
ENDROOT
BRANCH   6   7
HETATM    7  C   UNL     1      -6.999  11.106  68.117  1.00  0.00    -0.069 C  
BRANCH   7   8
HETATM    8  C   UNL     1      -8.340  11.603  68.669  1.00  0.00    -0.100 C  
BRANCH   8   9
HETATM    9  O   UNL     1      -9.081  12.268  67.649  1.00  0.00    -0.170 OA 
HETATM   10  C   UNL     1     -10.491  11.929  67.530  1.00  0.00    -0.209 C  
HETATM   11  C   UNL     1     -11.249  12.370  68.808  1.00  0.00    -0.318 A  
HETATM   12  C   UNL     1     -11.045  12.739  66.322  1.00  0.00    -0.321 A  
HETATM   13  C   UNL     1     -10.605  10.412  67.227  1.00  0.00    -0.322 C  
HETATM   14  C   UNL     1     -12.049  11.489  69.560  1.00  0.00    -0.351 A  
HETATM   15  C   UNL     1     -10.442  13.954  65.932  1.00  0.00    -0.309 A  
HETATM   16  C   UNL     1     -11.010  14.768  64.947  1.00  0.00    -0.425 A  
HETATM   17  C   UNL     1     -12.770  11.936  70.673  1.00  0.00    -0.176 A  
HETATM   18  C   UNL     1     -12.708  13.272  71.053  1.00  0.00    -0.293 A  
HETATM   19  C   UNL     1     -12.180  14.375  64.307  1.00  0.00    -0.450 A  
HETATM   20 CL   UNL     1     -13.626  13.825  72.397  1.00  0.00    -0.640 Cl 
HETATM   21  C   UNL     1     -11.911  14.163  70.343  1.00  0.00    -0.400 A  
HETATM   22  C   UNL     1     -12.777  13.165  64.645  1.00  0.00    -0.326 A  
HETATM   23  C   UNL     1     -12.222  12.362  65.646  1.00  0.00    -0.322 A  
HETATM   24  C   UNL     1     -11.181  13.712  69.238  1.00  0.00    -0.284 A  
ENDBRANCH   8   9
ENDBRANCH   7   8
ENDBRANCH   6   7
TORSDOF 3
ENDMDL
MODEL       72
REMARK 921   NORMALIZED FREE ENERGY PREDICTED BY IDOCK:   -4.99 KCAL/MOL
REMARK 922        TOTAL FREE ENERGY PREDICTED BY IDOCK:   -6.56 KCAL/MOL
REMARK 923 INTER-LIGAND FREE ENERGY PREDICTED BY IDOCK:   -5.98 KCAL/MOL
REMARK 924 INTRA-LIGAND FREE ENERGY PREDICTED BY IDOCK:   -0.58 KCAL/MOL
REMARK 927      BINDING AFFINITY PREDICTED BY RF-SCORE:    0.00 PKD
ROOT
HETATM    1  C   UNL     1     -12.389  13.462  63.208  1.00  0.00    -0.169 C  
HETATM    2  N   UNL     1     -11.951  13.022  64.530  1.00  0.00    -0.372 NA 
HETATM    3  C   UNL     1     -11.577  11.605  64.515  1.00  0.00    -0.154 C  
HETATM    4  C   UNL     1     -10.786  11.468  65.796  1.00  0.00    -0.319 C  
HETATM    5  C   UNL     1      -9.973  12.748  65.840  1.00  0.00    -0.273 C  
HETATM    6  C   UNL     1     -10.783  13.778  65.038  1.00  0.00    -0.382 C  
ENDROOT
BRANCH   6   7
HETATM    7  C   UNL     1     -11.255  14.967  65.890  1.00  0.00    -0.328 C  
BRANCH   7   8
HETATM    8  C   UNL     1     -10.153  15.968  66.255  1.00  0.00    -0.313 C  
BRANCH   8   9
HETATM    9  O   UNL     1      -9.111  15.318  66.980  1.00  0.00    -0.201 OA 
HETATM   10  C   UNL     1      -8.942  15.696  68.375  1.00  0.00    -0.185 C  
HETATM   11  C   UNL     1     -10.196  15.286  69.188  1.00  0.00    -0.242 A  
HETATM   12  C   UNL     1      -7.720  14.894  68.910  1.00  0.00    -0.148 A  
HETATM   13  C   UNL     1      -8.627  17.213  68.434  1.00  0.00    -0.246 C  
HETATM   14  C   UNL     1     -10.915  16.194  69.988  1.00  0.00    -0.364 A  
HETATM   15  C   UNL     1      -7.359  13.660  68.330  1.00  0.00    -0.118 A  
HETATM   16  C   UNL     1      -6.359  12.856  68.887  1.00  0.00    -0.090 A  
HETATM   17  C   UNL     1     -12.005  15.775  70.759  1.00  0.00    -0.444 A  
HETATM   18  C   UNL     1     -12.395  14.440  70.748  1.00  0.00    -0.347 A  
HETATM   19  C   UNL     1      -5.677  13.278  70.023  1.00  0.00    -0.127 A  
HETATM   20 CL   UNL     1     -13.710  13.923  71.728  1.00  0.00    -0.458 Cl 
HETATM   21  C   UNL     1     -11.717  13.522  69.954  1.00  0.00    -0.341 A  
HETATM   22  C   UNL     1      -5.987  14.507  70.596  1.00  0.00    -0.184 A  
HETATM   23  C   UNL     1      -7.003  15.300  70.053  1.00  0.00    -0.054 A  
HETATM   24  C   UNL     1     -10.636  13.945  69.174  1.00  0.00    -0.124 A  
ENDBRANCH   8   9
ENDBRANCH   7   8
ENDBRANCH   6   7
TORSDOF 3
ENDMDL
MODEL       73
REMARK 921   NORMALIZED FREE ENERGY PREDICTED BY IDOCK:   -4.99 KCAL/MOL
REMARK 922        TOTAL FREE ENERGY PREDICTED BY IDOCK:   -6.55 KCAL/MOL
REMARK 923 INTER-LIGAND FREE ENERGY PREDICTED BY IDOCK:   -5.58 KCAL/MOL
REMARK 924 INTRA-LIGAND FREE ENERGY PREDICTED BY IDOCK:   -0.97 KCAL/MOL
REMARK 927      BINDING AFFINITY PREDICTED BY RF-SCORE:    0.00 PKD
ROOT
HETATM    1  C   UNL     1      -9.342   7.290  66.309  1.00  0.00    -0.108 C  
HETATM    2  N   UNL     1      -8.774   8.623  66.479  1.00  0.00    -0.121 NA 
HETATM    3  C   UNL     1      -7.561   8.577  67.299  1.00  0.00    -0.097 C  
HETATM    4  C   UNL     1      -6.924   9.916  67.008  1.00  0.00    -0.088 C  
HETATM    5  C   UNL     1      -7.153  10.093  65.518  1.00  0.00    -0.138 C  
HETATM    6  C   UNL     1      -8.410   9.269  65.196  1.00  0.00    -0.150 C  
ENDROOT
BRANCH   6   7
HETATM    7  C   UNL     1      -9.578  10.129  64.689  1.00  0.00    -0.379 C  
BRANCH   7   8
HETATM    8  C   UNL     1     -10.453  10.735  65.793  1.00  0.00    -0.188 C  
BRANCH   8   9
HETATM    9  O   UNL     1      -9.742  11.760  66.483  1.00  0.00    -0.197 OA 
HETATM   10  C   UNL     1     -10.441  12.432  67.568  1.00  0.00    -0.215 C  
HETATM   11  C   UNL     1     -10.733  11.426  68.711  1.00  0.00    -0.240 A  
HETATM   12  C   UNL     1      -9.478  13.529  68.108  1.00  0.00    -0.214 A  
HETATM   13  C   UNL     1     -11.712  13.104  66.987  1.00  0.00    -0.431 C  
HETATM   14  C   UNL     1     -12.023  11.226  69.236  1.00  0.00    -0.411 A  
HETATM   15  C   UNL     1      -8.081  13.390  67.975  1.00  0.00    -0.160 A  
HETATM   16  C   UNL     1      -7.197  14.288  68.580  1.00  0.00    -0.125 A  
HETATM   17  C   UNL     1     -12.240  10.356  70.311  1.00  0.00    -0.349 A  
HETATM   18  C   UNL     1     -11.171   9.673  70.882  1.00  0.00    -0.352 A  
HETATM   19  C   UNL     1      -7.687  15.364  69.311  1.00  0.00    -0.221 A  
HETATM   20 CL   UNL     1     -11.438   8.636  72.228  1.00  0.00    -0.440 Cl 
HETATM   21  C   UNL     1      -9.888   9.835  70.373  1.00  0.00    -0.269 A  
HETATM   22  C   UNL     1      -9.061  15.548  69.429  1.00  0.00    -0.280 A  
HETATM   23  C   UNL     1      -9.945  14.636  68.843  1.00  0.00    -0.228 A  
HETATM   24  C   UNL     1      -9.675  10.695  69.291  1.00  0.00    -0.181 A  
ENDBRANCH   8   9
ENDBRANCH   7   8
ENDBRANCH   6   7
TORSDOF 3
ENDMDL
MODEL       74
REMARK 921   NORMALIZED FREE ENERGY PREDICTED BY IDOCK:   -4.96 KCAL/MOL
REMARK 922        TOTAL FREE ENERGY PREDICTED BY IDOCK:   -6.53 KCAL/MOL
REMARK 923 INTER-LIGAND FREE ENERGY PREDICTED BY IDOCK:   -6.08 KCAL/MOL
REMARK 924 INTRA-LIGAND FREE ENERGY PREDICTED BY IDOCK:   -0.45 KCAL/MOL
REMARK 927      BINDING AFFINITY PREDICTED BY RF-SCORE:    0.00 PKD
ROOT
HETATM    1  C   UNL     1     -11.983  14.030  64.987  1.00  0.00    -0.401 C  
HETATM    2  N   UNL     1     -11.307  13.776  66.256  1.00  0.00    -0.314 NA 
HETATM    3  C   UNL     1     -11.322  14.968  67.107  1.00  0.00    -0.320 C  
HETATM    4  C   UNL     1     -10.978  14.400  68.464  1.00  0.00    -0.264 C  
HETATM    5  C   UNL     1     -11.756  13.097  68.502  1.00  0.00    -0.387 C  
HETATM    6  C   UNL     1     -11.922  12.675  67.034  1.00  0.00    -0.260 C  
ENDROOT
BRANCH   6   7
HETATM    7  C   UNL     1     -11.223  11.345  66.709  1.00  0.00    -0.319 C  
BRANCH   7   8
HETATM    8  C   UNL     1     -11.092  10.386  67.897  1.00  0.00    -0.299 C  
BRANCH   8   9
HETATM    9  O   UNL     1     -10.782   9.070  67.441  1.00  0.00    -0.271 OA 
HETATM   10  C   UNL     1      -9.613   8.429  68.022  1.00  0.00    -0.149 C  
HETATM   11  C   UNL     1      -9.838   8.192  69.537  1.00  0.00    -0.181 A  
HETATM   12  C   UNL     1      -9.468   7.046  67.321  1.00  0.00    -0.165 A  
HETATM   13  C   UNL     1      -8.370   9.300  67.703  1.00  0.00    -0.116 C  
HETATM   14  C   UNL     1      -8.936   8.641  70.519  1.00  0.00    -0.185 A  
HETATM   15  C   UNL     1     -10.593   6.394  66.775  1.00  0.00    -0.328 A  
HETATM   16  C   UNL     1     -10.510   5.092  66.274  1.00  0.00    -0.352 A  
HETATM   17  C   UNL     1      -9.139   8.356  71.874  1.00  0.00    -0.288 A  
HETATM   18  C   UNL     1     -10.245   7.612  72.272  1.00  0.00    -0.216 A  
HETATM   19  C   UNL     1      -9.294   4.418  66.280  1.00  0.00    -0.160 A  
HETATM   20 CL   UNL     1     -10.469   7.230  73.933  1.00  0.00    -0.345 Cl 
HETATM   21  C   UNL     1     -11.165   7.170  71.327  1.00  0.00    -0.287 A  
HETATM   22  C   UNL     1      -8.160   5.049  66.780  1.00  0.00    -0.108 A  
HETATM   23  C   UNL     1      -8.247   6.343  67.303  1.00  0.00    -0.113 A  
HETATM   24  C   UNL     1     -10.967   7.468  69.975  1.00  0.00    -0.252 A  
ENDBRANCH   8   9
ENDBRANCH   7   8
ENDBRANCH   6   7
TORSDOF 3
ENDMDL
MODEL       75
REMARK 921   NORMALIZED FREE ENERGY PREDICTED BY IDOCK:   -4.95 KCAL/MOL
REMARK 922        TOTAL FREE ENERGY PREDICTED BY IDOCK:   -6.52 KCAL/MOL
REMARK 923 INTER-LIGAND FREE ENERGY PREDICTED BY IDOCK:   -5.88 KCAL/MOL
REMARK 924 INTRA-LIGAND FREE ENERGY PREDICTED BY IDOCK:   -0.64 KCAL/MOL
REMARK 927      BINDING AFFINITY PREDICTED BY RF-SCORE:    0.00 PKD
ROOT
HETATM    1  C   UNL     1      -7.073  19.393  69.274  1.00  0.00    -0.323 C  
HETATM    2  N   UNL     1      -7.198  19.239  67.828  1.00  0.00    -0.241 NA 
HETATM    3  C   UNL     1      -7.345  20.542  67.172  1.00  0.00    -0.325 C  
HETATM    4  C   UNL     1      -7.038  20.212  65.730  1.00  0.00    -0.311 C  
HETATM    5  C   UNL     1      -5.880  19.238  65.835  1.00  0.00    -0.191 C  
HETATM    6  C   UNL     1      -6.030  18.569  67.211  1.00  0.00    -0.157 C  
ENDROOT
BRANCH   6   7
HETATM    7  C   UNL     1      -6.279  17.055  67.117  1.00  0.00    -0.209 C  
BRANCH   7   8
HETATM    8  C   UNL     1      -7.677  16.667  66.622  1.00  0.00    -0.281 C  
BRANCH   8   9
HETATM    9  O   UNL     1      -8.524  16.348  67.724  1.00  0.00    -0.165 OA 
HETATM   10  C   UNL     1      -9.933  16.137  67.434  1.00  0.00    -0.247 C  
HETATM   11  C   UNL     1     -10.105  14.887  66.533  1.00  0.00    -0.279 A  
HETATM   12  C   UNL     1     -10.635  15.864  68.797  1.00  0.00    -0.245 A  
HETATM   13  C   UNL     1     -10.505  17.438  66.813  1.00  0.00    -0.257 C  
HETATM   14  C   UNL     1     -10.808  14.920  65.313  1.00  0.00    -0.398 A  
HETATM   15  C   UNL     1      -9.915  15.319  69.880  1.00  0.00    -0.176 A  
HETATM   16  C   UNL     1     -10.555  14.931  71.061  1.00  0.00     0.378 A  
HETATM   17  C   UNL     1     -10.997  13.759  64.555  1.00  0.00    -0.399 A  
HETATM   18  C   UNL     1     -10.492  12.543  65.004  1.00  0.00    -0.297 A  
HETATM   19  C   UNL     1     -11.927  15.104  71.200  1.00  0.00    -0.386 A  
HETATM   20 CL   UNL     1     -10.762  11.112  64.089  1.00  0.00    -0.441 Cl 
HETATM   21  C   UNL     1      -9.777  12.482  66.195  1.00  0.00    -0.259 A  
HETATM   22  C   UNL     1     -12.658  15.672  70.161  1.00  0.00    -0.243 A  
HETATM   23  C   UNL     1     -12.022  16.038  68.971  1.00  0.00    -0.159 A  
HETATM   24  C   UNL     1      -9.577  13.645  66.944  1.00  0.00    -0.262 A  
ENDBRANCH   8   9
ENDBRANCH   7   8
ENDBRANCH   6   7
TORSDOF 3
ENDMDL
MODEL       76
REMARK 921   NORMALIZED FREE ENERGY PREDICTED BY IDOCK:   -4.94 KCAL/MOL
REMARK 922        TOTAL FREE ENERGY PREDICTED BY IDOCK:   -6.51 KCAL/MOL
REMARK 923 INTER-LIGAND FREE ENERGY PREDICTED BY IDOCK:   -5.74 KCAL/MOL
REMARK 924 INTRA-LIGAND FREE ENERGY PREDICTED BY IDOCK:   -0.76 KCAL/MOL
REMARK 927      BINDING AFFINITY PREDICTED BY RF-SCORE:    0.00 PKD
ROOT
HETATM    1  C   UNL     1     -10.047   5.227  67.141  1.00  0.00    -0.203 C  
HETATM    2  N   UNL     1      -9.754   6.160  68.224  1.00  0.00    -0.120 NA 
HETATM    3  C   UNL     1      -8.642   5.678  69.048  1.00  0.00    -0.105 C  
HETATM    4  C   UNL     1      -8.238   6.923  69.803  1.00  0.00    -0.131 C  
HETATM    5  C   UNL     1      -8.345   8.015  68.755  1.00  0.00    -0.127 C  
HETATM    6  C   UNL     1      -9.389   7.513  67.745  1.00  0.00    -0.141 C  
ENDROOT
BRANCH   6   7
HETATM    7  C   UNL     1     -10.639   8.406  67.680  1.00  0.00    -0.265 C  
BRANCH   7   8
HETATM    8  C   UNL     1     -10.510   9.741  68.423  1.00  0.00    -0.218 C  
BRANCH   8   9
HETATM    9  O   UNL     1     -10.970  10.812  67.601  1.00  0.00    -0.263 OA 
HETATM   10  C   UNL     1      -9.956  11.671  67.009  1.00  0.00    -0.204 C  
HETATM   11  C   UNL     1      -9.092  10.858  66.012  1.00  0.00    -0.208 A  
HETATM   12  C   UNL     1     -10.715  12.777  66.219  1.00  0.00    -0.291 A  
HETATM   13  C   UNL     1      -9.141  12.325  68.154  1.00  0.00    -0.196 C  
HETATM   14  C   UNL     1      -7.687  10.809  66.087  1.00  0.00    -0.149 A  
HETATM   15  C   UNL     1     -12.009  12.540  65.711  1.00  0.00    -0.482 A  
HETATM   16  C   UNL     1     -12.646  13.463  64.876  1.00  0.00    -0.416 A  
HETATM   17  C   UNL     1      -6.935  10.116  65.132  1.00  0.00    -0.137 A  
HETATM   18  C   UNL     1      -7.572   9.462  64.083  1.00  0.00    -0.115 A  
HETATM   19  C   UNL     1     -12.018  14.660  64.551  1.00  0.00    -0.473 A  
HETATM   20 CL   UNL     1      -6.640   8.645  62.890  1.00  0.00    -0.091 Cl 
HETATM   21  C   UNL     1      -8.959   9.476  63.992  1.00  0.00    -0.228 A  
HETATM   22  C   UNL     1     -10.756  14.937  65.066  1.00  0.00    -0.451 A  
HETATM   23  C   UNL     1     -10.108  14.003  65.882  1.00  0.00    -0.336 A  
HETATM   24  C   UNL     1      -9.710  10.158  64.954  1.00  0.00    -0.392 A  
ENDBRANCH   8   9
ENDBRANCH   7   8
ENDBRANCH   6   7
TORSDOF 3
ENDMDL
MODEL       77
REMARK 921   NORMALIZED FREE ENERGY PREDICTED BY IDOCK:   -4.94 KCAL/MOL
REMARK 922        TOTAL FREE ENERGY PREDICTED BY IDOCK:   -6.50 KCAL/MOL
REMARK 923 INTER-LIGAND FREE ENERGY PREDICTED BY IDOCK:   -5.87 KCAL/MOL
REMARK 924 INTRA-LIGAND FREE ENERGY PREDICTED BY IDOCK:   -0.62 KCAL/MOL
REMARK 927      BINDING AFFINITY PREDICTED BY RF-SCORE:    0.00 PKD
ROOT
HETATM    1  C   UNL     1      -9.352  10.376  62.750  1.00  0.00    -0.317 C  
HETATM    2  N   UNL     1     -10.010  11.354  63.612  1.00  0.00    -0.326 NA 
HETATM    3  C   UNL     1     -11.351  11.674  63.117  1.00  0.00    -0.057 C  
HETATM    4  C   UNL     1     -11.989  12.332  64.318  1.00  0.00    -0.489 C  
HETATM    5  C   UNL     1     -11.494  11.491  65.479  1.00  0.00    -0.074 C  
HETATM    6  C   UNL     1     -10.159  10.890  65.011  1.00  0.00    -0.300 C  
ENDROOT
BRANCH   6   7
HETATM    7  C   UNL     1      -8.962  11.360  65.853  1.00  0.00    -0.184 C  
BRANCH   7   8
HETATM    8  C   UNL     1      -9.321  12.313  66.999  1.00  0.00    -0.205 C  
BRANCH   8   9
HETATM    9  O   UNL     1      -8.491  13.472  66.958  1.00  0.00    -0.194 OA 
HETATM   10  C   UNL     1      -9.160  14.758  66.834  1.00  0.00    -0.248 C  
HETATM   11  C   UNL     1     -10.021  15.030  68.094  1.00  0.00    -0.220 A  
HETATM   12  C   UNL     1      -8.042  15.838  66.756  1.00  0.00    -0.297 A  
HETATM   13  C   UNL     1      -9.970  14.761  65.511  1.00  0.00    -0.390 C  
HETATM   14  C   UNL     1     -11.390  15.351  68.025  1.00  0.00    -0.345 A  
HETATM   15  C   UNL     1      -6.777  15.608  67.337  1.00  0.00    -0.218 A  
HETATM   16  C   UNL     1      -5.811  16.616  67.406  1.00  0.00    -0.187 A  
HETATM   17  C   UNL     1     -12.122  15.652  69.180  1.00  0.00    -0.249 A  
HETATM   18  C   UNL     1     -11.498  15.642  70.423  1.00  0.00    -0.354 A  
HETATM   19  C   UNL     1      -6.074  17.873  66.872  1.00  0.00    -0.183 A  
HETATM   20 CL   UNL     1     -12.393  16.051  71.833  1.00  0.00    -0.525 Cl 
HETATM   21  C   UNL     1     -10.152  15.310  70.526  1.00  0.00     0.228 A  
HETATM   22  C   UNL     1      -7.300  18.118  66.261  1.00  0.00    -0.302 A  
HETATM   23  C   UNL     1      -8.275  17.117  66.212  1.00  0.00    -0.306 A  
HETATM   24  C   UNL     1      -9.426  14.996  69.373  1.00  0.00    -0.132 A  
ENDBRANCH   8   9
ENDBRANCH   7   8
ENDBRANCH   6   7
TORSDOF 3
ENDMDL
MODEL       78
REMARK 921   NORMALIZED FREE ENERGY PREDICTED BY IDOCK:   -4.93 KCAL/MOL
REMARK 922        TOTAL FREE ENERGY PREDICTED BY IDOCK:   -6.49 KCAL/MOL
REMARK 923 INTER-LIGAND FREE ENERGY PREDICTED BY IDOCK:   -5.69 KCAL/MOL
REMARK 924 INTRA-LIGAND FREE ENERGY PREDICTED BY IDOCK:   -0.80 KCAL/MOL
REMARK 927      BINDING AFFINITY PREDICTED BY RF-SCORE:    0.00 PKD
ROOT
HETATM    1  C   UNL     1     -13.090  13.894  71.090  1.00  0.00    -0.281 C  
HETATM    2  N   UNL     1     -12.292  12.686  70.907  1.00  0.00    -0.344 NA 
HETATM    3  C   UNL     1     -12.872  11.557  71.640  1.00  0.00    -0.370 C  
HETATM    4  C   UNL     1     -12.183  10.372  71.003  1.00  0.00    -0.498 C  
HETATM    5  C   UNL     1     -12.153  10.738  69.531  1.00  0.00    -0.344 C  
HETATM    6  C   UNL     1     -12.177  12.274  69.489  1.00  0.00    -0.093 C  
ENDROOT
BRANCH   6   7
HETATM    7  C   UNL     1     -10.908  12.877  68.865  1.00  0.00    -0.239 C  
BRANCH   7   8
HETATM    8  C   UNL     1      -9.802  11.861  68.557  1.00  0.00    -0.183 C  
BRANCH   8   9
HETATM    9  O   UNL     1      -9.707  11.643  67.151  1.00  0.00    -0.180 OA 
HETATM   10  C   UNL     1      -8.729  10.665  66.700  1.00  0.00    -0.140 C  
HETATM   11  C   UNL     1      -9.117   9.255  67.213  1.00  0.00    -0.143 A  
HETATM   12  C   UNL     1      -8.787  10.660  65.144  1.00  0.00    -0.207 A  
HETATM   13  C   UNL     1      -7.323  11.133  67.160  1.00  0.00    -0.121 C  
HETATM   14  C   UNL     1      -8.229   8.439  67.940  1.00  0.00    -0.127 A  
HETATM   15  C   UNL     1      -9.966  11.035  64.467  1.00  0.00    -0.366 A  
HETATM   16  C   UNL     1     -10.086  10.897  63.081  1.00  0.00    -0.317 A  
HETATM   17  C   UNL     1      -8.592   7.146  68.333  1.00  0.00    -0.123 A  
HETATM   18  C   UNL     1      -9.845   6.642  68.003  1.00  0.00    -0.131 A  
HETATM   19  C   UNL     1      -9.022  10.407  62.333  1.00  0.00    -0.297 A  
HETATM   20 CL   UNL     1     -10.271   5.038  68.454  1.00  0.00    -0.184 Cl 
HETATM   21  C   UNL     1     -10.751   7.430  67.302  1.00  0.00    -0.379 A  
HETATM   22  C   UNL     1      -7.834  10.063  62.970  1.00  0.00    -0.142 A  
HETATM   23  C   UNL     1      -7.721  10.178  64.359  1.00  0.00    -0.134 A  
HETATM   24  C   UNL     1     -10.393   8.727  66.921  1.00  0.00    -0.344 A  
ENDBRANCH   8   9
ENDBRANCH   7   8
ENDBRANCH   6   7
TORSDOF 3
ENDMDL
MODEL       79
REMARK 921   NORMALIZED FREE ENERGY PREDICTED BY IDOCK:   -4.91 KCAL/MOL
REMARK 922        TOTAL FREE ENERGY PREDICTED BY IDOCK:   -6.46 KCAL/MOL
REMARK 923 INTER-LIGAND FREE ENERGY PREDICTED BY IDOCK:   -5.63 KCAL/MOL
REMARK 924 INTRA-LIGAND FREE ENERGY PREDICTED BY IDOCK:   -0.83 KCAL/MOL
REMARK 927      BINDING AFFINITY PREDICTED BY RF-SCORE:    0.00 PKD
ROOT
HETATM    1  C   UNL     1     -11.910  12.283  67.684  1.00  0.00    -0.264 C  
HETATM    2  N   UNL     1     -12.044  12.544  66.254  1.00  0.00    -0.605 NA 
HETATM    3  C   UNL     1     -12.469  13.925  66.009  1.00  0.00    -0.461 C  
HETATM    4  C   UNL     1     -12.145  14.107  64.544  1.00  0.00    -0.489 C  
HETATM    5  C   UNL     1     -10.812  13.398  64.393  1.00  0.00    -0.422 C  
HETATM    6  C   UNL     1     -10.785  12.335  65.503  1.00  0.00    -0.279 C  
ENDROOT
BRANCH   6   7
HETATM    7  C   UNL     1     -10.728  10.899  64.957  1.00  0.00    -0.216 C  
BRANCH   7   8
HETATM    8  C   UNL     1      -9.533  10.075  65.449  1.00  0.00    -0.250 C  
BRANCH   8   9
HETATM    9  O   UNL     1      -9.661   9.797  66.842  1.00  0.00    -0.174 OA 
HETATM   10  C   UNL     1      -8.429   9.643  67.600  1.00  0.00    -0.125 C  
HETATM   11  C   UNL     1      -7.648  10.982  67.616  1.00  0.00    -0.104 A  
HETATM   12  C   UNL     1      -8.843   9.295  69.060  1.00  0.00    -0.136 A  
HETATM   13  C   UNL     1      -7.629   8.459  66.996  1.00  0.00    -0.092 C  
HETATM   14  C   UNL     1      -6.302  11.082  67.214  1.00  0.00    -0.069 A  
HETATM   15  C   UNL     1     -10.092   9.704  69.571  1.00  0.00    -0.223 A  
HETATM   16  C   UNL     1     -10.422   9.531  70.919  1.00  0.00    -0.382 A  
HETATM   17  C   UNL     1      -5.609  12.294  67.300  1.00  0.00    -0.122 A  
HETATM   18  C   UNL     1      -6.246  13.428  67.794  1.00  0.00    -0.157 A  
HETATM   19  C   UNL     1      -9.523   8.917  71.784  1.00  0.00    -0.334 A  
HETATM   20 CL   UNL     1      -5.378  14.906  67.935  1.00  0.00    -0.123 Cl 
HETATM   21  C   UNL     1      -7.580  13.366  68.181  1.00  0.00    -0.138 A  
HETATM   22  C   UNL     1      -8.297   8.470  71.300  1.00  0.00    -0.193 A  
HETATM   23  C   UNL     1      -7.958   8.665  69.957  1.00  0.00    -0.106 A  
HETATM   24  C   UNL     1      -8.275  12.157  68.082  1.00  0.00    -0.164 A  
ENDBRANCH   8   9
ENDBRANCH   7   8
ENDBRANCH   6   7
TORSDOF 3
ENDMDL
MODEL       80
REMARK 921   NORMALIZED FREE ENERGY PREDICTED BY IDOCK:   -4.85 KCAL/MOL
REMARK 922        TOTAL FREE ENERGY PREDICTED BY IDOCK:   -6.40 KCAL/MOL
REMARK 923 INTER-LIGAND FREE ENERGY PREDICTED BY IDOCK:   -5.17 KCAL/MOL
REMARK 924 INTRA-LIGAND FREE ENERGY PREDICTED BY IDOCK:   -1.22 KCAL/MOL
REMARK 927      BINDING AFFINITY PREDICTED BY RF-SCORE:    0.00 PKD
ROOT
HETATM    1  C   UNL     1     -13.147  13.924  65.491  1.00  0.00    -0.187 C  
HETATM    2  N   UNL     1     -12.320  12.746  65.246  1.00  0.00    -0.512 NA 
HETATM    3  C   UNL     1     -12.246  12.444  63.814  1.00  0.00    -0.533 C  
HETATM    4  C   UNL     1     -11.061  11.509  63.742  1.00  0.00    -0.471 C  
HETATM    5  C   UNL     1     -10.075  12.125  64.717  1.00  0.00    -0.276 C  
HETATM    6  C   UNL     1     -10.930  12.899  65.732  1.00  0.00    -0.278 C  
ENDROOT
BRANCH   6   7
HETATM    7  C   UNL     1     -10.807  12.349  67.162  1.00  0.00    -0.280 C  
BRANCH   7   8
HETATM    8  C   UNL     1     -11.254  10.892  67.327  1.00  0.00    -0.233 C  
BRANCH   8   9
HETATM    9  O   UNL     1     -10.455  10.236  68.309  1.00  0.00    -0.177 OA 
HETATM   10  C   UNL     1      -9.719   9.057  67.880  1.00  0.00    -0.155 C  
HETATM   11  C   UNL     1      -8.657   9.452  66.823  1.00  0.00    -0.134 A  
HETATM   12  C   UNL     1      -8.984   8.507  69.138  1.00  0.00    -0.146 A  
HETATM   13  C   UNL     1     -10.739   8.001  67.378  1.00  0.00    -0.260 C  
HETATM   14  C   UNL     1      -8.570   8.830  65.562  1.00  0.00    -0.198 A  
HETATM   15  C   UNL     1      -8.638   9.365  70.202  1.00  0.00    -0.233 A  
HETATM   16  C   UNL     1      -7.852   8.923  71.270  1.00  0.00    -0.163 A  
HETATM   17  C   UNL     1      -7.560   9.169  64.656  1.00  0.00    -0.106 A  
HETATM   18  C   UNL     1      -6.615  10.132  64.993  1.00  0.00    -0.128 A  
HETATM   19  C   UNL     1      -7.414   7.604  71.316  1.00  0.00    -0.079 A  
HETATM   20 CL   UNL     1      -5.351  10.516  63.892  1.00  0.00    -0.156 Cl 
HETATM   21  C   UNL     1      -6.685  10.778  66.222  1.00  0.00    -0.134 A  
HETATM   22  C   UNL     1      -7.770   6.725  70.298  1.00  0.00    -0.101 A  
HETATM   23  C   UNL     1      -8.537   7.173  69.217  1.00  0.00    -0.137 A  
HETATM   24  C   UNL     1      -7.703  10.448  67.122  1.00  0.00    -0.100 A  
ENDBRANCH   8   9
ENDBRANCH   7   8
ENDBRANCH   6   7
TORSDOF 3
ENDMDL
MODEL       81
REMARK 921   NORMALIZED FREE ENERGY PREDICTED BY IDOCK:   -4.84 KCAL/MOL
REMARK 922        TOTAL FREE ENERGY PREDICTED BY IDOCK:   -6.39 KCAL/MOL
REMARK 923 INTER-LIGAND FREE ENERGY PREDICTED BY IDOCK:   -5.78 KCAL/MOL
REMARK 924 INTRA-LIGAND FREE ENERGY PREDICTED BY IDOCK:   -0.61 KCAL/MOL
REMARK 927      BINDING AFFINITY PREDICTED BY RF-SCORE:    0.00 PKD
ROOT
HETATM    1  C   UNL     1      -5.187  13.533  71.273  1.00  0.00    -0.178 C  
HETATM    2  N   UNL     1      -5.919  14.571  70.555  1.00  0.00    -0.168 NA 
HETATM    3  C   UNL     1      -5.362  15.897  70.836  1.00  0.00    -0.091 C  
HETATM    4  C   UNL     1      -5.947  16.735  69.723  1.00  0.00    -0.226 C  
HETATM    5  C   UNL     1      -5.863  15.817  68.517  1.00  0.00    -0.100 C  
HETATM    6  C   UNL     1      -5.894  14.390  69.085  1.00  0.00    -0.093 C  
ENDROOT
BRANCH   6   7
HETATM    7  C   UNL     1      -7.126  13.590  68.631  1.00  0.00    -0.106 C  
BRANCH   7   8
HETATM    8  C   UNL     1      -8.295  14.447  68.130  1.00  0.00    -0.158 C  
BRANCH   8   9
HETATM    9  O   UNL     1      -9.421  14.305  68.993  1.00  0.00    -0.121 OA 
HETATM   10  C   UNL     1     -10.665  14.921  68.561  1.00  0.00    -0.245 C  
HETATM   11  C   UNL     1     -11.172  14.235  67.266  1.00  0.00    -0.330 A  
HETATM   12  C   UNL     1     -11.705  14.671  69.693  1.00  0.00    -0.358 A  
HETATM   13  C   UNL     1     -10.428  16.446  68.408  1.00  0.00    -0.298 C  
HETATM   14  C   UNL     1     -11.485  14.954  66.097  1.00  0.00    -0.272 A  
HETATM   15  C   UNL     1     -11.577  13.562  70.555  1.00  0.00     0.003 A  
HETATM   16  C   UNL     1     -12.575  13.238  71.479  1.00  0.00    -0.311 A  
HETATM   17  C   UNL     1     -11.999  14.309  64.967  1.00  0.00    -0.412 A  
HETATM   18  C   UNL     1     -12.216  12.936  64.985  1.00  0.00    -0.464 A  
HETATM   19  C   UNL     1     -13.712  14.030  71.586  1.00  0.00    -0.419 A  
HETATM   20 CL   UNL     1     -12.886  12.155  63.608  1.00  0.00    -0.550 Cl 
HETATM   21  C   UNL     1     -11.899  12.195  66.118  1.00  0.00    -0.327 A  
HETATM   22  C   UNL     1     -13.848  15.151  70.774  1.00  0.00    -0.176 A  
HETATM   23  C   UNL     1     -12.862  15.463  69.832  1.00  0.00    -0.011 A  
HETATM   24  C   UNL     1     -11.373  12.839  67.242  1.00  0.00    -0.364 A  
ENDBRANCH   8   9
ENDBRANCH   7   8
ENDBRANCH   6   7
TORSDOF 3
ENDMDL
MODEL       82
REMARK 921   NORMALIZED FREE ENERGY PREDICTED BY IDOCK:   -4.82 KCAL/MOL
REMARK 922        TOTAL FREE ENERGY PREDICTED BY IDOCK:   -6.36 KCAL/MOL
REMARK 923 INTER-LIGAND FREE ENERGY PREDICTED BY IDOCK:   -5.76 KCAL/MOL
REMARK 924 INTRA-LIGAND FREE ENERGY PREDICTED BY IDOCK:   -0.60 KCAL/MOL
REMARK 927      BINDING AFFINITY PREDICTED BY RF-SCORE:    0.00 PKD
ROOT
HETATM    1  C   UNL     1      -9.667   4.610  70.295  1.00  0.00    -0.225 C  
HETATM    2  N   UNL     1     -10.828   5.492  70.365  1.00  0.00    -0.252 NA 
HETATM    3  C   UNL     1     -11.092   5.905  71.746  1.00  0.00    -0.265 C  
HETATM    4  C   UNL     1     -12.011   7.089  71.558  1.00  0.00    -0.372 C  
HETATM    5  C   UNL     1     -11.410   7.809  70.365  1.00  0.00    -0.219 C  
HETATM    6  C   UNL     1     -10.672   6.726  69.562  1.00  0.00    -0.257 C  
ENDROOT
BRANCH   6   7
HETATM    7  C   UNL     1     -11.257   6.518  68.156  1.00  0.00    -0.250 C  
BRANCH   7   8
HETATM    8  C   UNL     1     -10.752   7.509  67.100  1.00  0.00    -0.309 C  
BRANCH   8   9
HETATM    9  O   UNL     1      -9.650   8.257  67.609  1.00  0.00    -0.145 OA 
HETATM   10  C   UNL     1      -9.045   9.231  66.714  1.00  0.00    -0.140 C  
HETATM   11  C   UNL     1     -10.064  10.352  66.387  1.00  0.00    -0.287 A  
HETATM   12  C   UNL     1      -7.846   9.861  67.483  1.00  0.00    -0.098 A  
HETATM   13  C   UNL     1      -8.516   8.482  65.463  1.00  0.00    -0.183 C  
HETATM   14  C   UNL     1     -10.394  10.719  65.068  1.00  0.00    -0.357 A  
HETATM   15  C   UNL     1      -7.839   9.905  68.893  1.00  0.00    -0.091 A  
HETATM   16  C   UNL     1      -6.847  10.593  69.597  1.00  0.00    -0.124 A  
HETATM   17  C   UNL     1     -11.271  11.779  64.809  1.00  0.00    -0.333 A  
HETATM   18  C   UNL     1     -11.830  12.494  65.863  1.00  0.00    -0.430 A  
HETATM   19  C   UNL     1      -5.820  11.232  68.910  1.00  0.00    -0.043 A  
HETATM   20 CL   UNL     1     -12.876  13.820  65.538  1.00  0.00    -0.526 Cl 
HETATM   21  C   UNL     1     -11.539  12.144  67.176  1.00  0.00    -0.405 A  
HETATM   22  C   UNL     1      -5.781  11.175  67.521  1.00  0.00    -0.047 A  
HETATM   23  C   UNL     1      -6.787  10.506  66.816  1.00  0.00    -0.103 A  
HETATM   24  C   UNL     1     -10.673  11.076  67.433  1.00  0.00    -0.303 A  
ENDBRANCH   8   9
ENDBRANCH   7   8
ENDBRANCH   6   7
TORSDOF 3
ENDMDL
MODEL       83
REMARK 921   NORMALIZED FREE ENERGY PREDICTED BY IDOCK:   -4.82 KCAL/MOL
REMARK 922        TOTAL FREE ENERGY PREDICTED BY IDOCK:   -6.36 KCAL/MOL
REMARK 923 INTER-LIGAND FREE ENERGY PREDICTED BY IDOCK:   -5.60 KCAL/MOL
REMARK 924 INTRA-LIGAND FREE ENERGY PREDICTED BY IDOCK:   -0.77 KCAL/MOL
REMARK 927      BINDING AFFINITY PREDICTED BY RF-SCORE:    0.00 PKD
ROOT
HETATM    1  C   UNL     1     -13.940   7.467  71.487  1.00  0.00    -0.410 C  
HETATM    2  N   UNL     1     -12.530   7.832  71.388  1.00  0.00    -0.323 NA 
HETATM    3  C   UNL     1     -11.996   8.228  72.694  1.00  0.00    -0.295 C  
HETATM    4  C   UNL     1     -10.504   8.151  72.469  1.00  0.00    -0.409 C  
HETATM    5  C   UNL     1     -10.344   6.899  71.627  1.00  0.00    -0.216 C  
HETATM    6  C   UNL     1     -11.677   6.731  70.882  1.00  0.00    -0.372 C  
ENDROOT
BRANCH   6   7
HETATM    7  C   UNL     1     -11.530   6.836  69.356  1.00  0.00    -0.208 C  
BRANCH   7   8
HETATM    8  C   UNL     1     -10.294   7.613  68.886  1.00  0.00    -0.212 C  
BRANCH   8   9
HETATM    9  O   UNL     1     -10.630   8.976  68.635  1.00  0.00    -0.212 OA 
HETATM   10  C   UNL     1      -9.526   9.900  68.429  1.00  0.00    -0.137 C  
HETATM   11  C   UNL     1      -8.756   9.523  67.138  1.00  0.00    -0.137 A  
HETATM   12  C   UNL     1     -10.155  11.311  68.236  1.00  0.00    -0.198 A  
HETATM   13  C   UNL     1      -8.644   9.900  69.705  1.00  0.00    -0.207 C  
HETATM   14  C   UNL     1      -7.366   9.304  67.117  1.00  0.00    -0.091 A  
HETATM   15  C   UNL     1     -11.466  11.453  67.737  1.00  0.00    -0.353 A  
HETATM   16  C   UNL     1     -11.995  12.707  67.419  1.00  0.00    -0.309 A  
HETATM   17  C   UNL     1      -6.693   9.026  65.922  1.00  0.00    -0.072 A  
HETATM   18  C   UNL     1      -7.397   8.967  64.724  1.00  0.00    -0.097 A  
HETATM   19  C   UNL     1     -11.236  13.855  67.617  1.00  0.00    -0.316 A  
HETATM   20 CL   UNL     1      -6.561   8.665  63.252  1.00  0.00    -0.089 Cl 
HETATM   21  C   UNL     1      -8.774   9.159  64.713  1.00  0.00    -0.208 A  
HETATM   22  C   UNL     1      -9.952  13.749  68.142  1.00  0.00    -0.242 A  
HETATM   23  C   UNL     1      -9.414  12.492  68.438  1.00  0.00    -0.167 A  
HETATM   24  C   UNL     1      -9.446   9.423  65.911  1.00  0.00    -0.315 A  
ENDBRANCH   8   9
ENDBRANCH   7   8
ENDBRANCH   6   7
TORSDOF 3
ENDMDL
MODEL       84
REMARK 921   NORMALIZED FREE ENERGY PREDICTED BY IDOCK:   -4.81 KCAL/MOL
REMARK 922        TOTAL FREE ENERGY PREDICTED BY IDOCK:   -6.35 KCAL/MOL
REMARK 923 INTER-LIGAND FREE ENERGY PREDICTED BY IDOCK:   -5.40 KCAL/MOL
REMARK 924 INTRA-LIGAND FREE ENERGY PREDICTED BY IDOCK:   -0.95 KCAL/MOL
REMARK 927      BINDING AFFINITY PREDICTED BY RF-SCORE:    0.00 PKD
ROOT
HETATM    1  C   UNL     1      -6.414   4.965  67.060  1.00  0.00    -0.045 C  
HETATM    2  N   UNL     1      -7.778   5.158  67.541  1.00  0.00    -0.091 NA 
HETATM    3  C   UNL     1      -8.745   5.017  66.449  1.00  0.00    -0.114 C  
HETATM    4  C   UNL     1     -10.047   4.831  67.194  1.00  0.00    -0.210 C  
HETATM    5  C   UNL     1      -9.659   3.926  68.349  1.00  0.00    -0.179 C  
HETATM    6  C   UNL     1      -8.166   4.192  68.596  1.00  0.00    -0.082 C  
ENDROOT
BRANCH   6   7
HETATM    7  C   UNL     1      -7.884   4.787  69.985  1.00  0.00    -0.065 C  
BRANCH   7   8
HETATM    8  C   UNL     1      -8.115   6.299  70.092  1.00  0.00    -0.116 C  
BRANCH   8   9
HETATM    9  O   UNL     1      -9.447   6.568  70.524  1.00  0.00    -0.165 OA 
HETATM   10  C   UNL     1      -9.813   7.965  70.699  1.00  0.00    -0.185 C  
HETATM   11  C   UNL     1      -9.771   8.697  69.334  1.00  0.00    -0.176 A  
HETATM   12  C   UNL     1     -11.279   7.980  71.224  1.00  0.00    -0.287 A  
HETATM   13  C   UNL     1      -8.878   8.585  71.770  1.00  0.00    -0.278 C  
HETATM   14  C   UNL     1      -9.030   9.876  69.125  1.00  0.00    -0.170 A  
HETATM   15  C   UNL     1     -12.158   6.916  70.934  1.00  0.00    -0.424 A  
HETATM   16  C   UNL     1     -13.514   6.977  71.268  1.00  0.00    -0.265 A  
HETATM   17  C   UNL     1      -9.065  10.545  67.897  1.00  0.00    -0.136 A  
HETATM   18  C   UNL     1      -9.844  10.052  66.856  1.00  0.00    -0.197 A  
HETATM   19  C   UNL     1     -14.021   8.092  71.927  1.00  0.00    -0.451 A  
HETATM   20 CL   UNL     1      -9.915  10.900  65.362  1.00  0.00    -0.299 Cl 
HETATM   21  C   UNL     1     -10.573   8.880  67.024  1.00  0.00    -0.279 A  
HETATM   22  C   UNL     1     -13.170   9.141  72.259  1.00  0.00    -0.528 A  
HETATM   23  C   UNL     1     -11.818   9.091  71.903  1.00  0.00    -0.447 A  
HETATM   24  C   UNL     1     -10.526   8.205  68.248  1.00  0.00    -0.210 A  
ENDBRANCH   8   9
ENDBRANCH   7   8
ENDBRANCH   6   7
TORSDOF 3
ENDMDL
MODEL       85
REMARK 921   NORMALIZED FREE ENERGY PREDICTED BY IDOCK:   -4.78 KCAL/MOL
REMARK 922        TOTAL FREE ENERGY PREDICTED BY IDOCK:   -6.31 KCAL/MOL
REMARK 923 INTER-LIGAND FREE ENERGY PREDICTED BY IDOCK:   -5.85 KCAL/MOL
REMARK 924 INTRA-LIGAND FREE ENERGY PREDICTED BY IDOCK:   -0.46 KCAL/MOL
REMARK 927      BINDING AFFINITY PREDICTED BY RF-SCORE:    0.00 PKD
ROOT
HETATM    1  C   UNL     1      -7.430   8.734  71.249  1.00  0.00    -0.108 C  
HETATM    2  N   UNL     1      -7.899   8.727  69.866  1.00  0.00    -0.089 NA 
HETATM    3  C   UNL     1      -7.211   7.698  69.083  1.00  0.00    -0.080 C  
HETATM    4  C   UNL     1      -8.099   7.571  67.867  1.00  0.00    -0.119 C  
HETATM    5  C   UNL     1      -9.498   7.659  68.448  1.00  0.00    -0.150 C  
HETATM    6  C   UNL     1      -9.353   8.469  69.746  1.00  0.00    -0.161 C  
ENDROOT
BRANCH   6   7
HETATM    7  C   UNL     1     -10.123   9.798  69.713  1.00  0.00    -0.268 C  
BRANCH   7   8
HETATM    8  C   UNL     1      -9.362  10.963  69.069  1.00  0.00    -0.131 C  
BRANCH   8   9
HETATM    9  O   UNL     1      -9.871  11.228  67.764  1.00  0.00    -0.169 OA 
HETATM   10  C   UNL     1     -10.679  12.426  67.602  1.00  0.00    -0.221 C  
HETATM   11  C   UNL     1      -9.815  13.686  67.865  1.00  0.00    -0.237 A  
HETATM   12  C   UNL     1     -11.150  12.451  66.118  1.00  0.00    -0.340 A  
HETATM   13  C   UNL     1     -11.915  12.311  68.532  1.00  0.00    -0.272 C  
HETATM   14  C   UNL     1     -10.182  14.680  68.792  1.00  0.00    -0.242 A  
HETATM   15  C   UNL     1     -10.396  11.810  65.113  1.00  0.00    -0.323 A  
HETATM   16  C   UNL     1     -10.721  11.943  63.759  1.00  0.00    -0.476 A  
HETATM   17  C   UNL     1      -9.409  15.835  68.959  1.00  0.00    -0.244 A  
HETATM   18  C   UNL     1      -8.259  16.020  68.199  1.00  0.00    -0.152 A  
HETATM   19  C   UNL     1     -11.825  12.697  63.378  1.00  0.00    -0.594 A  
HETATM   20 CL   UNL     1      -7.335  17.459  68.379  1.00  0.00    -0.217 Cl 
HETATM   21  C   UNL     1      -7.860  15.048  67.289  1.00  0.00    -0.241 A  
HETATM   22  C   UNL     1     -12.609  13.311  64.350  1.00  0.00    -0.282 A  
HETATM   23  C   UNL     1     -12.270  13.197  65.702  1.00  0.00    -0.521 A  
HETATM   24  C   UNL     1      -8.625  13.888  67.133  1.00  0.00    -0.217 A  
ENDBRANCH   8   9
ENDBRANCH   7   8
ENDBRANCH   6   7
TORSDOF 3
ENDMDL
MODEL       86
REMARK 921   NORMALIZED FREE ENERGY PREDICTED BY IDOCK:   -4.76 KCAL/MOL
REMARK 922        TOTAL FREE ENERGY PREDICTED BY IDOCK:   -6.29 KCAL/MOL
REMARK 923 INTER-LIGAND FREE ENERGY PREDICTED BY IDOCK:   -5.68 KCAL/MOL
REMARK 924 INTRA-LIGAND FREE ENERGY PREDICTED BY IDOCK:   -0.60 KCAL/MOL
REMARK 927      BINDING AFFINITY PREDICTED BY RF-SCORE:    0.00 PKD
ROOT
HETATM    1  C   UNL     1      -7.339   8.588  66.223  1.00  0.00    -0.079 C  
HETATM    2  N   UNL     1      -7.932   9.093  67.458  1.00  0.00    -0.100 NA 
HETATM    3  C   UNL     1      -8.641   8.029  68.175  1.00  0.00    -0.126 C  
HETATM    4  C   UNL     1      -8.800   8.622  69.555  1.00  0.00    -0.144 C  
HETATM    5  C   UNL     1      -7.470   9.314  69.791  1.00  0.00    -0.075 C  
HETATM    6  C   UNL     1      -6.934   9.661  68.393  1.00  0.00    -0.065 C  
ENDROOT
BRANCH   6   7
HETATM    7  C   UNL     1      -6.796  11.174  68.163  1.00  0.00    -0.067 C  
BRANCH   7   8
HETATM    8  C   UNL     1      -8.084  11.975  68.388  1.00  0.00    -0.154 C  
BRANCH   8   9
HETATM    9  O   UNL     1      -8.879  11.981  67.204  1.00  0.00    -0.174 OA 
HETATM   10  C   UNL     1     -10.210  12.558  67.306  1.00  0.00    -0.216 C  
HETATM   11  C   UNL     1     -10.106  14.071  67.623  1.00  0.00    -0.241 A  
HETATM   12  C   UNL     1     -10.878  12.389  65.910  1.00  0.00    -0.305 A  
HETATM   13  C   UNL     1     -11.012  11.752  68.361  1.00  0.00    -0.274 C  
HETATM   14  C   UNL     1     -10.769  14.668  68.713  1.00  0.00    -0.252 A  
HETATM   15  C   UNL     1     -10.093  12.303  64.742  1.00  0.00    -0.271 A  
HETATM   16  C   UNL     1     -10.674  12.299  63.470  1.00  0.00    -0.497 A  
HETATM   17  C   UNL     1     -10.704  16.048  68.933  1.00  0.00    -0.275 A  
HETATM   18  C   UNL     1      -9.979  16.859  68.066  1.00  0.00    -0.279 A  
HETATM   19  C   UNL     1     -12.056  12.353  63.334  1.00  0.00    -0.620 A  
HETATM   20 CL   UNL     1      -9.935  18.559  68.318  1.00  0.00    -0.383 Cl 
HETATM   21  C   UNL     1      -9.298  16.298  66.992  1.00  0.00    -0.235 A  
HETATM   22  C   UNL     1     -12.858  12.402  64.470  1.00  0.00    -0.305 A  
HETATM   23  C   UNL     1     -12.276  12.430  65.742  1.00  0.00    -0.277 A  
HETATM   24  C   UNL     1      -9.353  14.917  66.781  1.00  0.00    -0.270 A  
ENDBRANCH   8   9
ENDBRANCH   7   8
ENDBRANCH   6   7
TORSDOF 3
ENDMDL
MODEL       87
REMARK 921   NORMALIZED FREE ENERGY PREDICTED BY IDOCK:   -4.76 KCAL/MOL
REMARK 922        TOTAL FREE ENERGY PREDICTED BY IDOCK:   -6.29 KCAL/MOL
REMARK 923 INTER-LIGAND FREE ENERGY PREDICTED BY IDOCK:   -5.61 KCAL/MOL
REMARK 924 INTRA-LIGAND FREE ENERGY PREDICTED BY IDOCK:   -0.68 KCAL/MOL
REMARK 927      BINDING AFFINITY PREDICTED BY RF-SCORE:    0.00 PKD
ROOT
HETATM    1  C   UNL     1      -5.654  10.343  65.356  1.00  0.00    -0.121 C  
HETATM    2  N   UNL     1      -6.911  10.073  66.048  1.00  0.00    -0.098 NA 
HETATM    3  C   UNL     1      -7.445   8.761  65.675  1.00  0.00    -0.085 C  
HETATM    4  C   UNL     1      -8.459   8.504  66.765  1.00  0.00    -0.111 C  
HETATM    5  C   UNL     1      -7.765   9.017  68.013  1.00  0.00    -0.097 C  
HETATM    6  C   UNL     1      -6.779  10.089  67.523  1.00  0.00    -0.072 C  
ENDROOT
BRANCH   6   7
HETATM    7  C   UNL     1      -7.097  11.491  68.067  1.00  0.00    -0.079 C  
BRANCH   7   8
HETATM    8  C   UNL     1      -8.573  11.723  68.409  1.00  0.00    -0.156 C  
BRANCH   8   9
HETATM    9  O   UNL     1      -9.158  12.641  67.487  1.00  0.00    -0.176 OA 
HETATM   10  C   UNL     1     -10.608  12.752  67.496  1.00  0.00    -0.229 C  
HETATM   11  C   UNL     1     -11.086  13.323  68.856  1.00  0.00    -0.304 A  
HETATM   12  C   UNL     1     -10.986  13.763  66.374  1.00  0.00    -0.298 A  
HETATM   13  C   UNL     1     -11.206  11.361  67.158  1.00  0.00    -0.363 C  
HETATM   14  C   UNL     1     -12.052  12.681  69.653  1.00  0.00    -0.277 A  
HETATM   15  C   UNL     1     -10.075  14.760  65.967  1.00  0.00    -0.327 A  
HETATM   16  C   UNL     1     -10.447  15.765  65.069  1.00  0.00    -0.331 A  
HETATM   17  C   UNL     1     -12.505  13.257  70.845  1.00  0.00    -0.424 A  
HETATM   18  C   UNL     1     -12.006  14.487  71.260  1.00  0.00    -0.333 A  
HETATM   19  C   UNL     1     -11.730  15.783  64.534  1.00  0.00    -0.191 A  
HETATM   20 CL   UNL     1     -12.596  15.209  72.705  1.00  0.00    -0.425 Cl 
HETATM   21  C   UNL     1     -11.037  15.137  70.504  1.00  0.00    -0.294 A  
HETATM   22  C   UNL     1     -12.638  14.792  64.889  1.00  0.00    -0.095 A  
HETATM   23  C   UNL     1     -12.275  13.800  65.806  1.00  0.00    -0.495 A  
HETATM   24  C   UNL     1     -10.575  14.554  69.320  1.00  0.00    -0.224 A  
ENDBRANCH   8   9
ENDBRANCH   7   8
ENDBRANCH   6   7
TORSDOF 3
ENDMDL
MODEL       88
REMARK 921   NORMALIZED FREE ENERGY PREDICTED BY IDOCK:   -4.74 KCAL/MOL
REMARK 922        TOTAL FREE ENERGY PREDICTED BY IDOCK:   -6.27 KCAL/MOL
REMARK 923 INTER-LIGAND FREE ENERGY PREDICTED BY IDOCK:   -5.95 KCAL/MOL
REMARK 924 INTRA-LIGAND FREE ENERGY PREDICTED BY IDOCK:   -0.31 KCAL/MOL
REMARK 927      BINDING AFFINITY PREDICTED BY RF-SCORE:    0.00 PKD
ROOT
HETATM    1  C   UNL     1     -13.767  12.984  72.277  1.00  0.00    -0.512 C  
HETATM    2  N   UNL     1     -13.365  14.361  72.011  1.00  0.00    -0.353 NA 
HETATM    3  C   UNL     1     -13.028  15.060  73.254  1.00  0.00    -0.525 C  
HETATM    4  C   UNL     1     -12.264  16.262  72.750  1.00  0.00    -0.592 C  
HETATM    5  C   UNL     1     -11.417  15.691  71.628  1.00  0.00    -0.506 C  
HETATM    6  C   UNL     1     -12.186  14.461  71.119  1.00  0.00    -0.350 C  
ENDROOT
BRANCH   6   7
HETATM    7  C   UNL     1     -12.640  14.600  69.658  1.00  0.00    -0.105 C  
BRANCH   7   8
HETATM    8  C   UNL     1     -11.671  15.377  68.758  1.00  0.00    -0.351 C  
BRANCH   8   9
HETATM    9  O   UNL     1     -10.329  14.962  69.000  1.00  0.00    -0.233 OA 
HETATM   10  C   UNL     1      -9.367  15.183  67.931  1.00  0.00    -0.185 C  
HETATM   11  C   UNL     1      -9.189  16.703  67.688  1.00  0.00    -0.208 A  
HETATM   12  C   UNL     1      -8.011  14.598  68.422  1.00  0.00    -0.137 A  
HETATM   13  C   UNL     1      -9.842  14.401  66.679  1.00  0.00    -0.287 C  
HETATM   14  C   UNL     1      -9.344  17.294  66.419  1.00  0.00    -0.281 A  
HETATM   15  C   UNL     1      -7.722  14.509  69.800  1.00  0.00     0.219 A  
HETATM   16  C   UNL     1      -6.457  14.125  70.257  1.00  0.00    -0.071 A  
HETATM   17  C   UNL     1      -9.113  18.660  66.223  1.00  0.00    -0.236 A  
HETATM   18  C   UNL     1      -8.719  19.461  67.290  1.00  0.00    -0.296 A  
HETATM   19  C   UNL     1      -5.458  13.793  69.349  1.00  0.00    -0.084 A  
HETATM   20 CL   UNL     1      -8.399  21.131  67.036  1.00  0.00     0.045 Cl 
HETATM   21  C   UNL     1      -8.576  18.911  68.559  1.00  0.00    -0.383 A  
HETATM   22  C   UNL     1      -5.725  13.837  67.985  1.00  0.00    -0.132 A  
HETATM   23  C   UNL     1      -6.983  14.243  67.527  1.00  0.00    -0.177 A  
HETATM   24  C   UNL     1      -8.820  17.548  68.756  1.00  0.00    -0.215 A  
ENDBRANCH   8   9
ENDBRANCH   7   8
ENDBRANCH   6   7
TORSDOF 3
ENDMDL
MODEL       89
REMARK 921   NORMALIZED FREE ENERGY PREDICTED BY IDOCK:   -4.73 KCAL/MOL
REMARK 922        TOTAL FREE ENERGY PREDICTED BY IDOCK:   -6.26 KCAL/MOL
REMARK 923 INTER-LIGAND FREE ENERGY PREDICTED BY IDOCK:   -5.71 KCAL/MOL
REMARK 924 INTRA-LIGAND FREE ENERGY PREDICTED BY IDOCK:   -0.55 KCAL/MOL
REMARK 927      BINDING AFFINITY PREDICTED BY RF-SCORE:    0.00 PKD
ROOT
HETATM    1  C   UNL     1     -10.350  13.498  65.624  1.00  0.00    -0.297 C  
HETATM    2  N   UNL     1     -10.508  13.775  67.049  1.00  0.00    -0.272 NA 
HETATM    3  C   UNL     1     -11.633  14.683  67.287  1.00  0.00    -0.387 C  
HETATM    4  C   UNL     1     -11.882  14.505  68.767  1.00  0.00    -0.350 C  
HETATM    5  C   UNL     1     -11.702  13.013  68.972  1.00  0.00    -0.376 C  
HETATM    6  C   UNL     1     -10.751  12.556  67.855  1.00  0.00    -0.217 C  
ENDROOT
BRANCH   6   7
HETATM    7  C   UNL     1      -9.421  12.001  68.388  1.00  0.00    -0.181 C  
BRANCH   7   8
HETATM    8  C   UNL     1      -9.271  10.480  68.274  1.00  0.00    -0.152 C  
BRANCH   8   9
HETATM    9  O   UNL     1      -9.132   9.897  69.568  1.00  0.00    -0.194 OA 
HETATM   10  C   UNL     1     -10.085   8.860  69.931  1.00  0.00    -0.195 C  
HETATM   11  C   UNL     1      -9.902   7.628  69.008  1.00  0.00    -0.168 A  
HETATM   12  C   UNL     1      -9.753   8.438  71.392  1.00  0.00    -0.260 A  
HETATM   13  C   UNL     1     -11.511   9.470  69.883  1.00  0.00    -0.100 C  
HETATM   14  C   UNL     1     -10.963   7.059  68.279  1.00  0.00    -0.148 A  
HETATM   15  C   UNL     1      -8.448   8.588  71.905  1.00  0.00    -0.234 A  
HETATM   16  C   UNL     1      -8.094   8.082  73.160  1.00  0.00    -0.231 A  
HETATM   17  C   UNL     1     -10.775   5.909  67.504  1.00  0.00    -0.359 A  
HETATM   18  C   UNL     1      -9.524   5.303  67.448  1.00  0.00    -0.127 A  
HETATM   19  C   UNL     1      -9.043   7.438  73.945  1.00  0.00    -0.298 A  
HETATM   20 CL   UNL     1      -9.308   3.867  66.527  1.00  0.00    -0.183 Cl 
HETATM   21  C   UNL     1      -8.452   5.852  68.142  1.00  0.00    -0.114 A  
HETATM   22  C   UNL     1     -10.348   7.307  73.480  1.00  0.00    -0.412 A  
HETATM   23  C   UNL     1     -10.696   7.792  72.215  1.00  0.00    -0.325 A  
HETATM   24  C   UNL     1      -8.638   7.009  68.905  1.00  0.00    -0.128 A  
ENDBRANCH   8   9
ENDBRANCH   7   8
ENDBRANCH   6   7
TORSDOF 3
ENDMDL
MODEL       90
REMARK 921   NORMALIZED FREE ENERGY PREDICTED BY IDOCK:   -4.72 KCAL/MOL
REMARK 922        TOTAL FREE ENERGY PREDICTED BY IDOCK:   -6.24 KCAL/MOL
REMARK 923 INTER-LIGAND FREE ENERGY PREDICTED BY IDOCK:   -5.57 KCAL/MOL
REMARK 924 INTRA-LIGAND FREE ENERGY PREDICTED BY IDOCK:   -0.67 KCAL/MOL
REMARK 927      BINDING AFFINITY PREDICTED BY RF-SCORE:    0.00 PKD
ROOT
HETATM    1  C   UNL     1     -11.827  12.183  67.542  1.00  0.00    -0.237 C  
HETATM    2  N   UNL     1     -12.056  12.701  66.197  1.00  0.00    -0.579 NA 
HETATM    3  C   UNL     1     -12.414  14.122  66.235  1.00  0.00    -0.362 C  
HETATM    4  C   UNL     1     -12.194  14.548  64.802  1.00  0.00    -0.441 C  
HETATM    5  C   UNL     1     -10.923  13.816  64.413  1.00  0.00    -0.356 C  
HETATM    6  C   UNL     1     -10.874  12.571  65.314  1.00  0.00    -0.286 C  
ENDROOT
BRANCH   6   7
HETATM    7  C   UNL     1     -10.948  11.255  64.523  1.00  0.00    -0.301 C  
BRANCH   7   8
HETATM    8  C   UNL     1      -9.683  10.392  64.600  1.00  0.00    -0.329 C  
BRANCH   8   9
HETATM    9  O   UNL     1      -9.911   9.250  65.424  1.00  0.00    -0.222 OA 
HETATM   10  C   UNL     1      -8.740   8.613  66.006  1.00  0.00    -0.170 C  
HETATM   11  C   UNL     1      -8.049   9.584  66.997  1.00  0.00    -0.113 A  
HETATM   12  C   UNL     1      -9.253   7.377  66.802  1.00  0.00    -0.190 A  
HETATM   13  C   UNL     1      -7.819   8.136  64.853  1.00  0.00    -0.128 C  
HETATM   14  C   UNL     1      -6.683   9.915  66.910  1.00  0.00    -0.078 A  
HETATM   15  C   UNL     1     -10.564   7.349  67.321  1.00  0.00    -0.393 A  
HETATM   16  C   UNL     1     -10.995   6.317  68.160  1.00  0.00    -0.412 A  
HETATM   17  C   UNL     1      -6.078  10.746  67.859  1.00  0.00    -0.046 A  
HETATM   18  C   UNL     1      -6.824  11.259  68.915  1.00  0.00    -0.086 A  
HETATM   19  C   UNL     1     -10.136   5.272  68.478  1.00  0.00    -0.232 A  
HETATM   20 CL   UNL     1      -6.066  12.247  70.100  1.00  0.00    -0.144 Cl 
HETATM   21  C   UNL     1      -8.179  10.966  69.018  1.00  0.00    -0.126 A  
HETATM   22  C   UNL     1      -8.848   5.254  67.952  1.00  0.00    -0.105 A  
HETATM   23  C   UNL     1      -8.409   6.299  67.132  1.00  0.00    -0.109 A  
HETATM   24  C   UNL     1      -8.786  10.146  68.061  1.00  0.00    -0.122 A  
ENDBRANCH   8   9
ENDBRANCH   7   8
ENDBRANCH   6   7
TORSDOF 3
ENDMDL
MODEL       91
REMARK 921   NORMALIZED FREE ENERGY PREDICTED BY IDOCK:   -4.67 KCAL/MOL
REMARK 922        TOTAL FREE ENERGY PREDICTED BY IDOCK:   -6.19 KCAL/MOL
REMARK 923 INTER-LIGAND FREE ENERGY PREDICTED BY IDOCK:   -5.45 KCAL/MOL
REMARK 924 INTRA-LIGAND FREE ENERGY PREDICTED BY IDOCK:   -0.74 KCAL/MOL
REMARK 927      BINDING AFFINITY PREDICTED BY RF-SCORE:    0.00 PKD
ROOT
HETATM    1  C   UNL     1     -10.135  20.334  67.703  1.00  0.00    -0.375 C  
HETATM    2  N   UNL     1      -8.792  19.782  67.852  1.00  0.00    -0.320 NA 
HETATM    3  C   UNL     1      -8.128  20.327  69.039  1.00  0.00     0.448 C  
HETATM    4  C   UNL     1      -6.987  19.358  69.244  1.00  0.00    -0.371 C  
HETATM    5  C   UNL     1      -7.618  18.011  68.944  1.00  0.00    -0.227 C  
HETATM    6  C   UNL     1      -8.780  18.306  67.984  1.00  0.00    -0.276 C  
ENDROOT
BRANCH   6   7
HETATM    7  C   UNL     1      -8.598  17.655  66.603  1.00  0.00    -0.282 C  
BRANCH   7   8
HETATM    8  C   UNL     1      -8.149  16.190  66.642  1.00  0.00    -0.288 C  
BRANCH   8   9
HETATM    9  O   UNL     1      -9.025  15.380  65.861  1.00  0.00    -0.278 OA 
HETATM   10  C   UNL     1      -9.524  14.161  66.479  1.00  0.00    -0.285 C  
HETATM   11  C   UNL     1     -10.419  14.513  67.694  1.00  0.00    -0.246 A  
HETATM   12  C   UNL     1     -10.400  13.445  65.410  1.00  0.00    -0.321 A  
HETATM   13  C   UNL     1      -8.310  13.263  66.835  1.00  0.00    -0.018 C  
HETATM   14  C   UNL     1     -10.202  13.978  68.978  1.00  0.00    -0.100 A  
HETATM   15  C   UNL     1     -11.032  14.181  64.386  1.00  0.00    -0.240 A  
HETATM   16  C   UNL     1     -11.938  13.579  63.507  1.00  0.00    -0.388 A  
HETATM   17  C   UNL     1     -11.068  14.268  70.039  1.00  0.00    -0.075 A  
HETATM   18  C   UNL     1     -12.168  15.095  69.835  1.00  0.00    -0.314 A  
HETATM   19  C   UNL     1     -12.213  12.220  63.611  1.00  0.00    -0.665 A  
HETATM   20 CL   UNL     1     -13.250  15.416  71.132  1.00  0.00    -0.550 Cl 
HETATM   21  C   UNL     1     -12.398  15.654  68.583  1.00  0.00     0.286 A  
HETATM   22  C   UNL     1     -11.577  11.462  64.588  1.00  0.00    -0.014 A  
HETATM   23  C   UNL     1     -10.689  12.068  65.483  1.00  0.00    -0.318 A  
HETATM   24  C   UNL     1     -11.524  15.373  67.528  1.00  0.00    -0.228 A  
ENDBRANCH   8   9
ENDBRANCH   7   8
ENDBRANCH   6   7
TORSDOF 3
ENDMDL
MODEL       92
REMARK 921   NORMALIZED FREE ENERGY PREDICTED BY IDOCK:   -4.66 KCAL/MOL
REMARK 922        TOTAL FREE ENERGY PREDICTED BY IDOCK:   -6.18 KCAL/MOL
REMARK 923 INTER-LIGAND FREE ENERGY PREDICTED BY IDOCK:   -5.64 KCAL/MOL
REMARK 924 INTRA-LIGAND FREE ENERGY PREDICTED BY IDOCK:   -0.53 KCAL/MOL
REMARK 927      BINDING AFFINITY PREDICTED BY RF-SCORE:    0.00 PKD
ROOT
HETATM    1  C   UNL     1     -10.417  11.370  63.395  1.00  0.00    -0.390 C  
HETATM    2  N   UNL     1     -10.833  12.594  64.074  1.00  0.00    -0.385 NA 
HETATM    3  C   UNL     1     -12.016  13.175  63.433  1.00  0.00    -0.483 C  
HETATM    4  C   UNL     1     -12.514  14.136  64.487  1.00  0.00    -0.350 C  
HETATM    5  C   UNL     1     -12.317  13.365  65.780  1.00  0.00    -0.513 C  
HETATM    6  C   UNL     1     -11.168  12.383  65.501  1.00  0.00    -0.325 C  
ENDROOT
BRANCH   6   7
HETATM    7  C   UNL     1      -9.932  12.643  66.377  1.00  0.00    -0.262 C  
BRANCH   7   8
HETATM    8  C   UNL     1      -9.736  11.638  67.519  1.00  0.00    -0.177 C  
BRANCH   8   9
HETATM    9  O   UNL     1      -9.270  10.391  67.009  1.00  0.00    -0.146 OA 
HETATM   10  C   UNL     1      -8.390   9.614  67.867  1.00  0.00    -0.117 C  
HETATM   11  C   UNL     1      -9.152   9.169  69.141  1.00  0.00    -0.144 A  
HETATM   12  C   UNL     1      -7.987   8.344  67.062  1.00  0.00    -0.100 A  
HETATM   13  C   UNL     1      -7.123  10.460  68.160  1.00  0.00    -0.082 C  
HETATM   14  C   UNL     1      -8.676   9.424  70.441  1.00  0.00    -0.278 A  
HETATM   15  C   UNL     1      -8.829   7.836  66.051  1.00  0.00    -0.189 A  
HETATM   16  C   UNL     1      -8.558   6.618  65.419  1.00  0.00    -0.065 A  
HETATM   17  C   UNL     1      -9.358   8.952  71.567  1.00  0.00    -0.335 A  
HETATM   18  C   UNL     1     -10.527   8.213  71.416  1.00  0.00    -0.212 A  
HETATM   19  C   UNL     1      -7.423   5.892  65.761  1.00  0.00    -0.081 A  
HETATM   20 CL   UNL     1     -11.340   7.602  72.803  1.00  0.00    -0.421 Cl 
HETATM   21  C   UNL     1     -11.033   7.961  70.146  1.00  0.00    -0.235 A  
HETATM   22  C   UNL     1      -6.555   6.386  66.729  1.00  0.00    -0.051 A  
HETATM   23  C   UNL     1      -6.838   7.592  67.379  1.00  0.00    -0.069 A  
HETATM   24  C   UNL     1     -10.357   8.444  69.022  1.00  0.00    -0.231 A  
ENDBRANCH   8   9
ENDBRANCH   7   8
ENDBRANCH   6   7
TORSDOF 3
ENDMDL
MODEL       93
REMARK 921   NORMALIZED FREE ENERGY PREDICTED BY IDOCK:   -4.66 KCAL/MOL
REMARK 922        TOTAL FREE ENERGY PREDICTED BY IDOCK:   -6.18 KCAL/MOL
REMARK 923 INTER-LIGAND FREE ENERGY PREDICTED BY IDOCK:   -5.58 KCAL/MOL
REMARK 924 INTRA-LIGAND FREE ENERGY PREDICTED BY IDOCK:   -0.60 KCAL/MOL
REMARK 927      BINDING AFFINITY PREDICTED BY RF-SCORE:    0.00 PKD
ROOT
HETATM    1  C   UNL     1     -11.641  12.767  67.149  1.00  0.00    -0.364 C  
HETATM    2  N   UNL     1     -11.852  12.295  65.784  1.00  0.00    -0.510 NA 
HETATM    3  C   UNL     1     -12.530  13.312  64.975  1.00  0.00    -0.443 C  
HETATM    4  C   UNL     1     -12.277  12.825  63.567  1.00  0.00    -0.613 C  
HETATM    5  C   UNL     1     -10.840  12.340  63.621  1.00  0.00    -0.522 C  
HETATM    6  C   UNL     1     -10.592  11.949  65.086  1.00  0.00    -0.287 C  
ENDROOT
BRANCH   6   7
HETATM    7  C   UNL     1     -10.285  10.454  65.264  1.00  0.00    -0.332 C  
BRANCH   7   8
HETATM    8  C   UNL     1      -8.807  10.131  65.513  1.00  0.00    -0.169 C  
BRANCH   8   9
HETATM    9  O   UNL     1      -8.621   8.722  65.638  1.00  0.00    -0.152 OA 
HETATM   10  C   UNL     1      -7.951   8.249  66.839  1.00  0.00    -0.099 C  
HETATM   11  C   UNL     1      -8.818   8.565  68.085  1.00  0.00    -0.142 A  
HETATM   12  C   UNL     1      -7.826   6.704  66.702  1.00  0.00    -0.104 A  
HETATM   13  C   UNL     1      -6.534   8.878  66.888  1.00  0.00    -0.060 C  
HETATM   14  C   UNL     1      -8.322   9.268  69.199  1.00  0.00    -0.127 A  
HETATM   15  C   UNL     1      -8.740   5.975  65.914  1.00  0.00    -0.157 A  
HETATM   16  C   UNL     1      -8.734   4.576  65.894  1.00  0.00    -0.119 A  
HETATM   17  C   UNL     1      -9.114   9.481  70.333  1.00  0.00    -0.296 A  
HETATM   18  C   UNL     1     -10.414   8.990  70.377  1.00  0.00    -0.213 A  
HETATM   19  C   UNL     1      -7.797   3.872  66.641  1.00  0.00    -0.089 A  
HETATM   20 CL   UNL     1     -11.369   9.219  71.788  1.00  0.00    -0.456 Cl 
HETATM   21  C   UNL     1     -10.940   8.307  69.286  1.00  0.00     0.031 A  
HETATM   22  C   UNL     1      -6.859   4.565  67.400  1.00  0.00    -0.059 A  
HETATM   23  C   UNL     1      -6.880   5.963  67.438  1.00  0.00    -0.063 A  
HETATM   24  C   UNL     1     -10.152   8.108  68.148  1.00  0.00    -0.237 A  
ENDBRANCH   8   9
ENDBRANCH   7   8
ENDBRANCH   6   7
TORSDOF 3
ENDMDL
MODEL       94
REMARK 921   NORMALIZED FREE ENERGY PREDICTED BY IDOCK:   -4.66 KCAL/MOL
REMARK 922        TOTAL FREE ENERGY PREDICTED BY IDOCK:   -6.17 KCAL/MOL
REMARK 923 INTER-LIGAND FREE ENERGY PREDICTED BY IDOCK:   -5.53 KCAL/MOL
REMARK 924 INTRA-LIGAND FREE ENERGY PREDICTED BY IDOCK:   -0.64 KCAL/MOL
REMARK 927      BINDING AFFINITY PREDICTED BY RF-SCORE:    0.00 PKD
ROOT
HETATM    1  C   UNL     1     -11.707  15.036  64.507  1.00  0.00    -0.368 C  
HETATM    2  N   UNL     1     -11.168  14.555  65.776  1.00  0.00    -0.328 NA 
HETATM    3  C   UNL     1     -10.982  15.660  66.720  1.00  0.00    -0.230 C  
HETATM    4  C   UNL     1     -10.839  14.936  68.039  1.00  0.00    -0.263 C  
HETATM    5  C   UNL     1     -11.871  13.828  67.940  1.00  0.00    -0.413 C  
HETATM    6  C   UNL     1     -12.040  13.556  66.437  1.00  0.00    -0.417 C  
ENDROOT
BRANCH   6   7
HETATM    7  C   UNL     1     -11.616  12.135  66.033  1.00  0.00    -0.420 C  
BRANCH   7   8
HETATM    8  C   UNL     1     -11.264  11.215  67.207  1.00  0.00    -0.277 C  
BRANCH   8   9
HETATM    9  O   UNL     1     -10.142  10.398  66.878  1.00  0.00    -0.201 OA 
HETATM   10  C   UNL     1      -9.184  10.135  67.940  1.00  0.00    -0.138 C  
HETATM   11  C   UNL     1      -9.857   9.308  69.065  1.00  0.00    -0.168 A  
HETATM   12  C   UNL     1      -8.044   9.280  67.312  1.00  0.00    -0.113 A  
HETATM   13  C   UNL     1      -8.604  11.491  68.422  1.00  0.00    -0.159 C  
HETATM   14  C   UNL     1      -9.846   9.710  70.415  1.00  0.00    -0.315 A  
HETATM   15  C   UNL     1      -8.292   8.462  66.190  1.00  0.00    -0.127 A  
HETATM   16  C   UNL     1      -7.325   7.579  65.702  1.00  0.00    -0.067 A  
HETATM   17  C   UNL     1     -10.410   8.908  71.413  1.00  0.00    -0.377 A  
HETATM   18  C   UNL     1     -10.989   7.687  71.083  1.00  0.00    -0.246 A  
HETATM   19  C   UNL     1      -6.075   7.510  66.307  1.00  0.00    -0.041 A  
HETATM   20 CL   UNL     1     -11.644   6.687  72.319  1.00  0.00    -0.316 Cl 
HETATM   21  C   UNL     1     -11.033   7.271  69.757  1.00  0.00    -0.235 A  
HETATM   22  C   UNL     1      -5.789   8.331  67.393  1.00  0.00    -0.043 A  
HETATM   23  C   UNL     1      -6.764   9.198  67.896  1.00  0.00    -0.068 A  
HETATM   24  C   UNL     1     -10.481   8.080  68.759  1.00  0.00    -0.196 A  
ENDBRANCH   8   9
ENDBRANCH   7   8
ENDBRANCH   6   7
TORSDOF 3
ENDMDL
MODEL       95
REMARK 921   NORMALIZED FREE ENERGY PREDICTED BY IDOCK:   -4.66 KCAL/MOL
REMARK 922        TOTAL FREE ENERGY PREDICTED BY IDOCK:   -6.17 KCAL/MOL
REMARK 923 INTER-LIGAND FREE ENERGY PREDICTED BY IDOCK:   -5.47 KCAL/MOL
REMARK 924 INTRA-LIGAND FREE ENERGY PREDICTED BY IDOCK:   -0.70 KCAL/MOL
REMARK 927      BINDING AFFINITY PREDICTED BY RF-SCORE:    0.00 PKD
ROOT
HETATM    1  C   UNL     1     -10.316   4.398  66.271  1.00  0.00    -0.101 C  
HETATM    2  N   UNL     1      -9.439   3.457  66.962  1.00  0.00    -0.190 NA 
HETATM    3  C   UNL     1      -8.509   2.822  66.025  1.00  0.00    -0.103 C  
HETATM    4  C   UNL     1      -7.463   2.246  66.951  1.00  0.00    -0.065 C  
HETATM    5  C   UNL     1      -7.290   3.332  67.997  1.00  0.00    -0.054 C  
HETATM    6  C   UNL     1      -8.625   4.092  68.024  1.00  0.00    -0.096 C  
ENDROOT
BRANCH   6   7
HETATM    7  C   UNL     1      -9.348   3.988  69.376  1.00  0.00    -0.243 C  
BRANCH   7   8
HETATM    8  C   UNL     1      -9.027   5.117  70.362  1.00  0.00    -0.126 C  
BRANCH   8   9
HETATM    9  O   UNL     1     -10.218   5.808  70.732  1.00  0.00    -0.197 OA 
HETATM   10  C   UNL     1     -10.161   7.261  70.745  1.00  0.00    -0.190 C  
HETATM   11  C   UNL     1      -9.920   7.793  69.310  1.00  0.00    -0.182 A  
HETATM   12  C   UNL     1     -11.554   7.759  71.231  1.00  0.00    -0.301 A  
HETATM   13  C   UNL     1      -9.075   7.697  71.764  1.00  0.00    -0.161 C  
HETATM   14  C   UNL     1      -8.870   8.675  68.992  1.00  0.00    -0.138 A  
HETATM   15  C   UNL     1     -12.707   6.971  71.037  1.00  0.00    -0.300 A  
HETATM   16  C   UNL     1     -13.984   7.460  71.331  1.00  0.00    -0.464 A  
HETATM   17  C   UNL     1      -8.719   9.185  67.697  1.00  0.00    -0.120 A  
HETATM   18  C   UNL     1      -9.618   8.828  66.698  1.00  0.00    -0.220 A  
HETATM   19  C   UNL     1     -14.137   8.739  71.853  1.00  0.00    -0.488 A  
HETATM   20 CL   UNL     1      -9.452   9.489  65.120  1.00  0.00    -0.330 Cl 
HETATM   21  C   UNL     1     -10.655   7.944  66.976  1.00  0.00    -0.381 A  
HETATM   22  C   UNL     1     -13.014   9.526  72.089  1.00  0.00    -0.497 A  
HETATM   23  C   UNL     1     -11.740   9.046  71.772  1.00  0.00    -0.440 A  
HETATM   24  C   UNL     1     -10.796   7.425  68.267  1.00  0.00    -0.081 A  
ENDBRANCH   8   9
ENDBRANCH   7   8
ENDBRANCH   6   7
TORSDOF 3
ENDMDL
MODEL       96
REMARK 921   NORMALIZED FREE ENERGY PREDICTED BY IDOCK:   -4.60 KCAL/MOL
REMARK 922        TOTAL FREE ENERGY PREDICTED BY IDOCK:   -6.10 KCAL/MOL
REMARK 923 INTER-LIGAND FREE ENERGY PREDICTED BY IDOCK:   -5.63 KCAL/MOL
REMARK 924 INTRA-LIGAND FREE ENERGY PREDICTED BY IDOCK:   -0.47 KCAL/MOL
REMARK 927      BINDING AFFINITY PREDICTED BY RF-SCORE:    0.00 PKD
ROOT
HETATM    1  C   UNL     1     -10.673  16.997  69.482  1.00  0.00    -0.124 C  
HETATM    2  N   UNL     1     -10.834  15.660  70.044  1.00  0.00    -0.304 NA 
HETATM    3  C   UNL     1     -11.864  15.648  71.087  1.00  0.00    -0.408 C  
HETATM    4  C   UNL     1     -12.166  14.174  71.225  1.00  0.00    -0.419 C  
HETATM    5  C   UNL     1     -12.148  13.680  69.791  1.00  0.00    -0.396 C  
HETATM    6  C   UNL     1     -11.223  14.647  69.035  1.00  0.00    -0.269 C  
ENDROOT
BRANCH   6   7
HETATM    7  C   UNL     1      -9.971  13.960  68.468  1.00  0.00    -0.221 C  
BRANCH   7   8
HETATM    8  C   UNL     1     -10.073  12.434  68.357  1.00  0.00    -0.217 C  
BRANCH   8   9
HETATM    9  O   UNL     1      -9.829  12.016  67.016  1.00  0.00    -0.192 OA 
HETATM   10  C   UNL     1      -8.777  11.032  66.813  1.00  0.00    -0.152 C  
HETATM   11  C   UNL     1      -9.165   9.696  67.494  1.00  0.00    -0.149 A  
HETATM   12  C   UNL     1      -8.677  10.795  65.278  1.00  0.00    -0.183 A  
HETATM   13  C   UNL     1      -7.442  11.632  67.328  1.00  0.00    -0.143 C  
HETATM   14  C   UNL     1      -8.328   9.041  68.418  1.00  0.00    -0.124 A  
HETATM   15  C   UNL     1      -9.794  11.007  64.443  1.00  0.00    -0.351 A  
HETATM   16  C   UNL     1      -9.769  10.661  63.088  1.00  0.00    -0.375 A  
HETATM   17  C   UNL     1      -8.682   7.804  68.966  1.00  0.00    -0.135 A  
HETATM   18  C   UNL     1      -9.878   7.195  68.599  1.00  0.00    -0.154 A  
HETATM   19  C   UNL     1      -8.618  10.119  62.528  1.00  0.00    -0.208 A  
HETATM   20 CL   UNL     1     -10.290   5.656  69.246  1.00  0.00    -0.313 Cl 
HETATM   21  C   UNL     1     -10.735   7.825  67.705  1.00  0.00    -0.227 A  
HETATM   22  C   UNL     1      -7.490   9.932  63.319  1.00  0.00    -0.131 A  
HETATM   23  C   UNL     1      -7.522  10.256  64.679  1.00  0.00    -0.093 A  
HETATM   24  C   UNL     1     -10.385   9.068  67.167  1.00  0.00    -0.342 A  
ENDBRANCH   8   9
ENDBRANCH   7   8
ENDBRANCH   6   7
TORSDOF 3
ENDMDL
MODEL       97
REMARK 921   NORMALIZED FREE ENERGY PREDICTED BY IDOCK:   -4.60 KCAL/MOL
REMARK 922        TOTAL FREE ENERGY PREDICTED BY IDOCK:   -6.10 KCAL/MOL
REMARK 923 INTER-LIGAND FREE ENERGY PREDICTED BY IDOCK:   -5.43 KCAL/MOL
REMARK 924 INTRA-LIGAND FREE ENERGY PREDICTED BY IDOCK:   -0.67 KCAL/MOL
REMARK 927      BINDING AFFINITY PREDICTED BY RF-SCORE:    0.00 PKD
ROOT
HETATM    1  C   UNL     1      -9.966   5.949  71.326  1.00  0.00    -0.187 C  
HETATM    2  N   UNL     1     -10.880   7.061  71.085  1.00  0.00    -0.234 NA 
HETATM    3  C   UNL     1     -12.275   6.630  71.206  1.00  0.00    -0.314 C  
HETATM    4  C   UNL     1     -13.008   7.945  71.344  1.00  0.00    -0.301 C  
HETATM    5  C   UNL     1     -12.099   8.755  72.249  1.00  0.00    -0.423 C  
HETATM    6  C   UNL     1     -10.687   8.188  72.027  1.00  0.00    -0.278 C  
ENDROOT
BRANCH   6   7
HETATM    7  C   UNL     1      -9.715   9.216  71.429  1.00  0.00    -0.338 C  
BRANCH   7   8
HETATM    8  C   UNL     1     -10.131   9.769  70.060  1.00  0.00    -0.257 C  
BRANCH   8   9
HETATM    9  O   UNL     1      -9.127   9.492  69.087  1.00  0.00    -0.140 OA 
HETATM   10  C   UNL     1      -9.525   9.566  67.689  1.00  0.00    -0.131 C  
HETATM   11  C   UNL     1      -9.921  11.021  67.329  1.00  0.00    -0.210 A  
HETATM   12  C   UNL     1      -8.277   9.170  66.848  1.00  0.00    -0.116 A  
HETATM   13  C   UNL     1     -10.656   8.533  67.449  1.00  0.00    -0.304 C  
HETATM   14  C   UNL     1     -11.157  11.350  66.742  1.00  0.00    -0.343 A  
HETATM   15  C   UNL     1      -6.975   9.362  67.356  1.00  0.00    -0.085 A  
HETATM   16  C   UNL     1      -5.843   9.151  66.563  1.00  0.00    -0.058 A  
HETATM   17  C   UNL     1     -11.456  12.666  66.372  1.00  0.00    -0.409 A  
HETATM   18  C   UNL     1     -10.523  13.677  66.579  1.00  0.00    -0.281 A  
HETATM   19  C   UNL     1      -5.982   8.716  65.250  1.00  0.00    -0.048 A  
HETATM   20 CL   UNL     1     -10.880  15.285  66.087  1.00  0.00    -0.320 Cl 
HETATM   21  C   UNL     1      -9.301  13.388  67.175  1.00  0.00    -0.240 A  
HETATM   22  C   UNL     1      -7.252   8.484  64.733  1.00  0.00    -0.085 A  
HETATM   23  C   UNL     1      -8.386   8.717  65.518  1.00  0.00    -0.153 A  
HETATM   24  C   UNL     1      -9.009  12.074  67.556  1.00  0.00    -0.174 A  
ENDBRANCH   8   9
ENDBRANCH   7   8
ENDBRANCH   6   7
TORSDOF 3
ENDMDL
MODEL       98
REMARK 921   NORMALIZED FREE ENERGY PREDICTED BY IDOCK:   -4.60 KCAL/MOL
REMARK 922        TOTAL FREE ENERGY PREDICTED BY IDOCK:   -6.10 KCAL/MOL
REMARK 923 INTER-LIGAND FREE ENERGY PREDICTED BY IDOCK:   -5.52 KCAL/MOL
REMARK 924 INTRA-LIGAND FREE ENERGY PREDICTED BY IDOCK:   -0.58 KCAL/MOL
REMARK 927      BINDING AFFINITY PREDICTED BY RF-SCORE:    0.00 PKD
ROOT
HETATM    1  C   UNL     1      -7.595  10.998  68.814  1.00  0.00    -0.127 C  
HETATM    2  N   UNL     1      -8.755  10.640  68.003  1.00  0.00    -0.124 NA 
HETATM    3  C   UNL     1      -8.381   9.710  66.933  1.00  0.00    -0.117 C  
HETATM    4  C   UNL     1      -9.721   9.157  66.506  1.00  0.00    -0.306 C  
HETATM    5  C   UNL     1     -10.456   8.972  67.820  1.00  0.00    -0.305 C  
HETATM    6  C   UNL     1      -9.836   9.995  68.785  1.00  0.00    -0.167 C  
ENDROOT
BRANCH   6   7
HETATM    7  C   UNL     1     -10.842  11.053  69.266  1.00  0.00    -0.285 C  
BRANCH   7   8
HETATM    8  C   UNL     1     -11.486  11.878  68.145  1.00  0.00    -0.320 C  
BRANCH   8   9
HETATM    9  O   UNL     1     -10.621  12.940  67.750  1.00  0.00    -0.216 OA 
HETATM   10  C   UNL     1     -11.182  14.282  67.746  1.00  0.00    -0.291 C  
HETATM   11  C   UNL     1     -11.556  14.701  69.191  1.00  0.00    -0.331 A  
HETATM   12  C   UNL     1     -10.064  15.233  67.228  1.00  0.00    -0.236 A  
HETATM   13  C   UNL     1     -12.378  14.308  66.759  1.00  0.00    -0.280 C  
HETATM   14  C   UNL     1     -12.839  15.162  69.542  1.00  0.00     0.239 A  
HETATM   15  C   UNL     1      -8.703  14.897  67.387  1.00  0.00    -0.208 A  
HETATM   16  C   UNL     1      -7.686  15.800  67.063  1.00  0.00    -0.267 A  
HETATM   17  C   UNL     1     -13.124  15.592  70.843  1.00  0.00    -0.508 A  
HETATM   18  C   UNL     1     -12.130  15.573  71.816  1.00  0.00    -0.402 A  
HETATM   19  C   UNL     1      -8.002  17.051  66.546  1.00  0.00    -0.330 A  
HETATM   20 CL   UNL     1     -12.475  16.140  73.402  1.00  0.00    -0.617 Cl 
HETATM   21  C   UNL     1     -10.858  15.106  71.506  1.00  0.00     0.084 A  
HETATM   22  C   UNL     1      -9.334  17.396  66.344  1.00  0.00    -0.272 A  
HETATM   23  C   UNL     1     -10.353  16.502  66.690  1.00  0.00    -0.298 A  
HETATM   24  C   UNL     1     -10.579  14.664  70.209  1.00  0.00     0.169 A  
ENDBRANCH   8   9
ENDBRANCH   7   8
ENDBRANCH   6   7
TORSDOF 3
ENDMDL
MODEL       99
REMARK 921   NORMALIZED FREE ENERGY PREDICTED BY IDOCK:   -4.59 KCAL/MOL
REMARK 922        TOTAL FREE ENERGY PREDICTED BY IDOCK:   -6.09 KCAL/MOL
REMARK 923 INTER-LIGAND FREE ENERGY PREDICTED BY IDOCK:   -5.00 KCAL/MOL
REMARK 924 INTRA-LIGAND FREE ENERGY PREDICTED BY IDOCK:   -1.09 KCAL/MOL
REMARK 927      BINDING AFFINITY PREDICTED BY RF-SCORE:    0.00 PKD
ROOT
HETATM    1  C   UNL     1      -7.953   7.287  62.681  1.00  0.00    -0.123 C  
HETATM    2  N   UNL     1      -7.357   7.998  63.808  1.00  0.00    -0.096 NA 
HETATM    3  C   UNL     1      -6.714   9.239  63.366  1.00  0.00    -0.091 C  
HETATM    4  C   UNL     1      -6.549   9.996  64.663  1.00  0.00    -0.128 C  
HETATM    5  C   UNL     1      -7.847   9.714  65.396  1.00  0.00    -0.117 C  
HETATM    6  C   UNL     1      -8.341   8.365  64.852  1.00  0.00    -0.149 C  
ENDROOT
BRANCH   6   7
HETATM    7  C   UNL     1      -8.401   7.269  65.928  1.00  0.00    -0.144 C  
BRANCH   7   8
HETATM    8  C   UNL     1      -7.813   7.674  67.285  1.00  0.00    -0.117 C  
BRANCH   8   9
HETATM    9  O   UNL     1      -8.770   7.468  68.322  1.00  0.00    -0.124 OA 
HETATM   10  C   UNL     1      -8.937   8.542  69.288  1.00  0.00    -0.146 C  
HETATM   11  C   UNL     1      -9.502   9.802  68.584  1.00  0.00    -0.151 A  
HETATM   12  C   UNL     1      -9.983   8.048  70.330  1.00  0.00    -0.188 A  
HETATM   13  C   UNL     1      -7.578   8.778  69.997  1.00  0.00    -0.062 C  
HETATM   14  C   UNL     1      -8.884  11.064  68.672  1.00  0.00    -0.164 A  
HETATM   15  C   UNL     1     -10.951   7.084  69.977  1.00  0.00    -0.303 A  
HETATM   16  C   UNL     1     -11.986   6.736  70.850  1.00  0.00    -0.437 A  
HETATM   17  C   UNL     1      -9.455  12.193  68.075  1.00  0.00    -0.201 A  
HETATM   18  C   UNL     1     -10.656  12.084  67.383  1.00  0.00    -0.223 A  
HETATM   19  C   UNL     1     -12.064   7.321  72.109  1.00  0.00    -0.287 A  
HETATM   20 CL   UNL     1     -11.374  13.482  66.686  1.00  0.00    -0.328 Cl 
HETATM   21  C   UNL     1     -11.281  10.848  67.262  1.00  0.00    -0.307 A  
HETATM   22  C   UNL     1     -11.103   8.248  72.498  1.00  0.00    -0.439 A  
HETATM   23  C   UNL     1     -10.081   8.614  71.617  1.00  0.00    -0.365 A  
HETATM   24  C   UNL     1     -10.702   9.718  67.848  1.00  0.00    -0.312 A  
ENDBRANCH   8   9
ENDBRANCH   7   8
ENDBRANCH   6   7
TORSDOF 3
ENDMDL
MODEL      100
REMARK 921   NORMALIZED FREE ENERGY PREDICTED BY IDOCK:   -4.58 KCAL/MOL
REMARK 922        TOTAL FREE ENERGY PREDICTED BY IDOCK:   -6.08 KCAL/MOL
REMARK 923 INTER-LIGAND FREE ENERGY PREDICTED BY IDOCK:   -4.85 KCAL/MOL
REMARK 924 INTRA-LIGAND FREE ENERGY PREDICTED BY IDOCK:   -1.23 KCAL/MOL
REMARK 927      BINDING AFFINITY PREDICTED BY RF-SCORE:    0.00 PKD
ROOT
HETATM    1  C   UNL     1      -8.643   2.336  64.613  1.00  0.00    -0.094 C  
HETATM    2  N   UNL     1      -8.231   3.570  65.275  1.00  0.00    -0.097 NA 
HETATM    3  C   UNL     1      -7.007   4.106  64.673  1.00  0.00    -0.050 C  
HETATM    4  C   UNL     1      -6.994   5.528  65.183  1.00  0.00    -0.060 C  
HETATM    5  C   UNL     1      -8.451   5.942  65.095  1.00  0.00    -0.130 C  
HETATM    6  C   UNL     1      -9.256   4.638  65.207  1.00  0.00    -0.156 C  
ENDROOT
BRANCH   6   7
HETATM    7  C   UNL     1     -10.152   4.590  66.455  1.00  0.00    -0.271 C  
BRANCH   7   8
HETATM    8  C   UNL     1      -9.392   4.548  67.786  1.00  0.00    -0.147 C  
BRANCH   8   9
HETATM    9  O   UNL     1     -10.120   5.243  68.795  1.00  0.00    -0.171 OA 
HETATM   10  C   UNL     1      -9.475   6.402  69.393  1.00  0.00    -0.140 C  
HETATM   11  C   UNL     1      -9.282   7.509  68.325  1.00  0.00    -0.138 A  
HETATM   12  C   UNL     1     -10.443   6.936  70.489  1.00  0.00    -0.234 A  
HETATM   13  C   UNL     1      -8.153   5.937  70.057  1.00  0.00    -0.109 C  
HETATM   14  C   UNL     1      -8.034   8.104  68.062  1.00  0.00    -0.127 A  
HETATM   15  C   UNL     1     -11.832   6.709  70.396  1.00  0.00    -0.407 A  
HETATM   16  C   UNL     1     -12.731   7.303  71.287  1.00  0.00    -0.400 A  
HETATM   17  C   UNL     1      -7.908   9.144  67.135  1.00  0.00    -0.102 A  
HETATM   18  C   UNL     1      -9.027   9.612  66.455  1.00  0.00    -0.147 A  
HETATM   19  C   UNL     1     -12.262   8.116  72.312  1.00  0.00    -0.397 A  
HETATM   20 CL   UNL     1      -8.874  10.917  65.346  1.00  0.00    -0.203 Cl 
HETATM   21  C   UNL     1     -10.271   9.032  66.678  1.00  0.00    -0.333 A  
HETATM   22  C   UNL     1     -10.894   8.329  72.451  1.00  0.00    -0.421 A  
HETATM   23  C   UNL     1      -9.997   7.755  71.545  1.00  0.00    -0.205 A  
HETATM   24  C   UNL     1     -10.393   7.984  67.596  1.00  0.00    -0.312 A  
ENDBRANCH   8   9
ENDBRANCH   7   8
ENDBRANCH   6   7
TORSDOF 3
ENDMDL
MODEL      101
REMARK 921   NORMALIZED FREE ENERGY PREDICTED BY IDOCK:   -4.57 KCAL/MOL
REMARK 922        TOTAL FREE ENERGY PREDICTED BY IDOCK:   -6.06 KCAL/MOL
REMARK 923 INTER-LIGAND FREE ENERGY PREDICTED BY IDOCK:   -5.47 KCAL/MOL
REMARK 924 INTRA-LIGAND FREE ENERGY PREDICTED BY IDOCK:   -0.59 KCAL/MOL
REMARK 927      BINDING AFFINITY PREDICTED BY RF-SCORE:    0.00 PKD
ROOT
HETATM    1  C   UNL     1     -10.300  20.408  67.386  1.00  0.00    -0.189 C  
HETATM    2  N   UNL     1      -9.502  19.191  67.275  1.00  0.00    -0.307 NA 
HETATM    3  C   UNL     1      -8.358  19.393  66.382  1.00  0.00    -0.331 C  
HETATM    4  C   UNL     1      -7.469  18.220  66.727  1.00  0.00    -0.243 C  
HETATM    5  C   UNL     1      -7.592  18.124  68.236  1.00  0.00    -0.280 C  
HETATM    6  C   UNL     1      -8.964  18.727  68.576  1.00  0.00    -0.341 C  
ENDROOT
BRANCH   6   7
HETATM    7  C   UNL     1      -9.926  17.711  69.212  1.00  0.00    -0.097 C  
BRANCH   7   8
HETATM    8  C   UNL     1     -10.365  16.576  68.279  1.00  0.00    -0.293 C  
BRANCH   8   9
HETATM    9  O   UNL     1      -9.368  15.557  68.236  1.00  0.00    -0.188 OA 
HETATM   10  C   UNL     1      -9.835  14.180  68.172  1.00  0.00    -0.229 C  
HETATM   11  C   UNL     1     -10.590  13.940  66.840  1.00  0.00    -0.280 A  
HETATM   12  C   UNL     1      -8.567  13.277  68.192  1.00  0.00    -0.177 A  
HETATM   13  C   UNL     1     -10.689  13.896  69.435  1.00  0.00    -0.051 C  
HETATM   14  C   UNL     1     -11.894  13.413  66.789  1.00  0.00    -0.452 A  
HETATM   15  C   UNL     1      -7.330  13.762  67.719  1.00  0.00    -0.170 A  
HETATM   16  C   UNL     1      -6.218  12.925  67.592  1.00  0.00    -0.157 A  
HETATM   17  C   UNL     1     -12.522  13.150  65.566  1.00  0.00    -0.516 A  
HETATM   18  C   UNL     1     -11.856  13.405  64.372  1.00  0.00    -0.408 A  
HETATM   19  C   UNL     1      -6.305  11.587  67.962  1.00  0.00    -0.050 A  
HETATM   20 CL   UNL     1     -12.617  13.043  62.873  1.00  0.00     0.107 Cl 
HETATM   21  C   UNL     1     -10.575  13.944  64.389  1.00  0.00    -0.256 A  
HETATM   22  C   UNL     1      -7.502  11.090  68.466  1.00  0.00    -0.106 A  
HETATM   23  C   UNL     1      -8.622  11.921  68.571  1.00  0.00    -0.110 A  
HETATM   24  C   UNL     1      -9.954  14.218  65.611  1.00  0.00    -0.346 A  
ENDBRANCH   8   9
ENDBRANCH   7   8
ENDBRANCH   6   7
TORSDOF 3
ENDMDL
MODEL      102
REMARK 921   NORMALIZED FREE ENERGY PREDICTED BY IDOCK:   -4.55 KCAL/MOL
REMARK 922        TOTAL FREE ENERGY PREDICTED BY IDOCK:   -6.05 KCAL/MOL
REMARK 923 INTER-LIGAND FREE ENERGY PREDICTED BY IDOCK:   -5.61 KCAL/MOL
REMARK 924 INTRA-LIGAND FREE ENERGY PREDICTED BY IDOCK:   -0.44 KCAL/MOL
REMARK 927      BINDING AFFINITY PREDICTED BY RF-SCORE:    0.00 PKD
ROOT
HETATM    1  C   UNL     1      -8.030  20.352  66.753  1.00  0.00    -0.241 C  
HETATM    2  N   UNL     1      -7.811  18.909  66.776  1.00  0.00    -0.243 NA 
HETATM    3  C   UNL     1      -6.788  18.518  65.803  1.00  0.00    -0.275 C  
HETATM    4  C   UNL     1      -6.419  17.127  66.265  1.00  0.00    -0.166 C  
HETATM    5  C   UNL     1      -6.406  17.256  67.777  1.00  0.00    -0.161 C  
HETATM    6  C   UNL     1      -7.370  18.409  68.099  1.00  0.00    -0.261 C  
ENDROOT
BRANCH   6   7
HETATM    7  C   UNL     1      -8.585  17.961  68.926  1.00  0.00    -0.122 C  
BRANCH   7   8
HETATM    8  C   UNL     1      -8.963  16.485  68.759  1.00  0.00    -0.250 C  
BRANCH   8   9
HETATM    9  O   UNL     1      -9.937  16.108  69.731  1.00  0.00    -0.230 OA 
HETATM   10  C   UNL     1     -11.227  15.657  69.232  1.00  0.00    -0.320 C  
HETATM   11  C   UNL     1     -11.053  14.341  68.433  1.00  0.00    -0.274 A  
HETATM   12  C   UNL     1     -12.111  15.367  70.480  1.00  0.00    -0.411 A  
HETATM   13  C   UNL     1     -11.861  16.809  68.409  1.00  0.00     0.623 C  
HETATM   14  C   UNL     1     -11.526  14.181  67.117  1.00  0.00    -0.373 A  
HETATM   15  C   UNL     1     -11.523  15.015  71.713  1.00  0.00    -0.376 A  
HETATM   16  C   UNL     1     -12.299  14.608  72.802  1.00  0.00    -0.321 A  
HETATM   17  C   UNL     1     -11.407  12.958  66.448  1.00  0.00    -0.361 A  
HETATM   18  C   UNL     1     -10.819  11.870  67.083  1.00  0.00    -0.255 A  
HETATM   19  C   UNL     1     -13.685  14.570  72.696  1.00  0.00    -0.543 A  
HETATM   20 CL   UNL     1     -10.713  10.358  66.271  1.00  0.00    -0.170 Cl 
HETATM   21  C   UNL     1     -10.325  12.000  68.376  1.00  0.00    -0.220 A  
HETATM   22  C   UNL     1     -14.295  14.946  71.504  1.00  0.00    -0.631 A  
HETATM   23  C   UNL     1     -13.517  15.330  70.406  1.00  0.00     0.014 A  
HETATM   24  C   UNL     1     -10.432  13.227  69.039  1.00  0.00    -0.044 A  
ENDBRANCH   8   9
ENDBRANCH   7   8
ENDBRANCH   6   7
TORSDOF 3
ENDMDL
MODEL      103
REMARK 921   NORMALIZED FREE ENERGY PREDICTED BY IDOCK:   -4.54 KCAL/MOL
REMARK 922        TOTAL FREE ENERGY PREDICTED BY IDOCK:   -6.03 KCAL/MOL
REMARK 923 INTER-LIGAND FREE ENERGY PREDICTED BY IDOCK:   -5.50 KCAL/MOL
REMARK 924 INTRA-LIGAND FREE ENERGY PREDICTED BY IDOCK:   -0.53 KCAL/MOL
REMARK 927      BINDING AFFINITY PREDICTED BY RF-SCORE:    0.00 PKD
ROOT
HETATM    1  C   UNL     1     -12.477  12.120  63.481  1.00  0.00    -0.555 C  
HETATM    2  N   UNL     1     -11.851  12.752  64.639  1.00  0.00    -0.353 NA 
HETATM    3  C   UNL     1     -12.729  13.772  65.219  1.00  0.00    -0.439 C  
HETATM    4  C   UNL     1     -12.116  13.986  66.584  1.00  0.00    -0.487 C  
HETATM    5  C   UNL     1     -11.741  12.582  67.019  1.00  0.00    -0.437 C  
HETATM    6  C   UNL     1     -11.523  11.793  65.719  1.00  0.00    -0.194 C  
ENDROOT
BRANCH   6   7
HETATM    7  C   UNL     1     -10.079  11.290  65.557  1.00  0.00    -0.306 C  
BRANCH   7   8
HETATM    8  C   UNL     1      -9.921   9.767  65.628  1.00  0.00    -0.282 C  
BRANCH   8   9
HETATM    9  O   UNL     1      -8.937   9.414  66.598  1.00  0.00    -0.140 OA 
HETATM   10  C   UNL     1      -9.269   8.332  67.511  1.00  0.00    -0.137 C  
HETATM   11  C   UNL     1      -9.424   7.006  66.723  1.00  0.00    -0.205 A  
HETATM   12  C   UNL     1      -8.067   8.188  68.490  1.00  0.00    -0.124 A  
HETATM   13  C   UNL     1     -10.536   8.737  68.309  1.00  0.00    -0.236 C  
HETATM   14  C   UNL     1     -10.574   6.198  66.813  1.00  0.00    -0.351 A  
HETATM   15  C   UNL     1      -6.770   8.584  68.100  1.00  0.00    -0.065 A  
HETATM   16  C   UNL     1      -5.656   8.329  68.905  1.00  0.00    -0.039 A  
HETATM   17  C   UNL     1     -10.655   4.976  66.136  1.00  0.00    -0.321 A  
HETATM   18  C   UNL     1      -9.586   4.536  65.362  1.00  0.00    -0.179 A  
HETATM   19  C   UNL     1      -5.813   7.697  70.134  1.00  0.00    -0.023 A  
HETATM   20 CL   UNL     1      -9.675   3.015  64.565  1.00  0.00    -0.150 Cl 
HETATM   21  C   UNL     1      -8.445   5.319  65.238  1.00  0.00    -0.147 A  
HETATM   22  C   UNL     1      -7.085   7.327  70.560  1.00  0.00    -0.062 A  
HETATM   23  C   UNL     1      -8.196   7.561  69.745  1.00  0.00    -0.128 A  
HETATM   24  C   UNL     1      -8.371   6.547  65.904  1.00  0.00    -0.140 A  
ENDBRANCH   8   9
ENDBRANCH   7   8
ENDBRANCH   6   7
TORSDOF 3
ENDMDL
MODEL      104
REMARK 921   NORMALIZED FREE ENERGY PREDICTED BY IDOCK:   -4.54 KCAL/MOL
REMARK 922        TOTAL FREE ENERGY PREDICTED BY IDOCK:   -6.03 KCAL/MOL
REMARK 923 INTER-LIGAND FREE ENERGY PREDICTED BY IDOCK:   -5.45 KCAL/MOL
REMARK 924 INTRA-LIGAND FREE ENERGY PREDICTED BY IDOCK:   -0.58 KCAL/MOL
REMARK 927      BINDING AFFINITY PREDICTED BY RF-SCORE:    0.00 PKD
ROOT
HETATM    1  C   UNL     1      -8.574   4.933  64.897  1.00  0.00    -0.148 C  
HETATM    2  N   UNL     1      -9.213   3.962  65.780  1.00  0.00    -0.145 NA 
HETATM    3  C   UNL     1      -8.427   2.728  65.862  1.00  0.00    -0.103 C  
HETATM    4  C   UNL     1      -8.999   2.062  67.091  1.00  0.00    -0.156 C  
HETATM    5  C   UNL     1      -9.201   3.220  68.051  1.00  0.00    -0.243 C  
HETATM    6  C   UNL     1      -9.389   4.461  67.164  1.00  0.00    -0.155 C  
ENDROOT
BRANCH   6   7
HETATM    7  C   UNL     1     -10.775   5.106  67.320  1.00  0.00    -0.032 C  
BRANCH   7   8
HETATM    8  C   UNL     1     -10.847   6.219  68.372  1.00  0.00    -0.319 C  
BRANCH   8   9
HETATM    9  O   UNL     1     -10.735   5.670  69.684  1.00  0.00    -0.311 OA 
HETATM   10  C   UNL     1     -10.087   6.495  70.691  1.00  0.00    -0.185 C  
HETATM   11  C   UNL     1     -10.930   7.769  70.953  1.00  0.00    -0.260 A  
HETATM   12  C   UNL     1     -10.044   5.652  71.999  1.00  0.00    -0.230 A  
HETATM   13  C   UNL     1      -8.638   6.790  70.222  1.00  0.00    -0.140 C  
HETATM   14  C   UNL     1     -10.392   9.068  70.871  1.00  0.00    -0.323 A  
HETATM   15  C   UNL     1     -10.999   4.642  72.236  1.00  0.00    -0.011 A  
HETATM   16  C   UNL     1     -11.068   3.976  73.463  1.00  0.00    -0.350 A  
HETATM   17  C   UNL     1     -11.167  10.193  71.175  1.00  0.00    -0.244 A  
HETATM   18  C   UNL     1     -12.491  10.041  71.572  1.00  0.00    -0.419 A  
HETATM   19  C   UNL     1     -10.166   4.282  74.475  1.00  0.00    -0.275 A  
HETATM   20 CL   UNL     1     -13.427  11.424  71.983  1.00  0.00    -0.422 Cl 
HETATM   21  C   UNL     1     -13.057   8.773  71.644  1.00  0.00    -0.394 A  
HETATM   22  C   UNL     1      -9.190   5.249  74.258  1.00  0.00    -0.118 A  
HETATM   23  C   UNL     1      -9.135   5.933  73.039  1.00  0.00    -0.127 A  
HETATM   24  C   UNL     1     -12.286   7.651  71.326  1.00  0.00    -0.339 A  
ENDBRANCH   8   9
ENDBRANCH   7   8
ENDBRANCH   6   7
TORSDOF 3
ENDMDL
MODEL      105
REMARK 921   NORMALIZED FREE ENERGY PREDICTED BY IDOCK:   -4.52 KCAL/MOL
REMARK 922        TOTAL FREE ENERGY PREDICTED BY IDOCK:   -6.01 KCAL/MOL
REMARK 923 INTER-LIGAND FREE ENERGY PREDICTED BY IDOCK:   -5.58 KCAL/MOL
REMARK 924 INTRA-LIGAND FREE ENERGY PREDICTED BY IDOCK:   -0.43 KCAL/MOL
REMARK 927      BINDING AFFINITY PREDICTED BY RF-SCORE:    0.00 PKD
ROOT
HETATM    1  C   UNL     1      -8.287   9.837  68.842  1.00  0.00    -0.120 C  
HETATM    2  N   UNL     1      -7.216  10.340  67.986  1.00  0.00    -0.084 NA 
HETATM    3  C   UNL     1      -6.567   9.246  67.260  1.00  0.00    -0.064 C  
HETATM    4  C   UNL     1      -5.825   9.981  66.167  1.00  0.00    -0.063 C  
HETATM    5  C   UNL     1      -6.807  11.058  65.745  1.00  0.00     0.093 C  
HETATM    6  C   UNL     1      -7.688  11.316  66.977  1.00  0.00    -0.147 C  
ENDROOT
BRANCH   6   7
HETATM    7  C   UNL     1      -7.552  12.747  67.522  1.00  0.00    -0.162 C  
BRANCH   7   8
HETATM    8  C   UNL     1      -8.856  13.355  68.051  1.00  0.00    -0.183 C  
BRANCH   8   9
HETATM    9  O   UNL     1      -8.790  14.779  68.015  1.00  0.00    -0.161 OA 
HETATM   10  C   UNL     1     -10.052  15.497  67.932  1.00  0.00    -0.224 C  
HETATM   11  C   UNL     1     -10.884  15.253  69.217  1.00  0.00    -0.257 A  
HETATM   12  C   UNL     1      -9.701  17.012  67.850  1.00  0.00    -0.263 A  
HETATM   13  C   UNL     1     -10.773  15.066  66.628  1.00  0.00    -0.312 C  
HETATM   14  C   UNL     1     -12.210  14.781  69.186  1.00  0.00    -0.208 A  
HETATM   15  C   UNL     1      -8.496  17.502  68.397  1.00  0.00    -0.275 A  
HETATM   16  C   UNL     1      -8.230  18.872  68.465  1.00  0.00    -0.388 A  
HETATM   17  C   UNL     1     -12.953  14.631  70.362  1.00  0.00    -0.249 A  
HETATM   18  C   UNL     1     -12.386  14.955  71.591  1.00  0.00    -0.340 A  
HETATM   19  C   UNL     1      -9.148  19.787  67.962  1.00  0.00    -0.393 A  
HETATM   20 CL   UNL     1     -13.317  14.807  73.029  1.00  0.00    -0.562 Cl 
HETATM   21  C   UNL     1     -11.073  15.406  71.656  1.00  0.00    -0.273 A  
HETATM   22  C   UNL     1     -10.329  19.332  67.385  1.00  0.00    -0.540 A  
HETATM   23  C   UNL     1     -10.606  17.962  67.338  1.00  0.00    -0.370 A  
HETATM   24  C   UNL     1     -10.328  15.542  70.481  1.00  0.00    -0.036 A  
ENDBRANCH   8   9
ENDBRANCH   7   8
ENDBRANCH   6   7
TORSDOF 3
ENDMDL
MODEL      106
REMARK 921   NORMALIZED FREE ENERGY PREDICTED BY IDOCK:   -4.51 KCAL/MOL
REMARK 922        TOTAL FREE ENERGY PREDICTED BY IDOCK:   -6.00 KCAL/MOL
REMARK 923 INTER-LIGAND FREE ENERGY PREDICTED BY IDOCK:   -5.45 KCAL/MOL
REMARK 924 INTRA-LIGAND FREE ENERGY PREDICTED BY IDOCK:   -0.55 KCAL/MOL
REMARK 927      BINDING AFFINITY PREDICTED BY RF-SCORE:    0.00 PKD
ROOT
HETATM    1  C   UNL     1     -12.921  10.497  72.015  1.00  0.00    -0.385 C  
HETATM    2  N   UNL     1     -13.156  11.767  71.335  1.00  0.00    -0.314 NA 
HETATM    3  C   UNL     1     -13.468  12.828  72.296  1.00  0.00    -0.490 C  
HETATM    4  C   UNL     1     -13.259  14.079  71.474  1.00  0.00    -0.431 C  
HETATM    5  C   UNL     1     -12.018  13.757  70.662  1.00  0.00    -0.340 C  
HETATM    6  C   UNL     1     -11.993  12.225  70.540  1.00  0.00    -0.205 C  
ENDROOT
BRANCH   6   7
HETATM    7  C   UNL     1     -12.122  11.737  69.088  1.00  0.00    -0.290 C  
BRANCH   7   8
HETATM    8  C   UNL     1     -10.787  11.509  68.370  1.00  0.00    -0.211 C  
BRANCH   8   9
HETATM    9  O   UNL     1     -10.724  10.183  67.848  1.00  0.00    -0.230 OA 
HETATM   10  C   UNL     1      -9.402   9.651  67.556  1.00  0.00    -0.130 C  
HETATM   11  C   UNL     1      -8.586   9.514  68.867  1.00  0.00    -0.128 A  
HETATM   12  C   UNL     1      -9.614   8.232  66.953  1.00  0.00    -0.269 A  
HETATM   13  C   UNL     1      -8.732  10.565  66.496  1.00  0.00    -0.145 C  
HETATM   14  C   UNL     1      -7.309  10.083  69.032  1.00  0.00    -0.083 A  
HETATM   15  C   UNL     1     -10.765   7.480  67.270  1.00  0.00    -0.365 A  
HETATM   16  C   UNL     1     -10.905   6.151  66.859  1.00  0.00    -0.411 A  
HETATM   17  C   UNL     1      -6.575   9.885  70.207  1.00  0.00    -0.116 A  
HETATM   18  C   UNL     1      -7.101   9.112  71.236  1.00  0.00    -0.045 A  
HETATM   19  C   UNL     1      -9.910   5.548  66.098  1.00  0.00    -0.137 A  
HETATM   20 CL   UNL     1      -6.178   8.840  72.661  1.00  0.00    -0.076 Cl 
HETATM   21  C   UNL     1      -8.367   8.553  71.111  1.00  0.00    -0.182 A  
HETATM   22  C   UNL     1      -8.781   6.276  65.739  1.00  0.00    -0.145 A  
HETATM   23  C   UNL     1      -8.629   7.598  66.170  1.00  0.00    -0.160 A  
HETATM   24  C   UNL     1      -9.105   8.762  69.942  1.00  0.00    -0.158 A  
ENDBRANCH   8   9
ENDBRANCH   7   8
ENDBRANCH   6   7
TORSDOF 3
ENDMDL
MODEL      107
REMARK 921   NORMALIZED FREE ENERGY PREDICTED BY IDOCK:   -4.49 KCAL/MOL
REMARK 922        TOTAL FREE ENERGY PREDICTED BY IDOCK:   -5.98 KCAL/MOL
REMARK 923 INTER-LIGAND FREE ENERGY PREDICTED BY IDOCK:   -5.60 KCAL/MOL
REMARK 924 INTRA-LIGAND FREE ENERGY PREDICTED BY IDOCK:   -0.38 KCAL/MOL
REMARK 927      BINDING AFFINITY PREDICTED BY RF-SCORE:    0.00 PKD
ROOT
HETATM    1  C   UNL     1     -11.384  15.256  69.898  1.00  0.00    -0.289 C  
HETATM    2  N   UNL     1     -11.528  14.791  71.274  1.00  0.00    -0.266 NA 
HETATM    3  C   UNL     1     -11.737  15.915  72.190  1.00  0.00    -0.485 C  
HETATM    4  C   UNL     1     -12.268  15.229  73.427  1.00  0.00    -0.595 C  
HETATM    5  C   UNL     1     -13.200  14.172  72.865  1.00  0.00    -0.553 C  
HETATM    6  C   UNL     1     -12.666  13.860  71.458  1.00  0.00    -0.357 C  
ENDROOT
BRANCH   6   7
HETATM    7  C   UNL     1     -12.189  12.407  71.306  1.00  0.00     0.035 C  
BRANCH   7   8
HETATM    8  C   UNL     1     -12.134  11.900  69.860  1.00  0.00    -0.272 C  
BRANCH   8   9
HETATM    9  O   UNL     1     -10.817  11.457  69.539  1.00  0.00    -0.204 OA 
HETATM   10  C   UNL     1     -10.576  11.049  68.164  1.00  0.00    -0.191 C  
HETATM   11  C   UNL     1     -10.739  12.264  67.216  1.00  0.00    -0.263 A  
HETATM   12  C   UNL     1      -9.098  10.563  68.095  1.00  0.00    -0.141 A  
HETATM   13  C   UNL     1     -11.522   9.866  67.832  1.00  0.00     0.290 C  
HETATM   14  C   UNL     1     -11.594  12.248  66.098  1.00  0.00    -0.450 A  
HETATM   15  C   UNL     1      -8.136  11.054  69.001  1.00  0.00    -0.105 A  
HETATM   16  C   UNL     1      -6.779  10.744  68.865  1.00  0.00    -0.064 A  
HETATM   17  C   UNL     1     -11.670  13.341  65.228  1.00  0.00    -0.357 A  
HETATM   18  C   UNL     1     -10.889  14.469  65.456  1.00  0.00    -0.336 A  
HETATM   19  C   UNL     1      -6.354   9.912  67.835  1.00  0.00    -0.055 A  
HETATM   20 CL   UNL     1     -10.956  15.794  64.362  1.00  0.00    -0.210 Cl 
HETATM   21  C   UNL     1     -10.049  14.524  66.562  1.00  0.00    -0.280 A  
HETATM   22  C   UNL     1      -7.285   9.384  66.948  1.00  0.00    -0.087 A  
HETATM   23  C   UNL     1      -8.639   9.713  67.069  1.00  0.00    -0.131 A  
HETATM   24  C   UNL     1      -9.984  13.436  67.438  1.00  0.00    -0.230 A  
ENDBRANCH   8   9
ENDBRANCH   7   8
ENDBRANCH   6   7
TORSDOF 3
ENDMDL
MODEL      108
REMARK 921   NORMALIZED FREE ENERGY PREDICTED BY IDOCK:   -4.49 KCAL/MOL
REMARK 922        TOTAL FREE ENERGY PREDICTED BY IDOCK:   -5.97 KCAL/MOL
REMARK 923 INTER-LIGAND FREE ENERGY PREDICTED BY IDOCK:   -5.46 KCAL/MOL
REMARK 924 INTRA-LIGAND FREE ENERGY PREDICTED BY IDOCK:   -0.51 KCAL/MOL
REMARK 927      BINDING AFFINITY PREDICTED BY RF-SCORE:    0.00 PKD
ROOT
HETATM    1  C   UNL     1      -6.349  12.587  67.362  1.00  0.00    -0.157 C  
HETATM    2  N   UNL     1      -6.658  13.679  68.279  1.00  0.00    -0.095 NA 
HETATM    3  C   UNL     1      -5.655  13.773  69.343  1.00  0.00    -0.087 C  
HETATM    4  C   UNL     1      -5.904  15.155  69.900  1.00  0.00    -0.130 C  
HETATM    5  C   UNL     1      -6.170  15.987  68.658  1.00  0.00    -0.115 C  
HETATM    6  C   UNL     1      -6.714  15.001  67.613  1.00  0.00    -0.177 C  
ENDROOT
BRANCH   6   7
HETATM    7  C   UNL     1      -8.156  15.315  67.185  1.00  0.00    -0.248 C  
BRANCH   7   8
HETATM    8  C   UNL     1      -9.174  15.330  68.331  1.00  0.00    -0.194 C  
BRANCH   8   9
HETATM    9  O   UNL     1      -9.425  14.003  68.790  1.00  0.00    -0.175 OA 
HETATM   10  C   UNL     1     -10.793  13.518  68.689  1.00  0.00    -0.259 C  
HETATM   11  C   UNL     1     -11.210  13.421  67.200  1.00  0.00    -0.325 A  
HETATM   12  C   UNL     1     -10.805  12.087  69.301  1.00  0.00    -0.130 A  
HETATM   13  C   UNL     1     -11.704  14.447  69.534  1.00  0.00    -0.362 C  
HETATM   14  C   UNL     1     -12.370  14.038  66.693  1.00  0.00    -0.408 A  
HETATM   15  C   UNL     1      -9.637  11.296  69.306  1.00  0.00     0.144 A  
HETATM   16  C   UNL     1      -9.662   9.960  69.716  1.00  0.00    -0.266 A  
HETATM   17  C   UNL     1     -12.750  13.878  65.356  1.00  0.00    -0.525 A  
HETATM   18  C   UNL     1     -11.981  13.094  64.501  1.00  0.00    -0.389 A  
HETATM   19  C   UNL     1     -10.850   9.387  70.156  1.00  0.00    -0.287 A  
HETATM   20 CL   UNL     1     -12.475  12.868  62.870  1.00  0.00    -0.004 Cl 
HETATM   21  C   UNL     1     -10.820  12.487  64.967  1.00  0.00    -0.324 A  
HETATM   22  C   UNL     1     -12.010  10.153  70.196  1.00  0.00    -0.262 A  
HETATM   23  C   UNL     1     -11.991  11.483  69.764  1.00  0.00    -0.415 A  
HETATM   24  C   UNL     1     -10.435  12.660  66.300  1.00  0.00    -0.270 A  
ENDBRANCH   8   9
ENDBRANCH   7   8
ENDBRANCH   6   7
TORSDOF 3
ENDMDL
MODEL      109
REMARK 921   NORMALIZED FREE ENERGY PREDICTED BY IDOCK:   -4.47 KCAL/MOL
REMARK 922        TOTAL FREE ENERGY PREDICTED BY IDOCK:   -5.95 KCAL/MOL
REMARK 923 INTER-LIGAND FREE ENERGY PREDICTED BY IDOCK:   -5.46 KCAL/MOL
REMARK 924 INTRA-LIGAND FREE ENERGY PREDICTED BY IDOCK:   -0.49 KCAL/MOL
REMARK 927      BINDING AFFINITY PREDICTED BY RF-SCORE:    0.00 PKD
ROOT
HETATM    1  C   UNL     1     -10.265   5.844  71.471  1.00  0.00    -0.205 C  
HETATM    2  N   UNL     1     -11.029   7.049  71.164  1.00  0.00    -0.242 NA 
HETATM    3  C   UNL     1     -12.456   6.850  71.432  1.00  0.00    -0.367 C  
HETATM    4  C   UNL     1     -12.979   8.267  71.465  1.00  0.00    -0.310 C  
HETATM    5  C   UNL     1     -11.889   9.022  72.202  1.00  0.00    -0.384 C  
HETATM    6  C   UNL     1     -10.597   8.228  71.951  1.00  0.00    -0.282 C  
ENDROOT
BRANCH   6   7
HETATM    7  C   UNL     1      -9.543   9.027  71.169  1.00  0.00    -0.356 C  
BRANCH   7   8
HETATM    8  C   UNL     1      -9.722   9.001  69.646  1.00  0.00    -0.172 C  
BRANCH   8   9
HETATM    9  O   UNL     1     -10.154  10.275  69.175  1.00  0.00    -0.195 OA 
HETATM   10  C   UNL     1      -9.198  11.052  68.402  1.00  0.00    -0.175 C  
HETATM   11  C   UNL     1      -8.872  10.320  67.076  1.00  0.00    -0.143 A  
HETATM   12  C   UNL     1      -9.890  12.405  68.064  1.00  0.00    -0.205 A  
HETATM   13  C   UNL     1      -7.954  11.319  69.291  1.00  0.00     0.078 C  
HETATM   14  C   UNL     1      -7.556  10.022  66.674  1.00  0.00    -0.104 A  
HETATM   15  C   UNL     1     -11.295  12.494  67.986  1.00  0.00    -0.339 A  
HETATM   16  C   UNL     1     -11.929  13.659  67.541  1.00  0.00    -0.393 A  
HETATM   17  C   UNL     1      -7.295   9.415  65.441  1.00  0.00    -0.096 A  
HETATM   18  C   UNL     1      -8.344   9.100  64.583  1.00  0.00    -0.172 A  
HETATM   19  C   UNL     1     -11.176  14.773  67.190  1.00  0.00    -0.346 A  
HETATM   20 CL   UNL     1      -8.014   8.391  63.051  1.00  0.00    -0.154 Cl 
HETATM   21  C   UNL     1      -9.656   9.364  64.959  1.00  0.00    -0.126 A  
HETATM   22  C   UNL     1      -9.789  14.726  67.292  1.00  0.00    -0.230 A  
HETATM   23  C   UNL     1      -9.154  13.554  67.714  1.00  0.00    -0.207 A  
HETATM   24  C   UNL     1      -9.916   9.958  66.198  1.00  0.00    -0.331 A  
ENDBRANCH   8   9
ENDBRANCH   7   8
ENDBRANCH   6   7
TORSDOF 3
ENDMDL
MODEL      110
REMARK 921   NORMALIZED FREE ENERGY PREDICTED BY IDOCK:   -4.46 KCAL/MOL
REMARK 922        TOTAL FREE ENERGY PREDICTED BY IDOCK:   -5.94 KCAL/MOL
REMARK 923 INTER-LIGAND FREE ENERGY PREDICTED BY IDOCK:   -5.44 KCAL/MOL
REMARK 924 INTRA-LIGAND FREE ENERGY PREDICTED BY IDOCK:   -0.50 KCAL/MOL
REMARK 927      BINDING AFFINITY PREDICTED BY RF-SCORE:    0.00 PKD
ROOT
HETATM    1  C   UNL     1     -13.184  11.907  72.028  1.00  0.00    -0.356 C  
HETATM    2  N   UNL     1     -13.410  13.237  71.471  1.00  0.00    -0.298 NA 
HETATM    3  C   UNL     1     -13.873  14.168  72.504  1.00  0.00    -0.485 C  
HETATM    4  C   UNL     1     -13.642  15.512  71.853  1.00  0.00    -0.580 C  
HETATM    5  C   UNL     1     -12.309  15.333  71.150  1.00  0.00    -0.421 C  
HETATM    6  C   UNL     1     -12.195  13.828  70.862  1.00  0.00    -0.349 C  
ENDROOT
BRANCH   6   7
HETATM    7  C   UNL     1     -12.148  13.506  69.360  1.00  0.00    -0.340 C  
BRANCH   7   8
HETATM    8  C   UNL     1     -11.002  14.182  68.598  1.00  0.00    -0.258 C  
BRANCH   8   9
HETATM    9  O   UNL     1      -9.832  13.368  68.637  1.00  0.00    -0.205 OA 
HETATM   10  C   UNL     1      -8.823  13.614  67.618  1.00  0.00    -0.194 C  
HETATM   11  C   UNL     1      -8.227  15.033  67.797  1.00  0.00    -0.162 A  
HETATM   12  C   UNL     1      -7.692  12.569  67.848  1.00  0.00    -0.138 A  
HETATM   13  C   UNL     1      -9.467  13.377  66.227  1.00  0.00    -0.196 C  
HETATM   14  C   UNL     1      -8.184  15.977  66.754  1.00  0.00    -0.307 A  
HETATM   15  C   UNL     1      -7.470  12.018  69.127  1.00  0.00     0.096 A  
HETATM   16  C   UNL     1      -6.371  11.193  69.386  1.00  0.00    -0.088 A  
HETATM   17  C   UNL     1      -7.581  17.228  66.933  1.00  0.00    -0.248 A  
HETATM   18  C   UNL     1      -7.006  17.555  68.156  1.00  0.00    -0.200 A  
HETATM   19  C   UNL     1      -5.483  10.874  68.366  1.00  0.00    -0.043 A  
HETATM   20 CL   UNL     1      -6.232  19.077  68.359  1.00  0.00    -0.232 Cl 
HETATM   21  C   UNL     1      -7.049  16.652  69.212  1.00  0.00    -0.212 A  
HETATM   22  C   UNL     1      -5.697  11.373  67.085  1.00  0.00    -0.092 A  
HETATM   23  C   UNL     1      -6.782  12.218  66.832  1.00  0.00     0.055 A  
HETATM   24  C   UNL     1      -7.663  15.408  69.035  1.00  0.00    -0.186 A  
ENDBRANCH   8   9
ENDBRANCH   7   8
ENDBRANCH   6   7
TORSDOF 3
ENDMDL
MODEL      111
REMARK 921   NORMALIZED FREE ENERGY PREDICTED BY IDOCK:   -4.44 KCAL/MOL
REMARK 922        TOTAL FREE ENERGY PREDICTED BY IDOCK:   -5.91 KCAL/MOL
REMARK 923 INTER-LIGAND FREE ENERGY PREDICTED BY IDOCK:   -4.73 KCAL/MOL
REMARK 924 INTRA-LIGAND FREE ENERGY PREDICTED BY IDOCK:   -1.18 KCAL/MOL
REMARK 927      BINDING AFFINITY PREDICTED BY RF-SCORE:    0.00 PKD
ROOT
HETATM    1  C   UNL     1     -11.258  11.985  66.884  1.00  0.00    -0.320 C  
HETATM    2  N   UNL     1     -10.538  10.716  66.913  1.00  0.00    -0.257 NA 
HETATM    3  C   UNL     1     -10.252  10.242  65.556  1.00  0.00    -0.238 C  
HETATM    4  C   UNL     1      -9.184   9.201  65.796  1.00  0.00    -0.294 C  
HETATM    5  C   UNL     1      -8.318   9.833  66.869  1.00  0.00    -0.120 C  
HETATM    6  C   UNL     1      -9.244  10.797  67.629  1.00  0.00    -0.147 C  
ENDROOT
BRANCH   6   7
HETATM    7  C   UNL     1      -9.432  10.410  69.105  1.00  0.00    -0.220 C  
BRANCH   7   8
HETATM    8  C   UNL     1     -10.473   9.311  69.349  1.00  0.00    -0.219 C  
BRANCH   8   9
HETATM    9  O   UNL     1      -9.932   8.292  70.188  1.00  0.00    -0.184 OA 
HETATM   10  C   UNL     1     -10.436   6.942  69.994  1.00  0.00    -0.207 C  
HETATM   11  C   UNL     1     -10.046   6.430  68.585  1.00  0.00    -0.179 A  
HETATM   12  C   UNL     1      -9.735   6.046  71.058  1.00  0.00    -0.208 A  
HETATM   13  C   UNL     1     -11.965   6.950  70.257  1.00  0.00    -0.257 C  
HETATM   14  C   UNL     1     -10.991   5.923  67.672  1.00  0.00    -0.247 A  
HETATM   15  C   UNL     1      -8.471   6.400  71.576  1.00  0.00    -0.129 A  
HETATM   16  C   UNL     1      -7.761   5.539  72.418  1.00  0.00    -0.102 A  
HETATM   17  C   UNL     1     -10.596   5.410  66.431  1.00  0.00    -0.322 A  
HETATM   18  C   UNL     1      -9.250   5.391  66.081  1.00  0.00    -0.156 A  
HETATM   19  C   UNL     1      -8.308   4.314  72.786  1.00  0.00    -0.101 A  
HETATM   20 CL   UNL     1      -8.766   4.724  64.572  1.00  0.00    -0.151 Cl 
HETATM   21  C   UNL     1      -8.295   5.902  66.953  1.00  0.00    -0.108 A  
HETATM   22  C   UNL     1      -9.568   3.955  72.319  1.00  0.00    -0.202 A  
HETATM   23  C   UNL     1     -10.268   4.806  71.458  1.00  0.00    -0.246 A  
HETATM   24  C   UNL     1      -8.693   6.426  68.187  1.00  0.00    -0.116 A  
ENDBRANCH   8   9
ENDBRANCH   7   8
ENDBRANCH   6   7
TORSDOF 3
ENDMDL
MODEL      112
REMARK 921   NORMALIZED FREE ENERGY PREDICTED BY IDOCK:   -4.39 KCAL/MOL
REMARK 922        TOTAL FREE ENERGY PREDICTED BY IDOCK:   -5.85 KCAL/MOL
REMARK 923 INTER-LIGAND FREE ENERGY PREDICTED BY IDOCK:   -5.26 KCAL/MOL
REMARK 924 INTRA-LIGAND FREE ENERGY PREDICTED BY IDOCK:   -0.60 KCAL/MOL
REMARK 927      BINDING AFFINITY PREDICTED BY RF-SCORE:    0.00 PKD
ROOT
HETATM    1  C   UNL     1      -9.970  10.124  65.526  1.00  0.00    -0.293 C  
HETATM    2  N   UNL     1     -10.243  11.349  66.270  1.00  0.00    -0.225 NA 
HETATM    3  C   UNL     1     -11.248  12.167  65.586  1.00  0.00    -0.335 C  
HETATM    4  C   UNL     1     -11.683  13.121  66.674  1.00  0.00    -0.427 C  
HETATM    5  C   UNL     1     -11.740  12.238  67.907  1.00  0.00    -0.410 C  
HETATM    6  C   UNL     1     -10.745  11.097  67.641  1.00  0.00    -0.230 C  
ENDROOT
BRANCH   6   7
HETATM    7  C   UNL     1      -9.574  11.079  68.636  1.00  0.00    -0.198 C  
BRANCH   7   8
HETATM    8  C   UNL     1      -9.466   9.799  69.473  1.00  0.00    -0.212 C  
BRANCH   8   9
HETATM    9  O   UNL     1      -9.598   8.649  68.640  1.00  0.00    -0.152 OA 
HETATM   10  C   UNL     1      -8.760   7.503  68.959  1.00  0.00    -0.136 C  
HETATM   11  C   UNL     1      -9.151   6.934  70.347  1.00  0.00    -0.156 A  
HETATM   12  C   UNL     1      -9.053   6.421  67.880  1.00  0.00    -0.112 A  
HETATM   13  C   UNL     1      -7.276   7.941  68.859  1.00  0.00    -0.076 C  
HETATM   14  C   UNL     1      -8.215   6.739  71.380  1.00  0.00    -0.111 A  
HETATM   15  C   UNL     1     -10.296   6.386  67.213  1.00  0.00    -0.274 A  
HETATM   16  C   UNL     1     -10.633   5.339  66.350  1.00  0.00    -0.338 A  
HETATM   17  C   UNL     1      -8.591   6.164  72.599  1.00  0.00    -0.124 A  
HETATM   18  C   UNL     1      -9.908   5.769  72.807  1.00  0.00    -0.160 A  
HETATM   19  C   UNL     1      -9.725   4.314  66.110  1.00  0.00    -0.220 A  
HETATM   20 CL   UNL     1     -10.357   5.026  74.291  1.00  0.00    -0.290 Cl 
HETATM   21  C   UNL     1     -10.860   5.966  71.813  1.00  0.00    -0.316 A  
HETATM   22  C   UNL     1      -8.478   4.340  66.725  1.00  0.00    -0.104 A  
HETATM   23  C   UNL     1      -8.149   5.375  67.606  1.00  0.00    -0.100 A  
HETATM   24  C   UNL     1     -10.485   6.552  70.600  1.00  0.00    -0.257 A  
ENDBRANCH   8   9
ENDBRANCH   7   8
ENDBRANCH   6   7
TORSDOF 3
ENDMDL
MODEL      113
REMARK 921   NORMALIZED FREE ENERGY PREDICTED BY IDOCK:   -4.37 KCAL/MOL
REMARK 922        TOTAL FREE ENERGY PREDICTED BY IDOCK:   -5.83 KCAL/MOL
REMARK 923 INTER-LIGAND FREE ENERGY PREDICTED BY IDOCK:   -5.23 KCAL/MOL
REMARK 924 INTRA-LIGAND FREE ENERGY PREDICTED BY IDOCK:   -0.60 KCAL/MOL
REMARK 927      BINDING AFFINITY PREDICTED BY RF-SCORE:    0.00 PKD
ROOT
HETATM    1  C   UNL     1     -11.869  11.460  69.051  1.00  0.00    -0.348 C  
HETATM    2  N   UNL     1     -11.771  11.429  67.595  1.00  0.00    -0.594 NA 
HETATM    3  C   UNL     1     -12.022  12.754  67.022  1.00  0.00    -0.295 C  
HETATM    4  C   UNL     1     -11.475  12.608  65.621  1.00  0.00    -0.387 C  
HETATM    5  C   UNL     1     -10.208  11.797  65.826  1.00  0.00    -0.276 C  
HETATM    6  C   UNL     1     -10.443  10.987  67.110  1.00  0.00    -0.232 C  
ENDROOT
BRANCH   6   7
HETATM    7  C   UNL     1     -10.447   9.469  66.870  1.00  0.00    -0.279 C  
BRANCH   7   8
HETATM    8  C   UNL     1      -9.058   8.818  66.868  1.00  0.00    -0.139 C  
BRANCH   8   9
HETATM    9  O   UNL     1      -9.142   7.472  66.407  1.00  0.00    -0.162 OA 
HETATM   10  C   UNL     1      -8.520   6.451  67.235  1.00  0.00    -0.111 C  
HETATM   11  C   UNL     1      -9.249   6.362  68.600  1.00  0.00    -0.125 A  
HETATM   12  C   UNL     1      -8.702   5.097  66.488  1.00  0.00    -0.111 A  
HETATM   13  C   UNL     1      -7.008   6.773  67.354  1.00  0.00    -0.082 C  
HETATM   14  C   UNL     1      -8.574   6.463  69.831  1.00  0.00    -0.138 A  
HETATM   15  C   UNL     1      -9.777   4.906  65.595  1.00  0.00    -0.161 A  
HETATM   16  C   UNL     1     -10.042   3.656  65.028  1.00  0.00    -0.065 A  
HETATM   17  C   UNL     1      -9.255   6.316  71.045  1.00  0.00    -0.160 A  
HETATM   18  C   UNL     1     -10.622   6.061  71.051  1.00  0.00    -0.246 A  
HETATM   19  C   UNL     1      -9.223   2.571  65.318  1.00  0.00    -0.107 A  
HETATM   20 CL   UNL     1     -11.446   5.841  72.544  1.00  0.00    -0.355 Cl 
HETATM   21  C   UNL     1     -11.321   5.975  69.852  1.00  0.00    -0.355 A  
HETATM   22  C   UNL     1      -8.135   2.737  66.168  1.00  0.00    -0.084 A  
HETATM   23  C   UNL     1      -7.883   3.982  66.754  1.00  0.00    -0.093 A  
HETATM   24  C   UNL     1     -10.641   6.135  68.641  1.00  0.00    -0.324 A  
ENDBRANCH   8   9
ENDBRANCH   7   8
ENDBRANCH   6   7
TORSDOF 3
ENDMDL
MODEL      114
REMARK 921   NORMALIZED FREE ENERGY PREDICTED BY IDOCK:   -4.36 KCAL/MOL
REMARK 922        TOTAL FREE ENERGY PREDICTED BY IDOCK:   -5.82 KCAL/MOL
REMARK 923 INTER-LIGAND FREE ENERGY PREDICTED BY IDOCK:   -5.10 KCAL/MOL
REMARK 924 INTRA-LIGAND FREE ENERGY PREDICTED BY IDOCK:   -0.73 KCAL/MOL
REMARK 927      BINDING AFFINITY PREDICTED BY RF-SCORE:    0.00 PKD
ROOT
HETATM    1  C   UNL     1      -8.034   5.543  63.410  1.00  0.00    -0.101 C  
HETATM    2  N   UNL     1      -8.612   5.588  64.749  1.00  0.00    -0.128 NA 
HETATM    3  C   UNL     1      -9.461   4.419  64.994  1.00  0.00    -0.167 C  
HETATM    4  C   UNL     1      -9.604   4.435  66.499  1.00  0.00    -0.209 C  
HETATM    5  C   UNL     1      -8.215   4.816  66.975  1.00  0.00    -0.106 C  
HETATM    6  C   UNL     1      -7.592   5.620  65.823  1.00  0.00    -0.086 C  
ENDROOT
BRANCH   6   7
HETATM    7  C   UNL     1      -7.277   7.075  66.207  1.00  0.00    -0.075 C  
BRANCH   7   8
HETATM    8  C   UNL     1      -7.644   7.449  67.648  1.00  0.00    -0.106 C  
BRANCH   8   9
HETATM    9  O   UNL     1      -8.213   8.756  67.692  1.00  0.00    -0.109 OA 
HETATM   10  C   UNL     1      -9.624   8.850  68.031  1.00  0.00    -0.148 C  
HETATM   11  C   UNL     1      -9.853   8.358  69.483  1.00  0.00    -0.181 A  
HETATM   12  C   UNL     1     -10.003  10.358  67.954  1.00  0.00    -0.192 A  
HETATM   13  C   UNL     1     -10.435   8.062  66.969  1.00  0.00    -0.410 C  
HETATM   14  C   UNL     1     -10.789   7.359  69.809  1.00  0.00    -0.246 A  
HETATM   15  C   UNL     1      -9.027  11.356  68.157  1.00  0.00    -0.169 A  
HETATM   16  C   UNL     1      -9.371  12.709  68.238  1.00  0.00    -0.195 A  
HETATM   17  C   UNL     1     -11.014   6.983  71.138  1.00  0.00    -0.275 A  
HETATM   18  C   UNL     1     -10.311   7.602  72.166  1.00  0.00    -0.221 A  
HETATM   19  C   UNL     1     -10.697  13.101  68.090  1.00  0.00    -0.258 A  
HETATM   20 CL   UNL     1     -10.620   7.165  73.800  1.00  0.00    -0.387 Cl 
HETATM   21  C   UNL     1      -9.366   8.579  71.875  1.00  0.00    -0.337 A  
HETATM   22  C   UNL     1     -11.676  12.142  67.853  1.00  0.00    -0.403 A  
HETATM   23  C   UNL     1     -11.335  10.787  67.796  1.00  0.00    -0.354 A  
HETATM   24  C   UNL     1      -9.133   8.944  70.545  1.00  0.00    -0.233 A  
ENDBRANCH   8   9
ENDBRANCH   7   8
ENDBRANCH   6   7
TORSDOF 3
ENDMDL
MODEL      115
REMARK 921   NORMALIZED FREE ENERGY PREDICTED BY IDOCK:   -4.34 KCAL/MOL
REMARK 922        TOTAL FREE ENERGY PREDICTED BY IDOCK:   -5.80 KCAL/MOL
REMARK 923 INTER-LIGAND FREE ENERGY PREDICTED BY IDOCK:   -5.31 KCAL/MOL
REMARK 924 INTRA-LIGAND FREE ENERGY PREDICTED BY IDOCK:   -0.49 KCAL/MOL
REMARK 927      BINDING AFFINITY PREDICTED BY RF-SCORE:    0.00 PKD
ROOT
HETATM    1  C   UNL     1     -12.386  12.060  70.954  1.00  0.00    -0.285 C  
HETATM    2  N   UNL     1     -12.652  13.430  70.523  1.00  0.00    -0.255 NA 
HETATM    3  C   UNL     1     -13.104  14.255  71.647  1.00  0.00    -0.346 C  
HETATM    4  C   UNL     1     -12.916  15.656  71.113  1.00  0.00    -0.539 C  
HETATM    5  C   UNL     1     -11.599  15.568  70.363  1.00  0.00    -0.359 C  
HETATM    6  C   UNL     1     -11.466  14.097  69.939  1.00  0.00    -0.226 C  
ENDROOT
BRANCH   6   7
HETATM    7  C   UNL     1     -11.453  13.911  68.414  1.00  0.00    -0.346 C  
BRANCH   7   8
HETATM    8  C   UNL     1     -10.207  13.206  67.866  1.00  0.00    -0.233 C  
BRANCH   8   9
HETATM    9  O   UNL     1      -9.955  12.006  68.594  1.00  0.00    -0.207 OA 
HETATM   10  C   UNL     1     -10.248  10.752  67.919  1.00  0.00    -0.176 C  
HETATM   11  C   UNL     1      -9.314  10.580  66.694  1.00  0.00    -0.186 A  
HETATM   12  C   UNL     1      -9.943   9.614  68.937  1.00  0.00    -0.186 A  
HETATM   13  C   UNL     1     -11.758  10.731  67.562  1.00  0.00     0.206 C  
HETATM   14  C   UNL     1      -9.799  10.324  65.397  1.00  0.00    -0.362 A  
HETATM   15  C   UNL     1      -9.002   9.807  69.970  1.00  0.00    -0.255 A  
HETATM   16  C   UNL     1      -8.607   8.755  70.803  1.00  0.00    -0.218 A  
HETATM   17  C   UNL     1      -8.925  10.112  64.326  1.00  0.00    -0.267 A  
HETATM   18  C   UNL     1      -7.549  10.147  64.531  1.00  0.00    -0.130 A  
HETATM   19  C   UNL     1      -9.163   7.491  70.642  1.00  0.00    -0.159 A  
HETATM   20 CL   UNL     1      -6.479   9.846  63.219  1.00  0.00    -0.119 Cl 
HETATM   21  C   UNL     1      -7.039  10.415  65.796  1.00  0.00    -0.139 A  
HETATM   22  C   UNL     1     -10.120   7.280  69.655  1.00  0.00    -0.195 A  
HETATM   23  C   UNL     1     -10.498   8.326  68.807  1.00  0.00    -0.200 A  
HETATM   24  C   UNL     1      -7.915  10.640  66.863  1.00  0.00    -0.124 A  
ENDBRANCH   8   9
ENDBRANCH   7   8
ENDBRANCH   6   7
TORSDOF 3
ENDMDL
MODEL      116
REMARK 921   NORMALIZED FREE ENERGY PREDICTED BY IDOCK:   -4.34 KCAL/MOL
REMARK 922        TOTAL FREE ENERGY PREDICTED BY IDOCK:   -5.80 KCAL/MOL
REMARK 923 INTER-LIGAND FREE ENERGY PREDICTED BY IDOCK:   -5.28 KCAL/MOL
REMARK 924 INTRA-LIGAND FREE ENERGY PREDICTED BY IDOCK:   -0.52 KCAL/MOL
REMARK 927      BINDING AFFINITY PREDICTED BY RF-SCORE:    0.00 PKD
ROOT
HETATM    1  C   UNL     1     -12.033  15.478  69.523  1.00  0.00    -0.350 C  
HETATM    2  N   UNL     1     -11.936  14.380  70.480  1.00  0.00    -0.306 NA 
HETATM    3  C   UNL     1     -13.017  14.447  71.468  1.00  0.00    -0.336 C  
HETATM    4  C   UNL     1     -12.992  13.059  72.066  1.00  0.00    -0.395 C  
HETATM    5  C   UNL     1     -12.749  12.167  70.863  1.00  0.00    -0.280 C  
HETATM    6  C   UNL     1     -12.007  13.044  69.843  1.00  0.00    -0.311 C  
ENDROOT
BRANCH   6   7
HETATM    7  C   UNL     1     -10.592  12.534  69.530  1.00  0.00     0.369 C  
BRANCH   7   8
HETATM    8  C   UNL     1     -10.525  11.067  69.087  1.00  0.00    -0.210 C  
BRANCH   8   9
HETATM    9  O   UNL     1      -9.411  10.860  68.221  1.00  0.00    -0.155 OA 
HETATM   10  C   UNL     1      -9.704  10.533  66.835  1.00  0.00    -0.180 C  
HETATM   11  C   UNL     1     -10.418  11.727  66.150  1.00  0.00    -0.284 A  
HETATM   12  C   UNL     1      -8.335  10.305  66.130  1.00  0.00    -0.140 A  
HETATM   13  C   UNL     1     -10.523   9.216  66.807  1.00  0.00    -0.266 C  
HETATM   14  C   UNL     1     -11.647  11.594  65.477  1.00  0.00    -0.085 A  
HETATM   15  C   UNL     1      -7.165  10.929  66.611  1.00  0.00    -0.139 A  
HETATM   16  C   UNL     1      -5.958  10.855  65.909  1.00  0.00    -0.116 A  
HETATM   17  C   UNL     1     -12.233  12.680  64.817  1.00  0.00    -0.528 A  
HETATM   18  C   UNL     1     -11.598  13.917  64.812  1.00  0.00    -0.374 A  
HETATM   19  C   UNL     1      -5.882  10.133  64.724  1.00  0.00    -0.122 A  
HETATM   20 CL   UNL     1     -12.302  15.238  63.965  1.00  0.00    -0.193 Cl 
HETATM   21  C   UNL     1     -10.393  14.086  65.484  1.00  0.00    -0.354 A  
HETATM   22  C   UNL     1      -7.011   9.477  64.244  1.00  0.00    -0.108 A  
HETATM   23  C   UNL     1      -8.225   9.570  64.933  1.00  0.00    -0.140 A  
HETATM   24  C   UNL     1      -9.816  13.003  66.155  1.00  0.00    -0.275 A  
ENDBRANCH   8   9
ENDBRANCH   7   8
ENDBRANCH   6   7
TORSDOF 3
ENDMDL
MODEL      117
REMARK 921   NORMALIZED FREE ENERGY PREDICTED BY IDOCK:   -4.34 KCAL/MOL
REMARK 922        TOTAL FREE ENERGY PREDICTED BY IDOCK:   -5.80 KCAL/MOL
REMARK 923 INTER-LIGAND FREE ENERGY PREDICTED BY IDOCK:   -4.76 KCAL/MOL
REMARK 924 INTRA-LIGAND FREE ENERGY PREDICTED BY IDOCK:   -1.03 KCAL/MOL
REMARK 927      BINDING AFFINITY PREDICTED BY RF-SCORE:    0.00 PKD
ROOT
HETATM    1  C   UNL     1     -11.416  15.108  68.931  1.00  0.00    -0.320 C  
HETATM    2  N   UNL     1     -11.253  13.691  69.242  1.00  0.00    -0.252 NA 
HETATM    3  C   UNL     1     -12.176  13.277  70.302  1.00  0.00    -0.321 C  
HETATM    4  C   UNL     1     -12.154  11.771  70.177  1.00  0.00    -0.398 C  
HETATM    5  C   UNL     1     -12.142  11.547  68.677  1.00  0.00    -0.197 C  
HETATM    6  C   UNL     1     -11.498  12.808  68.078  1.00  0.00    -0.318 C  
ENDROOT
BRANCH   6   7
HETATM    7  C   UNL     1     -10.177  12.519  67.348  1.00  0.00    -0.217 C  
BRANCH   7   8
HETATM    8  C   UNL     1      -9.128  11.785  68.192  1.00  0.00    -0.185 C  
BRANCH   8   9
HETATM    9  O   UNL     1      -8.757  10.558  67.566  1.00  0.00    -0.125 OA 
HETATM   10  C   UNL     1      -8.010   9.606  68.373  1.00  0.00    -0.096 C  
HETATM   11  C   UNL     1      -8.887   9.107  69.549  1.00  0.00    -0.149 A  
HETATM   12  C   UNL     1      -7.685   8.396  67.449  1.00  0.00    -0.098 A  
HETATM   13  C   UNL     1      -6.686  10.280  68.821  1.00  0.00    -0.053 C  
HETATM   14  C   UNL     1      -8.466   9.170  70.891  1.00  0.00    -0.251 A  
HETATM   15  C   UNL     1      -8.511   8.090  66.347  1.00  0.00    -0.138 A  
HETATM   16  C   UNL     1      -8.323   6.926  65.595  1.00  0.00    -0.147 A  
HETATM   17  C   UNL     1      -9.258   8.653  71.923  1.00  0.00    -0.345 A  
HETATM   18  C   UNL     1     -10.482   8.060  71.632  1.00  0.00    -0.219 A  
HETATM   19  C   UNL     1      -7.287   6.053  65.908  1.00  0.00    -0.076 A  
HETATM   20 CL   UNL     1     -11.432   7.390  72.899  1.00  0.00    -0.307 Cl 
HETATM   21  C   UNL     1     -10.934   8.000  70.319  1.00  0.00    -0.242 A  
HETATM   22  C   UNL     1      -6.435   6.347  66.967  1.00  0.00    -0.046 A  
HETATM   23  C   UNL     1      -6.637   7.499  67.734  1.00  0.00    -0.061 A  
HETATM   24  C   UNL     1     -10.147   8.529  69.291  1.00  0.00    -0.203 A  
ENDBRANCH   8   9
ENDBRANCH   7   8
ENDBRANCH   6   7
TORSDOF 3
ENDMDL
MODEL      118
REMARK 921   NORMALIZED FREE ENERGY PREDICTED BY IDOCK:   -4.33 KCAL/MOL
REMARK 922        TOTAL FREE ENERGY PREDICTED BY IDOCK:   -5.78 KCAL/MOL
REMARK 923 INTER-LIGAND FREE ENERGY PREDICTED BY IDOCK:   -4.66 KCAL/MOL
REMARK 924 INTRA-LIGAND FREE ENERGY PREDICTED BY IDOCK:   -1.12 KCAL/MOL
REMARK 927      BINDING AFFINITY PREDICTED BY RF-SCORE:    0.00 PKD
ROOT
HETATM    1  C   UNL     1      -8.806   4.669  64.719  1.00  0.00    -0.152 C  
HETATM    2  N   UNL     1      -9.418   5.634  65.627  1.00  0.00    -0.029 NA 
HETATM    3  C   UNL     1     -10.422   4.991  66.479  1.00  0.00    -0.276 C  
HETATM    4  C   UNL     1     -10.612   6.011  67.578  1.00  0.00    -0.345 C  
HETATM    5  C   UNL     1      -9.202   6.505  67.841  1.00  0.00    -0.110 C  
HETATM    6  C   UNL     1      -8.440   6.292  66.523  1.00  0.00    -0.121 C  
ENDROOT
BRANCH   6   7
HETATM    7  C   UNL     1      -7.949   7.606  65.895  1.00  0.00    -0.116 C  
BRANCH   7   8
HETATM    8  C   UNL     1      -9.003   8.718  65.832  1.00  0.00    -0.195 C  
BRANCH   8   9
HETATM    9  O   UNL     1      -8.428   9.969  66.203  1.00  0.00    -0.123 OA 
HETATM   10  C   UNL     1      -9.253  10.865  66.997  1.00  0.00    -0.152 C  
HETATM   11  C   UNL     1      -9.543  10.230  68.380  1.00  0.00    -0.155 A  
HETATM   12  C   UNL     1      -8.423  12.164  67.213  1.00  0.00    -0.178 A  
HETATM   13  C   UNL     1     -10.531  11.202  66.183  1.00  0.00    -0.307 C  
HETATM   14  C   UNL     1     -10.847  10.072  68.887  1.00  0.00    -0.250 A  
HETATM   15  C   UNL     1      -7.013  12.129  67.188  1.00  0.00    -0.117 A  
HETATM   16  C   UNL     1      -6.249  13.251  67.524  1.00  0.00    -0.114 A  
HETATM   17  C   UNL     1     -11.068   9.552  70.167  1.00  0.00    -0.294 A  
HETATM   18  C   UNL     1      -9.991   9.183  70.966  1.00  0.00    -0.297 A  
HETATM   19  C   UNL     1      -6.875  14.445  67.866  1.00  0.00    -0.178 A  
HETATM   20 CL   UNL     1     -10.266   8.582  72.553  1.00  0.00    -0.368 Cl 
HETATM   21  C   UNL     1      -8.692   9.309  70.487  1.00  0.00    -0.276 A  
HETATM   22  C   UNL     1      -8.264  14.519  67.863  1.00  0.00    -0.155 A  
HETATM   23  C   UNL     1      -9.028  13.391  67.550  1.00  0.00    -0.207 A  
HETATM   24  C   UNL     1      -8.473   9.817  69.202  1.00  0.00    -0.143 A  
ENDBRANCH   8   9
ENDBRANCH   7   8
ENDBRANCH   6   7
TORSDOF 3
ENDMDL
MODEL      119
REMARK 921   NORMALIZED FREE ENERGY PREDICTED BY IDOCK:   -4.31 KCAL/MOL
REMARK 922        TOTAL FREE ENERGY PREDICTED BY IDOCK:   -5.76 KCAL/MOL
REMARK 923 INTER-LIGAND FREE ENERGY PREDICTED BY IDOCK:   -5.08 KCAL/MOL
REMARK 924 INTRA-LIGAND FREE ENERGY PREDICTED BY IDOCK:   -0.68 KCAL/MOL
REMARK 927      BINDING AFFINITY PREDICTED BY RF-SCORE:    0.00 PKD
ROOT
HETATM    1  C   UNL     1     -11.235  11.908  67.918  1.00  0.00    -0.263 C  
HETATM    2  N   UNL     1     -11.363  12.292  69.320  1.00  0.00    -0.263 NA 
HETATM    3  C   UNL     1     -12.102  13.550  69.455  1.00  0.00    -0.297 C  
HETATM    4  C   UNL     1     -12.481  13.545  70.918  1.00  0.00    -0.448 C  
HETATM    5  C   UNL     1     -12.857  12.098  71.174  1.00  0.00    -0.313 C  
HETATM    6  C   UNL     1     -12.070  11.279  70.138  1.00  0.00    -0.366 C  
ENDROOT
BRANCH   6   7
HETATM    7  C   UNL     1     -11.057  10.317  70.778  1.00  0.00    -0.303 C  
BRANCH   7   8
HETATM    8  C   UNL     1     -11.504   8.851  70.816  1.00  0.00    -0.275 C  
BRANCH   8   9
HETATM    9  O   UNL     1     -10.372   7.988  70.898  1.00  0.00    -0.199 OA 
HETATM   10  C   UNL     1     -10.116   7.125  69.755  1.00  0.00    -0.195 C  
HETATM   11  C   UNL     1      -9.770   7.983  68.512  1.00  0.00    -0.166 A  
HETATM   12  C   UNL     1      -8.875   6.258  70.119  1.00  0.00    -0.149 A  
HETATM   13  C   UNL     1     -11.347   6.203  69.555  1.00  0.00    -0.426 C  
HETATM   14  C   UNL     1     -10.450   7.855  67.286  1.00  0.00    -0.390 A  
HETATM   15  C   UNL     1      -7.918   6.723  71.044  1.00  0.00    -0.103 A  
HETATM   16  C   UNL     1      -6.727   6.029  71.274  1.00  0.00    -0.058 A  
HETATM   17  C   UNL     1     -10.070   8.602  66.165  1.00  0.00    -0.106 A  
HETATM   18  C   UNL     1      -9.000   9.488  66.248  1.00  0.00    -0.157 A  
HETATM   19  C   UNL     1      -6.474   4.836  70.605  1.00  0.00    -0.030 A  
HETATM   20 CL   UNL     1      -8.511  10.373  64.857  1.00  0.00    -0.175 Cl 
HETATM   21  C   UNL     1      -8.320   9.651  67.450  1.00  0.00    -0.114 A  
HETATM   22  C   UNL     1      -7.417   4.334  69.714  1.00  0.00    -0.050 A  
HETATM   23  C   UNL     1      -8.598   5.041  69.466  1.00  0.00    -0.102 A  
HETATM   24  C   UNL     1      -8.710   8.913  68.572  1.00  0.00    -0.134 A  
ENDBRANCH   8   9
ENDBRANCH   7   8
ENDBRANCH   6   7
TORSDOF 3
ENDMDL
MODEL      120
REMARK 921   NORMALIZED FREE ENERGY PREDICTED BY IDOCK:   -4.31 KCAL/MOL
REMARK 922        TOTAL FREE ENERGY PREDICTED BY IDOCK:   -5.76 KCAL/MOL
REMARK 923 INTER-LIGAND FREE ENERGY PREDICTED BY IDOCK:   -5.08 KCAL/MOL
REMARK 924 INTRA-LIGAND FREE ENERGY PREDICTED BY IDOCK:   -0.68 KCAL/MOL
REMARK 927      BINDING AFFINITY PREDICTED BY RF-SCORE:    0.00 PKD
ROOT
HETATM    1  C   UNL     1     -10.590  15.335  67.617  1.00  0.00    -0.270 C  
HETATM    2  N   UNL     1     -10.742  13.922  67.286  1.00  0.00    -0.282 NA 
HETATM    3  C   UNL     1     -11.558  13.749  66.081  1.00  0.00    -0.352 C  
HETATM    4  C   UNL     1     -11.249  12.324  65.685  1.00  0.00    -0.375 C  
HETATM    5  C   UNL     1      -9.758  12.208  65.944  1.00  0.00    -0.253 C  
HETATM    6  C   UNL     1      -9.450  13.239  67.041  1.00  0.00    -0.243 C  
ENDROOT
BRANCH   6   7
HETATM    7  C   UNL     1      -8.937  12.598  68.340  1.00  0.00    -0.125 C  
BRANCH   7   8
HETATM    8  C   UNL     1      -8.585  11.111  68.223  1.00  0.00    -0.146 C  
BRANCH   8   9
HETATM    9  O   UNL     1      -9.227  10.366  69.256  1.00  0.00    -0.194 OA 
HETATM   10  C   UNL     1      -9.730   9.047  68.903  1.00  0.00    -0.163 C  
HETATM   11  C   UNL     1      -8.549   8.115  68.530  1.00  0.00    -0.130 A  
HETATM   12  C   UNL     1     -10.427   8.480  70.174  1.00  0.00    -0.226 A  
HETATM   13  C   UNL     1     -10.779   9.211  67.772  1.00  0.00    -0.243 C  
HETATM   14  C   UNL     1      -8.495   7.405  67.315  1.00  0.00    -0.118 A  
HETATM   15  C   UNL     1     -10.037   8.908  71.460  1.00  0.00    -0.394 A  
HETATM   16  C   UNL     1     -10.545   8.306  72.615  1.00  0.00    -0.378 A  
HETATM   17  C   UNL     1      -7.444   6.523  67.038  1.00  0.00    -0.087 A  
HETATM   18  C   UNL     1      -6.431   6.331  67.971  1.00  0.00    -0.052 A  
HETATM   19  C   UNL     1     -11.477   7.279  72.514  1.00  0.00    -0.322 A  
HETATM   20 CL   UNL     1      -5.163   5.217  67.642  1.00  0.00    -0.007 Cl 
HETATM   21  C   UNL     1      -6.446   7.032  69.172  1.00  0.00    -0.040 A  
HETATM   22  C   UNL     1     -11.907   6.860  71.260  1.00  0.00    -0.385 A  
HETATM   23  C   UNL     1     -11.381   7.446  70.104  1.00  0.00    -0.200 A  
HETATM   24  C   UNL     1      -7.490   7.923  69.441  1.00  0.00    -0.091 A  
ENDBRANCH   8   9
ENDBRANCH   7   8
ENDBRANCH   6   7
TORSDOF 3
ENDMDL
MODEL      121
REMARK 921   NORMALIZED FREE ENERGY PREDICTED BY IDOCK:   -4.30 KCAL/MOL
REMARK 922        TOTAL FREE ENERGY PREDICTED BY IDOCK:   -5.75 KCAL/MOL
REMARK 923 INTER-LIGAND FREE ENERGY PREDICTED BY IDOCK:   -5.09 KCAL/MOL
REMARK 924 INTRA-LIGAND FREE ENERGY PREDICTED BY IDOCK:   -0.66 KCAL/MOL
REMARK 927      BINDING AFFINITY PREDICTED BY RF-SCORE:    0.00 PKD
ROOT
HETATM    1  C   UNL     1     -12.213   7.033  71.505  1.00  0.00    -0.368 C  
HETATM    2  N   UNL     1     -12.593   8.371  71.062  1.00  0.00    -0.133 NA 
HETATM    3  C   UNL     1     -13.288   9.100  72.126  1.00  0.00    -0.463 C  
HETATM    4  C   UNL     1     -13.213  10.529  71.640  1.00  0.00    -0.493 C  
HETATM    5  C   UNL     1     -11.810  10.628  71.071  1.00  0.00    -0.396 C  
HETATM    6  C   UNL     1     -11.435   9.198  70.649  1.00  0.00    -0.262 C  
ENDROOT
BRANCH   6   7
HETATM    7  C   UNL     1     -11.201   9.061  69.137  1.00  0.00     0.191 C  
BRANCH   7   8
HETATM    8  C   UNL     1      -9.798   8.580  68.748  1.00  0.00    -0.173 C  
BRANCH   8   9
HETATM    9  O   UNL     1      -8.875   9.666  68.778  1.00  0.00    -0.125 OA 
HETATM   10  C   UNL     1      -8.246  10.032  67.519  1.00  0.00    -0.114 C  
HETATM   11  C   UNL     1      -9.316  10.555  66.527  1.00  0.00    -0.189 A  
HETATM   12  C   UNL     1      -7.255  11.191  67.834  1.00  0.00    -0.090 A  
HETATM   13  C   UNL     1      -7.453   8.806  66.994  1.00  0.00    -0.091 C  
HETATM   14  C   UNL     1      -9.475  10.027  65.232  1.00  0.00    -0.323 A  
HETATM   15  C   UNL     1      -7.470  12.041  68.939  1.00  0.00    -0.043 A  
HETATM   16  C   UNL     1      -6.678  13.173  69.154  1.00  0.00    -0.089 A  
HETATM   17  C   UNL     1     -10.410  10.566  64.340  1.00  0.00    -0.244 A  
HETATM   18  C   UNL     1     -11.199  11.645  64.725  1.00  0.00    -0.234 A  
HETATM   19  C   UNL     1      -5.632  13.467  68.287  1.00  0.00    -0.101 A  
HETATM   20 CL   UNL     1     -12.317  12.328  63.612  1.00  0.00    -0.635 Cl 
HETATM   21  C   UNL     1     -11.078  12.177  66.004  1.00  0.00    -0.354 A  
HETATM   22  C   UNL     1      -5.373  12.626  67.210  1.00  0.00     0.007 A  
HETATM   23  C   UNL     1      -6.180  11.508  66.980  1.00  0.00    -0.134 A  
HETATM   24  C   UNL     1     -10.153  11.629  66.898  1.00  0.00    -0.238 A  
ENDBRANCH   8   9
ENDBRANCH   7   8
ENDBRANCH   6   7
TORSDOF 3
ENDMDL
MODEL      122
REMARK 921   NORMALIZED FREE ENERGY PREDICTED BY IDOCK:   -4.29 KCAL/MOL
REMARK 922        TOTAL FREE ENERGY PREDICTED BY IDOCK:   -5.74 KCAL/MOL
REMARK 923 INTER-LIGAND FREE ENERGY PREDICTED BY IDOCK:   -5.08 KCAL/MOL
REMARK 924 INTRA-LIGAND FREE ENERGY PREDICTED BY IDOCK:   -0.66 KCAL/MOL
REMARK 927      BINDING AFFINITY PREDICTED BY RF-SCORE:    0.00 PKD
ROOT
HETATM    1  C   UNL     1      -8.075   4.665  65.482  1.00  0.00    -0.107 C  
HETATM    2  N   UNL     1      -8.980   4.121  66.489  1.00  0.00    -0.119 NA 
HETATM    3  C   UNL     1      -8.333   3.052  67.255  1.00  0.00    -0.086 C  
HETATM    4  C   UNL     1      -9.234   2.930  68.462  1.00  0.00    -0.239 C  
HETATM    5  C   UNL     1      -9.573   4.372  68.790  1.00  0.00    -0.224 C  
HETATM    6  C   UNL     1      -9.446   5.136  67.462  1.00  0.00    -0.133 C  
ENDROOT
BRANCH   6   7
HETATM    7  C   UNL     1     -10.776   5.746  66.992  1.00  0.00    -0.369 C  
BRANCH   7   8
HETATM    8  C   UNL     1     -10.812   7.279  66.993  1.00  0.00    -0.280 C  
BRANCH   8   9
HETATM    9  O   UNL     1      -9.574   7.804  67.466  1.00  0.00    -0.140 OA 
HETATM   10  C   UNL     1      -9.469   9.251  67.576  1.00  0.00    -0.132 C  
HETATM   11  C   UNL     1     -10.462   9.772  68.646  1.00  0.00    -0.233 A  
HETATM   12  C   UNL     1      -8.020   9.559  68.052  1.00  0.00    -0.091 A  
HETATM   13  C   UNL     1      -9.689   9.864  66.168  1.00  0.00    -0.297 C  
HETATM   14  C   UNL     1     -11.403  10.784  68.381  1.00  0.00    -0.367 A  
HETATM   15  C   UNL     1      -7.290   8.611  68.799  1.00  0.00    -0.083 A  
HETATM   16  C   UNL     1      -6.048   8.922  69.360  1.00  0.00    -0.040 A  
HETATM   17  C   UNL     1     -12.242  11.275  69.389  1.00  0.00    -0.315 A  
HETATM   18  C   UNL     1     -12.152  10.766  70.680  1.00  0.00    -0.370 A  
HETATM   19  C   UNL     1      -5.491  10.181  69.166  1.00  0.00    -0.038 A  
HETATM   20 CL   UNL     1     -13.157  11.400  71.923  1.00  0.00    -0.578 Cl 
HETATM   21  C   UNL     1     -11.245   9.752  70.969  1.00  0.00    -0.451 A  
HETATM   22  C   UNL     1      -6.171  11.125  68.404  1.00  0.00    -0.045 A  
HETATM   23  C   UNL     1      -7.424  10.822  67.862  1.00  0.00    -0.090 A  
HETATM   24  C   UNL     1     -10.417   9.254  69.958  1.00  0.00    -0.254 A  
ENDBRANCH   8   9
ENDBRANCH   7   8
ENDBRANCH   6   7
TORSDOF 3
ENDMDL
MODEL      123
REMARK 921   NORMALIZED FREE ENERGY PREDICTED BY IDOCK:   -4.29 KCAL/MOL
REMARK 922        TOTAL FREE ENERGY PREDICTED BY IDOCK:   -5.74 KCAL/MOL
REMARK 923 INTER-LIGAND FREE ENERGY PREDICTED BY IDOCK:   -4.78 KCAL/MOL
REMARK 924 INTRA-LIGAND FREE ENERGY PREDICTED BY IDOCK:   -0.96 KCAL/MOL
REMARK 927      BINDING AFFINITY PREDICTED BY RF-SCORE:    0.00 PKD
ROOT
HETATM    1  C   UNL     1      -9.509  10.063  65.103  1.00  0.00    -0.270 C  
HETATM    2  N   UNL     1      -8.486   9.165  65.630  1.00  0.00    -0.131 NA 
HETATM    3  C   UNL     1      -8.164   8.110  64.665  1.00  0.00    -0.125 C  
HETATM    4  C   UNL     1      -6.853   7.579  65.194  1.00  0.00    -0.047 C  
HETATM    5  C   UNL     1      -6.120   8.834  65.631  1.00  0.00    -0.052 C  
HETATM    6  C   UNL     1      -7.219   9.856  65.961  1.00  0.00    -0.106 C  
ENDROOT
BRANCH   6   7
HETATM    7  C   UNL     1      -7.219  10.280  67.439  1.00  0.00    -0.092 C  
BRANCH   7   8
HETATM    8  C   UNL     1      -8.604  10.611  68.008  1.00  0.00    -0.122 C  
BRANCH   8   9
HETATM    9  O   UNL     1      -8.767  10.015  69.294  1.00  0.00    -0.151 OA 
HETATM   10  C   UNL     1      -9.936   9.171  69.486  1.00  0.00    -0.189 C  
HETATM   11  C   UNL     1      -9.842   7.924  68.571  1.00  0.00    -0.186 A  
HETATM   12  C   UNL     1      -9.907   8.699  70.970  1.00  0.00    -0.267 A  
HETATM   13  C   UNL     1     -11.204  10.030  69.245  1.00  0.00    -0.213 C  
HETATM   14  C   UNL     1     -10.868   7.556  67.679  1.00  0.00    -0.197 A  
HETATM   15  C   UNL     1      -8.688   8.610  71.673  1.00  0.00    -0.270 A  
HETATM   16  C   UNL     1      -8.623   8.052  72.953  1.00  0.00    -0.256 A  
HETATM   17  C   UNL     1     -10.777   6.389  66.913  1.00  0.00    -0.408 A  
HETATM   18  C   UNL     1      -9.663   5.565  67.026  1.00  0.00    -0.146 A  
HETATM   19  C   UNL     1      -9.779   7.593  73.574  1.00  0.00    -0.358 A  
HETATM   20 CL   UNL     1      -9.575   4.111  66.112  1.00  0.00    -0.186 Cl 
HETATM   21  C   UNL     1      -8.624   5.910  67.884  1.00  0.00    -0.105 A  
HETATM   22  C   UNL     1     -11.001   7.701  72.919  1.00  0.00    -0.456 A  
HETATM   23  C   UNL     1     -11.063   8.238  71.629  1.00  0.00    -0.326 A  
HETATM   24  C   UNL     1      -8.711   7.084  68.639  1.00  0.00    -0.123 A  
ENDBRANCH   8   9
ENDBRANCH   7   8
ENDBRANCH   6   7
TORSDOF 3
ENDMDL
MODEL      124
REMARK 921   NORMALIZED FREE ENERGY PREDICTED BY IDOCK:   -4.29 KCAL/MOL
REMARK 922        TOTAL FREE ENERGY PREDICTED BY IDOCK:   -5.74 KCAL/MOL
REMARK 923 INTER-LIGAND FREE ENERGY PREDICTED BY IDOCK:   -4.75 KCAL/MOL
REMARK 924 INTRA-LIGAND FREE ENERGY PREDICTED BY IDOCK:   -0.99 KCAL/MOL
REMARK 927      BINDING AFFINITY PREDICTED BY RF-SCORE:    0.00 PKD
ROOT
HETATM    1  C   UNL     1      -5.925   8.070  71.757  1.00  0.00    -0.036 C  
HETATM    2  N   UNL     1      -6.986   7.979  70.758  1.00  0.00    -0.044 NA 
HETATM    3  C   UNL     1      -7.698   6.703  70.864  1.00  0.00    -0.094 C  
HETATM    4  C   UNL     1      -8.961   6.973  70.080  1.00  0.00    -0.142 C  
HETATM    5  C   UNL     1      -9.323   8.391  70.482  1.00  0.00    -0.177 C  
HETATM    6  C   UNL     1      -7.996   9.056  70.882  1.00  0.00    -0.164 C  
ENDROOT
BRANCH   6   7
HETATM    7  C   UNL     1      -7.619  10.238  69.975  1.00  0.00    -0.116 C  
BRANCH   7   8
HETATM    8  C   UNL     1      -7.427   9.875  68.498  1.00  0.00    -0.082 C  
BRANCH   8   9
HETATM    9  O   UNL     1      -8.428  10.501  67.698  1.00  0.00    -0.115 OA 
HETATM   10  C   UNL     1      -8.519  10.082  66.309  1.00  0.00    -0.130 C  
HETATM   11  C   UNL     1      -8.941   8.593  66.233  1.00  0.00    -0.211 A  
HETATM   12  C   UNL     1      -9.636  10.947  65.653  1.00  0.00    -0.268 A  
HETATM   13  C   UNL     1      -7.163  10.383  65.618  1.00  0.00    -0.146 C  
HETATM   14  C   UNL     1      -8.209   7.630  65.513  1.00  0.00    -0.135 A  
HETATM   15  C   UNL     1     -10.680  11.485  66.434  1.00  0.00    -0.320 A  
HETATM   16  C   UNL     1     -11.768  12.138  65.846  1.00  0.00    -0.393 A  
HETATM   17  C   UNL     1      -8.653   6.306  65.414  1.00  0.00    -0.097 A  
HETATM   18  C   UNL     1      -9.840   5.922  66.029  1.00  0.00     0.066 A  
HETATM   19  C   UNL     1     -11.826  12.295  64.466  1.00  0.00    -0.441 A  
HETATM   20 CL   UNL     1     -10.401   4.304  65.871  1.00  0.00    -0.208 Cl 
HETATM   21  C   UNL     1     -10.576   6.844  66.764  1.00  0.00    -0.304 A  
HETATM   22  C   UNL     1     -10.792  11.806  63.674  1.00  0.00    -0.508 A  
HETATM   23  C   UNL     1      -9.715  11.132  64.259  1.00  0.00    -0.315 A  
HETATM   24  C   UNL     1     -10.123   8.163  66.872  1.00  0.00    -0.367 A  
ENDBRANCH   8   9
ENDBRANCH   7   8
ENDBRANCH   6   7
TORSDOF 3
ENDMDL
MODEL      125
REMARK 921   NORMALIZED FREE ENERGY PREDICTED BY IDOCK:   -4.28 KCAL/MOL
REMARK 922        TOTAL FREE ENERGY PREDICTED BY IDOCK:   -5.73 KCAL/MOL
REMARK 923 INTER-LIGAND FREE ENERGY PREDICTED BY IDOCK:   -5.20 KCAL/MOL
REMARK 924 INTRA-LIGAND FREE ENERGY PREDICTED BY IDOCK:   -0.53 KCAL/MOL
REMARK 927      BINDING AFFINITY PREDICTED BY RF-SCORE:    0.00 PKD
ROOT
HETATM    1  C   UNL     1      -6.846   5.055  65.105  1.00  0.00    -0.053 C  
HETATM    2  N   UNL     1      -8.271   5.061  64.790  1.00  0.00    -0.123 NA 
HETATM    3  C   UNL     1      -8.670   3.812  64.136  1.00  0.00    -0.107 C  
HETATM    4  C   UNL     1     -10.173   3.838  64.280  1.00  0.00    -0.240 C  
HETATM    5  C   UNL     1     -10.378   4.377  65.684  1.00  0.00    -0.252 C  
HETATM    6  C   UNL     1      -9.131   5.223  65.985  1.00  0.00    -0.152 C  
ENDROOT
BRANCH   6   7
HETATM    7  C   UNL     1      -9.453   6.709  66.206  1.00  0.00    -0.120 C  
BRANCH   7   8
HETATM    8  C   UNL     1     -10.163   7.019  67.529  1.00  0.00    -0.199 C  
BRANCH   8   9
HETATM    9  O   UNL     1      -9.796   6.067  68.525  1.00  0.00    -0.122 OA 
HETATM   10  C   UNL     1      -9.381   6.590  69.817  1.00  0.00    -0.147 C  
HETATM   11  C   UNL     1     -10.568   7.317  70.498  1.00  0.00    -0.237 A  
HETATM   12  C   UNL     1      -8.985   5.364  70.690  1.00  0.00    -0.163 A  
HETATM   13  C   UNL     1      -8.137   7.491  69.602  1.00  0.00    -0.127 C  
HETATM   14  C   UNL     1     -10.481   8.641  70.969  1.00  0.00    -0.276 A  
HETATM   15  C   UNL     1      -9.549   4.094  70.445  1.00  0.00    -0.266 A  
HETATM   16  C   UNL     1      -9.320   3.016  71.305  1.00  0.00    -0.208 A  
HETATM   17  C   UNL     1     -11.553   9.245  71.636  1.00  0.00    -0.463 A  
HETATM   18  C   UNL     1     -12.730   8.536  71.848  1.00  0.00    -0.360 A  
HETATM   19  C   UNL     1      -8.499   3.171  72.416  1.00  0.00    -0.083 A  
HETATM   20 CL   UNL     1     -14.030   9.269  72.703  1.00  0.00    -0.432 Cl 
HETATM   21  C   UNL     1     -12.855   7.233  71.378  1.00  0.00    -0.425 A  
HETATM   22  C   UNL     1      -7.900   4.402  72.662  1.00  0.00    -0.086 A  
HETATM   23  C   UNL     1      -8.148   5.487  71.816  1.00  0.00    -0.118 A  
HETATM   24  C   UNL     1     -11.787   6.636  70.701  1.00  0.00    -0.443 A  
ENDBRANCH   8   9
ENDBRANCH   7   8
ENDBRANCH   6   7
TORSDOF 3
ENDMDL
MODEL      126
REMARK 921   NORMALIZED FREE ENERGY PREDICTED BY IDOCK:   -4.27 KCAL/MOL
REMARK 922        TOTAL FREE ENERGY PREDICTED BY IDOCK:   -5.71 KCAL/MOL
REMARK 923 INTER-LIGAND FREE ENERGY PREDICTED BY IDOCK:   -5.27 KCAL/MOL
REMARK 924 INTRA-LIGAND FREE ENERGY PREDICTED BY IDOCK:   -0.45 KCAL/MOL
REMARK 927      BINDING AFFINITY PREDICTED BY RF-SCORE:    0.00 PKD
ROOT
HETATM    1  C   UNL     1      -7.517   4.994  65.280  1.00  0.00    -0.077 C  
HETATM    2  N   UNL     1      -8.663   4.480  66.023  1.00  0.00    -0.114 NA 
HETATM    3  C   UNL     1      -8.318   3.245  66.733  1.00  0.00    -0.101 C  
HETATM    4  C   UNL     1      -9.446   3.121  67.731  1.00  0.00    -0.209 C  
HETATM    5  C   UNL     1      -9.658   4.550  68.194  1.00  0.00    -0.203 C  
HETATM    6  C   UNL     1      -9.179   5.434  67.032  1.00  0.00    -0.113 C  
ENDROOT
BRANCH   6   7
HETATM    7  C   UNL     1     -10.304   6.287  66.424  1.00  0.00    -0.072 C  
BRANCH   7   8
HETATM    8  C   UNL     1     -10.482   7.665  67.072  1.00  0.00    -0.349 C  
BRANCH   8   9
HETATM    9  O   UNL     1     -10.501   7.547  68.493  1.00  0.00    -0.198 OA 
HETATM   10  C   UNL     1      -9.676   8.480  69.244  1.00  0.00    -0.173 C  
HETATM   11  C   UNL     1     -10.196   9.926  69.041  1.00  0.00    -0.213 A  
HETATM   12  C   UNL     1      -9.831   8.105  70.747  1.00  0.00    -0.201 A  
HETATM   13  C   UNL     1      -8.199   8.281  68.814  1.00  0.00    -0.117 C  
HETATM   14  C   UNL     1      -9.368  10.978  68.604  1.00  0.00    -0.196 A  
HETATM   15  C   UNL     1     -10.997   7.461  71.211  1.00  0.00    -0.263 A  
HETATM   16  C   UNL     1     -11.220   7.248  72.575  1.00  0.00    -0.342 A  
HETATM   17  C   UNL     1      -9.856  12.285  68.492  1.00  0.00    -0.157 A  
HETATM   18  C   UNL     1     -11.178  12.566  68.817  1.00  0.00    -0.273 A  
HETATM   19  C   UNL     1     -10.269   7.649  73.507  1.00  0.00    -0.332 A  
HETATM   20 CL   UNL     1     -11.762  14.180  68.716  1.00  0.00    -0.359 Cl 
HETATM   21  C   UNL     1     -12.026  11.545  69.233  1.00  0.00    -0.397 A  
HETATM   22  C   UNL     1      -9.093   8.254  73.076  1.00  0.00    -0.319 A  
HETATM   23  C   UNL     1      -8.881   8.488  71.714  1.00  0.00    -0.278 A  
HETATM   24  C   UNL     1     -11.541  10.238  69.332  1.00  0.00    -0.213 A  
ENDBRANCH   8   9
ENDBRANCH   7   8
ENDBRANCH   6   7
TORSDOF 3
ENDMDL
MODEL      127
REMARK 921   NORMALIZED FREE ENERGY PREDICTED BY IDOCK:   -4.27 KCAL/MOL
REMARK 922        TOTAL FREE ENERGY PREDICTED BY IDOCK:   -5.71 KCAL/MOL
REMARK 923 INTER-LIGAND FREE ENERGY PREDICTED BY IDOCK:   -5.12 KCAL/MOL
REMARK 924 INTRA-LIGAND FREE ENERGY PREDICTED BY IDOCK:   -0.59 KCAL/MOL
REMARK 927      BINDING AFFINITY PREDICTED BY RF-SCORE:    0.00 PKD
ROOT
HETATM    1  C   UNL     1     -10.786   9.160  69.480  1.00  0.00    -0.215 C  
HETATM    2  N   UNL     1      -9.542   9.222  68.717  1.00  0.00    -0.153 NA 
HETATM    3  C   UNL     1      -9.098   7.881  68.328  1.00  0.00    -0.134 C  
HETATM    4  C   UNL     1      -8.092   8.179  67.240  1.00  0.00    -0.121 C  
HETATM    5  C   UNL     1      -8.740   9.313  66.469  1.00  0.00    -0.145 C  
HETATM    6  C   UNL     1      -9.660  10.022  67.476  1.00  0.00    -0.153 C  
ENDROOT
BRANCH   6   7
HETATM    7  C   UNL     1      -9.247  11.477  67.745  1.00  0.00    -0.165 C  
BRANCH   7   8
HETATM    8  C   UNL     1      -9.682  12.475  66.665  1.00  0.00    -0.242 C  
BRANCH   8   9
HETATM    9  O   UNL     1      -8.832  13.620  66.675  1.00  0.00    -0.181 OA 
HETATM   10  C   UNL     1      -9.478  14.922  66.626  1.00  0.00    -0.265 C  
HETATM   11  C   UNL     1     -10.318  15.143  67.909  1.00  0.00    -0.241 A  
HETATM   12  C   UNL     1      -8.340  15.984  66.590  1.00  0.00    -0.331 A  
HETATM   13  C   UNL     1     -10.303  15.008  65.315  1.00  0.00    -0.424 C  
HETATM   14  C   UNL     1     -11.682  15.493  67.875  1.00  0.00    -0.149 A  
HETATM   15  C   UNL     1      -7.074  15.701  67.142  1.00  0.00    -0.203 A  
HETATM   16  C   UNL     1      -6.088  16.686  67.252  1.00  0.00    -0.195 A  
HETATM   17  C   UNL     1     -12.394  15.746  69.052  1.00  0.00     0.121 A  
HETATM   18  C   UNL     1     -11.757  15.659  70.285  1.00  0.00    -0.357 A  
HETATM   19  C   UNL     1      -6.334  17.974  66.788  1.00  0.00    -0.213 A  
HETATM   20 CL   UNL     1     -12.627  16.010  71.726  1.00  0.00    -0.477 Cl 
HETATM   21  C   UNL     1     -10.416  15.297  70.354  1.00  0.00    -0.168 A  
HETATM   22  C   UNL     1      -7.561  18.273  66.206  1.00  0.00    -0.291 A  
HETATM   23  C   UNL     1      -8.556  17.294  66.117  1.00  0.00    -0.207 A  
HETATM   24  C   UNL     1      -9.709  15.032  69.177  1.00  0.00    -0.212 A  
ENDBRANCH   8   9
ENDBRANCH   7   8
ENDBRANCH   6   7
TORSDOF 3
ENDMDL
MODEL      128
REMARK 921   NORMALIZED FREE ENERGY PREDICTED BY IDOCK:   -4.25 KCAL/MOL
REMARK 922        TOTAL FREE ENERGY PREDICTED BY IDOCK:   -5.69 KCAL/MOL
REMARK 923 INTER-LIGAND FREE ENERGY PREDICTED BY IDOCK:   -5.22 KCAL/MOL
REMARK 924 INTRA-LIGAND FREE ENERGY PREDICTED BY IDOCK:   -0.48 KCAL/MOL
REMARK 927      BINDING AFFINITY PREDICTED BY RF-SCORE:    0.00 PKD
ROOT
HETATM    1  C   UNL     1     -10.766   8.349  72.500  1.00  0.00    -0.302 C  
HETATM    2  N   UNL     1     -10.335   6.971  72.720  1.00  0.00    -0.206 NA 
HETATM    3  C   UNL     1     -10.247   6.670  74.151  1.00  0.00    -0.363 C  
HETATM    4  C   UNL     1     -10.210   5.159  74.160  1.00  0.00    -0.280 C  
HETATM    5  C   UNL     1     -11.215   4.781  73.088  1.00  0.00    -0.390 C  
HETATM    6  C   UNL     1     -11.248   5.972  72.117  1.00  0.00    -0.291 C  
ENDROOT
BRANCH   6   7
HETATM    7  C   UNL     1     -10.771   5.607  70.703  1.00  0.00    -0.333 C  
BRANCH   7   8
HETATM    8  C   UNL     1      -9.430   6.233  70.299  1.00  0.00    -0.161 C  
BRANCH   8   9
HETATM    9  O   UNL     1      -9.644   7.363  69.456  1.00  0.00    -0.156 OA 
HETATM   10  C   UNL     1      -8.790   7.484  68.285  1.00  0.00    -0.125 C  
HETATM   11  C   UNL     1      -9.060   6.310  67.311  1.00  0.00    -0.116 A  
HETATM   12  C   UNL     1      -9.185   8.814  67.579  1.00  0.00    -0.154 A  
HETATM   13  C   UNL     1      -7.317   7.574  68.763  1.00  0.00    -0.095 C  
HETATM   14  C   UNL     1      -8.038   5.471  66.828  1.00  0.00    -0.105 A  
HETATM   15  C   UNL     1     -10.483   9.349  67.725  1.00  0.00    -0.310 A  
HETATM   16  C   UNL     1     -10.903  10.458  66.986  1.00  0.00    -0.269 A  
HETATM   17  C   UNL     1      -8.309   4.459  65.900  1.00  0.00    -0.113 A  
HETATM   18  C   UNL     1      -9.606   4.269  65.435  1.00  0.00    -0.187 A  
HETATM   19  C   UNL     1     -10.027  11.079  66.102  1.00  0.00    -0.277 A  
HETATM   20 CL   UNL     1      -9.926   3.051  64.265  1.00  0.00    -0.149 Cl 
HETATM   21  C   UNL     1     -10.641   5.069  65.907  1.00  0.00    -0.234 A  
HETATM   22  C   UNL     1      -8.730  10.596  65.964  1.00  0.00    -0.186 A  
HETATM   23  C   UNL     1      -8.317   9.472  66.686  1.00  0.00    -0.116 A  
HETATM   24  C   UNL     1     -10.370   6.071  66.844  1.00  0.00    -0.303 A  
ENDBRANCH   8   9
ENDBRANCH   7   8
ENDBRANCH   6   7
TORSDOF 3
ENDMDL
MODEL      129
REMARK 921   NORMALIZED FREE ENERGY PREDICTED BY IDOCK:   -4.24 KCAL/MOL
REMARK 922        TOTAL FREE ENERGY PREDICTED BY IDOCK:   -5.68 KCAL/MOL
REMARK 923 INTER-LIGAND FREE ENERGY PREDICTED BY IDOCK:   -5.22 KCAL/MOL
REMARK 924 INTRA-LIGAND FREE ENERGY PREDICTED BY IDOCK:   -0.46 KCAL/MOL
REMARK 927      BINDING AFFINITY PREDICTED BY RF-SCORE:    0.00 PKD
ROOT
HETATM    1  C   UNL     1     -13.269  10.393  72.026  1.00  0.00    -0.392 C  
HETATM    2  N   UNL     1     -13.207  11.552  71.140  1.00  0.00    -0.065 NA 
HETATM    3  C   UNL     1     -13.397  12.797  71.890  1.00  0.00    -0.413 C  
HETATM    4  C   UNL     1     -12.892  13.838  70.919  1.00  0.00    -0.341 C  
HETATM    5  C   UNL     1     -11.668  13.179  70.309  1.00  0.00    -0.203 C  
HETATM    6  C   UNL     1     -11.917  11.667  70.421  1.00  0.00    -0.358 C  
ENDROOT
BRANCH   6   7
HETATM    7  C   UNL     1     -12.012  10.971  69.054  1.00  0.00    -0.364 C  
BRANCH   7   8
HETATM    8  C   UNL     1     -11.139   9.719  68.913  1.00  0.00    -0.099 C  
BRANCH   8   9
HETATM    9  O   UNL     1     -10.684   9.284  70.192  1.00  0.00    -0.213 OA 
HETATM   10  C   UNL     1     -10.915   7.889  70.536  1.00  0.00    -0.248 C  
HETATM   11  C   UNL     1     -10.107   6.970  69.585  1.00  0.00    -0.194 A  
HETATM   12  C   UNL     1     -10.383   7.692  71.986  1.00  0.00    -0.252 A  
HETATM   13  C   UNL     1     -12.444   7.627  70.509  1.00  0.00     0.221 C  
HETATM   14  C   UNL     1     -10.701   5.928  68.848  1.00  0.00    -0.370 A  
HETATM   15  C   UNL     1      -9.361   8.519  72.496  1.00  0.00    -0.316 A  
HETATM   16  C   UNL     1      -8.768   8.266  73.737  1.00  0.00    -0.221 A  
HETATM   17  C   UNL     1      -9.931   5.078  68.047  1.00  0.00    -0.189 A  
HETATM   18  C   UNL     1      -8.553   5.250  67.971  1.00  0.00    -0.103 A  
HETATM   19  C   UNL     1      -9.202   7.196  74.512  1.00  0.00    -0.156 A  
HETATM   20 CL   UNL     1      -7.606   4.177  67.016  1.00  0.00    -0.077 Cl 
HETATM   21  C   UNL     1      -7.939   6.282  68.671  1.00  0.00    -0.105 A  
HETATM   22  C   UNL     1     -10.234   6.385  74.050  1.00  0.00    -0.349 A  
HETATM   23  C   UNL     1     -10.810   6.624  72.799  1.00  0.00    -0.283 A  
HETATM   24  C   UNL     1      -8.712   7.139  69.461  1.00  0.00    -0.134 A  
ENDBRANCH   8   9
ENDBRANCH   7   8
ENDBRANCH   6   7
TORSDOF 3
ENDMDL
MODEL      130
REMARK 921   NORMALIZED FREE ENERGY PREDICTED BY IDOCK:   -4.23 KCAL/MOL
REMARK 922        TOTAL FREE ENERGY PREDICTED BY IDOCK:   -5.67 KCAL/MOL
REMARK 923 INTER-LIGAND FREE ENERGY PREDICTED BY IDOCK:   -5.06 KCAL/MOL
REMARK 924 INTRA-LIGAND FREE ENERGY PREDICTED BY IDOCK:   -0.61 KCAL/MOL
REMARK 927      BINDING AFFINITY PREDICTED BY RF-SCORE:    0.00 PKD
ROOT
HETATM    1  C   UNL     1      -6.879   5.145  63.834  1.00  0.00    -0.047 C  
HETATM    2  N   UNL     1      -8.311   5.197  64.109  1.00  0.00    -0.134 NA 
HETATM    3  C   UNL     1      -8.958   3.926  63.769  1.00  0.00    -0.115 C  
HETATM    4  C   UNL     1     -10.279   4.034  64.494  1.00  0.00    -0.222 C  
HETATM    5  C   UNL     1      -9.899   4.674  65.816  1.00  0.00    -0.227 C  
HETATM    6  C   UNL     1      -8.622   5.479  65.530  1.00  0.00    -0.150 C  
ENDROOT
BRANCH   6   7
HETATM    7  C   UNL     1      -8.805   6.990  65.740  1.00  0.00    -0.088 C  
BRANCH   7   8
HETATM    8  C   UNL     1      -8.178   7.537  67.027  1.00  0.00    -0.124 C  
BRANCH   8   9
HETATM    9  O   UNL     1      -9.065   7.354  68.128  1.00  0.00    -0.132 OA 
HETATM   10  C   UNL     1      -9.082   8.396  69.143  1.00  0.00    -0.147 C  
HETATM   11  C   UNL     1      -9.608   9.720  68.532  1.00  0.00    -0.155 A  
HETATM   12  C   UNL     1     -10.078   7.931  70.246  1.00  0.00    -0.196 A  
HETATM   13  C   UNL     1      -7.659   8.509  69.750  1.00  0.00    -0.083 C  
HETATM   14  C   UNL     1      -8.897  10.932  68.617  1.00  0.00    -0.158 A  
HETATM   15  C   UNL     1     -11.135   7.051  69.935  1.00  0.00    -0.301 A  
HETATM   16  C   UNL     1     -12.123   6.737  70.874  1.00  0.00    -0.421 A  
HETATM   17  C   UNL     1      -9.430  12.122  68.108  1.00  0.00    -0.205 A  
HETATM   18  C   UNL     1     -10.685  12.123  67.509  1.00  0.00    -0.232 A  
HETATM   19  C   UNL     1     -12.064   7.273  72.155  1.00  0.00    -0.287 A  
HETATM   20 CL   UNL     1     -11.353  13.595  66.922  1.00  0.00    -0.330 Cl 
HETATM   21  C   UNL     1     -11.404  10.939  67.393  1.00  0.00    -0.273 A  
HETATM   22  C   UNL     1     -11.012   8.116  72.501  1.00  0.00    -0.439 A  
HETATM   23  C   UNL     1     -10.037   8.448  71.555  1.00  0.00    -0.293 A  
HETATM   24  C   UNL     1     -10.864   9.748  67.890  1.00  0.00    -0.298 A  
ENDBRANCH   8   9
ENDBRANCH   7   8
ENDBRANCH   6   7
TORSDOF 3
ENDMDL
MODEL      131
REMARK 921   NORMALIZED FREE ENERGY PREDICTED BY IDOCK:   -4.21 KCAL/MOL
REMARK 922        TOTAL FREE ENERGY PREDICTED BY IDOCK:   -5.65 KCAL/MOL
REMARK 923 INTER-LIGAND FREE ENERGY PREDICTED BY IDOCK:   -4.82 KCAL/MOL
REMARK 924 INTRA-LIGAND FREE ENERGY PREDICTED BY IDOCK:   -0.83 KCAL/MOL
REMARK 927      BINDING AFFINITY PREDICTED BY RF-SCORE:    0.00 PKD
ROOT
HETATM    1  C   UNL     1      -7.295   7.293  69.865  1.00  0.00    -0.084 C  
HETATM    2  N   UNL     1      -8.133   6.317  69.175  1.00  0.00    -0.109 NA 
HETATM    3  C   UNL     1      -8.666   5.326  70.113  1.00  0.00    -0.121 C  
HETATM    4  C   UNL     1      -9.790   4.703  69.319  1.00  0.00    -0.260 C  
HETATM    5  C   UNL     1     -10.415   5.891  68.611  1.00  0.00    -0.302 C  
HETATM    6  C   UNL     1      -9.290   6.930  68.482  1.00  0.00    -0.134 C  
ENDROOT
BRANCH   6   7
HETATM    7  C   UNL     1      -8.926   7.241  67.021  1.00  0.00    -0.140 C  
BRANCH   7   8
HETATM    8  C   UNL     1      -9.247   8.672  66.573  1.00  0.00    -0.187 C  
BRANCH   8   9
HETATM    9  O   UNL     1      -8.403   9.604  67.246  1.00  0.00    -0.114 OA 
HETATM   10  C   UNL     1      -8.992  10.884  67.608  1.00  0.00    -0.140 C  
HETATM   11  C   UNL     1     -10.120  10.672  68.649  1.00  0.00    -0.194 A  
HETATM   12  C   UNL     1      -7.860  11.725  68.269  1.00  0.00    -0.137 A  
HETATM   13  C   UNL     1      -9.464  11.589  66.309  1.00  0.00    -0.235 C  
HETATM   14  C   UNL     1     -11.425  11.168  68.469  1.00  0.00    -0.371 A  
HETATM   15  C   UNL     1      -6.776  11.093  68.912  1.00  0.00    -0.077 A  
HETATM   16  C   UNL     1      -5.830  11.824  69.637  1.00  0.00    -0.097 A  
HETATM   17  C   UNL     1     -12.402  11.011  69.458  1.00  0.00    -0.266 A  
HETATM   18  C   UNL     1     -12.093  10.360  70.647  1.00  0.00    -0.348 A  
HETATM   19  C   UNL     1      -5.927  13.209  69.713  1.00  0.00    -0.127 A  
HETATM   20 CL   UNL     1     -13.286  10.206  71.875  1.00  0.00    -0.518 Cl 
HETATM   21  C   UNL     1     -10.818   9.842  70.848  1.00  0.00    -0.357 A  
HETATM   22  C   UNL     1      -6.966  13.863  69.058  1.00  0.00    -0.109 A  
HETATM   23  C   UNL     1      -7.926  13.130  68.353  1.00  0.00    -0.130 A  
HETATM   24  C   UNL     1      -9.847   9.988  69.853  1.00  0.00    -0.266 A  
ENDBRANCH   8   9
ENDBRANCH   7   8
ENDBRANCH   6   7
TORSDOF 3
ENDMDL
MODEL      132
REMARK 921   NORMALIZED FREE ENERGY PREDICTED BY IDOCK:   -4.20 KCAL/MOL
REMARK 922        TOTAL FREE ENERGY PREDICTED BY IDOCK:   -5.64 KCAL/MOL
REMARK 923 INTER-LIGAND FREE ENERGY PREDICTED BY IDOCK:   -4.65 KCAL/MOL
REMARK 924 INTRA-LIGAND FREE ENERGY PREDICTED BY IDOCK:   -0.98 KCAL/MOL
REMARK 927      BINDING AFFINITY PREDICTED BY RF-SCORE:    0.00 PKD
ROOT
HETATM    1  C   UNL     1     -10.109  13.896  67.921  1.00  0.00    -0.242 C  
HETATM    2  N   UNL     1     -10.465  12.630  68.554  1.00  0.00    -0.239 NA 
HETATM    3  C   UNL     1     -11.870  12.627  68.970  1.00  0.00    -0.294 C  
HETATM    4  C   UNL     1     -12.137  11.157  69.194  1.00  0.00    -0.352 C  
HETATM    5  C   UNL     1     -11.402  10.492  68.045  1.00  0.00    -0.319 C  
HETATM    6  C   UNL     1     -10.269  11.460  67.667  1.00  0.00    -0.180 C  
ENDROOT
BRANCH   6   7
HETATM    7  C   UNL     1      -8.870  10.861  67.885  1.00  0.00    -0.134 C  
BRANCH   7   8
HETATM    8  C   UNL     1      -8.686  10.139  69.225  1.00  0.00    -0.179 C  
BRANCH   8   9
HETATM    9  O   UNL     1      -8.309   8.781  69.009  1.00  0.00    -0.125 OA 
HETATM   10  C   UNL     1      -8.372   7.889  70.156  1.00  0.00    -0.127 C  
HETATM   11  C   UNL     1      -9.841   7.737  70.627  1.00  0.00    -0.182 A  
HETATM   12  C   UNL     1      -7.862   6.500  69.671  1.00  0.00    -0.111 A  
HETATM   13  C   UNL     1      -7.418   8.433  71.251  1.00  0.00    -0.093 C  
HETATM   14  C   UNL     1     -10.243   7.974  71.955  1.00  0.00    -0.288 A  
HETATM   15  C   UNL     1      -7.973   6.126  68.316  1.00  0.00    -0.107 A  
HETATM   16  C   UNL     1      -7.657   4.833  67.887  1.00  0.00    -0.082 A  
HETATM   17  C   UNL     1     -11.566   7.767  72.360  1.00  0.00    -0.410 A  
HETATM   18  C   UNL     1     -12.512   7.315  71.446  1.00  0.00    -0.383 A  
HETATM   19  C   UNL     1      -7.197   3.889  68.797  1.00  0.00    -0.054 A  
HETATM   20 CL   UNL     1     -14.128   7.024  71.957  1.00  0.00    -0.331 Cl 
HETATM   21  C   UNL     1     -12.151   7.090  70.122  1.00  0.00    -0.054 A  
HETATM   22  C   UNL     1      -7.044   4.240  70.135  1.00  0.00    -0.042 A  
HETATM   23  C   UNL     1      -7.381   5.526  70.568  1.00  0.00    -0.075 A  
HETATM   24  C   UNL     1     -10.831   7.310  69.717  1.00  0.00    -0.251 A  
ENDBRANCH   8   9
ENDBRANCH   7   8
ENDBRANCH   6   7
TORSDOF 3
ENDMDL
MODEL      133
REMARK 921   NORMALIZED FREE ENERGY PREDICTED BY IDOCK:   -4.20 KCAL/MOL
REMARK 922        TOTAL FREE ENERGY PREDICTED BY IDOCK:   -5.63 KCAL/MOL
REMARK 923 INTER-LIGAND FREE ENERGY PREDICTED BY IDOCK:   -5.09 KCAL/MOL
REMARK 924 INTRA-LIGAND FREE ENERGY PREDICTED BY IDOCK:   -0.54 KCAL/MOL
REMARK 927      BINDING AFFINITY PREDICTED BY RF-SCORE:    0.00 PKD
ROOT
HETATM    1  C   UNL     1     -12.072  14.765  64.646  1.00  0.00    -0.427 C  
HETATM    2  N   UNL     1     -11.403  14.238  65.831  1.00  0.00    -0.322 NA 
HETATM    3  C   UNL     1     -11.599  15.123  66.983  1.00  0.00    -0.174 C  
HETATM    4  C   UNL     1     -11.220  14.232  68.142  1.00  0.00    -0.295 C  
HETATM    5  C   UNL     1     -11.819  12.891  67.760  1.00  0.00    -0.391 C  
HETATM    6  C   UNL     1     -11.887  12.895  66.224  1.00  0.00    -0.416 C  
ENDROOT
BRANCH   6   7
HETATM    7  C   UNL     1     -11.010  11.809  65.582  1.00  0.00    -0.348 C  
BRANCH   7   8
HETATM    8  C   UNL     1      -9.928  11.234  66.503  1.00  0.00    -0.212 C  
BRANCH   8   9
HETATM    9  O   UNL     1     -10.086   9.823  66.635  1.00  0.00    -0.215 OA 
HETATM   10  C   UNL     1      -8.875   9.018  66.614  1.00  0.00    -0.132 C  
HETATM   11  C   UNL     1      -7.997   9.353  67.846  1.00  0.00    -0.092 A  
HETATM   12  C   UNL     1      -9.325   7.531  66.716  1.00  0.00    -0.209 A  
HETATM   13  C   UNL     1      -8.161   9.247  65.256  1.00  0.00    -0.136 C  
HETATM   14  C   UNL     1      -6.644   9.729  67.737  1.00  0.00    -0.068 A  
HETATM   15  C   UNL     1     -10.544   7.189  67.338  1.00  0.00    -0.372 A  
HETATM   16  C   UNL     1     -10.896   5.856  67.571  1.00  0.00    -0.335 A  
HETATM   17  C   UNL     1      -5.864   9.964  68.874  1.00  0.00    -0.034 A  
HETATM   18  C   UNL     1      -6.418   9.822  70.142  1.00  0.00    -0.083 A  
HETATM   19  C   UNL     1     -10.051   4.830  67.162  1.00  0.00    -0.210 A  
HETATM   20 CL   UNL     1      -5.444  10.073  71.536  1.00  0.00    -0.067 Cl 
HETATM   21  C   UNL     1      -7.756   9.471  70.283  1.00  0.00    -0.170 A  
HETATM   22  C   UNL     1      -8.859   5.136  66.514  1.00  0.00    -0.117 A  
HETATM   23  C   UNL     1      -8.496   6.470  66.303  1.00  0.00    -0.129 A  
HETATM   24  C   UNL     1      -8.538   9.250  69.145  1.00  0.00    -0.134 A  
ENDBRANCH   8   9
ENDBRANCH   7   8
ENDBRANCH   6   7
TORSDOF 3
ENDMDL
MODEL      134
REMARK 921   NORMALIZED FREE ENERGY PREDICTED BY IDOCK:   -4.12 KCAL/MOL
REMARK 922        TOTAL FREE ENERGY PREDICTED BY IDOCK:   -5.54 KCAL/MOL
REMARK 923 INTER-LIGAND FREE ENERGY PREDICTED BY IDOCK:   -5.53 KCAL/MOL
REMARK 924 INTRA-LIGAND FREE ENERGY PREDICTED BY IDOCK:   -0.01 KCAL/MOL
REMARK 927      BINDING AFFINITY PREDICTED BY RF-SCORE:    0.00 PKD
ROOT
HETATM    1  C   UNL     1     -10.964  11.548  69.030  1.00  0.00    -0.234 C  
HETATM    2  N   UNL     1     -11.455  11.432  70.400  1.00  0.00    -0.170 NA 
HETATM    3  C   UNL     1     -12.610  12.305  70.620  1.00  0.00    -0.156 C  
HETATM    4  C   UNL     1     -13.200  11.745  71.893  1.00  0.00    -0.468 C  
HETATM    5  C   UNL     1     -13.063  10.245  71.707  1.00  0.00    -0.570 C  
HETATM    6  C   UNL     1     -11.872  10.056  70.754  1.00  0.00    -0.346 C  
ENDROOT
BRANCH   6   7
HETATM    7  C   UNL     1     -10.701   9.299  71.401  1.00  0.00    -0.432 C  
BRANCH   7   8
HETATM    8  C   UNL     1     -11.094   8.399  72.578  1.00  0.00    -0.326 C  
BRANCH   8   9
HETATM    9  O   UNL     1     -10.089   7.413  72.806  1.00  0.00    -0.189 OA 
HETATM   10  C   UNL     1     -10.214   6.162  72.076  1.00  0.00    -0.194 C  
HETATM   11  C   UNL     1     -10.063   6.420  70.556  1.00  0.00    -0.221 A  
HETATM   12  C   UNL     1      -9.040   5.252  72.543  1.00  0.00    -0.144 A  
HETATM   13  C   UNL     1     -11.562   5.502  72.467  1.00  0.00    -0.272 C  
HETATM   14  C   UNL     1     -11.019   5.997  69.613  1.00  0.00    -0.470 A  
HETATM   15  C   UNL     1      -7.844   5.816  73.034  1.00  0.00    -0.104 A  
HETATM   16  C   UNL     1      -6.727   5.025  73.319  1.00  0.00    -0.068 A  
HETATM   17  C   UNL     1     -10.820   6.191  68.242  1.00  0.00    -0.387 A  
HETATM   18  C   UNL     1      -9.660   6.808  67.786  1.00  0.00    -0.124 A  
HETATM   19  C   UNL     1      -6.786   3.647  73.148  1.00  0.00    -0.040 A  
HETATM   20 CL   UNL     1      -9.402   7.009  66.098  1.00  0.00    -0.140 Cl 
HETATM   21  C   UNL     1      -8.705   7.254  68.693  1.00  0.00    -0.127 A  
HETATM   22  C   UNL     1      -7.964   3.059  72.700  1.00  0.00    -0.063 A  
HETATM   23  C   UNL     1      -9.074   3.852  72.392  1.00  0.00    -0.142 A  
HETATM   24  C   UNL     1      -8.912   7.071  70.064  1.00  0.00    -0.142 A  
ENDBRANCH   8   9
ENDBRANCH   7   8
ENDBRANCH   6   7
TORSDOF 3
ENDMDL
MODEL      135
REMARK 921   NORMALIZED FREE ENERGY PREDICTED BY IDOCK:   -4.11 KCAL/MOL
REMARK 922        TOTAL FREE ENERGY PREDICTED BY IDOCK:   -5.53 KCAL/MOL
REMARK 923 INTER-LIGAND FREE ENERGY PREDICTED BY IDOCK:   -4.93 KCAL/MOL
REMARK 924 INTRA-LIGAND FREE ENERGY PREDICTED BY IDOCK:   -0.60 KCAL/MOL
REMARK 927      BINDING AFFINITY PREDICTED BY RF-SCORE:    0.00 PKD
ROOT
HETATM    1  C   UNL     1     -11.482   6.508  71.097  1.00  0.00    -0.326 C  
HETATM    2  N   UNL     1     -10.569   7.565  71.523  1.00  0.00    -0.213 NA 
HETATM    3  C   UNL     1      -9.605   7.062  72.505  1.00  0.00    -0.145 C  
HETATM    4  C   UNL     1      -8.541   8.135  72.490  1.00  0.00    -0.255 C  
HETATM    5  C   UNL     1      -8.424   8.487  71.018  1.00  0.00    -0.185 C  
HETATM    6  C   UNL     1      -9.791   8.148  70.405  1.00  0.00    -0.186 C  
ENDROOT
BRANCH   6   7
HETATM    7  C   UNL     1     -10.519   9.379  69.842  1.00  0.00    -0.257 C  
BRANCH   7   8
HETATM    8  C   UNL     1      -9.593  10.488  69.326  1.00  0.00    -0.181 C  
BRANCH   8   9
HETATM    9  O   UNL     1      -9.963  10.866  68.002  1.00  0.00    -0.165 OA 
HETATM   10  C   UNL     1      -9.143  10.353  66.916  1.00  0.00    -0.143 C  
HETATM   11  C   UNL     1      -9.264   8.809  66.848  1.00  0.00    -0.195 A  
HETATM   12  C   UNL     1      -9.718  10.953  65.600  1.00  0.00    -0.279 A  
HETATM   13  C   UNL     1      -7.691  10.858  67.120  1.00  0.00    -0.123 C  
HETATM   14  C   UNL     1      -8.143   7.957  66.865  1.00  0.00    -0.115 A  
HETATM   15  C   UNL     1     -11.073  11.335  65.514  1.00  0.00    -0.138 A  
HETATM   16  C   UNL     1     -11.643  11.737  64.303  1.00  0.00    -0.361 A  
HETATM   17  C   UNL     1      -8.286   6.571  66.739  1.00  0.00    -0.110 A  
HETATM   18  C   UNL     1      -9.550   6.011  66.588  1.00  0.00    -0.154 A  
HETATM   19  C   UNL     1     -10.866  11.795  63.151  1.00  0.00    -0.299 A  
HETATM   20 CL   UNL     1      -9.716   4.310  66.392  1.00  0.00    -0.211 Cl 
HETATM   21  C   UNL     1     -10.677   6.824  66.586  1.00  0.00    -0.187 A  
HETATM   22  C   UNL     1      -9.518  11.459  63.213  1.00  0.00    -0.330 A  
HETATM   23  C   UNL     1      -8.953  11.034  64.419  1.00  0.00    -0.053 A  
HETATM   24  C   UNL     1     -10.534   8.208  66.726  1.00  0.00    -0.316 A  
ENDBRANCH   8   9
ENDBRANCH   7   8
ENDBRANCH   6   7
TORSDOF 3
ENDMDL
MODEL      136
REMARK 921   NORMALIZED FREE ENERGY PREDICTED BY IDOCK:   -4.11 KCAL/MOL
REMARK 922        TOTAL FREE ENERGY PREDICTED BY IDOCK:   -5.52 KCAL/MOL
REMARK 923 INTER-LIGAND FREE ENERGY PREDICTED BY IDOCK:   -4.87 KCAL/MOL
REMARK 924 INTRA-LIGAND FREE ENERGY PREDICTED BY IDOCK:   -0.65 KCAL/MOL
REMARK 927      BINDING AFFINITY PREDICTED BY RF-SCORE:    0.00 PKD
ROOT
HETATM    1  C   UNL     1      -6.979  11.030  69.040  1.00  0.00    -0.097 C  
HETATM    2  N   UNL     1      -6.796   9.689  68.494  1.00  0.00    -0.057 NA 
HETATM    3  C   UNL     1      -5.877   9.707  67.353  1.00  0.00    -0.044 C  
HETATM    4  C   UNL     1      -5.504   8.249  67.216  1.00  0.00    -0.038 C  
HETATM    5  C   UNL     1      -5.351   7.794  68.655  1.00  0.00    -0.027 C  
HETATM    6  C   UNL     1      -6.251   8.728  69.480  1.00  0.00    -0.040 C  
ENDROOT
BRANCH   6   7
HETATM    7  C   UNL     1      -7.398   7.987  70.185  1.00  0.00    -0.061 C  
BRANCH   7   8
HETATM    8  C   UNL     1      -8.602   7.674  69.289  1.00  0.00    -0.136 C  
BRANCH   8   9
HETATM    9  O   UNL     1      -9.816   8.038  69.943  1.00  0.00    -0.182 OA 
HETATM   10  C   UNL     1     -10.740   6.963  70.266  1.00  0.00    -0.242 C  
HETATM   11  C   UNL     1     -10.098   6.007  71.303  1.00  0.00    -0.237 A  
HETATM   12  C   UNL     1     -11.991   7.627  70.912  1.00  0.00    -0.252 A  
HETATM   13  C   UNL     1     -11.155   6.263  68.945  1.00  0.00    -0.434 C  
HETATM   14  C   UNL     1      -9.999   4.618  71.099  1.00  0.00    -0.265 A  
HETATM   15  C   UNL     1     -11.884   8.864  71.581  1.00  0.00    -0.415 A  
HETATM   16  C   UNL     1     -12.959   9.405  72.293  1.00  0.00    -0.479 A  
HETATM   17  C   UNL     1      -9.470   3.777  72.084  1.00  0.00    -0.194 A  
HETATM   18  C   UNL     1      -9.033   4.308  73.293  1.00  0.00    -0.104 A  
HETATM   19  C   UNL     1     -14.177   8.736  72.331  1.00  0.00    -0.464 A  
HETATM   20 CL   UNL     1      -8.420   3.266  74.516  1.00  0.00    -0.075 Cl 
HETATM   21  C   UNL     1      -9.100   5.678  73.518  1.00  0.00    -0.131 A  
HETATM   22  C   UNL     1     -14.323   7.532  71.650  1.00  0.00    -0.621 A  
HETATM   23  C   UNL     1     -13.241   6.979  70.958  1.00  0.00    -0.124 A  
HETATM   24  C   UNL     1      -9.617   6.519  72.527  1.00  0.00    -0.156 A  
ENDBRANCH   8   9
ENDBRANCH   7   8
ENDBRANCH   6   7
TORSDOF 3
ENDMDL
MODEL      137
REMARK 921   NORMALIZED FREE ENERGY PREDICTED BY IDOCK:   -4.09 KCAL/MOL
REMARK 922        TOTAL FREE ENERGY PREDICTED BY IDOCK:   -5.50 KCAL/MOL
REMARK 923 INTER-LIGAND FREE ENERGY PREDICTED BY IDOCK:   -5.36 KCAL/MOL
REMARK 924 INTRA-LIGAND FREE ENERGY PREDICTED BY IDOCK:   -0.14 KCAL/MOL
REMARK 927      BINDING AFFINITY PREDICTED BY RF-SCORE:    0.00 PKD
ROOT
HETATM    1  C   UNL     1     -11.534  14.101  66.651  1.00  0.00    -0.366 C  
HETATM    2  N   UNL     1     -11.378  14.503  68.045  1.00  0.00    -0.291 NA 
HETATM    3  C   UNL     1     -11.864  15.870  68.256  1.00  0.00    -0.057 C  
HETATM    4  C   UNL     1     -12.009  15.932  69.758  1.00  0.00    -0.276 C  
HETATM    5  C   UNL     1     -12.581  14.571  70.109  1.00  0.00    -0.339 C  
HETATM    6  C   UNL     1     -12.113  13.628  68.989  1.00  0.00    -0.309 C  
ENDROOT
BRANCH   6   7
HETATM    7  C   UNL     1     -11.191  12.507  69.495  1.00  0.00    -0.163 C  
BRANCH   7   8
HETATM    8  C   UNL     1     -11.439  11.137  68.853  1.00  0.00    -0.295 C  
BRANCH   8   9
HETATM    9  O   UNL     1     -10.803  11.063  67.579  1.00  0.00    -0.226 OA 
HETATM   10  C   UNL     1      -9.497  10.426  67.530  1.00  0.00    -0.149 C  
HETATM   11  C   UNL     1      -9.625   8.928  67.905  1.00  0.00    -0.171 A  
HETATM   12  C   UNL     1      -9.006  10.527  66.055  1.00  0.00    -0.185 A  
HETATM   13  C   UNL     1      -8.532  11.221  68.448  1.00  0.00    -0.153 C  
HETATM   14  C   UNL     1      -8.855   8.330  68.920  1.00  0.00    -0.140 A  
HETATM   15  C   UNL     1      -9.930  10.620  64.994  1.00  0.00    -0.369 A  
HETATM   16  C   UNL     1      -9.517  10.563  63.659  1.00  0.00    -0.347 A  
HETATM   17  C   UNL     1      -8.951   6.960  69.191  1.00  0.00    -0.133 A  
HETATM   18  C   UNL     1      -9.816   6.162  68.449  1.00  0.00    -0.126 A  
HETATM   19  C   UNL     1      -8.167  10.440  63.352  1.00  0.00    -0.142 A  
HETATM   20 CL   UNL     1      -9.901   4.473  68.758  1.00  0.00    -0.214 Cl 
HETATM   21  C   UNL     1     -10.604   6.727  67.452  1.00  0.00    -0.372 A  
HETATM   22  C   UNL     1      -7.229  10.383  64.377  1.00  0.00     0.002 A  
HETATM   23  C   UNL     1      -7.644  10.416  65.713  1.00  0.00    -0.147 A  
HETATM   24  C   UNL     1     -10.516   8.098  67.192  1.00  0.00    -0.396 A  
ENDBRANCH   8   9
ENDBRANCH   7   8
ENDBRANCH   6   7
TORSDOF 3
ENDMDL
MODEL      138
REMARK 921   NORMALIZED FREE ENERGY PREDICTED BY IDOCK:   -4.09 KCAL/MOL
REMARK 922        TOTAL FREE ENERGY PREDICTED BY IDOCK:   -5.50 KCAL/MOL
REMARK 923 INTER-LIGAND FREE ENERGY PREDICTED BY IDOCK:   -5.05 KCAL/MOL
REMARK 924 INTRA-LIGAND FREE ENERGY PREDICTED BY IDOCK:   -0.45 KCAL/MOL
REMARK 927      BINDING AFFINITY PREDICTED BY RF-SCORE:    0.00 PKD
ROOT
HETATM    1  C   UNL     1     -10.332   3.377  64.146  1.00  0.00    -0.192 C  
HETATM    2  N   UNL     1      -9.217   4.026  64.829  1.00  0.00    -0.142 NA 
HETATM    3  C   UNL     1      -8.298   4.643  63.869  1.00  0.00    -0.121 C  
HETATM    4  C   UNL     1      -7.497   5.578  64.744  1.00  0.00    -0.071 C  
HETATM    5  C   UNL     1      -8.540   6.151  65.686  1.00  0.00    -0.148 C  
HETATM    6  C   UNL     1      -9.647   5.088  65.767  1.00  0.00    -0.148 C  
ENDROOT
BRANCH   6   7
HETATM    7  C   UNL     1      -9.819   4.507  67.180  1.00  0.00    -0.225 C  
BRANCH   7   8
HETATM    8  C   UNL     1      -9.798   5.548  68.306  1.00  0.00    -0.144 C  
BRANCH   8   9
HETATM    9  O   UNL     1      -9.748   4.903  69.577  1.00  0.00    -0.158 OA 
HETATM   10  C   UNL     1      -9.286   5.700  70.703  1.00  0.00    -0.159 C  
HETATM   11  C   UNL     1     -10.282   6.856  70.975  1.00  0.00    -0.213 A  
HETATM   12  C   UNL     1      -9.272   4.757  71.941  1.00  0.00    -0.171 A  
HETATM   13  C   UNL     1      -7.841   6.176  70.403  1.00  0.00    -0.106 C  
HETATM   14  C   UNL     1      -9.881   8.204  71.045  1.00  0.00    -0.212 A  
HETATM   15  C   UNL     1     -10.131   3.640  72.005  1.00  0.00    -0.199 A  
HETATM   16  C   UNL     1     -10.240   2.868  73.166  1.00  0.00    -0.221 A  
HETATM   17  C   UNL     1     -10.797   9.216  71.354  1.00  0.00    -0.419 A  
HETATM   18  C   UNL     1     -12.128   8.900  71.604  1.00  0.00    -0.346 A  
HETATM   19  C   UNL     1      -9.471   3.176  74.283  1.00  0.00    -0.113 A  
HETATM   20 CL   UNL     1     -13.240  10.143  72.024  1.00  0.00    -0.559 Cl 
HETATM   21  C   UNL     1     -12.558   7.581  71.524  1.00  0.00    -0.385 A  
HETATM   22  C   UNL     1      -8.589   4.250  74.237  1.00  0.00    -0.096 A  
HETATM   23  C   UNL     1      -8.498   5.037  73.084  1.00  0.00    -0.110 A  
HETATM   24  C   UNL     1     -11.645   6.572  71.202  1.00  0.00    -0.390 A  
ENDBRANCH   8   9
ENDBRANCH   7   8
ENDBRANCH   6   7
TORSDOF 3
ENDMDL
MODEL      139
REMARK 921   NORMALIZED FREE ENERGY PREDICTED BY IDOCK:   -4.06 KCAL/MOL
REMARK 922        TOTAL FREE ENERGY PREDICTED BY IDOCK:   -5.47 KCAL/MOL
REMARK 923 INTER-LIGAND FREE ENERGY PREDICTED BY IDOCK:   -5.13 KCAL/MOL
REMARK 924 INTRA-LIGAND FREE ENERGY PREDICTED BY IDOCK:   -0.34 KCAL/MOL
REMARK 927      BINDING AFFINITY PREDICTED BY RF-SCORE:    0.00 PKD
ROOT
HETATM    1  C   UNL     1     -11.536   8.034  72.572  1.00  0.00    -0.403 C  
HETATM    2  N   UNL     1     -10.248   8.076  71.886  1.00  0.00    -0.201 NA 
HETATM    3  C   UNL     1      -9.219   7.375  72.658  1.00  0.00    -0.145 C  
HETATM    4  C   UNL     1      -8.130   7.169  71.631  1.00  0.00    -0.102 C  
HETATM    5  C   UNL     1      -8.901   6.806  70.376  1.00  0.00    -0.152 C  
HETATM    6  C   UNL     1     -10.285   7.455  70.541  1.00  0.00    -0.193 C  
ENDROOT
BRANCH   6   7
HETATM    7  C   UNL     1     -10.578   8.522  69.475  1.00  0.00    -0.215 C  
BRANCH   7   8
HETATM    8  C   UNL     1      -9.345   9.286  68.980  1.00  0.00    -0.151 C  
BRANCH   8   9
HETATM    9  O   UNL     1      -9.380   9.419  67.560  1.00  0.00    -0.126 OA 
HETATM   10  C   UNL     1      -9.670  10.742  67.029  1.00  0.00    -0.176 C  
HETATM   11  C   UNL     1      -8.534  11.725  67.409  1.00  0.00    -0.158 A  
HETATM   12  C   UNL     1      -9.706  10.603  65.479  1.00  0.00    -0.291 A  
HETATM   13  C   UNL     1     -11.070  11.176  67.538  1.00  0.00    -0.353 C  
HETATM   14  C   UNL     1      -8.774  12.947  68.065  1.00  0.00    -0.191 A  
HETATM   15  C   UNL     1      -8.976   9.584  64.831  1.00  0.00    -0.264 A  
HETATM   16  C   UNL     1      -8.877   9.531  63.437  1.00  0.00    -0.236 A  
HETATM   17  C   UNL     1      -7.731  13.840  68.338  1.00  0.00    -0.134 A  
HETATM   18  C   UNL     1      -6.430  13.530  67.956  1.00  0.00    -0.135 A  
HETATM   19  C   UNL     1      -9.527  10.478  62.655  1.00  0.00    -0.326 A  
HETATM   20 CL   UNL     1      -5.159  14.647  68.257  1.00  0.00    -0.106 Cl 
HETATM   21  C   UNL     1      -6.158  12.322  67.323  1.00  0.00    -0.153 A  
HETATM   22  C   UNL     1     -10.283  11.473  63.265  1.00  0.00    -0.432 A  
HETATM   23  C   UNL     1     -10.364  11.541  64.659  1.00  0.00    -0.349 A  
HETATM   24  C   UNL     1      -7.199  11.425  67.064  1.00  0.00    -0.141 A  
ENDBRANCH   8   9
ENDBRANCH   7   8
ENDBRANCH   6   7
TORSDOF 3
ENDMDL
MODEL      140
REMARK 921   NORMALIZED FREE ENERGY PREDICTED BY IDOCK:   -4.05 KCAL/MOL
REMARK 922        TOTAL FREE ENERGY PREDICTED BY IDOCK:   -5.46 KCAL/MOL
REMARK 923 INTER-LIGAND FREE ENERGY PREDICTED BY IDOCK:   -5.11 KCAL/MOL
REMARK 924 INTRA-LIGAND FREE ENERGY PREDICTED BY IDOCK:   -0.35 KCAL/MOL
REMARK 927      BINDING AFFINITY PREDICTED BY RF-SCORE:    0.00 PKD
ROOT
HETATM    1  C   UNL     1     -14.006   8.730  71.981  1.00  0.00    -0.451 C  
HETATM    2  N   UNL     1     -12.609   9.085  72.216  1.00  0.00    -0.385 NA 
HETATM    3  C   UNL     1     -11.885   7.978  72.846  1.00  0.00    -0.103 C  
HETATM    4  C   UNL     1     -10.442   8.366  72.618  1.00  0.00    -0.317 C  
HETATM    5  C   UNL     1     -10.451   8.920  71.206  1.00  0.00    -0.357 C  
HETATM    6  C   UNL     1     -11.881   9.435  70.975  1.00  0.00    -0.322 C  
ENDROOT
BRANCH   6   7
HETATM    7  C   UNL     1     -11.941  10.952  70.737  1.00  0.00    -0.449 C  
BRANCH   7   8
HETATM    8  C   UNL     1     -11.669  11.384  69.292  1.00  0.00    -0.337 C  
BRANCH   8   9
HETATM    9  O   UNL     1     -10.529  10.700  68.775  1.00  0.00    -0.173 OA 
HETATM   10  C   UNL     1     -10.110  11.042  67.425  1.00  0.00    -0.186 C  
HETATM   11  C   UNL     1      -9.640  12.518  67.377  1.00  0.00    -0.192 A  
HETATM   12  C   UNL     1      -8.898  10.125  67.088  1.00  0.00    -0.138 A  
HETATM   13  C   UNL     1     -11.279  10.726  66.456  1.00  0.00     0.061 C  
HETATM   14  C   UNL     1     -10.160  13.453  66.462  1.00  0.00    -0.280 A  
HETATM   15  C   UNL     1      -8.075   9.613  68.113  1.00  0.00    -0.105 A  
HETATM   16  C   UNL     1      -6.901   8.911  67.824  1.00  0.00    -0.070 A  
HETATM   17  C   UNL     1      -9.667  14.762  66.405  1.00  0.00    -0.311 A  
HETATM   18  C   UNL     1      -8.643  15.159  67.257  1.00  0.00    -0.198 A  
HETATM   19  C   UNL     1      -6.533   8.680  66.504  1.00  0.00    -0.059 A  
HETATM   20 CL   UNL     1      -8.014  16.756  67.155  1.00  0.00    -0.196 Cl 
HETATM   21  C   UNL     1      -8.121  14.265  68.185  1.00  0.00    -0.144 A  
HETATM   22  C   UNL     1      -7.343   9.142  65.472  1.00  0.00    -0.089 A  
HETATM   23  C   UNL     1      -8.506   9.865  65.760  1.00  0.00    -0.142 A  
HETATM   24  C   UNL     1      -8.624  12.962  68.250  1.00  0.00    -0.170 A  
ENDBRANCH   8   9
ENDBRANCH   7   8
ENDBRANCH   6   7
TORSDOF 3
ENDMDL
MODEL      141
REMARK 921   NORMALIZED FREE ENERGY PREDICTED BY IDOCK:   -4.02 KCAL/MOL
REMARK 922        TOTAL FREE ENERGY PREDICTED BY IDOCK:   -5.41 KCAL/MOL
REMARK 923 INTER-LIGAND FREE ENERGY PREDICTED BY IDOCK:   -4.88 KCAL/MOL
REMARK 924 INTRA-LIGAND FREE ENERGY PREDICTED BY IDOCK:   -0.54 KCAL/MOL
REMARK 927      BINDING AFFINITY PREDICTED BY RF-SCORE:    0.00 PKD
ROOT
HETATM    1  C   UNL     1      -5.424  14.194  70.811  1.00  0.00    -0.156 C  
HETATM    2  N   UNL     1      -6.323  14.481  69.698  1.00  0.00    -0.130 NA 
HETATM    3  C   UNL     1      -6.860  15.841  69.794  1.00  0.00    -0.120 C  
HETATM    4  C   UNL     1      -7.392  16.077  68.400  1.00  0.00    -0.131 C  
HETATM    5  C   UNL     1      -6.332  15.448  67.514  1.00  0.00    -0.148 C  
HETATM    6  C   UNL     1      -5.669  14.362  68.375  1.00  0.00    -0.106 C  
ENDROOT
BRANCH   6   7
HETATM    7  C   UNL     1      -5.869  12.945  67.813  1.00  0.00    -0.139 C  
BRANCH   7   8
HETATM    8  C   UNL     1      -7.027  12.165  68.445  1.00  0.00    -0.078 C  
BRANCH   8   9
HETATM    9  O   UNL     1      -8.257  12.496  67.804  1.00  0.00    -0.142 OA 
HETATM   10  C   UNL     1      -8.892  11.452  67.016  1.00  0.00    -0.168 C  
HETATM   11  C   UNL     1      -9.322  10.282  67.938  1.00  0.00    -0.147 A  
HETATM   12  C   UNL     1     -10.170  12.081  66.386  1.00  0.00    -0.243 A  
HETATM   13  C   UNL     1      -7.916  11.031  65.886  1.00  0.00    -0.054 C  
HETATM   14  C   UNL     1      -8.941   8.948  67.702  1.00  0.00    -0.141 A  
HETATM   15  C   UNL     1     -10.818  13.168  67.009  1.00  0.00    -0.278 A  
HETATM   16  C   UNL     1     -12.044  13.652  66.541  1.00  0.00    -0.469 A  
HETATM   17  C   UNL     1      -9.399   7.908  68.519  1.00  0.00    -0.141 A  
HETATM   18  C   UNL     1     -10.250   8.182  69.584  1.00  0.00    -0.205 A  
HETATM   19  C   UNL     1     -12.639  13.079  65.423  1.00  0.00    -0.481 A  
HETATM   20 CL   UNL     1     -10.842   6.897  70.561  1.00  0.00    -0.271 Cl 
HETATM   21  C   UNL     1     -10.630   9.492  69.855  1.00  0.00    -0.269 A  
HETATM   22  C   UNL     1     -12.005  12.029  64.768  1.00  0.00    -0.310 A  
HETATM   23  C   UNL     1     -10.791  11.529  65.249  1.00  0.00    -0.319 A  
HETATM   24  C   UNL     1     -10.160  10.531  69.045  1.00  0.00    -0.230 A  
ENDBRANCH   8   9
ENDBRANCH   7   8
ENDBRANCH   6   7
TORSDOF 3
ENDMDL
MODEL      142
REMARK 921   NORMALIZED FREE ENERGY PREDICTED BY IDOCK:   -3.99 KCAL/MOL
REMARK 922        TOTAL FREE ENERGY PREDICTED BY IDOCK:   -5.38 KCAL/MOL
REMARK 923 INTER-LIGAND FREE ENERGY PREDICTED BY IDOCK:   -4.47 KCAL/MOL
REMARK 924 INTRA-LIGAND FREE ENERGY PREDICTED BY IDOCK:   -0.92 KCAL/MOL
REMARK 927      BINDING AFFINITY PREDICTED BY RF-SCORE:    0.00 PKD
ROOT
HETATM    1  C   UNL     1      -9.342   3.416  70.900  1.00  0.00    -0.149 C  
HETATM    2  N   UNL     1      -9.201   4.723  71.534  1.00  0.00    -0.138 NA 
HETATM    3  C   UNL     1     -10.006   4.804  72.756  1.00  0.00    -0.163 C  
HETATM    4  C   UNL     1      -9.414   6.008  73.452  1.00  0.00    -0.138 C  
HETATM    5  C   UNL     1      -7.925   5.852  73.209  1.00  0.00    -0.109 C  
HETATM    6  C   UNL     1      -7.804   5.041  71.909  1.00  0.00    -0.109 C  
ENDROOT
BRANCH   6   7
HETATM    7  C   UNL     1      -7.118   5.821  70.776  1.00  0.00    -0.070 C  
BRANCH   7   8
HETATM    8  C   UNL     1      -7.597   5.454  69.367  1.00  0.00    -0.077 C  
BRANCH   8   9
HETATM    9  O   UNL     1      -7.726   6.626  68.565  1.00  0.00    -0.101 OA 
HETATM   10  C   UNL     1      -9.058   6.948  68.078  1.00  0.00    -0.120 C  
HETATM   11  C   UNL     1      -9.991   7.277  69.271  1.00  0.00    -0.170 A  
HETATM   12  C   UNL     1      -8.915   8.223  67.196  1.00  0.00    -0.154 A  
HETATM   13  C   UNL     1      -9.556   5.769  67.202  1.00  0.00    -0.134 C  
HETATM   14  C   UNL     1     -11.226   6.630  69.472  1.00  0.00    -0.383 A  
HETATM   15  C   UNL     1      -7.863   9.136  67.415  1.00  0.00    -0.099 A  
HETATM   16  C   UNL     1      -7.801  10.356  66.735  1.00  0.00    -0.117 A  
HETATM   17  C   UNL     1     -12.072   6.996  70.525  1.00  0.00    -0.278 A  
HETATM   18  C   UNL     1     -11.703   8.018  71.393  1.00  0.00    -0.287 A  
HETATM   19  C   UNL     1      -8.774  10.681  65.796  1.00  0.00    -0.192 A  
HETATM   20 CL   UNL     1     -12.764   8.491  72.661  1.00  0.00    -0.335 Cl 
HETATM   21  C   UNL     1     -10.482   8.663  71.232  1.00  0.00    -0.311 A  
HETATM   22  C   UNL     1      -9.803   9.784  65.532  1.00  0.00    -0.378 A  
HETATM   23  C   UNL     1      -9.879   8.574  66.230  1.00  0.00    -0.285 A  
HETATM   24  C   UNL     1      -9.632   8.287  70.188  1.00  0.00    -0.167 A  
ENDBRANCH   8   9
ENDBRANCH   7   8
ENDBRANCH   6   7
TORSDOF 3
ENDMDL
MODEL      143
REMARK 921   NORMALIZED FREE ENERGY PREDICTED BY IDOCK:   -3.97 KCAL/MOL
REMARK 922        TOTAL FREE ENERGY PREDICTED BY IDOCK:   -5.36 KCAL/MOL
REMARK 923 INTER-LIGAND FREE ENERGY PREDICTED BY IDOCK:   -4.09 KCAL/MOL
REMARK 924 INTRA-LIGAND FREE ENERGY PREDICTED BY IDOCK:   -1.27 KCAL/MOL
REMARK 927      BINDING AFFINITY PREDICTED BY RF-SCORE:    0.00 PKD
ROOT
HETATM    1  C   UNL     1     -11.824  13.141  65.977  1.00  0.00    -0.407 C  
HETATM    2  N   UNL     1     -11.130  11.861  65.879  1.00  0.00    -0.312 NA 
HETATM    3  C   UNL     1     -10.901  11.493  64.479  1.00  0.00    -0.327 C  
HETATM    4  C   UNL     1      -9.847  10.416  64.598  1.00  0.00    -0.405 C  
HETATM    5  C   UNL     1      -8.932  10.945  65.686  1.00  0.00    -0.209 C  
HETATM    6  C   UNL     1      -9.811  11.861  66.553  1.00  0.00    -0.206 C  
ENDROOT
BRANCH   6   7
HETATM    7  C   UNL     1      -9.957  11.361  67.998  1.00  0.00    -0.192 C  
BRANCH   7   8
HETATM    8  C   UNL     1     -10.684  10.018  68.140  1.00  0.00    -0.239 C  
BRANCH   8   9
HETATM    9  O   UNL     1     -10.077   9.231  69.162  1.00  0.00    -0.186 OA 
HETATM   10  C   UNL     1      -9.792   7.841  68.842  1.00  0.00    -0.166 C  
HETATM   11  C   UNL     1      -8.730   7.766  67.716  1.00  0.00    -0.123 A  
HETATM   12  C   UNL     1      -9.194   7.200  70.129  1.00  0.00    -0.155 A  
HETATM   13  C   UNL     1     -11.128   7.136  68.490  1.00  0.00    -0.003 C  
HETATM   14  C   UNL     1      -8.931   7.035  66.529  1.00  0.00    -0.165 A  
HETATM   15  C   UNL     1      -8.521   7.992  71.082  1.00  0.00    -0.134 A  
HETATM   16  C   UNL     1      -7.852   7.418  72.167  1.00  0.00    -0.095 A  
HETATM   17  C   UNL     1      -7.926   6.938  65.560  1.00  0.00    -0.126 A  
HETATM   18  C   UNL     1      -6.700   7.565  65.761  1.00  0.00    -0.045 A  
HETATM   19  C   UNL     1      -7.862   6.039  72.343  1.00  0.00    -0.102 A  
HETATM   20 CL   UNL     1      -5.455   7.409  64.585  1.00  0.00    -0.033 Cl 
HETATM   21  C   UNL     1      -6.478   8.309  66.914  1.00  0.00    -0.057 A  
HETATM   22  C   UNL     1      -8.548   5.235  71.439  1.00  0.00    -0.132 A  
HETATM   23  C   UNL     1      -9.197   5.807  70.340  1.00  0.00    -0.175 A  
HETATM   24  C   UNL     1      -7.488   8.416  67.875  1.00  0.00    -0.098 A  
ENDBRANCH   8   9
ENDBRANCH   7   8
ENDBRANCH   6   7
TORSDOF 3
ENDMDL
MODEL      144
REMARK 921   NORMALIZED FREE ENERGY PREDICTED BY IDOCK:   -3.97 KCAL/MOL
REMARK 922        TOTAL FREE ENERGY PREDICTED BY IDOCK:   -5.36 KCAL/MOL
REMARK 923 INTER-LIGAND FREE ENERGY PREDICTED BY IDOCK:   -4.42 KCAL/MOL
REMARK 924 INTRA-LIGAND FREE ENERGY PREDICTED BY IDOCK:   -0.94 KCAL/MOL
REMARK 927      BINDING AFFINITY PREDICTED BY RF-SCORE:    0.00 PKD
ROOT
HETATM    1  C   UNL     1      -7.850   5.079  64.842  1.00  0.00    -0.091 C  
HETATM    2  N   UNL     1      -8.650   4.087  65.555  1.00  0.00    -0.112 NA 
HETATM    3  C   UNL     1      -7.838   2.925  65.926  1.00  0.00    -0.081 C  
HETATM    4  C   UNL     1      -8.696   2.254  66.973  1.00  0.00    -0.138 C  
HETATM    5  C   UNL     1      -9.249   3.421  67.769  1.00  0.00    -0.235 C  
HETATM    6  C   UNL     1      -9.256   4.613  66.800  1.00  0.00    -0.126 C  
ENDROOT
BRANCH   6   7
HETATM    7  C   UNL     1     -10.669   5.146  66.514  1.00  0.00    -0.262 C  
BRANCH   7   8
HETATM    8  C   UNL     1     -10.915   6.587  66.979  1.00  0.00    -0.396 C  
BRANCH   8   9
HETATM    9  O   UNL     1      -9.709   7.159  67.480  1.00  0.00    -0.134 OA 
HETATM   10  C   UNL     1      -9.809   7.947  68.698  1.00  0.00    -0.170 C  
HETATM   11  C   UNL     1     -10.241   7.041  69.879  1.00  0.00    -0.213 A  
HETATM   12  C   UNL     1      -8.383   8.498  68.993  1.00  0.00    -0.118 A  
HETATM   13  C   UNL     1     -10.773   9.134  68.434  1.00  0.00    -0.163 C  
HETATM   14  C   UNL     1     -11.350   7.334  70.696  1.00  0.00    -0.311 A  
HETATM   15  C   UNL     1      -7.238   7.814  68.533  1.00  0.00    -0.086 A  
HETATM   16  C   UNL     1      -5.951   8.209  68.910  1.00  0.00    -0.039 A  
HETATM   17  C   UNL     1     -11.674   6.527  71.792  1.00  0.00    -0.373 A  
HETATM   18  C   UNL     1     -10.895   5.416  72.095  1.00  0.00    -0.214 A  
HETATM   19  C   UNL     1      -5.774   9.314  69.734  1.00  0.00    -0.032 A  
HETATM   20 CL   UNL     1     -11.275   4.451  73.467  1.00  0.00    -0.385 Cl 
HETATM   21  C   UNL     1      -9.805   5.089  71.296  1.00  0.00    -0.246 A  
HETATM   22  C   UNL     1      -6.882  10.029  70.174  1.00  0.00    -0.137 A  
HETATM   23  C   UNL     1      -8.171   9.621  69.817  1.00  0.00    -0.168 A  
HETATM   24  C   UNL     1      -9.490   5.889  70.193  1.00  0.00    -0.190 A  
ENDBRANCH   8   9
ENDBRANCH   7   8
ENDBRANCH   6   7
TORSDOF 3
ENDMDL
MODEL      145
REMARK 921   NORMALIZED FREE ENERGY PREDICTED BY IDOCK:   -3.97 KCAL/MOL
REMARK 922        TOTAL FREE ENERGY PREDICTED BY IDOCK:   -5.36 KCAL/MOL
REMARK 923 INTER-LIGAND FREE ENERGY PREDICTED BY IDOCK:   -6.05 KCAL/MOL
REMARK 924 INTRA-LIGAND FREE ENERGY PREDICTED BY IDOCK:    0.69 KCAL/MOL
REMARK 927      BINDING AFFINITY PREDICTED BY RF-SCORE:    0.00 PKD
ROOT
HETATM    1  C   UNL     1      -8.444  19.453  67.705  1.00  0.00    -0.310 C  
HETATM    2  N   UNL     1      -7.805  19.033  66.462  1.00  0.00    -0.257 NA 
HETATM    3  C   UNL     1      -7.248  20.181  65.742  1.00  0.00    -0.282 C  
HETATM    4  C   UNL     1      -6.308  19.522  64.761  1.00  0.00    -0.262 C  
HETATM    5  C   UNL     1      -5.673  18.413  65.580  1.00  0.00    -0.241 C  
HETATM    6  C   UNL     1      -6.699  18.070  66.672  1.00  0.00    -0.200 C  
ENDROOT
BRANCH   6   7
HETATM    7  C   UNL     1      -7.227  16.630  66.568  1.00  0.00    -0.241 C  
BRANCH   7   8
HETATM    8  C   UNL     1      -8.696  16.516  66.145  1.00  0.00    -0.300 C  
BRANCH   8   9
HETATM    9  O   UNL     1      -9.036  15.155  65.893  1.00  0.00    -0.259 OA 
HETATM   10  C   UNL     1      -8.978  14.240  67.023  1.00  0.00    -0.236 C  
HETATM   11  C   UNL     1     -10.038  14.639  68.081  1.00  0.00    -0.224 A  
HETATM   12  C   UNL     1      -9.334  12.828  66.473  1.00  0.00    -0.221 A  
HETATM   13  C   UNL     1      -7.525  14.228  67.567  1.00  0.00    -0.201 C  
HETATM   14  C   UNL     1      -9.716  14.866  69.432  1.00  0.00    -0.099 A  
HETATM   15  C   UNL     1     -10.139  12.685  65.324  1.00  0.00    -0.271 A  
HETATM   16  C   UNL     1     -10.591  11.431  64.900  1.00  0.00    -0.368 A  
HETATM   17  C   UNL     1     -10.708  15.164  70.373  1.00  0.00    -0.211 A  
HETATM   18  C   UNL     1     -12.041  15.235  69.982  1.00  0.00    -0.352 A  
HETATM   19  C   UNL     1     -10.226  10.286  65.599  1.00  0.00    -0.301 A  
HETATM   20 CL   UNL     1     -13.260  15.561  71.149  1.00  0.00    -0.568 Cl 
HETATM   21  C   UNL     1     -12.389  15.034  68.651  1.00  0.00     0.050 A  
HETATM   22  C   UNL     1      -9.403  10.392  66.715  1.00  0.00    -0.181 A  
HETATM   23  C   UNL     1      -8.970  11.648  67.153  1.00  0.00    -0.173 A  
HETATM   24  C   UNL     1     -11.394  14.750  67.710  1.00  0.00    -0.344 A  
ENDBRANCH   8   9
ENDBRANCH   7   8
ENDBRANCH   6   7
TORSDOF 3
ENDMDL
MODEL      146
REMARK 921   NORMALIZED FREE ENERGY PREDICTED BY IDOCK:   -3.93 KCAL/MOL
REMARK 922        TOTAL FREE ENERGY PREDICTED BY IDOCK:   -5.31 KCAL/MOL
REMARK 923 INTER-LIGAND FREE ENERGY PREDICTED BY IDOCK:   -4.35 KCAL/MOL
REMARK 924 INTRA-LIGAND FREE ENERGY PREDICTED BY IDOCK:   -0.96 KCAL/MOL
REMARK 927      BINDING AFFINITY PREDICTED BY RF-SCORE:    0.00 PKD
ROOT
HETATM    1  C   UNL     1      -8.101   6.556  64.154  1.00  0.00    -0.042 C  
HETATM    2  N   UNL     1      -8.244   5.643  65.284  1.00  0.00    -0.128 NA 
HETATM    3  C   UNL     1      -6.990   4.933  65.548  1.00  0.00    -0.062 C  
HETATM    4  C   UNL     1      -7.212   4.396  66.943  1.00  0.00    -0.072 C  
HETATM    5  C   UNL     1      -7.915   5.541  67.648  1.00  0.00    -0.101 C  
HETATM    6  C   UNL     1      -8.632   6.328  66.539  1.00  0.00    -0.128 C  
ENDROOT
BRANCH   6   7
HETATM    7  C   UNL     1     -10.161   6.322  66.692  1.00  0.00    -0.226 C  
BRANCH   7   8
HETATM    8  C   UNL     1     -10.775   7.687  67.023  1.00  0.00    -0.270 C  
BRANCH   8   9
HETATM    9  O   UNL     1      -9.771   8.699  67.014  1.00  0.00    -0.168 OA 
HETATM   10  C   UNL     1      -9.932   9.798  67.953  1.00  0.00    -0.163 C  
HETATM   11  C   UNL     1      -9.833   9.268  69.407  1.00  0.00    -0.177 A  
HETATM   12  C   UNL     1      -8.749  10.778  67.703  1.00  0.00    -0.126 A  
HETATM   13  C   UNL     1     -11.270  10.516  67.639  1.00  0.00    -0.338 C  
HETATM   14  C   UNL     1     -10.827   9.512  70.374  1.00  0.00    -0.338 A  
HETATM   15  C   UNL     1      -7.532  10.314  67.162  1.00  0.00    -0.092 A  
HETATM   16  C   UNL     1      -6.411  11.145  67.066  1.00  0.00    -0.107 A  
HETATM   17  C   UNL     1     -10.675   9.072  71.694  1.00  0.00    -0.441 A  
HETATM   18  C   UNL     1      -9.527   8.385  72.073  1.00  0.00    -0.268 A  
HETATM   19  C   UNL     1      -6.488  12.469  67.482  1.00  0.00    -0.153 A  
HETATM   20 CL   UNL     1      -9.329   7.881  73.705  1.00  0.00    -0.334 Cl 
HETATM   21  C   UNL     1      -8.537   8.111  71.136  1.00  0.00    -0.153 A  
HETATM   22  C   UNL     1      -7.686  12.965  67.985  1.00  0.00    -0.143 A  
HETATM   23  C   UNL     1      -8.800  12.128  68.104  1.00  0.00    -0.187 A  
HETATM   24  C   UNL     1      -8.696   8.540  69.815  1.00  0.00    -0.132 A  
ENDBRANCH   8   9
ENDBRANCH   7   8
ENDBRANCH   6   7
TORSDOF 3
ENDMDL
MODEL      147
REMARK 921   NORMALIZED FREE ENERGY PREDICTED BY IDOCK:   -3.92 KCAL/MOL
REMARK 922        TOTAL FREE ENERGY PREDICTED BY IDOCK:   -5.30 KCAL/MOL
REMARK 923 INTER-LIGAND FREE ENERGY PREDICTED BY IDOCK:   -4.61 KCAL/MOL
REMARK 924 INTRA-LIGAND FREE ENERGY PREDICTED BY IDOCK:   -0.69 KCAL/MOL
REMARK 927      BINDING AFFINITY PREDICTED BY RF-SCORE:    0.00 PKD
ROOT
HETATM    1  C   UNL     1     -10.091   8.214  72.540  1.00  0.00    -0.300 C  
HETATM    2  N   UNL     1     -11.288   8.517  71.760  1.00  0.00    -0.285 NA 
HETATM    3  C   UNL     1     -12.484   8.508  72.607  1.00  0.00    -0.211 C  
HETATM    4  C   UNL     1     -13.493   9.230  71.746  1.00  0.00    -0.483 C  
HETATM    5  C   UNL     1     -12.680  10.351  71.124  1.00  0.00    -0.514 C  
HETATM    6  C   UNL     1     -11.231   9.840  71.098  1.00  0.00    -0.374 C  
ENDROOT
BRANCH   6   7
HETATM    7  C   UNL     1     -10.672   9.694  69.673  1.00  0.00    -0.260 C  
BRANCH   7   8
HETATM    8  C   UNL     1      -9.144   9.605  69.592  1.00  0.00    -0.210 C  
BRANCH   8   9
HETATM    9  O   UNL     1      -8.750   8.883  68.428  1.00  0.00    -0.133 OA 
HETATM   10  C   UNL     1      -7.780   7.814  68.610  1.00  0.00    -0.118 C  
HETATM   11  C   UNL     1      -8.392   6.690  69.485  1.00  0.00    -0.131 A  
HETATM   12  C   UNL     1      -7.483   7.234  67.197  1.00  0.00    -0.105 A  
HETATM   13  C   UNL     1      -6.482   8.427  69.198  1.00  0.00    -0.043 C  
HETATM   14  C   UNL     1      -7.766   6.206  70.649  1.00  0.00    -0.105 A  
HETATM   15  C   UNL     1      -8.441   7.325  66.165  1.00  0.00    -0.144 A  
HETATM   16  C   UNL     1      -8.254   6.684  64.936  1.00  0.00    -0.085 A  
HETATM   17  C   UNL     1      -8.316   5.148  71.381  1.00  0.00    -0.119 A  
HETATM   18  C   UNL     1      -9.499   4.550  70.960  1.00  0.00    -0.161 A  
HETATM   19  C   UNL     1      -7.092   5.959  64.698  1.00  0.00    -0.060 A  
HETATM   20 CL   UNL     1     -10.149   3.224  71.840  1.00  0.00    -0.201 Cl 
HETATM   21  C   UNL     1     -10.152   5.018  69.826  1.00  0.00    -0.337 A  
HETATM   22  C   UNL     1      -6.114   5.881  65.684  1.00  0.00    -0.029 A  
HETATM   23  C   UNL     1      -6.311   6.502  66.921  1.00  0.00    -0.041 A  
HETATM   24  C   UNL     1      -9.608   6.085  69.103  1.00  0.00    -0.156 A  
ENDBRANCH   8   9
ENDBRANCH   7   8
ENDBRANCH   6   7
TORSDOF 3
ENDMDL
MODEL      148
REMARK 921   NORMALIZED FREE ENERGY PREDICTED BY IDOCK:   -3.86 KCAL/MOL
REMARK 922        TOTAL FREE ENERGY PREDICTED BY IDOCK:   -5.24 KCAL/MOL
REMARK 923 INTER-LIGAND FREE ENERGY PREDICTED BY IDOCK:   -4.43 KCAL/MOL
REMARK 924 INTRA-LIGAND FREE ENERGY PREDICTED BY IDOCK:   -0.81 KCAL/MOL
REMARK 927      BINDING AFFINITY PREDICTED BY RF-SCORE:    0.00 PKD
ROOT
HETATM    1  C   UNL     1      -9.469   3.449  68.298  1.00  0.00    -0.148 C  
HETATM    2  N   UNL     1      -8.924   4.208  69.419  1.00  0.00    -0.095 NA 
HETATM    3  C   UNL     1      -9.162   3.516  70.688  1.00  0.00    -0.137 C  
HETATM    4  C   UNL     1      -8.195   4.210  71.620  1.00  0.00    -0.091 C  
HETATM    5  C   UNL     1      -6.957   4.391  70.762  1.00  0.00    -0.037 C  
HETATM    6  C   UNL     1      -7.464   4.436  69.312  1.00  0.00    -0.055 C  
ENDROOT
BRANCH   6   7
HETATM    7  C   UNL     1      -7.189   5.782  68.622  1.00  0.00    -0.082 C  
BRANCH   7   8
HETATM    8  C   UNL     1      -8.198   6.158  67.530  1.00  0.00    -0.109 C  
BRANCH   8   9
HETATM    9  O   UNL     1      -8.474   7.556  67.570  1.00  0.00    -0.119 OA 
HETATM   10  C   UNL     1      -9.801   7.955  68.012  1.00  0.00    -0.165 C  
HETATM   11  C   UNL     1     -10.006   7.551  69.495  1.00  0.00    -0.180 A  
HETATM   12  C   UNL     1      -9.859   9.507  67.910  1.00  0.00    -0.186 A  
HETATM   13  C   UNL     1     -10.844   7.336  67.045  1.00  0.00    -0.350 C  
HETATM   14  C   UNL     1     -11.101   6.780  69.928  1.00  0.00    -0.374 A  
HETATM   15  C   UNL     1      -8.682  10.279  68.000  1.00  0.00    -0.122 A  
HETATM   16  C   UNL     1      -8.727  11.675  68.058  1.00  0.00    -0.157 A  
HETATM   17  C   UNL     1     -11.289   6.486  71.283  1.00  0.00    -0.355 A  
HETATM   18  C   UNL     1     -10.390   6.962  72.231  1.00  0.00    -0.196 A  
HETATM   19  C   UNL     1      -9.948  12.337  67.998  1.00  0.00    -0.202 A  
HETATM   20 CL   UNL     1     -10.647   6.633  73.899  1.00  0.00    -0.329 Cl 
HETATM   21  C   UNL     1      -9.288   7.711  71.833  1.00  0.00    -0.181 A  
HETATM   22  C   UNL     1     -11.123  11.603  67.872  1.00  0.00    -0.306 A  
HETATM   23  C   UNL     1     -11.080  10.206  67.838  1.00  0.00    -0.303 A  
HETATM   24  C   UNL     1      -9.094   7.992  70.477  1.00  0.00    -0.153 A  
ENDBRANCH   8   9
ENDBRANCH   7   8
ENDBRANCH   6   7
TORSDOF 3
ENDMDL
MODEL      149
REMARK 921   NORMALIZED FREE ENERGY PREDICTED BY IDOCK:   -3.85 KCAL/MOL
REMARK 922        TOTAL FREE ENERGY PREDICTED BY IDOCK:   -5.22 KCAL/MOL
REMARK 923 INTER-LIGAND FREE ENERGY PREDICTED BY IDOCK:   -4.59 KCAL/MOL
REMARK 924 INTRA-LIGAND FREE ENERGY PREDICTED BY IDOCK:   -0.63 KCAL/MOL
REMARK 927      BINDING AFFINITY PREDICTED BY RF-SCORE:    0.00 PKD
ROOT
HETATM    1  C   UNL     1      -8.102   6.307  64.199  1.00  0.00    -0.067 C  
HETATM    2  N   UNL     1      -9.123   6.062  65.213  1.00  0.00     0.077 NA 
HETATM    3  C   UNL     1      -9.246   4.630  65.499  1.00  0.00    -0.153 C  
HETATM    4  C   UNL     1     -10.000   4.627  66.808  1.00  0.00    -0.250 C  
HETATM    5  C   UNL     1      -9.374   5.779  67.572  1.00  0.00    -0.111 C  
HETATM    6  C   UNL     1      -8.842   6.742  66.498  1.00  0.00    -0.143 C  
ENDROOT
BRANCH   6   7
HETATM    7  C   UNL     1      -9.531   8.115  66.530  1.00  0.00    -0.286 C  
BRANCH   7   8
HETATM    8  C   UNL     1     -10.768   8.190  67.432  1.00  0.00    -0.177 C  
BRANCH   8   9
HETATM    9  O   UNL     1     -11.098   9.548  67.712  1.00  0.00    -0.186 OA 
HETATM   10  C   UNL     1     -10.966   9.989  69.092  1.00  0.00    -0.220 C  
HETATM   11  C   UNL     1      -9.479   9.931  69.525  1.00  0.00    -0.239 A  
HETATM   12  C   UNL     1     -11.436  11.473  69.134  1.00  0.00    -0.362 A  
HETATM   13  C   UNL     1     -11.908   9.127  69.972  1.00  0.00     0.227 C  
HETATM   14  C   UNL     1      -9.048   9.240  70.673  1.00  0.00    -0.309 A  
HETATM   15  C   UNL     1     -11.351  12.288  67.986  1.00  0.00    -0.348 A  
HETATM   16  C   UNL     1     -11.629  13.657  68.040  1.00  0.00    -0.368 A  
HETATM   17  C   UNL     1      -7.706   9.260  71.069  1.00  0.00    -0.100 A  
HETATM   18  C   UNL     1      -6.771   9.975  70.328  1.00  0.00    -0.137 A  
HETATM   19  C   UNL     1     -12.025  14.241  69.237  1.00  0.00    -0.375 A  
HETATM   20 CL   UNL     1      -5.131  10.029  70.841  1.00  0.00    -0.048 Cl 
HETATM   21  C   UNL     1      -7.162  10.651  69.178  1.00  0.00    -0.102 A  
HETATM   22  C   UNL     1     -12.152  13.456  70.378  1.00  0.00    -0.405 A  
HETATM   23  C   UNL     1     -11.852  12.091  70.330  1.00  0.00    -0.356 A  
HETATM   24  C   UNL     1      -8.501  10.619  68.776  1.00  0.00    -0.149 A  
ENDBRANCH   8   9
ENDBRANCH   7   8
ENDBRANCH   6   7
TORSDOF 3
ENDMDL
MODEL      150
REMARK 921   NORMALIZED FREE ENERGY PREDICTED BY IDOCK:   -3.85 KCAL/MOL
REMARK 922        TOTAL FREE ENERGY PREDICTED BY IDOCK:   -5.22 KCAL/MOL
REMARK 923 INTER-LIGAND FREE ENERGY PREDICTED BY IDOCK:   -4.67 KCAL/MOL
REMARK 924 INTRA-LIGAND FREE ENERGY PREDICTED BY IDOCK:   -0.54 KCAL/MOL
REMARK 927      BINDING AFFINITY PREDICTED BY RF-SCORE:    0.00 PKD
ROOT
HETATM    1  C   UNL     1     -10.545  12.663  64.621  1.00  0.00    -0.333 C  
HETATM    2  N   UNL     1     -10.062  11.293  64.763  1.00  0.00    -0.265 NA 
HETATM    3  C   UNL     1      -9.834  10.677  63.453  1.00  0.00    -0.321 C  
HETATM    4  C   UNL     1      -8.974   9.485  63.803  1.00  0.00    -0.211 C  
HETATM    5  C   UNL     1      -8.034  10.034  64.861  1.00  0.00    -0.140 C  
HETATM    6  C   UNL     1      -8.791  11.199  65.518  1.00  0.00    -0.136 C  
ENDROOT
BRANCH   6   7
HETATM    7  C   UNL     1      -9.079  10.962  67.009  1.00  0.00    -0.158 C  
BRANCH   7   8
HETATM    8  C   UNL     1      -8.397   9.723  67.603  1.00  0.00    -0.114 C  
BRANCH   8   9
HETATM    9  O   UNL     1      -9.075   9.302  68.785  1.00  0.00    -0.134 OA 
HETATM   10  C   UNL     1      -9.655   7.969  68.773  1.00  0.00    -0.149 C  
HETATM   11  C   UNL     1      -8.533   6.906  68.657  1.00  0.00    -0.121 A  
HETATM   12  C   UNL     1     -10.375   7.782  70.141  1.00  0.00    -0.218 A  
HETATM   13  C   UNL     1     -10.701   7.901  67.629  1.00  0.00    -0.215 C  
HETATM   14  C   UNL     1      -8.528   5.910  67.663  1.00  0.00    -0.103 A  
HETATM   15  C   UNL     1      -9.953   8.499  71.280  1.00  0.00    -0.284 A  
HETATM   16  C   UNL     1     -10.487   8.239  72.545  1.00  0.00    -0.406 A  
HETATM   17  C   UNL     1      -7.532   4.928  67.626  1.00  0.00    -0.079 A  
HETATM   18  C   UNL     1      -6.525   4.920  68.586  1.00  0.00    -0.037 A  
HETATM   19  C   UNL     1     -11.477   7.275  72.700  1.00  0.00    -0.304 A  
HETATM   20 CL   UNL     1      -5.326   3.687  68.560  1.00  0.00    -0.012 Cl 
HETATM   21  C   UNL     1      -6.491   5.901  69.570  1.00  0.00    -0.042 A  
HETATM   22  C   UNL     1     -11.939   6.578  71.589  1.00  0.00    -0.387 A  
HETATM   23  C   UNL     1     -11.388   6.821  70.327  1.00  0.00    -0.404 A  
HETATM   24  C   UNL     1      -7.480   6.890  69.597  1.00  0.00    -0.099 A  
ENDBRANCH   8   9
ENDBRANCH   7   8
ENDBRANCH   6   7
TORSDOF 3
ENDMDL
MODEL      151
REMARK 921   NORMALIZED FREE ENERGY PREDICTED BY IDOCK:   -3.82 KCAL/MOL
REMARK 922        TOTAL FREE ENERGY PREDICTED BY IDOCK:   -5.19 KCAL/MOL
REMARK 923 INTER-LIGAND FREE ENERGY PREDICTED BY IDOCK:   -4.89 KCAL/MOL
REMARK 924 INTRA-LIGAND FREE ENERGY PREDICTED BY IDOCK:   -0.30 KCAL/MOL
REMARK 927      BINDING AFFINITY PREDICTED BY RF-SCORE:    0.00 PKD
ROOT
HETATM    1  C   UNL     1     -14.205   8.498  71.922  1.00  0.00    -0.455 C  
HETATM    2  N   UNL     1     -12.756   8.650  72.021  1.00  0.00    -0.353 NA 
HETATM    3  C   UNL     1     -12.134   7.426  72.532  1.00  0.00    -0.073 C  
HETATM    4  C   UNL     1     -10.681   7.626  72.168  1.00  0.00    -0.289 C  
HETATM    5  C   UNL     1     -10.753   8.245  70.784  1.00  0.00    -0.244 C  
HETATM    6  C   UNL     1     -12.113   8.958  70.723  1.00  0.00    -0.107 C  
ENDROOT
BRANCH   6   7
HETATM    7  C   UNL     1     -11.985  10.480  70.546  1.00  0.00    -0.436 C  
BRANCH   7   8
HETATM    8  C   UNL     1     -11.731  10.936  69.105  1.00  0.00    -0.326 C  
BRANCH   8   9
HETATM    9  O   UNL     1     -11.179   9.870  68.336  1.00  0.00    -0.188 OA 
HETATM   10  C   UNL     1      -9.984  10.166  67.560  1.00  0.00    -0.191 C  
HETATM   11  C   UNL     1      -8.810  10.511  68.511  1.00  0.00    -0.144 A  
HETATM   12  C   UNL     1      -9.625   8.868  66.780  1.00  0.00    -0.262 A  
HETATM   13  C   UNL     1     -10.324  11.294  66.552  1.00  0.00    -0.284 C  
HETATM   14  C   UNL     1      -8.059  11.697  68.395  1.00  0.00    -0.153 A  
HETATM   15  C   UNL     1     -10.008   7.603  67.272  1.00  0.00    -0.273 A  
HETATM   16  C   UNL     1      -9.571   6.421  66.667  1.00  0.00    -0.194 A  
HETATM   17  C   UNL     1      -6.966  11.946  69.231  1.00  0.00    -0.046 A  
HETATM   18  C   UNL     1      -6.598  11.014  70.196  1.00  0.00    -0.088 A  
HETATM   19  C   UNL     1      -8.762   6.473  65.538  1.00  0.00    -0.063 A  
HETATM   20 CL   UNL     1      -5.229  11.308  71.194  1.00  0.00    -0.115 Cl 
HETATM   21  C   UNL     1      -7.331   9.843  70.348  1.00  0.00    -0.139 A  
HETATM   22  C   UNL     1      -8.397   7.707  65.009  1.00  0.00    -0.078 A  
HETATM   23  C   UNL     1      -8.814   8.889  65.628  1.00  0.00    -0.230 A  
HETATM   24  C   UNL     1      -8.432   9.601  69.521  1.00  0.00    -0.162 A  
ENDBRANCH   8   9
ENDBRANCH   7   8
ENDBRANCH   6   7
TORSDOF 3
ENDMDL
MODEL      152
REMARK 921   NORMALIZED FREE ENERGY PREDICTED BY IDOCK:   -3.82 KCAL/MOL
REMARK 922        TOTAL FREE ENERGY PREDICTED BY IDOCK:   -5.18 KCAL/MOL
REMARK 923 INTER-LIGAND FREE ENERGY PREDICTED BY IDOCK:   -4.60 KCAL/MOL
REMARK 924 INTRA-LIGAND FREE ENERGY PREDICTED BY IDOCK:   -0.58 KCAL/MOL
REMARK 927      BINDING AFFINITY PREDICTED BY RF-SCORE:    0.00 PKD
ROOT
HETATM    1  C   UNL     1      -9.474  10.212  67.039  1.00  0.00    -0.167 C  
HETATM    2  N   UNL     1      -8.132  10.245  67.612  1.00  0.00    -0.106 NA 
HETATM    3  C   UNL     1      -7.243  11.100  66.822  1.00  0.00    -0.146 C  
HETATM    4  C   UNL     1      -6.091  11.332  67.772  1.00  0.00    -0.048 C  
HETATM    5  C   UNL     1      -6.779  11.522  69.111  1.00  0.00    -0.108 C  
HETATM    6  C   UNL     1      -8.106  10.754  69.003  1.00  0.00    -0.140 C  
ENDROOT
BRANCH   6   7
HETATM    7  C   UNL     1      -8.206   9.585  69.996  1.00  0.00    -0.181 C  
BRANCH   7   8
HETATM    8  C   UNL     1      -9.562   9.457  70.699  1.00  0.00    -0.268 C  
BRANCH   8   9
HETATM    9  O   UNL     1      -9.548   8.359  71.608  1.00  0.00    -0.178 OA 
HETATM   10  C   UNL     1     -10.494   7.283  71.358  1.00  0.00    -0.203 C  
HETATM   11  C   UNL     1     -10.156   6.584  70.016  1.00  0.00    -0.203 A  
HETATM   12  C   UNL     1     -10.314   6.252  72.511  1.00  0.00    -0.214 A  
HETATM   13  C   UNL     1     -11.928   7.871  71.414  1.00  0.00    -0.331 C  
HETATM   14  C   UNL     1     -11.103   6.413  68.989  1.00  0.00    -0.424 A  
HETATM   15  C   UNL     1      -9.083   6.141  73.191  1.00  0.00    -0.129 A  
HETATM   16  C   UNL     1      -8.855   5.127  74.126  1.00  0.00    -0.113 A  
HETATM   17  C   UNL     1     -10.781   5.722  67.815  1.00  0.00    -0.306 A  
HETATM   18  C   UNL     1      -9.509   5.186  67.648  1.00  0.00    -0.127 A  
HETATM   19  C   UNL     1      -9.860   4.215  74.426  1.00  0.00    -0.174 A  
HETATM   20 CL   UNL     1      -9.130   4.304  66.222  1.00  0.00    -0.123 Cl 
HETATM   21  C   UNL     1      -8.545   5.355  68.637  1.00  0.00    -0.095 A  
HETATM   22  C   UNL     1     -11.097   4.322  73.797  1.00  0.00    -0.314 A  
HETATM   23  C   UNL     1     -11.318   5.322  72.845  1.00  0.00    -0.368 A  
HETATM   24  C   UNL     1      -8.865   6.057  69.803  1.00  0.00    -0.134 A  
ENDBRANCH   8   9
ENDBRANCH   7   8
ENDBRANCH   6   7
TORSDOF 3
ENDMDL
MODEL      153
REMARK 921   NORMALIZED FREE ENERGY PREDICTED BY IDOCK:   -3.81 KCAL/MOL
REMARK 922        TOTAL FREE ENERGY PREDICTED BY IDOCK:   -5.18 KCAL/MOL
REMARK 923 INTER-LIGAND FREE ENERGY PREDICTED BY IDOCK:   -4.57 KCAL/MOL
REMARK 924 INTRA-LIGAND FREE ENERGY PREDICTED BY IDOCK:   -0.60 KCAL/MOL
REMARK 927      BINDING AFFINITY PREDICTED BY RF-SCORE:    0.00 PKD
ROOT
HETATM    1  C   UNL     1     -10.876  11.480  63.938  1.00  0.00    -0.401 C  
HETATM    2  N   UNL     1     -10.724  11.780  65.358  1.00  0.00    -0.275 NA 
HETATM    3  C   UNL     1     -11.841  12.593  65.846  1.00  0.00    -0.444 C  
HETATM    4  C   UNL     1     -11.723  12.435  67.344  1.00  0.00    -0.417 C  
HETATM    5  C   UNL     1     -11.366  10.970  67.512  1.00  0.00    -0.332 C  
HETATM    6  C   UNL     1     -10.663  10.567  66.206  1.00  0.00    -0.069 C  
ENDROOT
BRANCH   6   7
HETATM    7  C   UNL     1      -9.200  10.145  66.418  1.00  0.00    -0.190 C  
BRANCH   7   8
HETATM    8  C   UNL     1      -8.936   8.644  66.247  1.00  0.00    -0.173 C  
BRANCH   8   9
HETATM    9  O   UNL     1      -8.746   8.025  67.517  1.00  0.00    -0.124 OA 
HETATM   10  C   UNL     1      -9.471   6.789  67.764  1.00  0.00    -0.118 C  
HETATM   11  C   UNL     1      -8.974   5.684  66.797  1.00  0.00    -0.116 A  
HETATM   12  C   UNL     1      -9.136   6.358  69.222  1.00  0.00    -0.136 A  
HETATM   13  C   UNL     1     -10.990   7.082  67.650  1.00  0.00    -0.259 C  
HETATM   14  C   UNL     1      -9.845   4.948  65.971  1.00  0.00    -0.219 A  
HETATM   15  C   UNL     1      -7.925   6.751  69.829  1.00  0.00    -0.124 A  
HETATM   16  C   UNL     1      -7.540   6.256  71.078  1.00  0.00    -0.090 A  
HETATM   17  C   UNL     1      -9.369   3.914  65.157  1.00  0.00    -0.158 A  
HETATM   18  C   UNL     1      -8.015   3.594  65.155  1.00  0.00    -0.090 A  
HETATM   19  C   UNL     1      -8.369   5.377  71.766  1.00  0.00    -0.119 A  
HETATM   20 CL   UNL     1      -7.442   2.297  64.183  1.00  0.00    -0.058 Cl 
HETATM   21  C   UNL     1      -7.127   4.315  65.946  1.00  0.00    -0.067 A  
HETATM   22  C   UNL     1      -9.586   4.999  71.208  1.00  0.00    -0.223 A  
HETATM   23  C   UNL     1      -9.961   5.476  69.948  1.00  0.00    -0.282 A  
HETATM   24  C   UNL     1      -7.602   5.356  66.749  1.00  0.00    -0.088 A  
ENDBRANCH   8   9
ENDBRANCH   7   8
ENDBRANCH   6   7
TORSDOF 3
ENDMDL
MODEL      154
REMARK 921   NORMALIZED FREE ENERGY PREDICTED BY IDOCK:   -3.81 KCAL/MOL
REMARK 922        TOTAL FREE ENERGY PREDICTED BY IDOCK:   -5.17 KCAL/MOL
REMARK 923 INTER-LIGAND FREE ENERGY PREDICTED BY IDOCK:   -4.63 KCAL/MOL
REMARK 924 INTRA-LIGAND FREE ENERGY PREDICTED BY IDOCK:   -0.54 KCAL/MOL
REMARK 927      BINDING AFFINITY PREDICTED BY RF-SCORE:    0.00 PKD
ROOT
HETATM    1  C   UNL     1      -8.054   8.848  63.428  1.00  0.00    -0.167 C  
HETATM    2  N   UNL     1      -7.633   9.106  64.802  1.00  0.00    -0.105 NA 
HETATM    3  C   UNL     1      -6.551  10.093  64.843  1.00  0.00    -0.127 C  
HETATM    4  C   UNL     1      -6.559  10.519  66.293  1.00  0.00    -0.118 C  
HETATM    5  C   UNL     1      -8.037  10.598  66.623  1.00  0.00    -0.136 C  
HETATM    6  C   UNL     1      -8.727   9.620  65.659  1.00  0.00    -0.141 C  
ENDROOT
BRANCH   6   7
HETATM    7  C   UNL     1      -9.423   8.456  66.381  1.00  0.00    -0.293 C  
BRANCH   7   8
HETATM    8  C   UNL     1      -9.394   8.544  67.911  1.00  0.00    -0.135 C  
BRANCH   8   9
HETATM    9  O   UNL     1      -9.255   7.244  68.481  1.00  0.00    -0.139 OA 
HETATM   10  C   UNL     1      -9.154   7.166  69.930  1.00  0.00    -0.141 C  
HETATM   11  C   UNL     1     -10.474   7.654  70.578  1.00  0.00    -0.221 A  
HETATM   12  C   UNL     1      -8.955   5.663  70.283  1.00  0.00    -0.152 A  
HETATM   13  C   UNL     1      -7.904   7.968  70.376  1.00  0.00    -0.091 C  
HETATM   14  C   UNL     1     -10.512   8.664  71.558  1.00  0.00    -0.344 A  
HETATM   15  C   UNL     1      -9.433   4.652  69.424  1.00  0.00    -0.239 A  
HETATM   16  C   UNL     1      -9.396   3.303  69.791  1.00  0.00    -0.229 A  
HETATM   17  C   UNL     1     -11.716   9.036  72.168  1.00  0.00    -0.366 A  
HETATM   18  C   UNL     1     -12.902   8.403  71.812  1.00  0.00    -0.345 A  
HETATM   19  C   UNL     1      -8.854   2.928  71.015  1.00  0.00    -0.141 A  
HETATM   20 CL   UNL     1     -14.372   8.837  72.593  1.00  0.00    -0.371 Cl 
HETATM   21  C   UNL     1     -12.901   7.416  70.834  1.00  0.00    -0.132 A  
HETATM   22  C   UNL     1      -8.342   3.900  71.868  1.00  0.00    -0.094 A  
HETATM   23  C   UNL     1      -8.400   5.251  71.511  1.00  0.00    -0.121 A  
HETATM   24  C   UNL     1     -11.699   7.054  70.216  1.00  0.00    -0.284 A  
ENDBRANCH   8   9
ENDBRANCH   7   8
ENDBRANCH   6   7
TORSDOF 3
ENDMDL
MODEL      155
REMARK 921   NORMALIZED FREE ENERGY PREDICTED BY IDOCK:   -3.80 KCAL/MOL
REMARK 922        TOTAL FREE ENERGY PREDICTED BY IDOCK:   -5.16 KCAL/MOL
REMARK 923 INTER-LIGAND FREE ENERGY PREDICTED BY IDOCK:   -4.33 KCAL/MOL
REMARK 924 INTRA-LIGAND FREE ENERGY PREDICTED BY IDOCK:   -0.83 KCAL/MOL
REMARK 927      BINDING AFFINITY PREDICTED BY RF-SCORE:    0.00 PKD
ROOT
HETATM    1  C   UNL     1      -5.490  12.675  70.833  1.00  0.00    -0.167 C  
HETATM    2  N   UNL     1      -6.238  12.628  69.581  1.00  0.00    -0.128 NA 
HETATM    3  C   UNL     1      -6.019  13.844  68.792  1.00  0.00    -0.085 C  
HETATM    4  C   UNL     1      -6.504  13.430  67.422  1.00  0.00    -0.014 C  
HETATM    5  C   UNL     1      -5.992  12.008  67.287  1.00  0.00    -0.146 C  
HETATM    6  C   UNL     1      -5.869  11.478  68.724  1.00  0.00    -0.046 C  
ENDROOT
BRANCH   6   7
HETATM    7  C   UNL     1      -6.800  10.289  69.007  1.00  0.00    -0.058 C  
BRANCH   7   8
HETATM    8  C   UNL     1      -8.286  10.653  69.117  1.00  0.00    -0.139 C  
BRANCH   8   9
HETATM    9  O   UNL     1      -8.804  11.016  67.839  1.00  0.00    -0.128 OA 
HETATM   10  C   UNL     1     -10.228  11.301  67.761  1.00  0.00    -0.180 C  
HETATM   11  C   UNL     1     -10.562  12.557  68.606  1.00  0.00    -0.240 A  
HETATM   12  C   UNL     1     -10.541  11.612  66.268  1.00  0.00    -0.301 A  
HETATM   13  C   UNL     1     -11.004  10.030  68.196  1.00  0.00    -0.289 C  
HETATM   14  C   UNL     1     -11.555  12.560  69.604  1.00  0.00    -0.323 A  
HETATM   15  C   UNL     1      -9.540  12.119  65.414  1.00  0.00    -0.112 A  
HETATM   16  C   UNL     1      -9.835  12.541  64.114  1.00  0.00    -0.122 A  
HETATM   17  C   UNL     1     -11.874  13.728  70.305  1.00  0.00    -0.342 A  
HETATM   18  C   UNL     1     -11.210  14.916  70.018  1.00  0.00    -0.259 A  
HETATM   19  C   UNL     1     -11.133  12.441  63.625  1.00  0.00    -0.535 A  
HETATM   20 CL   UNL     1     -11.634  16.358  70.854  1.00  0.00    -0.310 Cl 
HETATM   21  C   UNL     1     -10.212  14.942  69.052  1.00  0.00    -0.243 A  
HETATM   22  C   UNL     1     -12.134  11.911  64.433  1.00  0.00    -0.305 A  
HETATM   23  C   UNL     1     -11.844  11.510  65.741  1.00  0.00     0.371 A  
HETATM   24  C   UNL     1      -9.885  13.770  68.362  1.00  0.00    -0.227 A  
ENDBRANCH   8   9
ENDBRANCH   7   8
ENDBRANCH   6   7
TORSDOF 3
ENDMDL
MODEL      156
REMARK 921   NORMALIZED FREE ENERGY PREDICTED BY IDOCK:   -3.77 KCAL/MOL
REMARK 922        TOTAL FREE ENERGY PREDICTED BY IDOCK:   -5.13 KCAL/MOL
REMARK 923 INTER-LIGAND FREE ENERGY PREDICTED BY IDOCK:   -4.43 KCAL/MOL
REMARK 924 INTRA-LIGAND FREE ENERGY PREDICTED BY IDOCK:   -0.70 KCAL/MOL
REMARK 927      BINDING AFFINITY PREDICTED BY RF-SCORE:    0.00 PKD
ROOT
HETATM    1  C   UNL     1     -10.325  10.848  66.948  1.00  0.00    -0.238 C  
HETATM    2  N   UNL     1     -10.566  12.067  66.181  1.00  0.00    -0.254 NA 
HETATM    3  C   UNL     1     -10.249  11.868  64.764  1.00  0.00    -0.276 C  
HETATM    4  C   UNL     1     -10.941  13.042  64.112  1.00  0.00    -0.438 C  
HETATM    5  C   UNL     1     -12.252  13.138  64.870  1.00  0.00    -0.477 C  
HETATM    6  C   UNL     1     -11.971  12.531  66.254  1.00  0.00    -0.343 C  
ENDROOT
BRANCH   6   7
HETATM    7  C   UNL     1     -12.133  13.545  67.397  1.00  0.00    -0.360 C  
BRANCH   7   8
HETATM    8  C   UNL     1     -11.423  14.885  67.169  1.00  0.00    -0.335 C  
BRANCH   8   9
HETATM    9  O   UNL     1     -10.077  14.819  67.638  1.00  0.00    -0.226 OA 
HETATM   10  C   UNL     1      -9.164  15.849  67.167  1.00  0.00    -0.209 C  
HETATM   11  C   UNL     1      -9.614  17.235  67.693  1.00  0.00    -0.256 A  
HETATM   12  C   UNL     1      -7.768  15.519  67.772  1.00  0.00    -0.156 A  
HETATM   13  C   UNL     1      -9.087  15.762  65.620  1.00  0.00    -0.008 C  
HETATM   14  C   UNL     1      -9.830  18.338  66.844  1.00  0.00    -0.335 A  
HETATM   15  C   UNL     1      -7.660  14.794  68.977  1.00  0.00    -0.141 A  
HETATM   16  C   UNL     1      -6.427  14.615  69.613  1.00  0.00    -0.149 A  
HETATM   17  C   UNL     1     -10.176  19.592  67.360  1.00  0.00    -0.550 A  
HETATM   18  C   UNL     1     -10.307  19.769  68.733  1.00  0.00    -0.252 A  
HETATM   19  C   UNL     1      -5.268  15.131  69.045  1.00  0.00    -0.098 A  
HETATM   20 CL   UNL     1     -10.693  21.321  69.364  1.00  0.00     0.844 Cl 
HETATM   21  C   UNL     1     -10.120  18.695  69.596  1.00  0.00     0.414 A  
HETATM   22  C   UNL     1      -5.340  15.819  67.838  1.00  0.00    -0.142 A  
HETATM   23  C   UNL     1      -6.575  16.019  67.215  1.00  0.00    -0.219 A  
HETATM   24  C   UNL     1      -9.787  17.439  69.078  1.00  0.00    -0.230 A  
ENDBRANCH   8   9
ENDBRANCH   7   8
ENDBRANCH   6   7
TORSDOF 3
ENDMDL
MODEL      157
REMARK 921   NORMALIZED FREE ENERGY PREDICTED BY IDOCK:   -3.74 KCAL/MOL
REMARK 922        TOTAL FREE ENERGY PREDICTED BY IDOCK:   -5.09 KCAL/MOL
REMARK 923 INTER-LIGAND FREE ENERGY PREDICTED BY IDOCK:   -4.52 KCAL/MOL
REMARK 924 INTRA-LIGAND FREE ENERGY PREDICTED BY IDOCK:   -0.57 KCAL/MOL
REMARK 927      BINDING AFFINITY PREDICTED BY RF-SCORE:    0.00 PKD
ROOT
HETATM    1  C   UNL     1     -11.186  11.215  67.711  1.00  0.00    -0.294 C  
HETATM    2  N   UNL     1     -10.368  10.262  66.967  1.00  0.00    -0.231 NA 
HETATM    3  C   UNL     1      -9.353  10.953  66.167  1.00  0.00    -0.186 C  
HETATM    4  C   UNL     1      -8.390   9.837  65.836  1.00  0.00    -0.128 C  
HETATM    5  C   UNL     1      -8.319   9.045  67.128  1.00  0.00    -0.110 C  
HETATM    6  C   UNL     1      -9.657   9.300  67.841  1.00  0.00    -0.142 C  
ENDROOT
BRANCH   6   7
HETATM    7  C   UNL     1     -10.497   8.025  68.015  1.00  0.00    -0.243 C  
BRANCH   7   8
HETATM    8  C   UNL     1     -10.736   7.612  69.472  1.00  0.00    -0.209 C  
BRANCH   8   9
HETATM    9  O   UNL     1      -9.547   7.785  70.239  1.00  0.00    -0.174 OA 
HETATM   10  C   UNL     1      -9.672   7.676  71.684  1.00  0.00    -0.161 C  
HETATM   11  C   UNL     1     -10.089   6.234  72.071  1.00  0.00    -0.205 A  
HETATM   12  C   UNL     1      -8.260   7.958  72.278  1.00  0.00    -0.167 A  
HETATM   13  C   UNL     1     -10.662   8.766  72.172  1.00  0.00    -0.383 C  
HETATM   14  C   UNL     1     -11.209   5.957  72.878  1.00  0.00    -0.291 A  
HETATM   15  C   UNL     1      -7.098   7.709  71.519  1.00  0.00    -0.062 A  
HETATM   16  C   UNL     1      -5.822   7.816  72.082  1.00  0.00    -0.036 A  
HETATM   17  C   UNL     1     -11.520   4.647  73.259  1.00  0.00    -0.346 A  
HETATM   18  C   UNL     1     -10.717   3.590  72.844  1.00  0.00    -0.094 A  
HETATM   19  C   UNL     1      -5.675   8.202  73.409  1.00  0.00    -0.061 A  
HETATM   20 CL   UNL     1     -11.081   1.987  73.348  1.00  0.00    -0.278 Cl 
HETATM   21  C   UNL     1      -9.616   3.829  72.030  1.00  0.00    -0.213 A  
HETATM   22  C   UNL     1      -6.803   8.489  74.171  1.00  0.00    -0.147 A  
HETATM   23  C   UNL     1      -8.080   8.359  73.616  1.00  0.00    -0.178 A  
HETATM   24  C   UNL     1      -9.313   5.137  71.640  1.00  0.00    -0.183 A  
ENDBRANCH   8   9
ENDBRANCH   7   8
ENDBRANCH   6   7
TORSDOF 3
ENDMDL
MODEL      158
REMARK 921   NORMALIZED FREE ENERGY PREDICTED BY IDOCK:   -3.72 KCAL/MOL
REMARK 922        TOTAL FREE ENERGY PREDICTED BY IDOCK:   -5.07 KCAL/MOL
REMARK 923 INTER-LIGAND FREE ENERGY PREDICTED BY IDOCK:   -4.46 KCAL/MOL
REMARK 924 INTRA-LIGAND FREE ENERGY PREDICTED BY IDOCK:   -0.61 KCAL/MOL
REMARK 927      BINDING AFFINITY PREDICTED BY RF-SCORE:    0.00 PKD
ROOT
HETATM    1  C   UNL     1      -6.122   4.582  69.362  1.00  0.00    -0.026 C  
HETATM    2  N   UNL     1      -6.714   3.490  70.130  1.00  0.00    -0.033 NA 
HETATM    3  C   UNL     1      -5.816   2.333  70.177  1.00  0.00    -0.018 C  
HETATM    4  C   UNL     1      -6.392   1.524  71.316  1.00  0.00    -0.018 C  
HETATM    5  C   UNL     1      -6.762   2.581  72.339  1.00  0.00    -0.019 C  
HETATM    6  C   UNL     1      -7.019   3.863  71.531  1.00  0.00    -0.031 C  
ENDROOT
BRANCH   6   7
HETATM    7  C   UNL     1      -8.469   4.361  71.640  1.00  0.00    -0.112 C  
BRANCH   7   8
HETATM    8  C   UNL     1      -8.657   5.590  72.538  1.00  0.00    -0.121 C  
BRANCH   8   9
HETATM    9  O   UNL     1      -9.972   6.119  72.386  1.00  0.00    -0.169 OA 
HETATM   10  C   UNL     1     -10.081   7.524  72.028  1.00  0.00    -0.187 C  
HETATM   11  C   UNL     1      -9.484   7.757  70.617  1.00  0.00    -0.162 A  
HETATM   12  C   UNL     1     -11.602   7.857  71.983  1.00  0.00    -0.357 A  
HETATM   13  C   UNL     1      -9.403   8.365  73.141  1.00  0.00    -0.205 C  
HETATM   14  C   UNL     1      -8.490   8.721  70.362  1.00  0.00    -0.163 A  
HETATM   15  C   UNL     1     -12.551   6.850  71.712  1.00  0.00    -0.386 A  
HETATM   16  C   UNL     1     -13.903   7.154  71.523  1.00  0.00    -0.421 A  
HETATM   17  C   UNL     1      -8.018   8.948  69.064  1.00  0.00    -0.106 A  
HETATM   18  C   UNL     1      -8.534   8.220  67.997  1.00  0.00    -0.132 A  
HETATM   19  C   UNL     1     -14.344   8.468  71.627  1.00  0.00    -0.497 A  
HETATM   20 CL   UNL     1      -7.979   8.530  66.400  1.00  0.00    -0.097 Cl 
HETATM   21  C   UNL     1      -9.503   7.247  68.220  1.00  0.00    -0.141 A  
HETATM   22  C   UNL     1     -13.436   9.477  71.929  1.00  0.00    -0.502 A  
HETATM   23  C   UNL     1     -12.080   9.178  72.096  1.00  0.00    -0.389 A  
HETATM   24  C   UNL     1      -9.963   7.013  69.519  1.00  0.00    -0.166 A  
ENDBRANCH   8   9
ENDBRANCH   7   8
ENDBRANCH   6   7
TORSDOF 3
ENDMDL
MODEL      159
REMARK 921   NORMALIZED FREE ENERGY PREDICTED BY IDOCK:   -3.72 KCAL/MOL
REMARK 922        TOTAL FREE ENERGY PREDICTED BY IDOCK:   -5.07 KCAL/MOL
REMARK 923 INTER-LIGAND FREE ENERGY PREDICTED BY IDOCK:   -4.45 KCAL/MOL
REMARK 924 INTRA-LIGAND FREE ENERGY PREDICTED BY IDOCK:   -0.62 KCAL/MOL
REMARK 927      BINDING AFFINITY PREDICTED BY RF-SCORE:    0.00 PKD
ROOT
HETATM    1  C   UNL     1     -11.645  12.258  65.082  1.00  0.00    -0.351 C  
HETATM    2  N   UNL     1     -10.764  11.094  65.066  1.00  0.00    -0.267 NA 
HETATM    3  C   UNL     1      -9.844  11.147  63.927  1.00  0.00    -0.308 C  
HETATM    4  C   UNL     1      -8.791  10.135  64.317  1.00  0.00    -0.244 C  
HETATM    5  C   UNL     1      -8.606  10.381  65.803  1.00  0.00    -0.172 C  
HETATM    6  C   UNL     1      -9.939  10.971  66.290  1.00  0.00    -0.224 C  
ENDROOT
BRANCH   6   7
HETATM    7  C   UNL     1     -10.651  10.077  67.318  1.00  0.00    -0.319 C  
BRANCH   7   8
HETATM    8  C   UNL     1     -10.599   8.577  67.005  1.00  0.00    -0.235 C  
BRANCH   8   9
HETATM    9  O   UNL     1      -9.589   7.941  67.787  1.00  0.00    -0.142 OA 
HETATM   10  C   UNL     1      -9.713   6.506  67.983  1.00  0.00    -0.118 C  
HETATM   11  C   UNL     1      -9.569   5.772  66.625  1.00  0.00    -0.168 A  
HETATM   12  C   UNL     1      -8.534   6.077  68.905  1.00  0.00    -0.116 A  
HETATM   13  C   UNL     1     -11.058   6.226  68.705  1.00  0.00    -0.424 C  
HETATM   14  C   UNL     1     -10.528   4.858  66.149  1.00  0.00    -0.346 A  
HETATM   15  C   UNL     1      -7.338   6.824  68.937  1.00  0.00    -0.094 A  
HETATM   16  C   UNL     1      -6.217   6.377  69.643  1.00  0.00    -0.033 A  
HETATM   17  C   UNL     1     -10.335   4.167  64.947  1.00  0.00    -0.210 A  
HETATM   18  C   UNL     1      -9.179   4.373  64.202  1.00  0.00    -0.140 A  
HETATM   19  C   UNL     1      -6.272   5.186  70.358  1.00  0.00    -0.019 A  
HETATM   20 CL   UNL     1      -8.929   3.491  62.747  1.00  0.00    -0.093 Cl 
HETATM   21  C   UNL     1      -8.222   5.283  64.637  1.00  0.00    -0.134 A  
HETATM   22  C   UNL     1      -7.450   4.446  70.374  1.00  0.00    -0.049 A  
HETATM   23  C   UNL     1      -8.564   4.881  69.648  1.00  0.00    -0.098 A  
HETATM   24  C   UNL     1      -8.423   5.983  65.831  1.00  0.00    -0.143 A  
ENDBRANCH   8   9
ENDBRANCH   7   8
ENDBRANCH   6   7
TORSDOF 3
ENDMDL
MODEL      160
REMARK 921   NORMALIZED FREE ENERGY PREDICTED BY IDOCK:   -3.70 KCAL/MOL
REMARK 922        TOTAL FREE ENERGY PREDICTED BY IDOCK:   -5.05 KCAL/MOL
REMARK 923 INTER-LIGAND FREE ENERGY PREDICTED BY IDOCK:   -4.38 KCAL/MOL
REMARK 924 INTRA-LIGAND FREE ENERGY PREDICTED BY IDOCK:   -0.66 KCAL/MOL
REMARK 927      BINDING AFFINITY PREDICTED BY RF-SCORE:    0.00 PKD
ROOT
HETATM    1  C   UNL     1     -11.538   8.166  72.455  1.00  0.00    -0.399 C  
HETATM    2  N   UNL     1     -10.707   6.983  72.655  1.00  0.00    -0.242 NA 
HETATM    3  C   UNL     1     -11.529   5.774  72.756  1.00  0.00    -0.255 C  
HETATM    4  C   UNL     1     -10.514   4.675  72.536  1.00  0.00    -0.257 C  
HETATM    5  C   UNL     1      -9.632   5.233  71.434  1.00  0.00    -0.209 C  
HETATM    6  C   UNL     1      -9.735   6.761  71.560  1.00  0.00    -0.163 C  
ENDROOT
BRANCH   6   7
HETATM    7  C   UNL     1      -8.392   7.426  71.903  1.00  0.00    -0.115 C  
BRANCH   7   8
HETATM    8  C   UNL     1      -7.832   8.339  70.806  1.00  0.00    -0.091 C  
BRANCH   8   9
HETATM    9  O   UNL     1      -8.828   9.262  70.372  1.00  0.00    -0.195 OA 
HETATM   10  C   UNL     1      -8.461  10.172  69.298  1.00  0.00    -0.163 C  
HETATM   11  C   UNL     1      -8.185   9.373  67.999  1.00  0.00    -0.114 A  
HETATM   12  C   UNL     1      -9.689  11.098  69.058  1.00  0.00    -0.113 A  
HETATM   13  C   UNL     1      -7.257  11.028  69.774  1.00  0.00    -0.008 C  
HETATM   14  C   UNL     1      -6.988   9.498  67.269  1.00  0.00    -0.085 A  
HETATM   15  C   UNL     1     -10.993  10.661  69.372  1.00  0.00    -0.304 A  
HETATM   16  C   UNL     1     -12.118  11.416  69.029  1.00  0.00    -0.316 A  
HETATM   17  C   UNL     1      -6.797   8.808  66.067  1.00  0.00    -0.073 A  
HETATM   18  C   UNL     1      -7.801   7.984  65.569  1.00  0.00    -0.106 A  
HETATM   19  C   UNL     1     -11.968  12.641  68.388  1.00  0.00    -0.268 A  
HETATM   20 CL   UNL     1      -7.578   7.169  64.072  1.00  0.00    -0.106 Cl 
HETATM   21  C   UNL     1      -8.987   7.824  66.277  1.00  0.00    -0.209 A  
HETATM   22  C   UNL     1     -10.693  13.114  68.098  1.00  0.00    -0.258 A  
HETATM   23  C   UNL     1      -9.568  12.348  68.419  1.00  0.00    -0.180 A  
HETATM   24  C   UNL     1      -9.170   8.504  67.485  1.00  0.00    -0.151 A  
ENDBRANCH   8   9
ENDBRANCH   7   8
ENDBRANCH   6   7
TORSDOF 3
ENDMDL
MODEL      161
REMARK 921   NORMALIZED FREE ENERGY PREDICTED BY IDOCK:   -3.70 KCAL/MOL
REMARK 922        TOTAL FREE ENERGY PREDICTED BY IDOCK:   -5.04 KCAL/MOL
REMARK 923 INTER-LIGAND FREE ENERGY PREDICTED BY IDOCK:   -4.38 KCAL/MOL
REMARK 924 INTRA-LIGAND FREE ENERGY PREDICTED BY IDOCK:   -0.67 KCAL/MOL
REMARK 927      BINDING AFFINITY PREDICTED BY RF-SCORE:    0.00 PKD
ROOT
HETATM    1  C   UNL     1     -11.961   7.386  72.059  1.00  0.00    -0.297 C  
HETATM    2  N   UNL     1     -12.242   8.538  71.207  1.00  0.00    -0.293 NA 
HETATM    3  C   UNL     1     -13.074   9.519  71.909  1.00  0.00    -0.428 C  
HETATM    4  C   UNL     1     -12.896  10.757  71.061  1.00  0.00    -0.480 C  
HETATM    5  C   UNL     1     -11.422  10.725  70.704  1.00  0.00    -0.314 C  
HETATM    6  C   UNL     1     -11.018   9.243  70.760  1.00  0.00    -0.284 C  
ENDROOT
BRANCH   6   7
HETATM    7  C   UNL     1     -10.561   8.695  69.399  1.00  0.00    -0.207 C  
BRANCH   7   8
HETATM    8  C   UNL     1      -9.104   8.221  69.357  1.00  0.00    -0.154 C  
BRANCH   8   9
HETATM    9  O   UNL     1      -8.984   7.056  68.543  1.00  0.00    -0.125 OA 
HETATM   10  C   UNL     1      -8.033   6.044  68.975  1.00  0.00    -0.104 C  
HETATM   11  C   UNL     1      -8.485   5.438  70.328  1.00  0.00    -0.119 A  
HETATM   12  C   UNL     1      -8.054   4.921  67.898  1.00  0.00    -0.093 A  
HETATM   13  C   UNL     1      -6.622   6.687  69.019  1.00  0.00    -0.044 C  
HETATM   14  C   UNL     1      -7.646   5.387  71.458  1.00  0.00    -0.103 A  
HETATM   15  C   UNL     1      -9.202   4.704  67.107  1.00  0.00    -0.140 A  
HETATM   16  C   UNL     1      -9.295   3.612  66.239  1.00  0.00    -0.187 A  
HETATM   17  C   UNL     1      -8.066   4.776  72.645  1.00  0.00    -0.100 A  
HETATM   18  C   UNL     1      -9.329   4.200  72.724  1.00  0.00    -0.120 A  
HETATM   19  C   UNL     1      -8.232   2.723  66.119  1.00  0.00    -0.086 A  
HETATM   20 CL   UNL     1      -9.825   3.416  74.171  1.00  0.00    -0.145 Cl 
HETATM   21  C   UNL     1     -10.188   4.251  71.632  1.00  0.00    -0.160 A  
HETATM   22  C   UNL     1      -7.073   2.932  66.860  1.00  0.00    -0.053 A  
HETATM   23  C   UNL     1      -6.989   4.011  67.746  1.00  0.00    -0.055 A  
HETATM   24  C   UNL     1      -9.772   4.873  70.451  1.00  0.00    -0.284 A  
ENDBRANCH   8   9
ENDBRANCH   7   8
ENDBRANCH   6   7
TORSDOF 3
ENDMDL
MODEL      162
REMARK 921   NORMALIZED FREE ENERGY PREDICTED BY IDOCK:   -3.69 KCAL/MOL
REMARK 922        TOTAL FREE ENERGY PREDICTED BY IDOCK:   -5.04 KCAL/MOL
REMARK 923 INTER-LIGAND FREE ENERGY PREDICTED BY IDOCK:   -4.40 KCAL/MOL
REMARK 924 INTRA-LIGAND FREE ENERGY PREDICTED BY IDOCK:   -0.63 KCAL/MOL
REMARK 927      BINDING AFFINITY PREDICTED BY RF-SCORE:    0.00 PKD
ROOT
HETATM    1  C   UNL     1     -10.526  16.077  68.434  1.00  0.00    -0.263 C  
HETATM    2  N   UNL     1     -11.003  14.762  68.016  1.00  0.00    -0.263 NA 
HETATM    3  C   UNL     1     -12.051  14.881  66.999  1.00  0.00     0.019 C  
HETATM    4  C   UNL     1     -12.098  13.487  66.419  1.00  0.00    -0.467 C  
HETATM    5  C   UNL     1     -10.635  13.091  66.348  1.00  0.00    -0.294 C  
HETATM    6  C   UNL     1      -9.934  13.910  67.444  1.00  0.00    -0.240 C  
ENDROOT
BRANCH   6   7
HETATM    7  C   UNL     1      -9.314  13.033  68.544  1.00  0.00    -0.078 C  
BRANCH   7   8
HETATM    8  C   UNL     1      -8.781  11.680  68.058  1.00  0.00    -0.157 C  
BRANCH   8   9
HETATM    9  O   UNL     1      -9.051  10.665  69.022  1.00  0.00    -0.174 OA 
HETATM   10  C   UNL     1      -9.666   9.439  68.536  1.00  0.00    -0.149 C  
HETATM   11  C   UNL     1      -8.697   8.709  67.572  1.00  0.00    -0.135 A  
HETATM   12  C   UNL     1      -9.902   8.534  69.780  1.00  0.00    -0.186 A  
HETATM   13  C   UNL     1     -11.032   9.800  67.896  1.00  0.00    -0.246 C  
HETATM   14  C   UNL     1      -9.069   8.320  66.270  1.00  0.00    -0.235 A  
HETATM   15  C   UNL     1      -9.094   8.663  70.929  1.00  0.00    -0.229 A  
HETATM   16  C   UNL     1      -9.193   7.766  71.996  1.00  0.00    -0.189 A  
HETATM   17  C   UNL     1      -8.189   7.606  65.449  1.00  0.00    -0.137 A  
HETATM   18  C   UNL     1      -6.924   7.264  65.914  1.00  0.00    -0.061 A  
HETATM   19  C   UNL     1     -10.122   6.732  71.955  1.00  0.00    -0.195 A  
HETATM   20 CL   UNL     1      -5.861   6.352  64.915  1.00  0.00    -0.022 Cl 
HETATM   21  C   UNL     1      -6.520   7.650  67.187  1.00  0.00    -0.055 A  
HETATM   22  C   UNL     1     -10.957   6.601  70.850  1.00  0.00    -0.315 A  
HETATM   23  C   UNL     1     -10.843   7.485  69.772  1.00  0.00    -0.234 A  
HETATM   24  C   UNL     1      -7.396   8.375  68.002  1.00  0.00    -0.096 A  
ENDBRANCH   8   9
ENDBRANCH   7   8
ENDBRANCH   6   7
TORSDOF 3
ENDMDL
MODEL      163
REMARK 921   NORMALIZED FREE ENERGY PREDICTED BY IDOCK:   -3.67 KCAL/MOL
REMARK 922        TOTAL FREE ENERGY PREDICTED BY IDOCK:   -5.01 KCAL/MOL
REMARK 923 INTER-LIGAND FREE ENERGY PREDICTED BY IDOCK:   -4.36 KCAL/MOL
REMARK 924 INTRA-LIGAND FREE ENERGY PREDICTED BY IDOCK:   -0.65 KCAL/MOL
REMARK 927      BINDING AFFINITY PREDICTED BY RF-SCORE:    0.00 PKD
ROOT
HETATM    1  C   UNL     1     -10.684   3.528  63.629  1.00  0.00    -0.260 C  
HETATM    2  N   UNL     1      -9.337   3.075  63.964  1.00  0.00    -0.115 NA 
HETATM    3  C   UNL     1      -8.446   3.176  62.805  1.00  0.00    -0.078 C  
HETATM    4  C   UNL     1      -7.078   3.079  63.440  1.00  0.00    -0.044 C  
HETATM    5  C   UNL     1      -7.223   3.909  64.703  1.00  0.00    -0.066 C  
HETATM    6  C   UNL     1      -8.717   3.855  65.061  1.00  0.00    -0.116 C  
ENDROOT
BRANCH   6   7
HETATM    7  C   UNL     1      -8.986   3.171  66.411  1.00  0.00    -0.158 C  
BRANCH   7   8
HETATM    8  C   UNL     1      -9.395   4.125  67.539  1.00  0.00    -0.171 C  
BRANCH   8   9
HETATM    9  O   UNL     1      -9.000   5.459  67.230  1.00  0.00    -0.113 OA 
HETATM   10  C   UNL     1      -9.954   6.516  67.528  1.00  0.00    -0.137 C  
HETATM   11  C   UNL     1     -10.185   6.603  69.058  1.00  0.00    -0.196 A  
HETATM   12  C   UNL     1      -9.309   7.849  67.048  1.00  0.00    -0.200 A  
HETATM   13  C   UNL     1     -11.247   6.249  66.714  1.00  0.00    -0.098 C  
HETATM   14  C   UNL     1     -11.466   6.548  69.638  1.00  0.00    -0.417 A  
HETATM   15  C   UNL     1      -7.907   7.986  66.978  1.00  0.00    -0.104 A  
HETATM   16  C   UNL     1      -7.306   9.216  66.692  1.00  0.00    -0.086 A  
HETATM   17  C   UNL     1     -11.643   6.692  71.019  1.00  0.00    -0.399 A  
HETATM   18  C   UNL     1     -10.543   6.899  71.845  1.00  0.00    -0.211 A  
HETATM   19  C   UNL     1      -8.093  10.334  66.441  1.00  0.00    -0.123 A  
HETATM   20 CL   UNL     1     -10.769   7.115  73.535  1.00  0.00    -0.411 Cl 
HETATM   21  C   UNL     1      -9.263   6.939  71.304  1.00  0.00    -0.157 A  
HETATM   22  C   UNL     1      -9.479  10.222  66.468  1.00  0.00    -0.212 A  
HETATM   23  C   UNL     1     -10.080   8.997  66.777  1.00  0.00    -0.344 A  
HETATM   24  C   UNL     1      -9.087   6.781  69.926  1.00  0.00    -0.144 A  
ENDBRANCH   8   9
ENDBRANCH   7   8
ENDBRANCH   6   7
TORSDOF 3
ENDMDL
MODEL      164
REMARK 921   NORMALIZED FREE ENERGY PREDICTED BY IDOCK:   -3.67 KCAL/MOL
REMARK 922        TOTAL FREE ENERGY PREDICTED BY IDOCK:   -5.01 KCAL/MOL
REMARK 923 INTER-LIGAND FREE ENERGY PREDICTED BY IDOCK:   -4.15 KCAL/MOL
REMARK 924 INTRA-LIGAND FREE ENERGY PREDICTED BY IDOCK:   -0.86 KCAL/MOL
REMARK 927      BINDING AFFINITY PREDICTED BY RF-SCORE:    0.00 PKD
ROOT
HETATM    1  C   UNL     1     -10.824  14.778  64.876  1.00  0.00    -0.416 C  
HETATM    2  N   UNL     1     -10.698  14.748  66.330  1.00  0.00    -0.305 NA 
HETATM    3  C   UNL     1     -12.015  14.688  66.970  1.00  0.00    -0.276 C  
HETATM    4  C   UNL     1     -11.670  14.249  68.374  1.00  0.00    -0.373 C  
HETATM    5  C   UNL     1     -10.582  13.214  68.157  1.00  0.00    -0.257 C  
HETATM    6  C   UNL     1      -9.918  13.589  66.823  1.00  0.00    -0.269 C  
ENDROOT
BRANCH   6   7
HETATM    7  C   UNL     1      -8.439  13.976  66.976  1.00  0.00    -0.168 C  
BRANCH   7   8
HETATM    8  C   UNL     1      -7.499  12.802  67.272  1.00  0.00    -0.097 C  
BRANCH   8   9
HETATM    9  O   UNL     1      -7.607  11.810  66.254  1.00  0.00     0.064 OA 
HETATM   10  C   UNL     1      -7.193  10.460  66.601  1.00  0.00    -0.113 C  
HETATM   11  C   UNL     1      -8.126   9.887  67.698  1.00  0.00    -0.110 A  
HETATM   12  C   UNL     1      -7.355   9.598  65.314  1.00  0.00    -0.113 A  
HETATM   13  C   UNL     1      -5.697  10.498  67.009  1.00  0.00    -0.047 C  
HETATM   14  C   UNL     1      -7.640   9.357  68.909  1.00  0.00    -0.075 A  
HETATM   15  C   UNL     1      -8.292   9.955  64.322  1.00  0.00    -0.167 A  
HETATM   16  C   UNL     1      -8.557   9.119  63.234  1.00  0.00    -0.182 A  
HETATM   17  C   UNL     1      -8.507   8.791  69.851  1.00  0.00    -0.131 A  
HETATM   18  C   UNL     1      -9.873   8.741  69.599  1.00  0.00    -0.183 A  
HETATM   19  C   UNL     1      -7.871   7.917  63.094  1.00  0.00    -0.142 A  
HETATM   20 CL   UNL     1     -10.929   8.008  70.742  1.00  0.00    -0.248 Cl 
HETATM   21  C   UNL     1     -10.386   9.273  68.421  1.00  0.00    -0.244 A  
HETATM   22  C   UNL     1      -6.915   7.556  64.038  1.00  0.00    -0.058 A  
HETATM   23  C   UNL     1      -6.667   8.381  65.139  1.00  0.00    -0.063 A  
HETATM   24  C   UNL     1      -9.520   9.850  67.487  1.00  0.00    -0.173 A  
ENDBRANCH   8   9
ENDBRANCH   7   8
ENDBRANCH   6   7
TORSDOF 3
ENDMDL
MODEL      165
REMARK 921   NORMALIZED FREE ENERGY PREDICTED BY IDOCK:   -3.66 KCAL/MOL
REMARK 922        TOTAL FREE ENERGY PREDICTED BY IDOCK:   -4.99 KCAL/MOL
REMARK 923 INTER-LIGAND FREE ENERGY PREDICTED BY IDOCK:   -4.58 KCAL/MOL
REMARK 924 INTRA-LIGAND FREE ENERGY PREDICTED BY IDOCK:   -0.42 KCAL/MOL
REMARK 927      BINDING AFFINITY PREDICTED BY RF-SCORE:    0.00 PKD
ROOT
HETATM    1  C   UNL     1      -5.136   5.011  66.299  1.00  0.00    -0.008 C  
HETATM    2  N   UNL     1      -5.521   6.135  65.450  1.00  0.00    -0.016 NA 
HETATM    3  C   UNL     1      -5.559   5.739  64.040  1.00  0.00    -0.017 C  
HETATM    4  C   UNL     1      -6.354   6.860  63.412  1.00  0.00    -0.043 C  
HETATM    5  C   UNL     1      -7.441   7.130  64.436  1.00  0.00    -0.097 C  
HETATM    6  C   UNL     1      -6.853   6.689  65.785  1.00  0.00    -0.049 C  
ENDROOT
BRANCH   6   7
HETATM    7  C   UNL     1      -6.707   7.848  66.784  1.00  0.00    -0.063 C  
BRANCH   7   8
HETATM    8  C   UNL     1      -7.928   8.770  66.875  1.00  0.00    -0.098 C  
BRANCH   8   9
HETATM    9  O   UNL     1      -8.798   8.341  67.921  1.00  0.00    -0.137 OA 
HETATM   10  C   UNL     1      -9.040   9.280  69.005  1.00  0.00    -0.147 C  
HETATM   11  C   UNL     1      -9.786  10.527  68.466  1.00  0.00    -0.175 A  
HETATM   12  C   UNL     1      -9.963   8.554  70.027  1.00  0.00    -0.191 A  
HETATM   13  C   UNL     1      -7.682   9.607  69.680  1.00  0.00    -0.124 C  
HETATM   14  C   UNL     1      -9.318  11.840  68.668  1.00  0.00    -0.096 A  
HETATM   15  C   UNL     1     -10.827   7.520  69.609  1.00  0.00    -0.210 A  
HETATM   16  C   UNL     1     -11.766   6.957  70.479  1.00  0.00    -0.401 A  
HETATM   17  C   UNL     1     -10.050  12.946  68.222  1.00  0.00    -0.242 A  
HETATM   18  C   UNL     1     -11.265  12.761  67.570  1.00  0.00    -0.289 A  
HETATM   19  C   UNL     1     -11.846   7.394  71.796  1.00  0.00    -0.327 A  
HETATM   20 CL   UNL     1     -12.179  14.125  67.060  1.00  0.00    -0.441 Cl 
HETATM   21  C   UNL     1     -11.745  11.477  67.339  1.00  0.00    -0.231 A  
HETATM   22  C   UNL     1     -10.983   8.387  72.246  1.00  0.00    -0.431 A  
HETATM   23  C   UNL     1     -10.059   8.967  71.371  1.00  0.00    -0.379 A  
HETATM   24  C   UNL     1     -11.006  10.372  67.774  1.00  0.00    -0.369 A  
ENDBRANCH   8   9
ENDBRANCH   7   8
ENDBRANCH   6   7
TORSDOF 3
ENDMDL
MODEL      166
REMARK 921   NORMALIZED FREE ENERGY PREDICTED BY IDOCK:   -3.62 KCAL/MOL
REMARK 922        TOTAL FREE ENERGY PREDICTED BY IDOCK:   -4.95 KCAL/MOL
REMARK 923 INTER-LIGAND FREE ENERGY PREDICTED BY IDOCK:   -4.63 KCAL/MOL
REMARK 924 INTRA-LIGAND FREE ENERGY PREDICTED BY IDOCK:   -0.32 KCAL/MOL
REMARK 927      BINDING AFFINITY PREDICTED BY RF-SCORE:    0.00 PKD
ROOT
HETATM    1  C   UNL     1     -10.614   7.994  70.930  1.00  0.00    -0.213 C  
HETATM    2  N   UNL     1     -11.745   8.910  70.819  1.00  0.00    -0.264 NA 
HETATM    3  C   UNL     1     -12.471   9.004  72.088  1.00  0.00    -0.380 C  
HETATM    4  C   UNL     1     -13.291  10.259  71.898  1.00  0.00    -0.487 C  
HETATM    5  C   UNL     1     -12.331  11.197  71.190  1.00  0.00    -0.451 C  
HETATM    6  C   UNL     1     -11.344  10.286  70.442  1.00  0.00    -0.332 C  
ENDROOT
BRANCH   6   7
HETATM    7  C   UNL     1     -11.411  10.455  68.916  1.00  0.00    -0.278 C  
BRANCH   7   8
HETATM    8  C   UNL     1     -10.049  10.627  68.232  1.00  0.00    -0.157 C  
BRANCH   8   9
HETATM    9  O   UNL     1      -9.209   9.509  68.510  1.00  0.00    -0.130 OA 
HETATM   10  C   UNL     1      -9.097   8.494  67.473  1.00  0.00    -0.134 C  
HETATM   11  C   UNL     1      -8.417   9.096  66.217  1.00  0.00    -0.131 A  
HETATM   12  C   UNL     1      -8.181   7.372  68.043  1.00  0.00    -0.124 A  
HETATM   13  C   UNL     1     -10.511   7.916  67.203  1.00  0.00    -0.414 C  
HETATM   14  C   UNL     1      -8.991   9.025  64.934  1.00  0.00    -0.170 A  
HETATM   15  C   UNL     1      -7.221   7.661  69.035  1.00  0.00    -0.080 A  
HETATM   16  C   UNL     1      -6.292   6.704  69.454  1.00  0.00    -0.038 A  
HETATM   17  C   UNL     1      -8.320   9.524  63.812  1.00  0.00    -0.176 A  
HETATM   18  C   UNL     1      -7.061  10.097  63.950  1.00  0.00    -0.104 A  
HETATM   19  C   UNL     1      -6.317   5.424  68.911  1.00  0.00    -0.034 A  
HETATM   20 CL   UNL     1      -6.223  10.672  62.563  1.00  0.00    -0.148 Cl 
HETATM   21  C   UNL     1      -6.475  10.199  65.207  1.00  0.00    -0.119 A  
HETATM   22  C   UNL     1      -7.276   5.099  67.957  1.00  0.00    -0.067 A  
HETATM   23  C   UNL     1      -8.190   6.064  67.521  1.00  0.00    -0.106 A  
HETATM   24  C   UNL     1      -7.153   9.712  66.329  1.00  0.00    -0.093 A  
ENDBRANCH   8   9
ENDBRANCH   7   8
ENDBRANCH   6   7
TORSDOF 3
ENDMDL
MODEL      167
REMARK 921   NORMALIZED FREE ENERGY PREDICTED BY IDOCK:   -3.59 KCAL/MOL
REMARK 922        TOTAL FREE ENERGY PREDICTED BY IDOCK:   -4.91 KCAL/MOL
REMARK 923 INTER-LIGAND FREE ENERGY PREDICTED BY IDOCK:   -4.19 KCAL/MOL
REMARK 924 INTRA-LIGAND FREE ENERGY PREDICTED BY IDOCK:   -0.72 KCAL/MOL
REMARK 927      BINDING AFFINITY PREDICTED BY RF-SCORE:    0.00 PKD
ROOT
HETATM    1  C   UNL     1     -11.792   9.792  71.423  1.00  0.00    -0.408 C  
HETATM    2  N   UNL     1     -11.867  10.535  70.169  1.00  0.00    -0.296 NA 
HETATM    3  C   UNL     1     -12.110  11.959  70.415  1.00  0.00    -0.333 C  
HETATM    4  C   UNL     1     -11.740  12.583  69.090  1.00  0.00    -0.375 C  
HETATM    5  C   UNL     1     -10.504  11.807  68.674  1.00  0.00    -0.242 C  
HETATM    6  C   UNL     1     -10.630  10.437  69.359  1.00  0.00    -0.239 C  
ENDROOT
BRANCH   6   7
HETATM    7  C   UNL     1     -10.745   9.275  68.360  1.00  0.00    -0.192 C  
BRANCH   7   8
HETATM    8  C   UNL     1      -9.415   8.831  67.740  1.00  0.00    -0.142 C  
BRANCH   8   9
HETATM    9  O   UNL     1      -9.302   7.410  67.770  1.00  0.00    -0.136 OA 
HETATM   10  C   UNL     1      -8.150   6.854  68.463  1.00  0.00    -0.120 C  
HETATM   11  C   UNL     1      -8.226   7.197  69.973  1.00  0.00    -0.136 A  
HETATM   12  C   UNL     1      -8.234   5.308  68.301  1.00  0.00    -0.094 A  
HETATM   13  C   UNL     1      -6.865   7.374  67.768  1.00  0.00    -0.074 C  
HETATM   14  C   UNL     1      -7.175   7.829  70.663  1.00  0.00    -0.061 A  
HETATM   15  C   UNL     1      -9.478   4.672  68.106  1.00  0.00    -0.195 A  
HETATM   16  C   UNL     1      -9.593   3.278  68.105  1.00  0.00    -0.147 A  
HETATM   17  C   UNL     1      -7.252   8.067  72.040  1.00  0.00    -0.089 A  
HETATM   18  C   UNL     1      -8.379   7.673  72.753  1.00  0.00    -0.127 A  
HETATM   19  C   UNL     1      -8.464   2.485  68.273  1.00  0.00    -0.097 A  
HETATM   20 CL   UNL     1      -8.452   7.932  74.451  1.00  0.00    -0.272 Cl 
HETATM   21  C   UNL     1      -9.442   7.063  72.097  1.00  0.00    -0.150 A  
HETATM   22  C   UNL     1      -7.219   3.084  68.432  1.00  0.00    -0.049 A  
HETATM   23  C   UNL     1      -7.106   4.478  68.456  1.00  0.00    -0.053 A  
HETATM   24  C   UNL     1      -9.369   6.838  70.719  1.00  0.00    -0.161 A  
ENDBRANCH   8   9
ENDBRANCH   7   8
ENDBRANCH   6   7
TORSDOF 3
ENDMDL
MODEL      168
REMARK 921   NORMALIZED FREE ENERGY PREDICTED BY IDOCK:   -3.55 KCAL/MOL
REMARK 922        TOTAL FREE ENERGY PREDICTED BY IDOCK:   -4.87 KCAL/MOL
REMARK 923 INTER-LIGAND FREE ENERGY PREDICTED BY IDOCK:   -4.26 KCAL/MOL
REMARK 924 INTRA-LIGAND FREE ENERGY PREDICTED BY IDOCK:   -0.61 KCAL/MOL
REMARK 927      BINDING AFFINITY PREDICTED BY RF-SCORE:    0.00 PKD
ROOT
HETATM    1  C   UNL     1     -11.160   7.433  70.714  1.00  0.00    -0.265 C  
HETATM    2  N   UNL     1     -12.265   8.365  70.915  1.00  0.00    -0.170 NA 
HETATM    3  C   UNL     1     -13.006   8.048  72.138  1.00  0.00    -0.222 C  
HETATM    4  C   UNL     1     -13.791   9.316  72.379  1.00  0.00    -0.484 C  
HETATM    5  C   UNL     1     -12.797  10.410  72.031  1.00  0.00    -0.447 C  
HETATM    6  C   UNL     1     -11.825   9.775  71.024  1.00  0.00    -0.356 C  
ENDROOT
BRANCH   6   7
HETATM    7  C   UNL     1     -11.866  10.450  69.643  1.00  0.00    -0.252 C  
BRANCH   7   8
HETATM    8  C   UNL     1     -10.615  11.262  69.291  1.00  0.00    -0.148 C  
BRANCH   8   9
HETATM    9  O   UNL     1     -10.060  10.809  68.058  1.00  0.00    -0.169 OA 
HETATM   10  C   UNL     1      -8.613  10.876  67.921  1.00  0.00    -0.130 C  
HETATM   11  C   UNL     1      -7.941   9.921  68.939  1.00  0.00    -0.096 A  
HETATM   12  C   UNL     1      -8.276  10.384  66.483  1.00  0.00    -0.131 A  
HETATM   13  C   UNL     1      -8.178  12.358  68.072  1.00  0.00    -0.168 C  
HETATM   14  C   UNL     1      -6.951  10.348  69.845  1.00  0.00    -0.149 A  
HETATM   15  C   UNL     1      -9.138   9.495  65.807  1.00  0.00    -0.243 A  
HETATM   16  C   UNL     1      -8.784   8.927  64.579  1.00  0.00    -0.120 A  
HETATM   17  C   UNL     1      -6.320   9.445  70.708  1.00  0.00    -0.081 A  
HETATM   18  C   UNL     1      -6.664   8.097  70.679  1.00  0.00    -0.037 A  
HETATM   19  C   UNL     1      -7.571   9.254  63.983  1.00  0.00    -0.113 A  
HETATM   20 CL   UNL     1      -5.858   6.985  71.714  1.00  0.00    -0.037 Cl 
HETATM   21  C   UNL     1      -7.652   7.648  69.810  1.00  0.00    -0.093 A  
HETATM   22  C   UNL     1      -6.717  10.156  64.610  1.00  0.00    -0.120 A  
HETATM   23  C   UNL     1      -7.061  10.706  65.849  1.00  0.00    -0.115 A  
HETATM   24  C   UNL     1      -8.290   8.554  68.958  1.00  0.00    -0.118 A  
ENDBRANCH   8   9
ENDBRANCH   7   8
ENDBRANCH   6   7
TORSDOF 3
ENDMDL
MODEL      169
REMARK 921   NORMALIZED FREE ENERGY PREDICTED BY IDOCK:   -3.54 KCAL/MOL
REMARK 922        TOTAL FREE ENERGY PREDICTED BY IDOCK:   -4.86 KCAL/MOL
REMARK 923 INTER-LIGAND FREE ENERGY PREDICTED BY IDOCK:   -4.47 KCAL/MOL
REMARK 924 INTRA-LIGAND FREE ENERGY PREDICTED BY IDOCK:   -0.39 KCAL/MOL
REMARK 927      BINDING AFFINITY PREDICTED BY RF-SCORE:    0.00 PKD
ROOT
HETATM    1  C   UNL     1      -9.167   9.767  65.166  1.00  0.00    -0.240 C  
HETATM    2  N   UNL     1      -9.554  10.710  66.211  1.00  0.00    -0.179 NA 
HETATM    3  C   UNL     1      -9.587  12.081  65.696  1.00  0.00    -0.189 C  
HETATM    4  C   UNL     1     -10.385  12.804  66.757  1.00  0.00    -0.248 C  
HETATM    5  C   UNL     1     -11.476  11.809  67.109  1.00  0.00    -0.366 C  
HETATM    6  C   UNL     1     -10.889  10.426  66.787  1.00  0.00    -0.116 C  
ENDROOT
BRANCH   6   7
HETATM    7  C   UNL     1     -10.749   9.529  68.027  1.00  0.00    -0.266 C  
BRANCH   7   8
HETATM    8  C   UNL     1     -10.757   8.025  67.733  1.00  0.00    -0.104 C  
BRANCH   8   9
HETATM    9  O   UNL     1     -10.959   7.285  68.935  1.00  0.00    -0.139 OA 
HETATM   10  C   UNL     1      -9.829   6.517  69.435  1.00  0.00    -0.146 C  
HETATM   11  C   UNL     1      -8.681   7.474  69.844  1.00  0.00    -0.140 A  
HETATM   12  C   UNL     1     -10.326   5.768  70.707  1.00  0.00    -0.301 A  
HETATM   13  C   UNL     1      -9.426   5.481  68.353  1.00  0.00    -0.144 C  
HETATM   14  C   UNL     1      -7.368   7.341  69.351  1.00  0.00    -0.089 A  
HETATM   15  C   UNL     1     -11.392   6.282  71.474  1.00  0.00    -0.352 A  
HETATM   16  C   UNL     1     -11.755   5.707  72.696  1.00  0.00    -0.256 A  
HETATM   17  C   UNL     1      -6.341   8.184  69.789  1.00  0.00    -0.036 A  
HETATM   18  C   UNL     1      -6.605   9.172  70.732  1.00  0.00    -0.074 A  
HETATM   19  C   UNL     1     -11.081   4.586  73.167  1.00  0.00    -0.350 A  
HETATM   20 CL   UNL     1      -5.331  10.179  71.297  1.00  0.00    -0.079 Cl 
HETATM   21  C   UNL     1      -7.894   9.341  71.223  1.00  0.00     0.032 A  
HETATM   22  C   UNL     1     -10.049   4.036  72.414  1.00  0.00    -0.242 A  
HETATM   23  C   UNL     1      -9.670   4.625  71.204  1.00  0.00    -0.252 A  
HETATM   24  C   UNL     1      -8.922   8.506  70.774  1.00  0.00    -0.193 A  
ENDBRANCH   8   9
ENDBRANCH   7   8
ENDBRANCH   6   7
TORSDOF 3
ENDMDL
MODEL      170
REMARK 921   NORMALIZED FREE ENERGY PREDICTED BY IDOCK:   -3.54 KCAL/MOL
REMARK 922        TOTAL FREE ENERGY PREDICTED BY IDOCK:   -4.86 KCAL/MOL
REMARK 923 INTER-LIGAND FREE ENERGY PREDICTED BY IDOCK:   -4.29 KCAL/MOL
REMARK 924 INTRA-LIGAND FREE ENERGY PREDICTED BY IDOCK:   -0.57 KCAL/MOL
REMARK 927      BINDING AFFINITY PREDICTED BY RF-SCORE:    0.00 PKD
ROOT
HETATM    1  C   UNL     1      -7.514   7.764  68.026  1.00  0.00    -0.108 C  
HETATM    2  N   UNL     1      -7.256   8.071  66.623  1.00  0.00    -0.079 NA 
HETATM    3  C   UNL     1      -8.031   7.193  65.742  1.00  0.00    -0.123 C  
HETATM    4  C   UNL     1      -7.960   7.919  64.419  1.00  0.00    -0.132 C  
HETATM    5  C   UNL     1      -8.114   9.376  64.814  1.00  0.00    -0.131 C  
HETATM    6  C   UNL     1      -7.598   9.466  66.259  1.00  0.00    -0.097 C  
ENDROOT
BRANCH   6   7
HETATM    7  C   UNL     1      -6.360  10.366  66.400  1.00  0.00    -0.092 C  
BRANCH   7   8
HETATM    8  C   UNL     1      -6.657  11.791  66.881  1.00  0.00    -0.114 C  
BRANCH   8   9
HETATM    9  O   UNL     1      -7.956  12.198  66.456  1.00  0.00    -0.019 OA 
HETATM   10  C   UNL     1      -8.768  12.923  67.420  1.00  0.00    -0.197 C  
HETATM   11  C   UNL     1      -8.105  14.283  67.752  1.00  0.00    -0.176 A  
HETATM   12  C   UNL     1     -10.139  13.195  66.734  1.00  0.00    -0.253 A  
HETATM   13  C   UNL     1      -8.984  12.013  68.658  1.00  0.00    -0.027 C  
HETATM   14  C   UNL     1      -7.824  14.691  69.070  1.00  0.00    -0.133 A  
HETATM   15  C   UNL     1     -10.238  13.278  65.330  1.00  0.00    -0.303 A  
HETATM   16  C   UNL     1     -11.426  13.665  64.703  1.00  0.00    -0.383 A  
HETATM   17  C   UNL     1      -7.281  15.953  69.338  1.00  0.00    -0.214 A  
HETATM   18  C   UNL     1      -7.015  16.833  68.295  1.00  0.00    -0.161 A  
HETATM   19  C   UNL     1     -12.554  13.953  65.462  1.00  0.00    -0.560 A  
HETATM   20 CL   UNL     1      -6.386  18.397  68.632  1.00  0.00    -0.213 Cl 
HETATM   21  C   UNL     1      -7.263  16.453  66.981  1.00  0.00    -0.257 A  
HETATM   22  C   UNL     1     -12.497  13.845  66.848  1.00  0.00    -0.201 A  
HETATM   23  C   UNL     1     -11.302  13.480  67.477  1.00  0.00    -0.335 A  
HETATM   24  C   UNL     1      -7.793  15.186  66.714  1.00  0.00     0.020 A  
ENDBRANCH   8   9
ENDBRANCH   7   8
ENDBRANCH   6   7
TORSDOF 3
ENDMDL
MODEL      171
REMARK 921   NORMALIZED FREE ENERGY PREDICTED BY IDOCK:   -3.53 KCAL/MOL
REMARK 922        TOTAL FREE ENERGY PREDICTED BY IDOCK:   -4.85 KCAL/MOL
REMARK 923 INTER-LIGAND FREE ENERGY PREDICTED BY IDOCK:   -4.43 KCAL/MOL
REMARK 924 INTRA-LIGAND FREE ENERGY PREDICTED BY IDOCK:   -0.42 KCAL/MOL
REMARK 927      BINDING AFFINITY PREDICTED BY RF-SCORE:    0.00 PKD
ROOT
HETATM    1  C   UNL     1      -6.752   5.141  63.421  1.00  0.00    -0.033 C  
HETATM    2  N   UNL     1      -7.651   4.693  64.480  1.00  0.00    -0.072 NA 
HETATM    3  C   UNL     1      -7.303   3.342  64.927  1.00  0.00    -0.071 C  
HETATM    4  C   UNL     1      -8.032   3.241  66.247  1.00  0.00    -0.088 C  
HETATM    5  C   UNL     1      -7.829   4.614  66.861  1.00  0.00    -0.099 C  
HETATM    6  C   UNL     1      -7.626   5.569  65.674  1.00  0.00    -0.083 C  
ENDROOT
BRANCH   6   7
HETATM    7  C   UNL     1      -8.726   6.636  65.568  1.00  0.00    -0.051 C  
BRANCH   7   8
HETATM    8  C   UNL     1      -8.442   7.927  66.346  1.00  0.00    -0.138 C  
BRANCH   8   9
HETATM    9  O   UNL     1      -9.167   9.017  65.782  1.00  0.00    -0.206 OA 
HETATM   10  C   UNL     1      -9.679  10.018  66.705  1.00  0.00    -0.194 C  
HETATM   11  C   UNL     1      -8.501  10.748  67.398  1.00  0.00    -0.119 A  
HETATM   12  C   UNL     1     -10.469  11.052  65.850  1.00  0.00    -0.300 A  
HETATM   13  C   UNL     1     -10.650   9.319  67.692  1.00  0.00    -0.324 C  
HETATM   14  C   UNL     1      -8.388  10.851  68.797  1.00  0.00    -0.151 A  
HETATM   15  C   UNL     1     -10.151  11.255  64.491  1.00  0.00    -0.348 A  
HETATM   16  C   UNL     1     -10.746  12.278  63.747  1.00  0.00    -0.494 A  
HETATM   17  C   UNL     1      -7.344  11.572  69.388  1.00  0.00     0.051 A  
HETATM   18  C   UNL     1      -6.397  12.207  68.592  1.00  0.00    -0.063 A  
HETATM   19  C   UNL     1     -11.695  13.107  64.334  1.00  0.00    -0.429 A  
HETATM   20 CL   UNL     1      -5.140  13.124  69.322  1.00  0.00    -0.073 Cl 
HETATM   21  C   UNL     1      -6.470  12.108  67.207  1.00  0.00    -0.152 A  
HETATM   22  C   UNL     1     -12.055  12.907  65.663  1.00  0.00    -0.511 A  
HETATM   23  C   UNL     1     -11.443  11.899  66.414  1.00  0.00    -0.371 A  
HETATM   24  C   UNL     1      -7.507  11.376  66.619  1.00  0.00    -0.110 A  
ENDBRANCH   8   9
ENDBRANCH   7   8
ENDBRANCH   6   7
TORSDOF 3
ENDMDL
MODEL      172
REMARK 921   NORMALIZED FREE ENERGY PREDICTED BY IDOCK:   -3.53 KCAL/MOL
REMARK 922        TOTAL FREE ENERGY PREDICTED BY IDOCK:   -4.85 KCAL/MOL
REMARK 923 INTER-LIGAND FREE ENERGY PREDICTED BY IDOCK:   -4.32 KCAL/MOL
REMARK 924 INTRA-LIGAND FREE ENERGY PREDICTED BY IDOCK:   -0.53 KCAL/MOL
REMARK 927      BINDING AFFINITY PREDICTED BY RF-SCORE:    0.00 PKD
ROOT
HETATM    1  C   UNL     1      -8.953   9.189  65.058  1.00  0.00    -0.171 C  
HETATM    2  N   UNL     1      -8.452   9.894  66.234  1.00  0.00    -0.127 NA 
HETATM    3  C   UNL     1      -7.252   9.242  66.766  1.00  0.00    -0.083 C  
HETATM    4  C   UNL     1      -6.675  10.313  67.662  1.00  0.00    -0.074 C  
HETATM    5  C   UNL     1      -6.887  11.585  66.864  1.00  0.00    -0.138 C  
HETATM    6  C   UNL     1      -8.097  11.306  65.959  1.00  0.00    -0.009 C  
ENDROOT
BRANCH   6   7
HETATM    7  C   UNL     1      -9.296  12.219  66.261  1.00  0.00    -0.206 C  
BRANCH   7   8
HETATM    8  C   UNL     1      -8.938  13.529  66.972  1.00  0.00    -0.231 C  
BRANCH   8   9
HETATM    9  O   UNL     1      -9.928  13.852  67.946  1.00  0.00    -0.230 OA 
HETATM   10  C   UNL     1      -9.709  15.053  68.736  1.00  0.00    -0.227 C  
HETATM   11  C   UNL     1      -9.751  16.302  67.820  1.00  0.00    -0.233 A  
HETATM   12  C   UNL     1     -10.889  15.143  69.749  1.00  0.00    -0.298 A  
HETATM   13  C   UNL     1      -8.377  14.891  69.513  1.00  0.00    -0.022 C  
HETATM   14  C   UNL     1      -8.712  17.252  67.781  1.00  0.00    -0.226 A  
HETATM   15  C   UNL     1     -12.135  14.552  69.456  1.00  0.00    -0.348 A  
HETATM   16  C   UNL     1     -13.247  14.745  70.281  1.00  0.00     0.040 A  
HETATM   17  C   UNL     1      -8.810  18.401  66.988  1.00  0.00    -0.271 A  
HETATM   18  C   UNL     1      -9.950  18.624  66.222  1.00  0.00    -0.372 A  
HETATM   19  C   UNL     1     -13.134  15.512  71.436  1.00  0.00    -0.580 A  
HETATM   20 CL   UNL     1     -10.083  20.057  65.281  1.00  0.00     0.029 Cl 
HETATM   21  C   UNL     1     -10.985  17.696  66.224  1.00  0.00     0.273 A  
HETATM   22  C   UNL     1     -11.908  16.078  71.769  1.00  0.00    -0.599 A  
HETATM   23  C   UNL     1     -10.801  15.904  70.931  1.00  0.00    -0.102 A  
HETATM   24  C   UNL     1     -10.879  16.542  67.007  1.00  0.00    -0.113 A  
ENDBRANCH   8   9
ENDBRANCH   7   8
ENDBRANCH   6   7
TORSDOF 3
ENDMDL
MODEL      173
REMARK 921   NORMALIZED FREE ENERGY PREDICTED BY IDOCK:   -3.51 KCAL/MOL
REMARK 922        TOTAL FREE ENERGY PREDICTED BY IDOCK:   -4.82 KCAL/MOL
REMARK 923 INTER-LIGAND FREE ENERGY PREDICTED BY IDOCK:   -3.56 KCAL/MOL
REMARK 924 INTRA-LIGAND FREE ENERGY PREDICTED BY IDOCK:   -1.25 KCAL/MOL
REMARK 927      BINDING AFFINITY PREDICTED BY RF-SCORE:    0.00 PKD
ROOT
HETATM    1  C   UNL     1      -5.707   5.211  66.821  1.00  0.00    -0.018 C  
HETATM    2  N   UNL     1      -6.972   5.698  67.362  1.00  0.00    -0.064 NA 
HETATM    3  C   UNL     1      -7.850   4.584  67.729  1.00  0.00    -0.085 C  
HETATM    4  C   UNL     1      -8.869   5.258  68.620  1.00  0.00    -0.103 C  
HETATM    5  C   UNL     1      -8.031   6.222  69.438  1.00  0.00    -0.109 C  
HETATM    6  C   UNL     1      -6.804   6.540  68.569  1.00  0.00    -0.071 C  
ENDROOT
BRANCH   6   7
HETATM    7  C   UNL     1      -6.718   8.022  68.172  1.00  0.00    -0.064 C  
BRANCH   7   8
HETATM    8  C   UNL     1      -7.562   8.406  66.951  1.00  0.00    -0.091 C  
BRANCH   8   9
HETATM    9  O   UNL     1      -8.008   9.756  67.061  1.00  0.00    -0.105 OA 
HETATM   10  C   UNL     1      -9.441   9.967  67.196  1.00  0.00    -0.155 C  
HETATM   11  C   UNL     1      -9.941   9.360  68.531  1.00  0.00    -0.190 A  
HETATM   12  C   UNL     1      -9.664  11.508  67.239  1.00  0.00    -0.197 A  
HETATM   13  C   UNL     1     -10.141   9.382  65.942  1.00  0.00    -0.243 C  
HETATM   14  C   UNL     1     -11.004   8.439  68.598  1.00  0.00     0.153 A  
HETATM   15  C   UNL     1      -8.645  12.369  67.699  1.00  0.00    -0.172 A  
HETATM   16  C   UNL     1      -8.874  13.736  67.884  1.00  0.00    -0.186 A  
HETATM   17  C   UNL     1     -11.470   7.959  69.826  1.00  0.00     0.216 A  
HETATM   18  C   UNL     1     -10.886   8.392  71.012  1.00  0.00    -0.238 A  
HETATM   19  C   UNL     1     -10.118  14.282  67.588  1.00  0.00    -0.229 A  
HETATM   20 CL   UNL     1     -11.489   7.829  72.520  1.00  0.00    -0.404 Cl 
HETATM   21  C   UNL     1      -9.822   9.286  70.979  1.00  0.00    -0.355 A  
HETATM   22  C   UNL     1     -11.131  13.463  67.099  1.00  0.00    -0.303 A  
HETATM   23  C   UNL     1     -10.909  12.091  66.936  1.00  0.00    -0.302 A  
HETATM   24  C   UNL     1      -9.349   9.755  69.750  1.00  0.00    -0.249 A  
ENDBRANCH   8   9
ENDBRANCH   7   8
ENDBRANCH   6   7
TORSDOF 3
ENDMDL
MODEL      174
REMARK 921   NORMALIZED FREE ENERGY PREDICTED BY IDOCK:   -3.50 KCAL/MOL
REMARK 922        TOTAL FREE ENERGY PREDICTED BY IDOCK:   -4.80 KCAL/MOL
REMARK 923 INTER-LIGAND FREE ENERGY PREDICTED BY IDOCK:   -5.63 KCAL/MOL
REMARK 924 INTRA-LIGAND FREE ENERGY PREDICTED BY IDOCK:    0.83 KCAL/MOL
REMARK 927      BINDING AFFINITY PREDICTED BY RF-SCORE:    0.00 PKD
ROOT
HETATM    1  C   UNL     1     -10.963  17.273  65.393  1.00  0.00     0.078 C  
HETATM    2  N   UNL     1     -10.189  18.267  66.131  1.00  0.00    -0.494 NA 
HETATM    3  C   UNL     1     -10.303  19.589  65.508  1.00  0.00    -0.081 C  
HETATM    4  C   UNL     1      -9.815  20.505  66.606  1.00  0.00    -0.405 C  
HETATM    5  C   UNL     1     -10.422  19.901  67.858  1.00  0.00    -0.505 C  
HETATM    6  C   UNL     1     -10.618  18.410  67.541  1.00  0.00    -0.416 C  
ENDROOT
BRANCH   6   7
HETATM    7  C   UNL     1      -9.780  17.490  68.443  1.00  0.00    -0.316 C  
BRANCH   7   8
HETATM    8  C   UNL     1      -8.608  16.798  67.737  1.00  0.00    -0.198 C  
BRANCH   8   9
HETATM    9  O   UNL     1      -9.011  15.525  67.237  1.00  0.00    -0.188 OA 
HETATM   10  C   UNL     1      -9.230  14.471  68.215  1.00  0.00    -0.201 C  
HETATM   11  C   UNL     1     -10.423  14.841  69.132  1.00  0.00    -0.243 A  
HETATM   12  C   UNL     1      -9.601  13.188  67.414  1.00  0.00    -0.219 A  
HETATM   13  C   UNL     1      -7.903  14.232  68.981  1.00  0.00    -0.045 C  
HETATM   14  C   UNL     1     -10.327  14.855  70.536  1.00  0.00     0.257 A  
HETATM   15  C   UNL     1     -10.199  13.283  66.140  1.00  0.00    -0.296 A  
HETATM   16  C   UNL     1     -10.672  12.151  65.470  1.00  0.00    -0.321 A  
HETATM   17  C   UNL     1     -11.442  15.133  71.335  1.00  0.00    -0.405 A  
HETATM   18  C   UNL     1     -12.674  15.397  70.746  1.00  0.00    -0.459 A  
HETATM   19  C   UNL     1     -10.534  10.892  66.043  1.00  0.00    -0.287 A  
HETATM   20 CL   UNL     1     -14.049  15.699  71.734  1.00  0.00    -0.514 Cl 
HETATM   21  C   UNL     1     -12.797  15.410  69.362  1.00  0.00     0.390 A  
HETATM   22  C   UNL     1      -9.915  10.764  67.282  1.00  0.00    -0.219 A  
HETATM   23  C   UNL     1      -9.463  11.898  67.964  1.00  0.00    -0.197 A  
HETATM   24  C   UNL     1     -11.679  15.145  68.564  1.00  0.00    -0.347 A  
ENDBRANCH   8   9
ENDBRANCH   7   8
ENDBRANCH   6   7
TORSDOF 3
ENDMDL
MODEL      175
REMARK 921   NORMALIZED FREE ENERGY PREDICTED BY IDOCK:   -3.49 KCAL/MOL
REMARK 922        TOTAL FREE ENERGY PREDICTED BY IDOCK:   -4.80 KCAL/MOL
REMARK 923 INTER-LIGAND FREE ENERGY PREDICTED BY IDOCK:   -3.89 KCAL/MOL
REMARK 924 INTRA-LIGAND FREE ENERGY PREDICTED BY IDOCK:   -0.91 KCAL/MOL
REMARK 927      BINDING AFFINITY PREDICTED BY RF-SCORE:    0.00 PKD
ROOT
HETATM    1  C   UNL     1      -8.920   4.320  64.186  1.00  0.00    -0.148 C  
HETATM    2  N   UNL     1      -8.053   5.392  64.665  1.00  0.00    -0.119 NA 
HETATM    3  C   UNL     1      -7.840   6.401  63.625  1.00  0.00    -0.110 C  
HETATM    4  C   UNL     1      -7.305   7.572  64.416  1.00  0.00    -0.088 C  
HETATM    5  C   UNL     1      -8.151   7.554  65.676  1.00  0.00    -0.128 C  
HETATM    6  C   UNL     1      -8.597   6.094  65.851  1.00  0.00    -0.147 C  
ENDROOT
BRANCH   6   7
HETATM    7  C   UNL     1      -8.056   5.452  67.138  1.00  0.00    -0.101 C  
BRANCH   7   8
HETATM    8  C   UNL     1      -7.424   6.438  68.128  1.00  0.00    -0.094 C  
BRANCH   8   9
HETATM    9  O   UNL     1      -8.094   6.378  69.385  1.00  0.00    -0.114 OA 
HETATM   10  C   UNL     1      -8.166   7.611  70.153  1.00  0.00    -0.124 C  
HETATM   11  C   UNL     1      -9.019   8.658  69.392  1.00  0.00    -0.145 A  
HETATM   12  C   UNL     1      -8.887   7.263  71.489  1.00  0.00    -0.125 A  
HETATM   13  C   UNL     1      -6.720   8.083  70.457  1.00  0.00    -0.037 C  
HETATM   14  C   UNL     1      -8.550   9.952  69.099  1.00  0.00    -0.157 A  
HETATM   15  C   UNL     1      -9.788   6.181  71.560  1.00  0.00    -0.190 A  
HETATM   16  C   UNL     1     -10.554   5.943  72.705  1.00  0.00    -0.257 A  
HETATM   17  C   UNL     1      -9.369  10.893  68.464  1.00  0.00    -0.181 A  
HETATM   18  C   UNL     1     -10.673  10.559  68.115  1.00  0.00    -0.233 A  
HETATM   19  C   UNL     1     -10.418   6.764  73.819  1.00  0.00    -0.383 A  
HETATM   20 CL   UNL     1     -11.689  11.731  67.373  1.00  0.00    -0.348 Cl 
HETATM   21  C   UNL     1     -11.159   9.282  68.374  1.00  0.00     0.068 A  
HETATM   22  C   UNL     1      -9.510   7.817  73.791  1.00  0.00    -0.241 A  
HETATM   23  C   UNL     1      -8.761   8.070  72.637  1.00  0.00    -0.250 A  
HETATM   24  C   UNL     1     -10.335   8.339  68.996  1.00  0.00    -0.233 A  
ENDBRANCH   8   9
ENDBRANCH   7   8
ENDBRANCH   6   7
TORSDOF 3
ENDMDL
MODEL      176
REMARK 921   NORMALIZED FREE ENERGY PREDICTED BY IDOCK:   -3.48 KCAL/MOL
REMARK 922        TOTAL FREE ENERGY PREDICTED BY IDOCK:   -4.78 KCAL/MOL
REMARK 923 INTER-LIGAND FREE ENERGY PREDICTED BY IDOCK:   -4.25 KCAL/MOL
REMARK 924 INTRA-LIGAND FREE ENERGY PREDICTED BY IDOCK:   -0.53 KCAL/MOL
REMARK 927      BINDING AFFINITY PREDICTED BY RF-SCORE:    0.00 PKD
ROOT
HETATM    1  C   UNL     1     -10.421   5.806  69.649  1.00  0.00    -0.293 C  
HETATM    2  N   UNL     1      -9.290   5.461  68.793  1.00  0.00    -0.123 NA 
HETATM    3  C   UNL     1      -8.427   4.469  69.439  1.00  0.00    -0.077 C  
HETATM    4  C   UNL     1      -7.606   3.953  68.279  1.00  0.00    -0.066 C  
HETATM    5  C   UNL     1      -8.619   3.859  67.153  1.00  0.00    -0.109 C  
HETATM    6  C   UNL     1      -9.701   4.898  67.486  1.00  0.00    -0.164 C  
ENDROOT
BRANCH   6   7
HETATM    7  C   UNL     1      -9.800   6.018  66.438  1.00  0.00    -0.155 C  
BRANCH   7   8
HETATM    8  C   UNL     1      -8.954   7.259  66.747  1.00  0.00    -0.137 C  
BRANCH   8   9
HETATM    9  O   UNL     1      -9.327   8.339  65.892  1.00  0.00    -0.178 OA 
HETATM   10  C   UNL     1      -9.755   9.571  66.535  1.00  0.00    -0.222 C  
HETATM   11  C   UNL     1      -8.576  10.190  67.329  1.00  0.00    -0.125 A  
HETATM   12  C   UNL     1     -10.154  10.554  65.396  1.00  0.00    -0.358 A  
HETATM   13  C   UNL     1     -11.000   9.260  67.406  1.00  0.00    -0.022 C  
HETATM   14  C   UNL     1      -8.673  10.531  68.692  1.00  0.00    -0.143 A  
HETATM   15  C   UNL     1      -9.583  10.437  64.111  1.00  0.00    -0.381 A  
HETATM   16  C   UNL     1      -9.815  11.395  63.119  1.00  0.00    -0.413 A  
HETATM   17  C   UNL     1      -7.609  11.145  69.361  1.00  0.00    -0.013 A  
HETATM   18  C   UNL     1      -6.430  11.435  68.681  1.00  0.00    -0.059 A  
HETATM   19  C   UNL     1     -10.646  12.479  63.377  1.00  0.00    -0.294 A  
HETATM   20 CL   UNL     1      -5.141  12.226  69.499  1.00  0.00    -0.069 Cl 
HETATM   21  C   UNL     1      -6.297  11.093  67.340  1.00  0.00    -0.067 A  
HETATM   22  C   UNL     1     -11.252  12.601  64.623  1.00  0.00    -0.348 A  
HETATM   23  C   UNL     1     -11.001  11.656  65.623  1.00  0.00    -0.322 A  
HETATM   24  C   UNL     1      -7.357  10.467  66.676  1.00  0.00    -0.114 A  
ENDBRANCH   8   9
ENDBRANCH   7   8
ENDBRANCH   6   7
TORSDOF 3
ENDMDL
MODEL      177
REMARK 921   NORMALIZED FREE ENERGY PREDICTED BY IDOCK:   -3.46 KCAL/MOL
REMARK 922        TOTAL FREE ENERGY PREDICTED BY IDOCK:   -4.77 KCAL/MOL
REMARK 923 INTER-LIGAND FREE ENERGY PREDICTED BY IDOCK:   -4.16 KCAL/MOL
REMARK 924 INTRA-LIGAND FREE ENERGY PREDICTED BY IDOCK:   -0.60 KCAL/MOL
REMARK 927      BINDING AFFINITY PREDICTED BY RF-SCORE:    0.00 PKD
ROOT
HETATM    1  C   UNL     1      -8.351  14.035  69.126  1.00  0.00     0.250 C  
HETATM    2  N   UNL     1      -9.797  14.105  69.311  1.00  0.00     0.078 NA 
HETATM    3  C   UNL     1     -10.172  15.295  70.079  1.00  0.00    -0.197 C  
HETATM    4  C   UNL     1     -11.653  15.404  69.802  1.00  0.00    -0.339 C  
HETATM    5  C   UNL     1     -11.757  15.054  68.329  1.00  0.00    -0.338 C  
HETATM    6  C   UNL     1     -10.546  14.154  68.034  1.00  0.00    -0.239 C  
ENDROOT
BRANCH   6   7
HETATM    7  C   UNL     1     -10.945  12.735  67.601  1.00  0.00    -0.274 C  
BRANCH   7   8
HETATM    8  C   UNL     1      -9.942  12.045  66.669  1.00  0.00    -0.201 C  
BRANCH   8   9
HETATM    9  O   UNL     1     -10.128  10.632  66.697  1.00  0.00    -0.205 OA 
HETATM   10  C   UNL     1      -8.941   9.806  66.538  1.00  0.00    -0.150 C  
HETATM   11  C   UNL     1      -7.983  10.022  67.736  1.00  0.00    -0.105 A  
HETATM   12  C   UNL     1      -9.422   8.325  66.548  1.00  0.00    -0.284 A  
HETATM   13  C   UNL     1      -8.303  10.130  65.161  1.00  0.00    -0.163 C  
HETATM   14  C   UNL     1      -6.630  10.378  67.575  1.00  0.00    -0.066 A  
HETATM   15  C   UNL     1     -10.610   7.959  67.213  1.00  0.00    -0.365 A  
HETATM   16  C   UNL     1     -10.981   6.619  67.360  1.00  0.00    -0.434 A  
HETATM   17  C   UNL     1      -5.778  10.503  68.678  1.00  0.00    -0.040 A  
HETATM   18  C   UNL     1      -6.260  10.270  69.962  1.00  0.00    -0.088 A  
HETATM   19  C   UNL     1     -10.189   5.613  66.820  1.00  0.00    -0.276 A  
HETATM   20 CL   UNL     1      -5.198  10.386  71.309  1.00  0.00    -0.087 Cl 
HETATM   21  C   UNL     1      -7.595   9.936  70.156  1.00  0.00    -0.185 A  
HETATM   22  C   UNL     1      -9.030   5.946  66.127  1.00  0.00    -0.157 A  
HETATM   23  C   UNL     1      -8.646   7.285  66.001  1.00  0.00    -0.160 A  
HETATM   24  C   UNL     1      -8.449   9.824  69.054  1.00  0.00    -0.137 A  
ENDBRANCH   8   9
ENDBRANCH   7   8
ENDBRANCH   6   7
TORSDOF 3
ENDMDL
MODEL      178
REMARK 921   NORMALIZED FREE ENERGY PREDICTED BY IDOCK:   -3.45 KCAL/MOL
REMARK 922        TOTAL FREE ENERGY PREDICTED BY IDOCK:   -4.75 KCAL/MOL
REMARK 923 INTER-LIGAND FREE ENERGY PREDICTED BY IDOCK:   -4.26 KCAL/MOL
REMARK 924 INTRA-LIGAND FREE ENERGY PREDICTED BY IDOCK:   -0.49 KCAL/MOL
REMARK 927      BINDING AFFINITY PREDICTED BY RF-SCORE:    0.00 PKD
ROOT
HETATM    1  C   UNL     1     -12.326  10.355  71.306  1.00  0.00    -0.401 C  
HETATM    2  N   UNL     1     -12.654  11.550  70.535  1.00  0.00    -0.240 NA 
HETATM    3  C   UNL     1     -12.939  12.684  71.418  1.00  0.00    -0.258 C  
HETATM    4  C   UNL     1     -12.832  13.860  70.476  1.00  0.00    -0.250 C  
HETATM    5  C   UNL     1     -11.638  13.505  69.610  1.00  0.00    -0.340 C  
HETATM    6  C   UNL     1     -11.565  11.970  69.622  1.00  0.00    -0.301 C  
ENDROOT
BRANCH   6   7
HETATM    7  C   UNL     1     -11.774  11.348  68.231  1.00  0.00    -0.359 C  
BRANCH   7   8
HETATM    8  C   UNL     1     -10.482  11.074  67.453  1.00  0.00    -0.218 C  
BRANCH   8   9
HETATM    9  O   UNL     1      -9.511  10.466  68.302  1.00  0.00    -0.143 OA 
HETATM   10  C   UNL     1      -9.039   9.143  67.921  1.00  0.00    -0.127 C  
HETATM   11  C   UNL     1      -8.275   9.222  66.575  1.00  0.00    -0.107 A  
HETATM   12  C   UNL     1      -8.043   8.689  69.029  1.00  0.00    -0.121 A  
HETATM   13  C   UNL     1     -10.254   8.180  67.896  1.00  0.00    -0.274 C  
HETATM   14  C   UNL     1      -8.598   8.414  65.469  1.00  0.00    -0.201 A  
HETATM   15  C   UNL     1      -7.337   9.639  69.796  1.00  0.00    -0.104 A  
HETATM   16  C   UNL     1      -6.334   9.254  70.691  1.00  0.00    -0.068 A  
HETATM   17  C   UNL     1      -7.848   8.467  64.289  1.00  0.00    -0.142 A  
HETATM   18  C   UNL     1      -6.758   9.326  64.194  1.00  0.00    -0.091 A  
HETATM   19  C   UNL     1      -6.030   7.908  70.862  1.00  0.00    -0.034 A  
HETATM   20 CL   UNL     1      -5.815   9.358  62.756  1.00  0.00    -0.088 Cl 
HETATM   21  C   UNL     1      -6.425  10.151  65.262  1.00  0.00    -0.119 A  
HETATM   22  C   UNL     1      -6.735   6.947  70.145  1.00  0.00    -0.055 A  
HETATM   23  C   UNL     1      -7.722   7.332  69.233  1.00  0.00    -0.107 A  
HETATM   24  C   UNL     1      -7.184  10.106  66.435  1.00  0.00    -0.108 A  
ENDBRANCH   8   9
ENDBRANCH   7   8
ENDBRANCH   6   7
TORSDOF 3
ENDMDL
MODEL      179
REMARK 921   NORMALIZED FREE ENERGY PREDICTED BY IDOCK:   -3.41 KCAL/MOL
REMARK 922        TOTAL FREE ENERGY PREDICTED BY IDOCK:   -4.71 KCAL/MOL
REMARK 923 INTER-LIGAND FREE ENERGY PREDICTED BY IDOCK:   -4.14 KCAL/MOL
REMARK 924 INTRA-LIGAND FREE ENERGY PREDICTED BY IDOCK:   -0.56 KCAL/MOL
REMARK 927      BINDING AFFINITY PREDICTED BY RF-SCORE:    0.00 PKD
ROOT
HETATM    1  C   UNL     1      -8.768   5.590  63.573  1.00  0.00     0.134 C  
HETATM    2  N   UNL     1      -9.024   4.439  64.434  1.00  0.00    -0.148 NA 
HETATM    3  C   UNL     1      -7.970   3.430  64.290  1.00  0.00    -0.086 C  
HETATM    4  C   UNL     1      -8.180   2.569  65.514  1.00  0.00    -0.086 C  
HETATM    5  C   UNL     1      -8.497   3.580  66.600  1.00  0.00    -0.108 C  
HETATM    6  C   UNL     1      -9.099   4.791  65.871  1.00  0.00    -0.137 C  
ENDROOT
BRANCH   6   7
HETATM    7  C   UNL     1     -10.557   5.069  66.270  1.00  0.00    -0.332 C  
BRANCH   7   8
HETATM    8  C   UNL     1     -10.734   6.181  67.310  1.00  0.00    -0.335 C  
BRANCH   8   9
HETATM    9  O   UNL     1      -9.765   6.049  68.349  1.00  0.00    -0.120 OA 
HETATM   10  C   UNL     1      -9.117   7.269  68.805  1.00  0.00    -0.127 C  
HETATM   11  C   UNL     1     -10.161   8.206  69.465  1.00  0.00    -0.193 A  
HETATM   12  C   UNL     1      -8.079   6.846  69.885  1.00  0.00    -0.125 A  
HETATM   13  C   UNL     1      -8.376   7.907  67.602  1.00  0.00    -0.124 C  
HETATM   14  C   UNL     1     -10.338   9.545  69.069  1.00  0.00    -0.219 A  
HETATM   15  C   UNL     1      -8.262   5.666  70.636  1.00  0.00    -0.118 A  
HETATM   16  C   UNL     1      -7.423   5.345  71.707  1.00  0.00    -0.092 A  
HETATM   17  C   UNL     1     -11.246  10.381  69.729  1.00  0.00    -0.353 A  
HETATM   18  C   UNL     1     -11.990   9.895  70.800  1.00  0.00    -0.323 A  
HETATM   19  C   UNL     1      -6.362   6.181  72.038  1.00  0.00    -0.046 A  
HETATM   20 CL   UNL     1     -13.075  10.938  71.632  1.00  0.00    -0.546 Cl 
HETATM   21  C   UNL     1     -11.851   8.572  71.202  1.00  0.00    -0.322 A  
HETATM   22  C   UNL     1      -6.136   7.333  71.292  1.00  0.00    -0.036 A  
HETATM   23  C   UNL     1      -6.989   7.667  70.235  1.00  0.00    -0.051 A  
HETATM   24  C   UNL     1     -10.953   7.734  70.533  1.00  0.00    -0.251 A  
ENDBRANCH   8   9
ENDBRANCH   7   8
ENDBRANCH   6   7
TORSDOF 3
ENDMDL
MODEL      180
REMARK 921   NORMALIZED FREE ENERGY PREDICTED BY IDOCK:   -3.40 KCAL/MOL
REMARK 922        TOTAL FREE ENERGY PREDICTED BY IDOCK:   -4.70 KCAL/MOL
REMARK 923 INTER-LIGAND FREE ENERGY PREDICTED BY IDOCK:   -4.49 KCAL/MOL
REMARK 924 INTRA-LIGAND FREE ENERGY PREDICTED BY IDOCK:   -0.21 KCAL/MOL
REMARK 927      BINDING AFFINITY PREDICTED BY RF-SCORE:    0.00 PKD
ROOT
HETATM    1  C   UNL     1     -13.411  12.020  63.091  1.00  0.00     0.822 C  
HETATM    2  N   UNL     1     -12.264  12.190  63.978  1.00  0.00    -0.441 NA 
HETATM    3  C   UNL     1     -11.044  11.656  63.367  1.00  0.00    -0.337 C  
HETATM    4  C   UNL     1      -9.959  12.286  64.210  1.00  0.00    -0.244 C  
HETATM    5  C   UNL     1     -10.468  13.699  64.429  1.00  0.00    -0.322 C  
HETATM    6  C   UNL     1     -11.998  13.607  64.320  1.00  0.00    -0.445 C  
ENDROOT
BRANCH   6   7
HETATM    7  C   UNL     1     -12.716  13.978  65.627  1.00  0.00    -0.515 C  
BRANCH   7   8
HETATM    8  C   UNL     1     -12.005  13.509  66.902  1.00  0.00    -0.399 C  
BRANCH   8   9
HETATM    9  O   UNL     1     -10.813  14.262  67.111  1.00  0.00    -0.288 OA 
HETATM   10  C   UNL     1     -10.052  13.973  68.316  1.00  0.00    -0.246 C  
HETATM   11  C   UNL     1      -9.504  12.524  68.259  1.00  0.00    -0.201 A  
HETATM   12  C   UNL     1      -8.846  14.957  68.331  1.00  0.00    -0.178 A  
HETATM   13  C   UNL     1     -10.958  14.251  69.544  1.00  0.00    -0.206 C  
HETATM   14  C   UNL     1      -9.728  11.585  69.285  1.00  0.00     0.258 A  
HETATM   15  C   UNL     1      -8.335  15.487  67.128  1.00  0.00    -0.243 A  
HETATM   16  C   UNL     1      -7.165  16.254  67.107  1.00  0.00    -0.243 A  
HETATM   17  C   UNL     1      -9.166  10.305  69.230  1.00  0.00    -0.215 A  
HETATM   18  C   UNL     1      -8.366   9.940  68.152  1.00  0.00    -0.110 A  
HETATM   19  C   UNL     1      -6.493  16.534  68.291  1.00  0.00    -0.137 A  
HETATM   20 CL   UNL     1      -7.645   8.380  68.109  1.00  0.00    -0.097 Cl 
HETATM   21  C   UNL     1      -8.142  10.838  67.114  1.00  0.00    -0.124 A  
HETATM   22  C   UNL     1      -6.994  16.055  69.497  1.00  0.00    -0.191 A  
HETATM   23  C   UNL     1      -8.150  15.268  69.516  1.00  0.00    -0.196 A  
HETATM   24  C   UNL     1      -8.715  12.113  67.164  1.00  0.00    -0.190 A  
ENDBRANCH   8   9
ENDBRANCH   7   8
ENDBRANCH   6   7
TORSDOF 3
ENDMDL
MODEL      181
REMARK 921   NORMALIZED FREE ENERGY PREDICTED BY IDOCK:   -3.39 KCAL/MOL
REMARK 922        TOTAL FREE ENERGY PREDICTED BY IDOCK:   -4.68 KCAL/MOL
REMARK 923 INTER-LIGAND FREE ENERGY PREDICTED BY IDOCK:   -4.30 KCAL/MOL
REMARK 924 INTRA-LIGAND FREE ENERGY PREDICTED BY IDOCK:   -0.38 KCAL/MOL
REMARK 927      BINDING AFFINITY PREDICTED BY RF-SCORE:    0.00 PKD
ROOT
HETATM    1  C   UNL     1     -10.529  15.245  66.210  1.00  0.00    -0.307 C  
HETATM    2  N   UNL     1      -9.878  16.188  67.114  1.00  0.00    -0.237 NA 
HETATM    3  C   UNL     1     -10.357  17.554  66.882  1.00  0.00    -0.315 C  
HETATM    4  C   UNL     1      -9.911  18.268  68.136  1.00  0.00    -0.377 C  
HETATM    5  C   UNL     1     -10.185  17.253  69.230  1.00  0.00    -0.218 C  
HETATM    6  C   UNL     1     -10.112  15.880  68.544  1.00  0.00    -0.217 C  
ENDROOT
BRANCH   6   7
HETATM    7  C   UNL     1      -8.975  14.999  69.086  1.00  0.00    -0.186 C  
BRANCH   7   8
HETATM    8  C   UNL     1      -9.346  13.523  69.276  1.00  0.00     0.698 C  
BRANCH   8   9
HETATM    9  O   UNL     1      -9.557  12.897  68.012  1.00  0.00    -0.208 OA 
HETATM   10  C   UNL     1      -8.832  11.662  67.759  1.00  0.00    -0.159 C  
HETATM   11  C   UNL     1      -9.308  10.560  68.739  1.00  0.00    -0.181 A  
HETATM   12  C   UNL     1      -9.191  11.222  66.309  1.00  0.00    -0.214 A  
HETATM   13  C   UNL     1      -7.312  11.961  67.844  1.00  0.00    -0.104 C  
HETATM   14  C   UNL     1      -8.421   9.831  69.553  1.00  0.00    -0.176 A  
HETATM   15  C   UNL     1     -10.413  11.609  65.721  1.00  0.00    -0.308 A  
HETATM   16  C   UNL     1     -10.819  11.106  64.481  1.00  0.00    -0.320 A  
HETATM   17  C   UNL     1      -8.879   8.800  70.381  1.00  0.00    -0.185 A  
HETATM   18  C   UNL     1     -10.231   8.475  70.408  1.00  0.00    -0.195 A  
HETATM   19  C   UNL     1      -9.999  10.226  63.783  1.00  0.00    -0.104 A  
HETATM   20 CL   UNL     1     -10.782   7.181  71.397  1.00  0.00    -0.239 Cl 
HETATM   21  C   UNL     1     -11.135   9.189  69.630  1.00  0.00    -0.103 A  
HETATM   22  C   UNL     1      -8.771   9.856  64.321  1.00  0.00    -0.229 A  
HETATM   23  C   UNL     1      -8.376  10.340  65.573  1.00  0.00    -0.165 A  
HETATM   24  C   UNL     1     -10.678  10.228  68.813  1.00  0.00    -0.247 A  
ENDBRANCH   8   9
ENDBRANCH   7   8
ENDBRANCH   6   7
TORSDOF 3
ENDMDL
MODEL      182
REMARK 921   NORMALIZED FREE ENERGY PREDICTED BY IDOCK:   -3.38 KCAL/MOL
REMARK 922        TOTAL FREE ENERGY PREDICTED BY IDOCK:   -4.67 KCAL/MOL
REMARK 923 INTER-LIGAND FREE ENERGY PREDICTED BY IDOCK:   -4.09 KCAL/MOL
REMARK 924 INTRA-LIGAND FREE ENERGY PREDICTED BY IDOCK:   -0.58 KCAL/MOL
REMARK 927      BINDING AFFINITY PREDICTED BY RF-SCORE:    0.00 PKD
ROOT
HETATM    1  C   UNL     1     -11.703   9.881  71.168  1.00  0.00    -0.396 C  
HETATM    2  N   UNL     1     -11.887  10.796  70.046  1.00  0.00    -0.313 NA 
HETATM    3  C   UNL     1     -12.137  12.161  70.516  1.00  0.00    -0.293 C  
HETATM    4  C   UNL     1     -11.880  12.981  69.274  1.00  0.00    -0.370 C  
HETATM    5  C   UNL     1     -10.666  12.310  68.660  1.00  0.00    -0.261 C  
HETATM    6  C   UNL     1     -10.714  10.852  69.143  1.00  0.00    -0.226 C  
ENDROOT
BRANCH   6   7
HETATM    7  C   UNL     1     -10.883   9.845  67.995  1.00  0.00    -0.294 C  
BRANCH   7   8
HETATM    8  C   UNL     1      -9.594   9.529  67.227  1.00  0.00    -0.150 C  
BRANCH   8   9
HETATM    9  O   UNL     1      -9.660   8.220  66.664  1.00  0.00    -0.195 OA 
HETATM   10  C   UNL     1      -8.456   7.408  66.741  1.00  0.00    -0.124 C  
HETATM   11  C   UNL     1      -8.123   7.097  68.223  1.00  0.00    -0.124 A  
HETATM   12  C   UNL     1      -8.773   6.068  66.014  1.00  0.00    -0.154 A  
HETATM   13  C   UNL     1      -7.320   8.146  65.986  1.00  0.00    -0.076 C  
HETATM   14  C   UNL     1      -6.865   7.369  68.793  1.00  0.00    -0.072 A  
HETATM   15  C   UNL     1     -10.098   5.592  65.929  1.00  0.00     0.011 A  
HETATM   16  C   UNL     1     -10.387   4.325  65.411  1.00  0.00    -0.217 A  
HETATM   17  C   UNL     1      -6.579   7.018  70.117  1.00  0.00    -0.047 A  
HETATM   18  C   UNL     1      -7.543   6.385  70.894  1.00  0.00    -0.093 A  
HETATM   19  C   UNL     1      -9.361   3.514  64.940  1.00  0.00    -0.153 A  
HETATM   20 CL   UNL     1      -7.172   5.920  72.508  1.00  0.00    -0.085 Cl 
HETATM   21  C   UNL     1      -8.801   6.119  70.366  1.00  0.00    -0.149 A  
HETATM   22  C   UNL     1      -8.048   3.972  64.978  1.00  0.00    -0.093 A  
HETATM   23  C   UNL     1      -7.757   5.229  65.517  1.00  0.00    -0.087 A  
HETATM   24  C   UNL     1      -9.090   6.483  69.047  1.00  0.00    -0.132 A  
ENDBRANCH   8   9
ENDBRANCH   7   8
ENDBRANCH   6   7
TORSDOF 3
ENDMDL
MODEL      183
REMARK 921   NORMALIZED FREE ENERGY PREDICTED BY IDOCK:   -3.36 KCAL/MOL
REMARK 922        TOTAL FREE ENERGY PREDICTED BY IDOCK:   -4.65 KCAL/MOL
REMARK 923 INTER-LIGAND FREE ENERGY PREDICTED BY IDOCK:   -4.04 KCAL/MOL
REMARK 924 INTRA-LIGAND FREE ENERGY PREDICTED BY IDOCK:   -0.60 KCAL/MOL
REMARK 927      BINDING AFFINITY PREDICTED BY RF-SCORE:    0.00 PKD
ROOT
HETATM    1  C   UNL     1     -12.423   9.413  71.665  1.00  0.00    -0.378 C  
HETATM    2  N   UNL     1     -12.663  10.640  70.911  1.00  0.00    -0.383 NA 
HETATM    3  C   UNL     1     -12.987  11.753  71.808  1.00  0.00    -0.361 C  
HETATM    4  C   UNL     1     -12.783  12.955  70.916  1.00  0.00    -0.291 C  
HETATM    5  C   UNL     1     -11.536  12.596  70.130  1.00  0.00    -0.003 C  
HETATM    6  C   UNL     1     -11.500  11.060  70.096  1.00  0.00    -0.296 C  
ENDROOT
BRANCH   6   7
HETATM    7  C   UNL     1     -11.618  10.488  68.674  1.00  0.00    -0.241 C  
BRANCH   7   8
HETATM    8  C   UNL     1     -10.451   9.591  68.247  1.00  0.00    -0.223 C  
BRANCH   8   9
HETATM    9  O   UNL     1     -10.121   8.675  69.290  1.00  0.00    -0.190 OA 
HETATM   10  C   UNL     1     -10.190   7.258  68.970  1.00  0.00    -0.197 C  
HETATM   11  C   UNL     1      -9.131   6.907  67.896  1.00  0.00    -0.122 A  
HETATM   12  C   UNL     1      -9.844   6.488  70.278  1.00  0.00    -0.185 A  
HETATM   13  C   UNL     1     -11.645   6.924  68.547  1.00  0.00     0.412 C  
HETATM   14  C   UNL     1      -9.455   6.250  66.693  1.00  0.00    -0.178 A  
HETATM   15  C   UNL     1      -9.036   7.081  71.270  1.00  0.00    -0.152 A  
HETATM   16  C   UNL     1      -8.593   6.356  72.381  1.00  0.00    -0.120 A  
HETATM   17  C   UNL     1      -8.464   5.892  65.773  1.00  0.00    -0.148 A  
HETATM   18  C   UNL     1      -7.129   6.179  66.039  1.00  0.00    -0.067 A  
HETATM   19  C   UNL     1      -8.969   5.027  72.542  1.00  0.00    -0.137 A  
HETATM   20 CL   UNL     1      -5.911   5.701  64.924  1.00  0.00    -0.021 Cl 
HETATM   21  C   UNL     1      -6.778   6.844  67.209  1.00  0.00    -0.063 A  
HETATM   22  C   UNL     1      -9.795   4.426  71.598  1.00  0.00    -0.255 A  
HETATM   23  C   UNL     1     -10.219   5.144  70.475  1.00  0.00    -0.330 A  
HETATM   24  C   UNL     1      -7.772   7.213  68.121  1.00  0.00    -0.117 A  
ENDBRANCH   8   9
ENDBRANCH   7   8
ENDBRANCH   6   7
TORSDOF 3
ENDMDL
MODEL      184
REMARK 921   NORMALIZED FREE ENERGY PREDICTED BY IDOCK:   -3.36 KCAL/MOL
REMARK 922        TOTAL FREE ENERGY PREDICTED BY IDOCK:   -4.65 KCAL/MOL
REMARK 923 INTER-LIGAND FREE ENERGY PREDICTED BY IDOCK:   -3.61 KCAL/MOL
REMARK 924 INTRA-LIGAND FREE ENERGY PREDICTED BY IDOCK:   -1.03 KCAL/MOL
REMARK 927      BINDING AFFINITY PREDICTED BY RF-SCORE:    0.00 PKD
ROOT
HETATM    1  C   UNL     1     -10.553   8.792  71.648  1.00  0.00    -0.331 C  
HETATM    2  N   UNL     1     -11.102   8.949  70.304  1.00  0.00    -0.244 NA 
HETATM    3  C   UNL     1     -11.019  10.343  69.862  1.00  0.00    -0.305 C  
HETATM    4  C   UNL     1     -11.224  10.221  68.370  1.00  0.00    -0.284 C  
HETATM    5  C   UNL     1     -10.430   8.979  68.011  1.00  0.00    -0.270 C  
HETATM    6  C   UNL     1     -10.401   8.126  69.290  1.00  0.00    -0.217 C  
ENDROOT
BRANCH   6   7
HETATM    7  C   UNL     1     -11.112   6.773  69.126  1.00  0.00    -0.270 C  
BRANCH   7   8
HETATM    8  C   UNL     1     -10.905   6.104  67.762  1.00  0.00    -0.325 C  
BRANCH   8   9
HETATM    9  O   UNL     1      -9.839   5.160  67.828  1.00  0.00    -0.142 OA 
HETATM   10  C   UNL     1      -9.013   5.012  66.640  1.00  0.00    -0.114 C  
HETATM   11  C   UNL     1      -8.248   6.331  66.362  1.00  0.00    -0.114 A  
HETATM   12  C   UNL     1      -7.974   3.895  66.954  1.00  0.00    -0.096 A  
HETATM   13  C   UNL     1      -9.920   4.556  65.468  1.00  0.00    -0.230 C  
HETATM   14  C   UNL     1      -8.298   6.992  65.120  1.00  0.00    -0.078 A  
HETATM   15  C   UNL     1      -7.581   3.630  68.282  1.00  0.00    -0.061 A  
HETATM   16  C   UNL     1      -6.547   2.736  68.573  1.00  0.00    -0.033 A  
HETATM   17  C   UNL     1      -7.545   8.148  64.883  1.00  0.00    -0.098 A  
HETATM   18  C   UNL     1      -6.725   8.662  65.882  1.00  0.00    -0.061 A  
HETATM   19  C   UNL     1      -5.897   2.063  67.544  1.00  0.00    -0.019 A  
HETATM   20 CL   UNL     1      -5.772  10.059  65.573  1.00  0.00    -0.063 Cl 
HETATM   21  C   UNL     1      -6.669   8.044  67.126  1.00  0.00    -0.065 A  
HETATM   22  C   UNL     1      -6.288   2.277  66.226  1.00  0.00    -0.024 A  
HETATM   23  C   UNL     1      -7.307   3.189  65.934  1.00  0.00    -0.072 A  
HETATM   24  C   UNL     1      -7.432   6.897  67.365  1.00  0.00    -0.097 A  
ENDBRANCH   8   9
ENDBRANCH   7   8
ENDBRANCH   6   7
TORSDOF 3
ENDMDL
MODEL      185
REMARK 921   NORMALIZED FREE ENERGY PREDICTED BY IDOCK:   -3.35 KCAL/MOL
REMARK 922        TOTAL FREE ENERGY PREDICTED BY IDOCK:   -4.64 KCAL/MOL
REMARK 923 INTER-LIGAND FREE ENERGY PREDICTED BY IDOCK:   -3.97 KCAL/MOL
REMARK 924 INTRA-LIGAND FREE ENERGY PREDICTED BY IDOCK:   -0.66 KCAL/MOL
REMARK 927      BINDING AFFINITY PREDICTED BY RF-SCORE:    0.00 PKD
ROOT
HETATM    1  C   UNL     1      -7.137   4.035  62.864  1.00  0.00    -0.040 C  
HETATM    2  N   UNL     1      -8.478   4.397  63.313  1.00  0.00    -0.102 NA 
HETATM    3  C   UNL     1      -9.424   3.301  63.081  1.00  0.00    -0.096 C  
HETATM    4  C   UNL     1     -10.589   3.689  63.961  1.00  0.00    -0.272 C  
HETATM    5  C   UNL     1      -9.916   4.221  65.213  1.00  0.00    -0.229 C  
HETATM    6  C   UNL     1      -8.540   4.729  64.756  1.00  0.00    -0.146 C  
ENDROOT
BRANCH   6   7
HETATM    7  C   UNL     1      -8.361   6.242  64.956  1.00  0.00    -0.099 C  
BRANCH   7   8
HETATM    8  C   UNL     1      -7.463   6.629  66.137  1.00  0.00    -0.081 C  
BRANCH   8   9
HETATM    9  O   UNL     1      -8.187   6.537  67.362  1.00  0.00    -0.119 OA 
HETATM   10  C   UNL     1      -8.017   7.625  68.313  1.00  0.00    -0.123 C  
HETATM   11  C   UNL     1      -8.578   8.940  67.714  1.00  0.00    -0.125 A  
HETATM   12  C   UNL     1      -8.858   7.255  69.570  1.00  0.00    -0.137 A  
HETATM   13  C   UNL     1      -6.518   7.704  68.702  1.00  0.00    -0.048 C  
HETATM   14  C   UNL     1      -7.818  10.123  67.632  1.00  0.00    -0.098 A  
HETATM   15  C   UNL     1      -9.981   6.409  69.462  1.00  0.00    -0.190 A  
HETATM   16  C   UNL     1     -10.832   6.183  70.547  1.00  0.00    -0.364 A  
HETATM   17  C   UNL     1      -8.376  11.309  67.144  1.00  0.00    -0.151 A  
HETATM   18  C   UNL     1      -9.704  11.338  66.733  1.00  0.00    -0.193 A  
HETATM   19  C   UNL     1     -10.567   6.775  71.777  1.00  0.00    -0.237 A  
HETATM   20 CL   UNL     1     -10.396  12.808  66.171  1.00  0.00    -0.274 Cl 
HETATM   21  C   UNL     1     -10.475  10.182  66.783  1.00  0.00    -0.270 A  
HETATM   22  C   UNL     1      -9.447   7.586  71.923  1.00  0.00    -0.173 A  
HETATM   23  C   UNL     1      -8.608   7.831  70.831  1.00  0.00    -0.128 A  
HETATM   24  C   UNL     1      -9.912   8.994  67.259  1.00  0.00    -0.275 A  
ENDBRANCH   8   9
ENDBRANCH   7   8
ENDBRANCH   6   7
TORSDOF 3
ENDMDL
MODEL      186
REMARK 921   NORMALIZED FREE ENERGY PREDICTED BY IDOCK:   -3.32 KCAL/MOL
REMARK 922        TOTAL FREE ENERGY PREDICTED BY IDOCK:   -4.59 KCAL/MOL
REMARK 923 INTER-LIGAND FREE ENERGY PREDICTED BY IDOCK:   -3.98 KCAL/MOL
REMARK 924 INTRA-LIGAND FREE ENERGY PREDICTED BY IDOCK:   -0.61 KCAL/MOL
REMARK 927      BINDING AFFINITY PREDICTED BY RF-SCORE:    0.00 PKD
ROOT
HETATM    1  C   UNL     1      -6.952  10.371  68.640  1.00  0.00    -0.066 C  
HETATM    2  N   UNL     1      -6.966   8.988  68.174  1.00  0.00    -0.076 NA 
HETATM    3  C   UNL     1      -6.064   8.809  67.033  1.00  0.00    -0.058 C  
HETATM    4  C   UNL     1      -5.903   7.307  66.983  1.00  0.00    -0.026 C  
HETATM    5  C   UNL     1      -5.803   6.919  68.446  1.00  0.00    -0.018 C  
HETATM    6  C   UNL     1      -6.554   8.018  69.215  1.00  0.00    -0.036 C  
ENDROOT
BRANCH   6   7
HETATM    7  C   UNL     1      -7.789   7.490  69.963  1.00  0.00    -0.099 C  
BRANCH   7   8
HETATM    8  C   UNL     1      -7.516   7.028  71.399  1.00  0.00    -0.081 C  
BRANCH   8   9
HETATM    9  O   UNL     1      -8.091   5.743  71.624  1.00  0.00    -0.115 OA 
HETATM   10  C   UNL     1      -9.041   5.627  72.720  1.00  0.00    -0.130 C  
HETATM   11  C   UNL     1     -10.296   6.487  72.424  1.00  0.00    -0.210 A  
HETATM   12  C   UNL     1      -9.469   4.132  72.785  1.00  0.00    -0.161 A  
HETATM   13  C   UNL     1      -8.316   6.012  74.036  1.00  0.00    -0.112 C  
HETATM   14  C   UNL     1     -10.785   7.454  73.322  1.00  0.00    -0.441 A  
HETATM   15  C   UNL     1      -9.420   3.318  71.634  1.00  0.00    -0.220 A  
HETATM   16  C   UNL     1      -9.936   2.019  71.636  1.00  0.00    -0.192 A  
HETATM   17  C   UNL     1     -11.958   8.168  73.049  1.00  0.00     0.148 A  
HETATM   18  C   UNL     1     -12.665   7.925  71.877  1.00  0.00    -0.316 A  
HETATM   19  C   UNL     1     -10.489   1.490  72.796  1.00  0.00    -0.222 A  
HETATM   20 CL   UNL     1     -14.127   8.777  71.566  1.00  0.00    -0.426 Cl 
HETATM   21  C   UNL     1     -12.198   6.990  70.961  1.00  0.00    -0.419 A  
HETATM   22  C   UNL     1     -10.518   2.256  73.957  1.00  0.00    -0.209 A  
HETATM   23  C   UNL     1     -10.023   3.564  73.949  1.00  0.00    -0.168 A  
HETATM   24  C   UNL     1     -11.019   6.287  71.228  1.00  0.00    -0.330 A  
ENDBRANCH   8   9
ENDBRANCH   7   8
ENDBRANCH   6   7
TORSDOF 3
ENDMDL
MODEL      187
REMARK 921   NORMALIZED FREE ENERGY PREDICTED BY IDOCK:   -3.30 KCAL/MOL
REMARK 922        TOTAL FREE ENERGY PREDICTED BY IDOCK:   -4.57 KCAL/MOL
REMARK 923 INTER-LIGAND FREE ENERGY PREDICTED BY IDOCK:   -4.15 KCAL/MOL
REMARK 924 INTRA-LIGAND FREE ENERGY PREDICTED BY IDOCK:   -0.42 KCAL/MOL
REMARK 927      BINDING AFFINITY PREDICTED BY RF-SCORE:    0.00 PKD
ROOT
HETATM    1  C   UNL     1     -13.834   9.633  71.573  1.00  0.00    -0.146 C  
HETATM    2  N   UNL     1     -12.561   8.920  71.566  1.00  0.00    -0.321 NA 
HETATM    3  C   UNL     1     -12.757   7.491  71.826  1.00  0.00    -0.331 C  
HETATM    4  C   UNL     1     -11.445   6.898  71.371  1.00  0.00    -0.321 C  
HETATM    5  C   UNL     1     -11.128   7.681  70.110  1.00  0.00    -0.229 C  
HETATM    6  C   UNL     1     -11.836   9.035  70.280  1.00  0.00     0.100 C  
ENDROOT
BRANCH   6   7
HETATM    7  C   UNL     1     -10.859  10.220  70.329  1.00  0.00    -0.349 C  
BRANCH   7   8
HETATM    8  C   UNL     1      -9.973  10.370  69.087  1.00  0.00    -0.223 C  
BRANCH   8   9
HETATM    9  O   UNL     1      -9.585  11.732  68.915  1.00  0.00    -0.101 OA 
HETATM   10  C   UNL     1      -8.313  11.977  68.255  1.00  0.00    -0.163 C  
HETATM   11  C   UNL     1      -8.374  11.480  66.788  1.00  0.00    -0.165 A  
HETATM   12  C   UNL     1      -8.104  13.520  68.245  1.00  0.00    -0.155 A  
HETATM   13  C   UNL     1      -7.191  11.312  69.095  1.00  0.00    -0.115 C  
HETATM   14  C   UNL     1      -7.430  10.585  66.249  1.00  0.00    -0.133 A  
HETATM   15  C   UNL     1      -9.209  14.396  68.280  1.00  0.00    -0.201 A  
HETATM   16  C   UNL     1      -9.051  15.777  68.125  1.00  0.00    -0.185 A  
HETATM   17  C   UNL     1      -7.480  10.205  64.903  1.00  0.00    -0.137 A  
HETATM   18  C   UNL     1      -8.470  10.716  64.070  1.00  0.00    -0.056 A  
HETATM   19  C   UNL     1      -7.782  16.320  67.959  1.00  0.00    -0.154 A  
HETATM   20 CL   UNL     1      -8.502  10.277  62.408  1.00  0.00    -0.180 Cl 
HETATM   21  C   UNL     1      -9.427  11.586  64.577  1.00  0.00    -0.108 A  
HETATM   22  C   UNL     1      -6.671  15.484  67.957  1.00  0.00    -0.152 A  
HETATM   23  C   UNL     1      -6.830  14.100  68.089  1.00  0.00    -0.129 A  
HETATM   24  C   UNL     1      -9.384  11.954  65.926  1.00  0.00    -0.193 A  
ENDBRANCH   8   9
ENDBRANCH   7   8
ENDBRANCH   6   7
TORSDOF 3
ENDMDL
MODEL      188
REMARK 921   NORMALIZED FREE ENERGY PREDICTED BY IDOCK:   -3.29 KCAL/MOL
REMARK 922        TOTAL FREE ENERGY PREDICTED BY IDOCK:   -4.56 KCAL/MOL
REMARK 923 INTER-LIGAND FREE ENERGY PREDICTED BY IDOCK:   -4.13 KCAL/MOL
REMARK 924 INTRA-LIGAND FREE ENERGY PREDICTED BY IDOCK:   -0.43 KCAL/MOL
REMARK 927      BINDING AFFINITY PREDICTED BY RF-SCORE:    0.00 PKD
ROOT
HETATM    1  C   UNL     1      -5.485   8.926  67.142  1.00  0.00    -0.041 C  
HETATM    2  N   UNL     1      -5.908   8.754  68.529  1.00  0.00    -0.044 NA 
HETATM    3  C   UNL     1      -5.135   7.697  69.187  1.00  0.00    -0.015 C  
HETATM    4  C   UNL     1      -5.410   7.961  70.649  1.00  0.00    -0.023 C  
HETATM    5  C   UNL     1      -5.371   9.475  70.742  1.00  0.00    -0.045 C  
HETATM    6  C   UNL     1      -5.751   9.982  69.342  1.00  0.00    -0.037 C  
ENDROOT
BRANCH   6   7
HETATM    7  C   UNL     1      -7.057  10.793  69.332  1.00  0.00    -0.122 C  
BRANCH   7   8
HETATM    8  C   UNL     1      -8.293  10.019  69.805  1.00  0.00    -0.172 C  
BRANCH   8   9
HETATM    9  O   UNL     1      -8.520   8.886  68.969  1.00  0.00    -0.129 OA 
HETATM   10  C   UNL     1      -9.824   8.785  68.334  1.00  0.00    -0.171 C  
HETATM   11  C   UNL     1     -10.018   9.956  67.337  1.00  0.00    -0.235 A  
HETATM   12  C   UNL     1      -9.830   7.449  67.535  1.00  0.00    -0.203 A  
HETATM   13  C   UNL     1     -10.905   8.725  69.445  1.00  0.00    -0.123 C  
HETATM   14  C   UNL     1     -11.131  10.817  67.381  1.00  0.00    -0.363 A  
HETATM   15  C   UNL     1      -8.626   6.888  67.062  1.00  0.00    -0.121 A  
HETATM   16  C   UNL     1      -8.621   5.771  66.221  1.00  0.00    -0.130 A  
HETATM   17  C   UNL     1     -11.306  11.825  66.426  1.00  0.00    -0.361 A  
HETATM   18  C   UNL     1     -10.374  11.989  65.407  1.00  0.00    -0.266 A  
HETATM   19  C   UNL     1      -9.820   5.170  65.853  1.00  0.00    -0.151 A  
HETATM   20 CL   UNL     1     -10.613  13.203  64.213  1.00  0.00    -0.434 Cl 
HETATM   21  C   UNL     1      -9.254  11.167  65.347  1.00  0.00    -0.225 A  
HETATM   22  C   UNL     1     -11.022   5.680  66.334  1.00  0.00    -0.083 A  
HETATM   23  C   UNL     1     -11.028   6.811  67.156  1.00  0.00    -0.458 A  
HETATM   24  C   UNL     1      -9.074  10.169  66.310  1.00  0.00    -0.180 A  
ENDBRANCH   8   9
ENDBRANCH   7   8
ENDBRANCH   6   7
TORSDOF 3
ENDMDL
MODEL      189
REMARK 921   NORMALIZED FREE ENERGY PREDICTED BY IDOCK:   -3.26 KCAL/MOL
REMARK 922        TOTAL FREE ENERGY PREDICTED BY IDOCK:   -4.53 KCAL/MOL
REMARK 923 INTER-LIGAND FREE ENERGY PREDICTED BY IDOCK:   -3.75 KCAL/MOL
REMARK 924 INTRA-LIGAND FREE ENERGY PREDICTED BY IDOCK:   -0.78 KCAL/MOL
REMARK 927      BINDING AFFINITY PREDICTED BY RF-SCORE:    0.00 PKD
ROOT
HETATM    1  C   UNL     1     -11.472  14.881  69.407  1.00  0.00    -0.299 C  
HETATM    2  N   UNL     1     -11.990  14.143  68.259  1.00  0.00    -0.351 NA 
HETATM    3  C   UNL     1     -11.769  14.884  67.014  1.00  0.00    -0.261 C  
HETATM    4  C   UNL     1     -11.971  13.817  65.964  1.00  0.00    -0.443 C  
HETATM    5  C   UNL     1     -11.299  12.600  66.571  1.00  0.00    -0.377 C  
HETATM    6  C   UNL     1     -11.364  12.811  68.092  1.00  0.00    -0.288 C  
ENDROOT
BRANCH   6   7
HETATM    7  C   UNL     1     -12.201  11.741  68.811  1.00  0.00    -0.024 C  
BRANCH   7   8
HETATM    8  C   UNL     1     -11.430  10.468  69.180  1.00  0.00    -0.247 C  
BRANCH   8   9
HETATM    9  O   UNL     1     -10.073  10.781  69.485  1.00  0.00    -0.189 OA 
HETATM   10  C   UNL     1      -9.086   9.741  69.241  1.00  0.00    -0.184 C  
HETATM   11  C   UNL     1      -9.005   9.435  67.724  1.00  0.00    -0.127 A  
HETATM   12  C   UNL     1      -7.713  10.310  69.704  1.00  0.00    -0.166 A  
HETATM   13  C   UNL     1      -9.450   8.508  70.109  1.00  0.00    -0.169 C  
HETATM   14  C   UNL     1      -9.148   8.136  67.201  1.00  0.00    -0.163 A  
HETATM   15  C   UNL     1      -7.476  11.701  69.713  1.00  0.00     0.591 A  
HETATM   16  C   UNL     1      -6.208  12.224  69.984  1.00  0.00    -0.085 A  
HETATM   17  C   UNL     1      -9.008   7.887  65.831  1.00  0.00    -0.166 A  
HETATM   18  C   UNL     1      -8.717   8.930  64.959  1.00  0.00    -0.166 A  
HETATM   19  C   UNL     1      -5.151  11.372  70.281  1.00  0.00    -0.081 A  
HETATM   20 CL   UNL     1      -8.506   8.612  63.282  1.00  0.00    -0.138 Cl 
HETATM   21  C   UNL     1      -8.589  10.228  65.442  1.00  0.00    -0.169 A  
HETATM   22  C   UNL     1      -5.363   9.998  70.315  1.00  0.00    -0.044 A  
HETATM   23  C   UNL     1      -6.625   9.473  70.021  1.00  0.00    -0.065 A  
HETATM   24  C   UNL     1      -8.743  10.477  66.809  1.00  0.00    -0.136 A  
ENDBRANCH   8   9
ENDBRANCH   7   8
ENDBRANCH   6   7
TORSDOF 3
ENDMDL
MODEL      190
REMARK 921   NORMALIZED FREE ENERGY PREDICTED BY IDOCK:   -3.26 KCAL/MOL
REMARK 922        TOTAL FREE ENERGY PREDICTED BY IDOCK:   -4.53 KCAL/MOL
REMARK 923 INTER-LIGAND FREE ENERGY PREDICTED BY IDOCK:   -3.71 KCAL/MOL
REMARK 924 INTRA-LIGAND FREE ENERGY PREDICTED BY IDOCK:   -0.82 KCAL/MOL
REMARK 927      BINDING AFFINITY PREDICTED BY RF-SCORE:    0.00 PKD
ROOT
HETATM    1  C   UNL     1     -10.561  11.119  66.092  1.00  0.00    -0.248 C  
HETATM    2  N   UNL     1     -10.534  12.260  67.003  1.00  0.00    -0.215 NA 
HETATM    3  C   UNL     1     -11.878  12.815  67.189  1.00  0.00    -0.350 C  
HETATM    4  C   UNL     1     -11.708  13.659  68.431  1.00  0.00    -0.393 C  
HETATM    5  C   UNL     1     -10.815  12.805  69.312  1.00  0.00    -0.044 C  
HETATM    6  C   UNL     1     -10.011  11.920  68.346  1.00  0.00    -0.203 C  
ENDROOT
BRANCH   6   7
HETATM    7  C   UNL     1      -8.499  12.186  68.406  1.00  0.00    -0.145 C  
BRANCH   7   8
HETATM    8  C   UNL     1      -7.651  10.970  68.800  1.00  0.00    -0.127 C  
BRANCH   8   9
HETATM    9  O   UNL     1      -7.620  10.021  67.737  1.00  0.00    -0.089 OA 
HETATM   10  C   UNL     1      -7.329   8.641  68.093  1.00  0.00    -0.091 C  
HETATM   11  C   UNL     1      -8.461   8.076  68.987  1.00  0.00    -0.130 A  
HETATM   12  C   UNL     1      -7.299   7.833  66.762  1.00  0.00    -0.089 A  
HETATM   13  C   UNL     1      -5.927   8.593  68.754  1.00  0.00    -0.044 C  
HETATM   14  C   UNL     1      -8.217   7.482  70.240  1.00  0.00    -0.128 A  
HETATM   15  C   UNL     1      -8.033   8.268  65.639  1.00  0.00    -0.113 A  
HETATM   16  C   UNL     1      -8.137   7.484  64.487  1.00  0.00    -0.086 A  
HETATM   17  C   UNL     1      -9.257   6.925  70.993  1.00  0.00    -0.156 A  
HETATM   18  C   UNL     1     -10.560   6.949  70.507  1.00  0.00    -0.220 A  
HETATM   19  C   UNL     1      -7.488   6.256  64.417  1.00  0.00    -0.088 A  
HETATM   20 CL   UNL     1     -11.827   6.228  71.418  1.00  0.00    -0.330 Cl 
HETATM   21  C   UNL     1     -10.836   7.546  69.282  1.00  0.00    -0.131 A  
HETATM   22  C   UNL     1      -6.727   5.818  65.496  1.00  0.00    -0.047 A  
HETATM   23  C   UNL     1      -6.642   6.591  66.657  1.00  0.00    -0.048 A  
HETATM   24  C   UNL     1      -9.798   8.113  68.537  1.00  0.00    -0.190 A  
ENDBRANCH   8   9
ENDBRANCH   7   8
ENDBRANCH   6   7
TORSDOF 3
ENDMDL
MODEL      191
REMARK 921   NORMALIZED FREE ENERGY PREDICTED BY IDOCK:   -3.25 KCAL/MOL
REMARK 922        TOTAL FREE ENERGY PREDICTED BY IDOCK:   -4.51 KCAL/MOL
REMARK 923 INTER-LIGAND FREE ENERGY PREDICTED BY IDOCK:   -3.94 KCAL/MOL
REMARK 924 INTRA-LIGAND FREE ENERGY PREDICTED BY IDOCK:   -0.57 KCAL/MOL
REMARK 927      BINDING AFFINITY PREDICTED BY RF-SCORE:    0.00 PKD
ROOT
HETATM    1  C   UNL     1      -9.666   5.762  72.196  1.00  0.00    -0.152 C  
HETATM    2  N   UNL     1     -10.666   6.670  71.644  1.00  0.00    -0.225 NA 
HETATM    3  C   UNL     1     -11.969   6.470  72.284  1.00  0.00    -0.231 C  
HETATM    4  C   UNL     1     -12.712   7.728  71.902  1.00  0.00    -0.328 C  
HETATM    5  C   UNL     1     -11.656   8.809  72.033  1.00  0.00    -0.436 C  
HETATM    6  C   UNL     1     -10.311   8.098  71.811  1.00  0.00    -0.230 C  
ENDROOT
BRANCH   6   7
HETATM    7  C   UNL     1      -9.563   8.605  70.568  1.00  0.00    -0.210 C  
BRANCH   7   8
HETATM    8  C   UNL     1     -10.163   8.153  69.232  1.00  0.00    -0.214 C  
BRANCH   8   9
HETATM    9  O   UNL     1      -9.543   6.946  68.792  1.00  0.00    -0.135 OA 
HETATM   10  C   UNL     1      -9.464   6.730  67.356  1.00  0.00    -0.134 C  
HETATM   11  C   UNL     1      -8.555   7.806  66.709  1.00  0.00    -0.133 A  
HETATM   12  C   UNL     1      -8.805   5.335  67.149  1.00  0.00    -0.109 A  
HETATM   13  C   UNL     1     -10.907   6.706  66.787  1.00  0.00    -0.322 C  
HETATM   14  C   UNL     1      -8.976   8.612  65.634  1.00  0.00    -0.231 A  
HETATM   15  C   UNL     1      -7.937   4.798  68.122  1.00  0.00    -0.085 A  
HETATM   16  C   UNL     1      -7.222   3.619  67.892  1.00  0.00    -0.055 A  
HETATM   17  C   UNL     1      -8.108   9.530  65.033  1.00  0.00    -0.125 A  
HETATM   18  C   UNL     1      -6.801   9.657  65.493  1.00  0.00    -0.089 A  
HETATM   19  C   UNL     1      -7.377   2.932  66.693  1.00  0.00    -0.070 A  
HETATM   20 CL   UNL     1      -5.726  10.758  64.725  1.00  0.00    -0.059 Cl 
HETATM   21  C   UNL     1      -6.361   8.890  66.565  1.00  0.00    -0.062 A  
HETATM   22  C   UNL     1      -8.254   3.419  65.729  1.00  0.00    -0.094 A  
HETATM   23  C   UNL     1      -8.951   4.611  65.949  1.00  0.00    -0.127 A  
HETATM   24  C   UNL     1      -7.234   7.982  67.173  1.00  0.00    -0.087 A  
ENDBRANCH   8   9
ENDBRANCH   7   8
ENDBRANCH   6   7
TORSDOF 3
ENDMDL
MODEL      192
REMARK 921   NORMALIZED FREE ENERGY PREDICTED BY IDOCK:   -3.21 KCAL/MOL
REMARK 922        TOTAL FREE ENERGY PREDICTED BY IDOCK:   -4.47 KCAL/MOL
REMARK 923 INTER-LIGAND FREE ENERGY PREDICTED BY IDOCK:   -3.87 KCAL/MOL
REMARK 924 INTRA-LIGAND FREE ENERGY PREDICTED BY IDOCK:   -0.60 KCAL/MOL
REMARK 927      BINDING AFFINITY PREDICTED BY RF-SCORE:    0.00 PKD
ROOT
HETATM    1  C   UNL     1     -10.079   9.018  66.715  1.00  0.00    -0.274 C  
HETATM    2  N   UNL     1      -8.872   9.435  66.008  1.00  0.00    -0.148 NA 
HETATM    3  C   UNL     1      -8.246   8.302  65.321  1.00  0.00    -0.148 C  
HETATM    4  C   UNL     1      -7.314   8.989  64.350  1.00  0.00    -0.099 C  
HETATM    5  C   UNL     1      -8.133  10.167  63.857  1.00  0.00    -0.157 C  
HETATM    6  C   UNL     1      -9.126  10.479  64.987  1.00  0.00    -0.201 C  
ENDROOT
BRANCH   6   7
HETATM    7  C   UNL     1      -8.922  11.874  65.598  1.00  0.00     0.107 C  
BRANCH   7   8
HETATM    8  C   UNL     1      -9.814  12.969  65.001  1.00  0.00    -0.038 C  
BRANCH   8   9
HETATM    9  O   UNL     1      -9.354  14.258  65.403  1.00  0.00     0.068 OA 
HETATM   10  C   UNL     1     -10.345  15.169  65.956  1.00  0.00    -0.311 C  
HETATM   11  C   UNL     1     -10.899  14.602  67.288  1.00  0.00    -0.305 A  
HETATM   12  C   UNL     1      -9.604  16.505  66.256  1.00  0.00    -0.333 A  
HETATM   13  C   UNL     1     -11.434  15.416  64.880  1.00  0.00    -0.311 C  
HETATM   14  C   UNL     1     -12.275  14.429  67.527  1.00  0.00    -0.210 A  
HETATM   15  C   UNL     1      -8.219  16.516  66.522  1.00  0.00    -0.335 A  
HETATM   16  C   UNL     1      -7.565  17.680  66.938  1.00  0.00    -0.244 A  
HETATM   17  C   UNL     1     -12.744  13.973  68.764  1.00  0.00     0.761 A  
HETATM   18  C   UNL     1     -11.846  13.687  69.787  1.00  0.00    -0.327 A  
HETATM   19  C   UNL     1      -8.274  18.869  67.070  1.00  0.00    -0.281 A  
HETATM   20 CL   UNL     1     -12.429  13.165  71.318  1.00  0.00    -0.388 Cl 
HETATM   21  C   UNL     1     -10.479  13.829  69.576  1.00  0.00     0.251 A  
HETATM   22  C   UNL     1      -9.634  18.896  66.780  1.00  0.00    -0.354 A  
HETATM   23  C   UNL     1     -10.293  17.727  66.387  1.00  0.00    -0.351 A  
HETATM   24  C   UNL     1     -10.012  14.272  68.334  1.00  0.00    -0.240 A  
ENDBRANCH   8   9
ENDBRANCH   7   8
ENDBRANCH   6   7
TORSDOF 3
ENDMDL
MODEL      193
REMARK 921   NORMALIZED FREE ENERGY PREDICTED BY IDOCK:   -3.19 KCAL/MOL
REMARK 922        TOTAL FREE ENERGY PREDICTED BY IDOCK:   -4.44 KCAL/MOL
REMARK 923 INTER-LIGAND FREE ENERGY PREDICTED BY IDOCK:   -4.29 KCAL/MOL
REMARK 924 INTRA-LIGAND FREE ENERGY PREDICTED BY IDOCK:   -0.15 KCAL/MOL
REMARK 927      BINDING AFFINITY PREDICTED BY RF-SCORE:    0.00 PKD
ROOT
HETATM    1  C   UNL     1      -7.262   8.069  70.764  1.00  0.00    -0.053 C  
HETATM    2  N   UNL     1      -8.627   7.551  70.791  1.00  0.00    -0.134 NA 
HETATM    3  C   UNL     1      -8.752   6.453  71.754  1.00  0.00    -0.132 C  
HETATM    4  C   UNL     1     -10.249   6.354  71.936  1.00  0.00    -0.219 C  
HETATM    5  C   UNL     1     -10.692   7.806  71.965  1.00  0.00    -0.282 C  
HETATM    6  C   UNL     1      -9.631   8.575  71.162  1.00  0.00    -0.193 C  
ENDROOT
BRANCH   6   7
HETATM    7  C   UNL     1     -10.200   9.237  69.897  1.00  0.00    -0.235 C  
BRANCH   7   8
HETATM    8  C   UNL     1      -9.576  10.594  69.550  1.00  0.00    -0.031 C  
BRANCH   8   9
HETATM    9  O   UNL     1      -8.798  10.492  68.359  1.00  0.00    -0.129 OA 
HETATM   10  C   UNL     1      -9.435  10.904  67.118  1.00  0.00    -0.160 C  
HETATM   11  C   UNL     1      -9.747  12.421  67.162  1.00  0.00    -0.207 A  
HETATM   12  C   UNL     1      -8.406  10.643  65.979  1.00  0.00    -0.160 A  
HETATM   13  C   UNL     1     -10.686  10.014  66.894  1.00  0.00    -0.211 C  
HETATM   14  C   UNL     1     -11.032  12.941  66.917  1.00  0.00    -0.294 A  
HETATM   15  C   UNL     1      -7.021  10.644  66.247  1.00  0.00    -0.133 A  
HETATM   16  C   UNL     1      -6.078  10.558  65.218  1.00  0.00    -0.110 A  
HETATM   17  C   UNL     1     -11.265  14.321  66.903  1.00  0.00    -0.333 A  
HETATM   18  C   UNL     1     -10.217  15.207  67.130  1.00  0.00    -0.247 A  
HETATM   19  C   UNL     1      -6.496  10.442  63.897  1.00  0.00    -0.024 A  
HETATM   20 CL   UNL     1     -10.500  16.902  67.073  1.00  0.00    -0.306 Cl 
HETATM   21  C   UNL     1      -8.940  14.724  67.395  1.00  0.00    -0.200 A  
HETATM   22  C   UNL     1      -7.856  10.402  63.606  1.00  0.00    -0.072 A  
HETATM   23  C   UNL     1      -8.799  10.511  64.633  1.00  0.00    -0.211 A  
HETATM   24  C   UNL     1      -8.712  13.345  67.421  1.00  0.00    -0.209 A  
ENDBRANCH   8   9
ENDBRANCH   7   8
ENDBRANCH   6   7
TORSDOF 3
ENDMDL
MODEL      194
REMARK 921   NORMALIZED FREE ENERGY PREDICTED BY IDOCK:   -3.16 KCAL/MOL
REMARK 922        TOTAL FREE ENERGY PREDICTED BY IDOCK:   -4.41 KCAL/MOL
REMARK 923 INTER-LIGAND FREE ENERGY PREDICTED BY IDOCK:   -3.44 KCAL/MOL
REMARK 924 INTRA-LIGAND FREE ENERGY PREDICTED BY IDOCK:   -0.97 KCAL/MOL
REMARK 927      BINDING AFFINITY PREDICTED BY RF-SCORE:    0.00 PKD
ROOT
HETATM    1  C   UNL     1     -10.787   9.764  68.285  1.00  0.00    -0.210 C  
HETATM    2  N   UNL     1     -10.678   8.389  67.806  1.00  0.00    -0.154 NA 
HETATM    3  C   UNL     1      -9.854   8.317  66.597  1.00  0.00    -0.267 C  
HETATM    4  C   UNL     1      -9.525   6.845  66.518  1.00  0.00    -0.199 C  
HETATM    5  C   UNL     1      -9.265   6.469  67.965  1.00  0.00    -0.111 C  
HETATM    6  C   UNL     1     -10.075   7.473  68.802  1.00  0.00    -0.185 C  
ENDROOT
BRANCH   6   7
HETATM    7  C   UNL     1     -11.177   6.805  69.639  1.00  0.00    -0.345 C  
BRANCH   7   8
HETATM    8  C   UNL     1     -10.925   6.813  71.151  1.00  0.00    -0.257 C  
BRANCH   8   9
HETATM    9  O   UNL     1      -9.710   7.497  71.448  1.00  0.00    -0.167 OA 
HETATM   10  C   UNL     1      -8.903   6.967  72.536  1.00  0.00    -0.124 C  
HETATM   11  C   UNL     1      -8.388   5.552  72.171  1.00  0.00    -0.122 A  
HETATM   12  C   UNL     1      -7.678   7.916  72.688  1.00  0.00    -0.145 A  
HETATM   13  C   UNL     1      -9.750   7.008  73.835  1.00  0.00    -0.331 C  
HETATM   14  C   UNL     1      -8.585   4.432  73.001  1.00  0.00    -0.101 A  
HETATM   15  C   UNL     1      -7.209   8.667  71.590  1.00  0.00    -0.109 A  
HETATM   16  C   UNL     1      -6.027   9.410  71.666  1.00  0.00    -0.035 A  
HETATM   17  C   UNL     1      -8.052   3.182  72.670  1.00  0.00    -0.067 A  
HETATM   18  C   UNL     1      -7.307   3.028  71.505  1.00  0.00    -0.040 A  
HETATM   19  C   UNL     1      -5.299   9.444  72.850  1.00  0.00    -0.045 A  
HETATM   20 CL   UNL     1      -6.620   1.499  71.123  1.00  0.00    -0.023 Cl 
HETATM   21  C   UNL     1      -7.110   4.110  70.655  1.00  0.00    -0.037 A  
HETATM   22  C   UNL     1      -5.756   8.742  73.960  1.00  0.00    -0.126 A  
HETATM   23  C   UNL     1      -6.926   7.980  73.878  1.00  0.00    -0.150 A  
HETATM   24  C   UNL     1      -7.655   5.356  70.981  1.00  0.00    -0.090 A  
ENDBRANCH   8   9
ENDBRANCH   7   8
ENDBRANCH   6   7
TORSDOF 3
ENDMDL
MODEL      195
REMARK 921   NORMALIZED FREE ENERGY PREDICTED BY IDOCK:   -3.16 KCAL/MOL
REMARK 922        TOTAL FREE ENERGY PREDICTED BY IDOCK:   -4.40 KCAL/MOL
REMARK 923 INTER-LIGAND FREE ENERGY PREDICTED BY IDOCK:   -3.43 KCAL/MOL
REMARK 924 INTRA-LIGAND FREE ENERGY PREDICTED BY IDOCK:   -0.97 KCAL/MOL
REMARK 927      BINDING AFFINITY PREDICTED BY RF-SCORE:    0.00 PKD
ROOT
HETATM    1  C   UNL     1     -12.381   7.548  72.207  1.00  0.00    -0.156 C  
HETATM    2  N   UNL     1     -12.571   8.680  71.304  1.00  0.00    -0.277 NA 
HETATM    3  C   UNL     1     -13.047   9.859  72.033  1.00  0.00    -0.448 C  
HETATM    4  C   UNL     1     -12.778  10.975  71.050  1.00  0.00    -0.485 C  
HETATM    5  C   UNL     1     -11.430  10.602  70.462  1.00  0.00    -0.407 C  
HETATM    6  C   UNL     1     -11.331   9.074  70.596  1.00  0.00    -0.265 C  
ENDROOT
BRANCH   6   7
HETATM    7  C   UNL     1     -11.249   8.358  69.239  1.00  0.00     0.273 C  
BRANCH   7   8
HETATM    8  C   UNL     1     -10.099   7.351  69.117  1.00  0.00    -0.189 C  
BRANCH   8   9
HETATM    9  O   UNL     1      -9.433   7.204  70.369  1.00  0.00    -0.162 OA 
HETATM   10  C   UNL     1      -7.988   7.040  70.333  1.00  0.00    -0.113 C  
HETATM   11  C   UNL     1      -7.325   8.324  69.773  1.00  0.00    -0.065 A  
HETATM   12  C   UNL     1      -7.523   6.845  71.806  1.00  0.00    -0.089 A  
HETATM   13  C   UNL     1      -7.662   5.761  69.518  1.00  0.00    -0.092 C  
HETATM   14  C   UNL     1      -6.428   8.306  68.688  1.00  0.00    -0.054 A  
HETATM   15  C   UNL     1      -8.277   7.374  72.875  1.00  0.00    -0.136 A  
HETATM   16  C   UNL     1      -7.804   7.338  74.190  1.00  0.00    -0.149 A  
HETATM   17  C   UNL     1      -5.800   9.476  68.248  1.00  0.00    -0.040 A  
HETATM   18  C   UNL     1      -6.052  10.685  68.887  1.00  0.00    -0.040 A  
HETATM   19  C   UNL     1      -6.578   6.747  74.474  1.00  0.00    -0.087 A  
HETATM   20 CL   UNL     1      -5.246  12.113  68.368  1.00  0.00    -0.050 Cl 
HETATM   21  C   UNL     1      -6.946  10.740  69.950  1.00  0.00    -0.127 A  
HETATM   22  C   UNL     1      -5.829   6.185  73.446  1.00  0.00    -0.053 A  
HETATM   23  C   UNL     1      -6.291   6.242  72.127  1.00  0.00    -0.050 A  
HETATM   24  C   UNL     1      -7.584   9.571  70.379  1.00  0.00    -0.169 A  
ENDBRANCH   8   9
ENDBRANCH   7   8
ENDBRANCH   6   7
TORSDOF 3
ENDMDL
MODEL      196
REMARK 921   NORMALIZED FREE ENERGY PREDICTED BY IDOCK:   -3.14 KCAL/MOL
REMARK 922        TOTAL FREE ENERGY PREDICTED BY IDOCK:   -4.39 KCAL/MOL
REMARK 923 INTER-LIGAND FREE ENERGY PREDICTED BY IDOCK:   -3.90 KCAL/MOL
REMARK 924 INTRA-LIGAND FREE ENERGY PREDICTED BY IDOCK:   -0.49 KCAL/MOL
REMARK 927      BINDING AFFINITY PREDICTED BY RF-SCORE:    0.00 PKD
ROOT
HETATM    1  C   UNL     1     -11.665  12.177  66.496  1.00  0.00    -0.321 C  
HETATM    2  N   UNL     1     -10.357  12.792  66.705  1.00  0.00    -0.239 NA 
HETATM    3  C   UNL     1     -10.467  13.991  67.540  1.00  0.00    -0.252 C  
HETATM    4  C   UNL     1      -9.037  14.214  67.972  1.00  0.00    -0.191 C  
HETATM    5  C   UNL     1      -8.534  12.809  68.248  1.00  0.00    -0.161 C  
HETATM    6  C   UNL     1      -9.388  11.887  67.364  1.00  0.00    -0.176 C  
ENDROOT
BRANCH   6   7
HETATM    7  C   UNL     1      -8.562  11.137  66.306  1.00  0.00    -0.180 C  
BRANCH   7   8
HETATM    8  C   UNL     1      -8.740   9.614  66.318  1.00  0.00    -0.142 C  
BRANCH   8   9
HETATM    9  O   UNL     1      -8.411   9.086  67.600  1.00  0.00    -0.115 OA 
HETATM   10  C   UNL     1      -9.386   8.202  68.220  1.00  0.00    -0.134 C  
HETATM   11  C   UNL     1      -9.538   6.910  67.377  1.00  0.00    -0.163 A  
HETATM   12  C   UNL     1      -8.816   7.817  69.617  1.00  0.00    -0.139 A  
HETATM   13  C   UNL     1     -10.710   8.988  68.404  1.00  0.00    -0.145 C  
HETATM   14  C   UNL     1     -10.784   6.447  66.913  1.00  0.00    -0.408 A  
HETATM   15  C   UNL     1      -7.426   7.823  69.853  1.00  0.00    -0.081 A  
HETATM   16  C   UNL     1      -6.887   7.341  71.050  1.00  0.00    -0.055 A  
HETATM   17  C   UNL     1     -10.892   5.243  66.208  1.00  0.00    -0.181 A  
HETATM   18  C   UNL     1      -9.758   4.478  65.956  1.00  0.00    -0.210 A  
HETATM   19  C   UNL     1      -7.726   6.867  72.052  1.00  0.00    -0.094 A  
HETATM   20 CL   UNL     1      -9.902   2.981  65.124  1.00  0.00     0.021 Cl 
HETATM   21  C   UNL     1      -8.511   4.918  66.384  1.00  0.00    -0.111 A  
HETATM   22  C   UNL     1      -9.103   6.882  71.861  1.00  0.00    -0.143 A  
HETATM   23  C   UNL     1      -9.641   7.342  70.655  1.00  0.00    -0.171 A  
HETATM   24  C   UNL     1      -8.403   6.128  67.077  1.00  0.00    -0.105 A  
ENDBRANCH   8   9
ENDBRANCH   7   8
ENDBRANCH   6   7
TORSDOF 3
ENDMDL
MODEL      197
REMARK 921   NORMALIZED FREE ENERGY PREDICTED BY IDOCK:   -3.14 KCAL/MOL
REMARK 922        TOTAL FREE ENERGY PREDICTED BY IDOCK:   -4.39 KCAL/MOL
REMARK 923 INTER-LIGAND FREE ENERGY PREDICTED BY IDOCK:   -3.91 KCAL/MOL
REMARK 924 INTRA-LIGAND FREE ENERGY PREDICTED BY IDOCK:   -0.48 KCAL/MOL
REMARK 927      BINDING AFFINITY PREDICTED BY RF-SCORE:    0.00 PKD
ROOT
HETATM    1  C   UNL     1      -8.809   4.508  65.202  1.00  0.00    -0.143 C  
HETATM    2  N   UNL     1      -7.516   5.060  64.810  1.00  0.00    -0.074 NA 
HETATM    3  C   UNL     1      -6.927   4.291  63.711  1.00  0.00    -0.045 C  
HETATM    4  C   UNL     1      -5.862   5.230  63.195  1.00  0.00    -0.014 C  
HETATM    5  C   UNL     1      -6.537   6.588  63.256  1.00  0.00    -0.037 C  
HETATM    6  C   UNL     1      -7.595   6.470  64.364  1.00  0.00    -0.099 C  
ENDROOT
BRANCH   6   7
HETATM    7  C   UNL     1      -7.332   7.414  65.548  1.00  0.00    -0.074 C  
BRANCH   7   8
HETATM    8  C   UNL     1      -8.528   8.286  65.949  1.00  0.00    -0.140 C  
BRANCH   8   9
HETATM    9  O   UNL     1      -8.097   9.611  66.251  1.00  0.00    -0.110 OA 
HETATM   10  C   UNL     1      -9.101  10.529  66.768  1.00  0.00    -0.151 C  
HETATM   11  C   UNL     1      -9.604  10.038  68.149  1.00  0.00    -0.152 A  
HETATM   12  C   UNL     1      -8.394  11.903  66.958  1.00  0.00    -0.178 A  
HETATM   13  C   UNL     1     -10.224  10.671  65.707  1.00  0.00    -0.317 C  
HETATM   14  C   UNL     1     -10.968   9.843  68.436  1.00  0.00    -0.235 A  
HETATM   15  C   UNL     1      -7.003  11.972  67.185  1.00  0.00    -0.134 A  
HETATM   16  C   UNL     1      -6.374  13.179  67.503  1.00  0.00    -0.142 A  
HETATM   17  C   UNL     1     -11.391   9.459  69.714  1.00  0.00    -0.071 A  
HETATM   18  C   UNL     1     -10.460   9.268  70.729  1.00  0.00    -0.276 A  
HETATM   19  C   UNL     1      -7.115  14.354  67.574  1.00  0.00    -0.197 A  
HETATM   20 CL   UNL     1     -10.988   8.836  72.307  1.00  0.00    -0.401 Cl 
HETATM   21  C   UNL     1      -9.104   9.435  70.472  1.00  0.00    -0.308 A  
HETATM   22  C   UNL     1      -8.482  14.322  67.320  1.00  0.00    -0.226 A  
HETATM   23  C   UNL     1      -9.115  13.111  67.025  1.00  0.00    -0.231 A  
HETATM   24  C   UNL     1      -8.681   9.805  69.191  1.00  0.00    -0.155 A  
ENDBRANCH   8   9
ENDBRANCH   7   8
ENDBRANCH   6   7
TORSDOF 3
ENDMDL
MODEL      198
REMARK 921   NORMALIZED FREE ENERGY PREDICTED BY IDOCK:   -3.12 KCAL/MOL
REMARK 922        TOTAL FREE ENERGY PREDICTED BY IDOCK:   -4.36 KCAL/MOL
REMARK 923 INTER-LIGAND FREE ENERGY PREDICTED BY IDOCK:   -5.92 KCAL/MOL
REMARK 924 INTRA-LIGAND FREE ENERGY PREDICTED BY IDOCK:    1.56 KCAL/MOL
REMARK 927      BINDING AFFINITY PREDICTED BY RF-SCORE:    0.00 PKD
ROOT
HETATM    1  C   UNL     1     -10.002   8.443  72.463  1.00  0.00    -0.285 C  
HETATM    2  N   UNL     1     -11.305   8.618  71.828  1.00  0.00    -0.299 NA 
HETATM    3  C   UNL     1     -12.391   8.315  72.764  1.00  0.00    -0.067 C  
HETATM    4  C   UNL     1     -13.586   8.941  72.084  1.00  0.00    -0.502 C  
HETATM    5  C   UNL     1     -13.031  10.243  71.537  1.00  0.00    -0.556 C  
HETATM    6  C   UNL     1     -11.529   9.994  71.328  1.00  0.00    -0.314 C  
ENDROOT
BRANCH   6   7
HETATM    7  C   UNL     1     -11.103  10.096  69.855  1.00  0.00    -0.346 C  
BRANCH   7   8
HETATM    8  C   UNL     1      -9.765  10.808  69.625  1.00  0.00     0.126 C  
BRANCH   8   9
HETATM    9  O   UNL     1      -9.873  11.729  68.541  1.00  0.00    -0.203 OA 
HETATM   10  C   UNL     1     -11.182  12.315  68.300  1.00  0.00    -0.267 C  
HETATM   11  C   UNL     1     -11.595  13.198  69.505  1.00  0.00    -0.347 A  
HETATM   12  C   UNL     1     -11.040  13.225  67.045  1.00  0.00    -0.304 A  
HETATM   13  C   UNL     1     -12.181  11.168  67.994  1.00  0.00     0.437 C  
HETATM   14  C   UNL     1     -12.815  13.032  70.186  1.00  0.00     0.268 A  
HETATM   15  C   UNL     1      -9.796  13.794  66.706  1.00  0.00    -0.275 A  
HETATM   16  C   UNL     1      -9.678  14.729  65.672  1.00  0.00    -0.313 A  
HETATM   17  C   UNL     1     -13.183  13.888  71.231  1.00  0.00    -0.352 A  
HETATM   18  C   UNL     1     -12.341  14.928  71.610  1.00  0.00    -0.340 A  
HETATM   19  C   UNL     1     -10.796  15.096  64.933  1.00  0.00    -0.437 A  
HETATM   20 CL   UNL     1     -12.816  16.001  72.866  1.00  0.00    -0.543 Cl 
HETATM   21  C   UNL     1     -11.120  15.106  70.969  1.00  0.00    -0.283 A  
HETATM   22  C   UNL     1     -12.031  14.523  65.221  1.00  0.00    -0.353 A  
HETATM   23  C   UNL     1     -12.153  13.607  66.270  1.00  0.00    -0.477 A  
HETATM   24  C   UNL     1     -10.748  14.241  69.935  1.00  0.00     0.116 A  
ENDBRANCH   8   9
ENDBRANCH   7   8
ENDBRANCH   6   7
TORSDOF 3
ENDMDL
MODEL      199
REMARK 921   NORMALIZED FREE ENERGY PREDICTED BY IDOCK:   -3.10 KCAL/MOL
REMARK 922        TOTAL FREE ENERGY PREDICTED BY IDOCK:   -4.34 KCAL/MOL
REMARK 923 INTER-LIGAND FREE ENERGY PREDICTED BY IDOCK:   -3.58 KCAL/MOL
REMARK 924 INTRA-LIGAND FREE ENERGY PREDICTED BY IDOCK:   -0.76 KCAL/MOL
REMARK 927      BINDING AFFINITY PREDICTED BY RF-SCORE:    0.00 PKD
ROOT
HETATM    1  C   UNL     1     -12.027   6.082  72.841  1.00  0.00     0.198 C  
HETATM    2  N   UNL     1     -12.344   7.276  72.065  1.00  0.00    -0.289 NA 
HETATM    3  C   UNL     1     -12.641   8.411  72.943  1.00  0.00     0.185 C  
HETATM    4  C   UNL     1     -12.522   9.587  72.002  1.00  0.00    -0.427 C  
HETATM    5  C   UNL     1     -11.317   9.230  71.151  1.00  0.00    -0.412 C  
HETATM    6  C   UNL     1     -11.244   7.695  71.165  1.00  0.00    -0.261 C  
ENDROOT
BRANCH   6   7
HETATM    7  C   UNL     1     -11.435   7.073  69.773  1.00  0.00    -0.177 C  
BRANCH   7   8
HETATM    8  C   UNL     1     -10.132   6.700  69.056  1.00  0.00    -0.162 C  
BRANCH   8   9
HETATM    9  O   UNL     1      -9.080   7.578  69.450  1.00  0.00    -0.143 OA 
HETATM   10  C   UNL     1      -8.340   8.240  68.386  1.00  0.00    -0.132 C  
HETATM   11  C   UNL     1      -9.276   9.199  67.609  1.00  0.00    -0.143 A  
HETATM   12  C   UNL     1      -7.227   9.084  69.074  1.00  0.00    -0.072 A  
HETATM   13  C   UNL     1      -7.684   7.151  67.498  1.00  0.00    -0.111 C  
HETATM   14  C   UNL     1      -9.430   9.146  66.211  1.00  0.00    -0.299 A  
HETATM   15  C   UNL     1      -7.392   9.554  70.394  1.00  0.00    -0.146 A  
HETATM   16  C   UNL     1      -6.474  10.432  70.976  1.00  0.00     0.259 A  
HETATM   17  C   UNL     1     -10.237  10.068  65.535  1.00  0.00    -0.248 A  
HETATM   18  C   UNL     1     -10.900  11.064  66.243  1.00  0.00    -0.170 A  
HETATM   19  C   UNL     1      -5.352  10.842  70.265  1.00  0.00    -0.067 A  
HETATM   20 CL   UNL     1     -11.858  12.220  65.404  1.00  0.00    -0.439 Cl 
HETATM   21  C   UNL     1     -10.784  11.132  67.627  1.00  0.00    -0.273 A  
HETATM   22  C   UNL     1      -5.144  10.366  68.974  1.00  0.00    -0.038 A  
HETATM   23  C   UNL     1      -6.075   9.506  68.383  1.00  0.00    -0.044 A  
HETATM   24  C   UNL     1      -9.989  10.201  68.302  1.00  0.00    -0.168 A  
ENDBRANCH   8   9
ENDBRANCH   7   8
ENDBRANCH   6   7
TORSDOF 3
ENDMDL
MODEL      200
REMARK 921   NORMALIZED FREE ENERGY PREDICTED BY IDOCK:   -3.10 KCAL/MOL
REMARK 922        TOTAL FREE ENERGY PREDICTED BY IDOCK:   -4.33 KCAL/MOL
REMARK 923 INTER-LIGAND FREE ENERGY PREDICTED BY IDOCK:   -3.87 KCAL/MOL
REMARK 924 INTRA-LIGAND FREE ENERGY PREDICTED BY IDOCK:   -0.47 KCAL/MOL
REMARK 927      BINDING AFFINITY PREDICTED BY RF-SCORE:    0.00 PKD
ROOT
HETATM    1  C   UNL     1      -5.937   5.467  65.018  1.00  0.00    -0.022 C  
HETATM    2  N   UNL     1      -7.366   5.748  64.919  1.00  0.00    -0.066 NA 
HETATM    3  C   UNL     1      -8.047   4.727  64.118  1.00  0.00    -0.111 C  
HETATM    4  C   UNL     1      -9.497   4.948  64.481  1.00  0.00     0.116 C  
HETATM    5  C   UNL     1      -9.444   5.220  65.973  1.00  0.00    -0.169 C  
HETATM    6  C   UNL     1      -8.042   5.794  66.236  1.00  0.00    -0.107 C  
ENDROOT
BRANCH   6   7
HETATM    7  C   UNL     1      -8.074   7.238  66.762  1.00  0.00    -0.119 C  
BRANCH   7   8
HETATM    8  C   UNL     1      -9.029   7.469  67.939  1.00  0.00    -0.131 C  
BRANCH   8   9
HETATM    9  O   UNL     1      -8.360   7.231  69.175  1.00  0.00    -0.129 OA 
HETATM   10  C   UNL     1      -8.394   8.301  70.160  1.00  0.00    -0.124 C  
HETATM   11  C   UNL     1      -9.851   8.538  70.631  1.00  0.00    -0.218 A  
HETATM   12  C   UNL     1      -7.553   7.815  71.377  1.00  0.00    -0.081 A  
HETATM   13  C   UNL     1      -7.725   9.556  69.541  1.00  0.00    -0.100 C  
HETATM   14  C   UNL     1     -10.467   9.804  70.593  1.00  0.00    -0.358 A  
HETATM   15  C   UNL     1      -7.403   6.439  71.645  1.00  0.00    -0.088 A  
HETATM   16  C   UNL     1      -6.778   5.985  72.810  1.00  0.00    -0.073 A  
HETATM   17  C   UNL     1     -11.763   9.994  71.085  1.00  0.00    -0.472 A  
HETATM   18  C   UNL     1     -12.467   8.924  71.628  1.00  0.00    -0.344 A  
HETATM   19  C   UNL     1      -6.262   6.897  73.725  1.00  0.00    -0.063 A  
HETATM   20 CL   UNL     1     -14.044   9.172  72.267  1.00  0.00    -0.470 Cl 
HETATM   21  C   UNL     1     -11.894   7.658  71.663  1.00  0.00    -0.323 A  
HETATM   22  C   UNL     1      -6.364   8.260  73.470  1.00  0.00    -0.126 A  
HETATM   23  C   UNL     1      -7.010   8.714  72.316  1.00  0.00    -0.052 A  
HETATM   24  C   UNL     1     -10.603   7.467  71.159  1.00  0.00    -0.234 A  
ENDBRANCH   8   9
ENDBRANCH   7   8
ENDBRANCH   6   7
TORSDOF 3
ENDMDL
MODEL      201
REMARK 921   NORMALIZED FREE ENERGY PREDICTED BY IDOCK:   -3.08 KCAL/MOL
REMARK 922        TOTAL FREE ENERGY PREDICTED BY IDOCK:   -4.31 KCAL/MOL
REMARK 923 INTER-LIGAND FREE ENERGY PREDICTED BY IDOCK:   -3.60 KCAL/MOL
REMARK 924 INTRA-LIGAND FREE ENERGY PREDICTED BY IDOCK:   -0.71 KCAL/MOL
REMARK 927      BINDING AFFINITY PREDICTED BY RF-SCORE:    0.00 PKD
ROOT
HETATM    1  C   UNL     1     -11.317   9.340  71.546  1.00  0.00    -0.385 C  
HETATM    2  N   UNL     1     -10.829   7.998  71.845  1.00  0.00    -0.242 NA 
HETATM    3  C   UNL     1     -10.987   7.685  73.267  1.00  0.00    -0.274 C  
HETATM    4  C   UNL     1     -10.835   6.182  73.286  1.00  0.00    -0.268 C  
HETATM    5  C   UNL     1     -11.588   5.741  72.045  1.00  0.00    -0.226 C  
HETATM    6  C   UNL     1     -11.532   6.939  71.083  1.00  0.00    -0.304 C  
ENDROOT
BRANCH   6   7
HETATM    7  C   UNL     1     -10.771   6.630  69.784  1.00  0.00    -0.304 C  
BRANCH   7   8
HETATM    8  C   UNL     1      -9.244   6.640  69.919  1.00  0.00    -0.146 C  
BRANCH   8   9
HETATM    9  O   UNL     1      -8.691   7.751  69.218  1.00  0.00    -0.137 OA 
HETATM   10  C   UNL     1      -7.405   7.548  68.568  1.00  0.00    -0.099 C  
HETATM   11  C   UNL     1      -7.546   6.499  67.436  1.00  0.00    -0.100 A  
HETATM   12  C   UNL     1      -7.005   8.912  67.933  1.00  0.00    -0.078 A  
HETATM   13  C   UNL     1      -6.366   7.161  69.653  1.00  0.00    -0.035 C  
HETATM   14  C   UNL     1      -6.730   5.356  67.352  1.00  0.00    -0.059 A  
HETATM   15  C   UNL     1      -7.990   9.849  67.559  1.00  0.00    -0.106 A  
HETATM   16  C   UNL     1      -7.662  11.012  66.856  1.00  0.00    -0.140 A  
HETATM   17  C   UNL     1      -6.843   4.462  66.281  1.00  0.00    -0.058 A  
HETATM   18  C   UNL     1      -7.771   4.697  65.272  1.00  0.00    -0.086 A  
HETATM   19  C   UNL     1      -6.337  11.282  66.533  1.00  0.00    -0.119 A  
HETATM   20 CL   UNL     1      -7.878   3.618  63.938  1.00  0.00    -0.083 Cl 
HETATM   21  C   UNL     1      -8.605   5.807  65.336  1.00  0.00    -0.143 A  
HETATM   22  C   UNL     1      -5.339  10.393  66.921  1.00  0.00    -0.042 A  
HETATM   23  C   UNL     1      -5.670   9.218  67.604  1.00  0.00    -0.041 A  
HETATM   24  C   UNL     1      -8.500   6.692  66.414  1.00  0.00    -0.125 A  
ENDBRANCH   8   9
ENDBRANCH   7   8
ENDBRANCH   6   7
TORSDOF 3
ENDMDL
MODEL      202
REMARK 921   NORMALIZED FREE ENERGY PREDICTED BY IDOCK:   -3.08 KCAL/MOL
REMARK 922        TOTAL FREE ENERGY PREDICTED BY IDOCK:   -4.31 KCAL/MOL
REMARK 923 INTER-LIGAND FREE ENERGY PREDICTED BY IDOCK:   -3.88 KCAL/MOL
REMARK 924 INTRA-LIGAND FREE ENERGY PREDICTED BY IDOCK:   -0.43 KCAL/MOL
REMARK 927      BINDING AFFINITY PREDICTED BY RF-SCORE:    0.00 PKD
ROOT
HETATM    1  C   UNL     1     -13.042  11.766  71.752  1.00  0.00    -0.375 C  
HETATM    2  N   UNL     1     -13.123  12.996  70.971  1.00  0.00    -0.102 NA 
HETATM    3  C   UNL     1     -13.667  14.094  71.774  1.00  0.00    -0.408 C  
HETATM    4  C   UNL     1     -13.284  15.309  70.962  1.00  0.00    -0.546 C  
HETATM    5  C   UNL     1     -11.882  14.979  70.485  1.00  0.00    -0.347 C  
HETATM    6  C   UNL     1     -11.810  13.444  70.451  1.00  0.00    -0.208 C  
ENDROOT
BRANCH   6   7
HETATM    7  C   UNL     1     -11.585  12.884  69.037  1.00  0.00    -0.372 C  
BRANCH   7   8
HETATM    8  C   UNL     1     -10.288  12.083  68.866  1.00  0.00    -0.092 C  
BRANCH   8   9
HETATM    9  O   UNL     1     -10.187  11.082  69.876  1.00  0.00     0.084 OA 
HETATM   10  C   UNL     1     -10.502   9.716  69.485  1.00  0.00    -0.224 C  
HETATM   11  C   UNL     1      -9.472   9.216  68.440  1.00  0.00    -0.150 A  
HETATM   12  C   UNL     1     -10.371   8.843  70.767  1.00  0.00    -0.283 A  
HETATM   13  C   UNL     1     -11.969   9.678  68.985  1.00  0.00     0.832 C  
HETATM   14  C   UNL     1      -9.851   8.681  67.195  1.00  0.00    -0.269 A  
HETATM   15  C   UNL     1      -9.519   9.234  71.821  1.00  0.00     0.124 A  
HETATM   16  C   UNL     1      -9.275   8.395  72.912  1.00  0.00    -0.288 A  
HETATM   17  C   UNL     1      -8.897   8.181  66.301  1.00  0.00    -0.193 A  
HETATM   18  C   UNL     1      -7.548   8.202  66.637  1.00  0.00    -0.093 A  
HETATM   19  C   UNL     1      -9.898   7.155  72.992  1.00  0.00    -0.233 A  
HETATM   20 CL   UNL     1      -6.384   7.550  65.553  1.00  0.00    -0.041 Cl 
HETATM   21  C   UNL     1      -7.140   8.742  67.852  1.00  0.00    -0.079 A  
HETATM   22  C   UNL     1     -10.772   6.757  71.985  1.00  0.00    -0.245 A  
HETATM   23  C   UNL     1     -10.998   7.586  70.882  1.00  0.00    -0.267 A  
HETATM   24  C   UNL     1      -8.093   9.253  68.738  1.00  0.00    -0.104 A  
ENDBRANCH   8   9
ENDBRANCH   7   8
ENDBRANCH   6   7
TORSDOF 3
ENDMDL
MODEL      203
REMARK 921   NORMALIZED FREE ENERGY PREDICTED BY IDOCK:   -3.05 KCAL/MOL
REMARK 922        TOTAL FREE ENERGY PREDICTED BY IDOCK:   -4.28 KCAL/MOL
REMARK 923 INTER-LIGAND FREE ENERGY PREDICTED BY IDOCK:   -4.25 KCAL/MOL
REMARK 924 INTRA-LIGAND FREE ENERGY PREDICTED BY IDOCK:   -0.03 KCAL/MOL
REMARK 927      BINDING AFFINITY PREDICTED BY RF-SCORE:    0.00 PKD
ROOT
HETATM    1  C   UNL     1     -12.116  12.899  70.319  1.00  0.00    -0.302 C  
HETATM    2  N   UNL     1     -11.692  12.461  68.993  1.00  0.00    -0.309 NA 
HETATM    3  C   UNL     1     -11.943  13.500  67.991  1.00  0.00    -0.337 C  
HETATM    4  C   UNL     1     -11.084  13.045  66.834  1.00  0.00    -0.306 C  
HETATM    5  C   UNL     1      -9.819  12.554  67.513  1.00  0.00    -0.198 C  
HETATM    6  C   UNL     1     -10.250  12.126  68.925  1.00  0.00    -0.036 C  
ENDROOT
BRANCH   6   7
HETATM    7  C   UNL     1     -10.044  10.626  69.186  1.00  0.00    -0.234 C  
BRANCH   7   8
HETATM    8  C   UNL     1      -8.673  10.085  68.763  1.00  0.00    -0.136 C  
BRANCH   8   9
HETATM    9  O   UNL     1      -8.754   8.690  68.483  1.00  0.00    -0.137 OA 
HETATM   10  C   UNL     1      -9.419   8.302  67.249  1.00  0.00    -0.151 C  
HETATM   11  C   UNL     1      -8.614   8.821  66.030  1.00  0.00    -0.166 A  
HETATM   12  C   UNL     1      -9.422   6.745  67.213  1.00  0.00    -0.156 A  
HETATM   13  C   UNL     1     -10.881   8.818  67.299  1.00  0.00    -0.077 C  
HETATM   14  C   UNL     1      -9.194   9.603  65.013  1.00  0.00    -0.310 A  
HETATM   15  C   UNL     1      -8.433   6.008  67.896  1.00  0.00    -0.115 A  
HETATM   16  C   UNL     1      -8.331   4.620  67.757  1.00  0.00    -0.103 A  
HETATM   17  C   UNL     1      -8.453  10.002  63.895  1.00  0.00    -0.179 A  
HETATM   18  C   UNL     1      -7.121   9.624  63.771  1.00  0.00    -0.115 A  
HETATM   19  C   UNL     1      -9.233   3.931  66.954  1.00  0.00    -0.190 A  
HETATM   20 CL   UNL     1      -6.226  10.083  62.376  1.00  0.00    -0.107 Cl 
HETATM   21  C   UNL     1      -6.514   8.868  64.767  1.00  0.00    -0.066 A  
HETATM   22  C   UNL     1     -10.241   4.628  66.297  1.00  0.00    -0.306 A  
HETATM   23  C   UNL     1     -10.329   6.019  66.417  1.00  0.00    -0.134 A  
HETATM   24  C   UNL     1      -7.252   8.481  65.890  1.00  0.00    -0.076 A  
ENDBRANCH   8   9
ENDBRANCH   7   8
ENDBRANCH   6   7
TORSDOF 3
ENDMDL
MODEL      204
REMARK 921   NORMALIZED FREE ENERGY PREDICTED BY IDOCK:   -3.05 KCAL/MOL
REMARK 922        TOTAL FREE ENERGY PREDICTED BY IDOCK:   -4.27 KCAL/MOL
REMARK 923 INTER-LIGAND FREE ENERGY PREDICTED BY IDOCK:   -3.88 KCAL/MOL
REMARK 924 INTRA-LIGAND FREE ENERGY PREDICTED BY IDOCK:   -0.40 KCAL/MOL
REMARK 927      BINDING AFFINITY PREDICTED BY RF-SCORE:    0.00 PKD
ROOT
HETATM    1  C   UNL     1      -8.708   3.611  67.312  1.00  0.00    -0.115 C  
HETATM    2  N   UNL     1      -7.868   4.451  68.160  1.00  0.00    -0.079 NA 
HETATM    3  C   UNL     1      -6.800   3.665  68.785  1.00  0.00    -0.046 C  
HETATM    4  C   UNL     1      -5.839   4.737  69.246  1.00  0.00    -0.017 C  
HETATM    5  C   UNL     1      -5.851   5.730  68.098  1.00  0.00    -0.013 C  
HETATM    6  C   UNL     1      -7.220   5.560  67.421  1.00  0.00    -0.075 C  
ENDROOT
BRANCH   6   7
HETATM    7  C   UNL     1      -8.089   6.825  67.500  1.00  0.00    -0.115 C  
BRANCH   7   8
HETATM    8  C   UNL     1      -9.108   6.830  68.646  1.00  0.00    -0.127 C  
BRANCH   8   9
HETATM    9  O   UNL     1      -8.440   6.777  69.904  1.00  0.00    -0.136 OA 
HETATM   10  C   UNL     1      -8.508   7.967  70.738  1.00  0.00    -0.124 C  
HETATM   11  C   UNL     1      -9.973   8.226  71.170  1.00  0.00    -0.230 A  
HETATM   12  C   UNL     1      -7.662   7.670  72.011  1.00  0.00    -0.096 A  
HETATM   13  C   UNL     1      -7.867   9.146  69.959  1.00  0.00    -0.099 C  
HETATM   14  C   UNL     1     -10.621   9.459  70.962  1.00  0.00    -0.400 A  
HETATM   15  C   UNL     1      -7.478   6.345  72.460  1.00  0.00    -0.095 A  
HETATM   16  C   UNL     1      -6.848   6.067  73.677  1.00  0.00    -0.080 A  
HETATM   17  C   UNL     1     -11.925   9.678  71.421  1.00  0.00    -0.480 A  
HETATM   18  C   UNL     1     -12.604   8.672  72.100  1.00  0.00    -0.391 A  
HETATM   19  C   UNL     1      -6.361   7.106  74.463  1.00  0.00    -0.083 A  
HETATM   20 CL   UNL     1     -14.190   8.961  72.697  1.00  0.00    -0.415 Cl 
HETATM   21  C   UNL     1     -11.998   7.437  72.304  1.00  0.00    -0.277 A  
HETATM   22  C   UNL     1      -6.496   8.420  74.029  1.00  0.00    -0.152 A  
HETATM   23  C   UNL     1      -7.147   8.699  72.823  1.00  0.00     0.012 A  
HETATM   24  C   UNL     1     -10.701   7.215  71.833  1.00  0.00    -0.243 A  
ENDBRANCH   8   9
ENDBRANCH   7   8
ENDBRANCH   6   7
TORSDOF 3
ENDMDL
MODEL      205
REMARK 921   NORMALIZED FREE ENERGY PREDICTED BY IDOCK:   -3.04 KCAL/MOL
REMARK 922        TOTAL FREE ENERGY PREDICTED BY IDOCK:   -4.27 KCAL/MOL
REMARK 923 INTER-LIGAND FREE ENERGY PREDICTED BY IDOCK:   -3.91 KCAL/MOL
REMARK 924 INTRA-LIGAND FREE ENERGY PREDICTED BY IDOCK:   -0.36 KCAL/MOL
REMARK 927      BINDING AFFINITY PREDICTED BY RF-SCORE:    0.00 PKD
ROOT
HETATM    1  C   UNL     1     -11.321   7.930  72.955  1.00  0.00    -0.337 C  
HETATM    2  N   UNL     1     -10.439   7.999  71.794  1.00  0.00    -0.219 NA 
HETATM    3  C   UNL     1     -11.027   8.823  70.735  1.00  0.00    -0.247 C  
HETATM    4  C   UNL     1      -9.835   9.107  69.850  1.00  0.00    -0.206 C  
HETATM    5  C   UNL     1      -8.715   9.353  70.844  1.00  0.00    -0.145 C  
HETATM    6  C   UNL     1      -9.109   8.572  72.108  1.00  0.00    -0.249 C  
ENDROOT
BRANCH   6   7
HETATM    7  C   UNL     1      -8.118   7.448  72.452  1.00  0.00    -0.115 C  
BRANCH   7   8
HETATM    8  C   UNL     1      -7.172   7.059  71.310  1.00  0.00    -0.075 C  
BRANCH   8   9
HETATM    9  O   UNL     1      -7.917   6.647  70.166  1.00  0.00    -0.108 OA 
HETATM   10  C   UNL     1      -7.827   5.245  69.790  1.00  0.00    -0.073 C  
HETATM   11  C   UNL     1      -8.442   4.359  70.903  1.00  0.00    -0.105 A  
HETATM   12  C   UNL     1      -8.675   5.074  68.496  1.00  0.00    -0.103 A  
HETATM   13  C   UNL     1      -6.343   4.917  69.479  1.00  0.00    -0.031 C  
HETATM   14  C   UNL     1      -7.745   3.290  71.498  1.00  0.00    -0.056 A  
HETATM   15  C   UNL     1      -9.749   5.945  68.218  1.00  0.00    -0.147 A  
HETATM   16  C   UNL     1     -10.611   5.721  67.141  1.00  0.00    -0.365 A  
HETATM   17  C   UNL     1      -8.354   2.472  72.456  1.00  0.00    -0.062 A  
HETATM   18  C   UNL     1      -9.672   2.703  72.834  1.00  0.00    -0.112 A  
HETATM   19  C   UNL     1     -10.406   4.636  66.297  1.00  0.00    -0.293 A  
HETATM   20 CL   UNL     1     -10.429   1.670  73.981  1.00  0.00    -0.155 Cl 
HETATM   21  C   UNL     1     -10.382   3.762  72.279  1.00  0.00    -0.155 A  
HETATM   22  C   UNL     1      -9.333   3.780  66.524  1.00  0.00    -0.204 A  
HETATM   23  C   UNL     1      -8.484   3.990  67.616  1.00  0.00    -0.104 A  
HETATM   24  C   UNL     1      -9.767   4.587  71.331  1.00  0.00    -0.248 A  
ENDBRANCH   8   9
ENDBRANCH   7   8
ENDBRANCH   6   7
TORSDOF 3
ENDMDL
MODEL      206
REMARK 921   NORMALIZED FREE ENERGY PREDICTED BY IDOCK:   -3.00 KCAL/MOL
REMARK 922        TOTAL FREE ENERGY PREDICTED BY IDOCK:   -4.22 KCAL/MOL
REMARK 923 INTER-LIGAND FREE ENERGY PREDICTED BY IDOCK:   -3.42 KCAL/MOL
REMARK 924 INTRA-LIGAND FREE ENERGY PREDICTED BY IDOCK:   -0.80 KCAL/MOL
REMARK 927      BINDING AFFINITY PREDICTED BY RF-SCORE:    0.00 PKD
ROOT
HETATM    1  C   UNL     1     -10.993  10.803  67.617  1.00  0.00    -0.306 C  
HETATM    2  N   UNL     1     -10.580   9.924  66.528  1.00  0.00    -0.137 NA 
HETATM    3  C   UNL     1      -9.546  10.557  65.704  1.00  0.00    -0.226 C  
HETATM    4  C   UNL     1      -8.978   9.382  64.941  1.00  0.00    -0.256 C  
HETATM    5  C   UNL     1      -8.933   8.280  65.983  1.00  0.00    -0.224 C  
HETATM    6  C   UNL     1     -10.033   8.630  66.999  1.00  0.00    -0.249 C  
ENDROOT
BRANCH   6   7
HETATM    7  C   UNL     1     -11.150   7.576  67.061  1.00  0.00     0.111 C  
BRANCH   7   8
HETATM    8  C   UNL     1     -11.347   6.934  68.439  1.00  0.00     0.143 C  
BRANCH   8   9
HETATM    9  O   UNL     1     -10.371   7.421  69.358  1.00  0.00    -0.200 OA 
HETATM   10  C   UNL     1     -10.044   6.566  70.488  1.00  0.00    -0.185 C  
HETATM   11  C   UNL     1      -9.380   5.259  69.987  1.00  0.00    -0.201 A  
HETATM   12  C   UNL     1      -9.011   7.345  71.354  1.00  0.00    -0.141 A  
HETATM   13  C   UNL     1     -11.337   6.334  71.314  1.00  0.00    -0.356 C  
HETATM   14  C   UNL     1      -9.854   3.981  70.341  1.00  0.00    -0.209 A  
HETATM   15  C   UNL     1      -8.171   8.316  70.772  1.00  0.00    -0.115 A  
HETATM   16  C   UNL     1      -7.140   8.920  71.498  1.00  0.00    -0.078 A  
HETATM   17  C   UNL     1      -9.192   2.821  69.921  1.00  0.00    -0.209 A  
HETATM   18  C   UNL     1      -8.043   2.917  69.144  1.00  0.00    -0.054 A  
HETATM   19  C   UNL     1      -6.941   8.589  72.834  1.00  0.00    -0.058 A  
HETATM   20 CL   UNL     1      -7.211   1.491  68.664  1.00  0.00    -0.039 Cl 
HETATM   21  C   UNL     1      -7.561   4.164  68.762  1.00  0.00    -0.055 A  
HETATM   22  C   UNL     1      -7.778   7.661  73.445  1.00  0.00    -0.142 A  
HETATM   23  C   UNL     1      -8.794   7.040  72.712  1.00  0.00    -0.141 A  
HETATM   24  C   UNL     1      -8.231   5.321  69.171  1.00  0.00    -0.092 A  
ENDBRANCH   8   9
ENDBRANCH   7   8
ENDBRANCH   6   7
TORSDOF 3
ENDMDL
MODEL      207
REMARK 921   NORMALIZED FREE ENERGY PREDICTED BY IDOCK:   -2.96 KCAL/MOL
REMARK 922        TOTAL FREE ENERGY PREDICTED BY IDOCK:   -4.18 KCAL/MOL
REMARK 923 INTER-LIGAND FREE ENERGY PREDICTED BY IDOCK:   -3.90 KCAL/MOL
REMARK 924 INTRA-LIGAND FREE ENERGY PREDICTED BY IDOCK:   -0.28 KCAL/MOL
REMARK 927      BINDING AFFINITY PREDICTED BY RF-SCORE:    0.00 PKD
ROOT
HETATM    1  C   UNL     1     -10.120   2.741  63.577  1.00  0.00    -0.158 C  
HETATM    2  N   UNL     1      -8.985   3.264  64.330  1.00  0.00    -0.113 NA 
HETATM    3  C   UNL     1      -8.005   3.890  63.438  1.00  0.00    -0.083 C  
HETATM    4  C   UNL     1      -7.170   4.704  64.397  1.00  0.00    -0.055 C  
HETATM    5  C   UNL     1      -8.198   5.273  65.357  1.00  0.00    -0.127 C  
HETATM    6  C   UNL     1      -9.372   4.281  65.336  1.00  0.00    -0.164 C  
ENDROOT
BRANCH   6   7
HETATM    7  C   UNL     1      -9.615   3.610  66.697  1.00  0.00    -0.168 C  
BRANCH   7   8
HETATM    8  C   UNL     1      -9.903   4.583  67.847  1.00  0.00    -0.102 C  
BRANCH   8   9
HETATM    9  O   UNL     1      -9.998   5.918  67.355  1.00  0.00    -0.127 OA 
HETATM   10  C   UNL     1     -10.173   6.973  68.341  1.00  0.00    -0.179 C  
HETATM   11  C   UNL     1      -8.921   7.060  69.250  1.00  0.00    -0.138 A  
HETATM   12  C   UNL     1     -10.303   8.307  67.549  1.00  0.00    -0.333 A  
HETATM   13  C   UNL     1     -11.490   6.704  69.115  1.00  0.00    -0.199 C  
HETATM   14  C   UNL     1      -8.995   7.003  70.655  1.00  0.00    -0.154 A  
HETATM   15  C   UNL     1      -9.721   8.446  66.272  1.00  0.00    -0.278 A  
HETATM   16  C   UNL     1      -9.700   9.677  65.609  1.00  0.00    -0.363 A  
HETATM   17  C   UNL     1      -7.850   7.147  71.447  1.00  0.00    -0.097 A  
HETATM   18  C   UNL     1      -6.611   7.356  70.850  1.00  0.00    -0.043 A  
HETATM   19  C   UNL     1     -10.285  10.794  66.194  1.00  0.00    -0.308 A  
HETATM   20 CL   UNL     1      -5.215   7.572  71.829  1.00  0.00    -0.035 Cl 
HETATM   21  C   UNL     1      -6.502   7.398  69.465  1.00  0.00    -0.036 A  
HETATM   22  C   UNL     1     -10.899  10.679  67.437  1.00  0.00    -0.353 A  
HETATM   23  C   UNL     1     -10.900   9.453  68.111  1.00  0.00    -0.174 A  
HETATM   24  C   UNL     1      -7.645   7.240  68.674  1.00  0.00    -0.114 A  
ENDBRANCH   8   9
ENDBRANCH   7   8
ENDBRANCH   6   7
TORSDOF 3
ENDMDL
MODEL      208
REMARK 921   NORMALIZED FREE ENERGY PREDICTED BY IDOCK:   -2.96 KCAL/MOL
REMARK 922        TOTAL FREE ENERGY PREDICTED BY IDOCK:   -4.17 KCAL/MOL
REMARK 923 INTER-LIGAND FREE ENERGY PREDICTED BY IDOCK:   -3.42 KCAL/MOL
REMARK 924 INTRA-LIGAND FREE ENERGY PREDICTED BY IDOCK:   -0.75 KCAL/MOL
REMARK 927      BINDING AFFINITY PREDICTED BY RF-SCORE:    0.00 PKD
ROOT
HETATM    1  C   UNL     1      -9.069   9.968  64.213  1.00  0.00    -0.255 C  
HETATM    2  N   UNL     1      -8.832   9.877  65.650  1.00  0.00    -0.150 NA 
HETATM    3  C   UNL     1      -7.894  10.910  66.095  1.00  0.00    -0.144 C  
HETATM    4  C   UNL     1      -8.109  10.919  67.590  1.00  0.00    -0.115 C  
HETATM    5  C   UNL     1      -9.612  10.766  67.726  1.00  0.00    -0.176 C  
HETATM    6  C   UNL     1     -10.067  10.031  66.455  1.00  0.00    -0.241 C  
ENDROOT
BRANCH   6   7
HETATM    7  C   UNL     1     -10.683   8.654  66.746  1.00  0.00    -0.086 C  
BRANCH   7   8
HETATM    8  C   UNL     1     -10.403   8.113  68.153  1.00  0.00    -0.201 C  
BRANCH   8   9
HETATM    9  O   UNL     1      -9.992   6.749  68.088  1.00  0.00    -0.141 OA 
HETATM   10  C   UNL     1      -8.650   6.441  68.555  1.00  0.00    -0.122 C  
HETATM   11  C   UNL     1      -8.540   6.731  70.074  1.00  0.00    -0.141 A  
HETATM   12  C   UNL     1      -8.435   4.916  68.326  1.00  0.00    -0.098 A  
HETATM   13  C   UNL     1      -7.637   7.238  67.692  1.00  0.00    -0.110 C  
HETATM   14  C   UNL     1      -7.543   7.562  70.619  1.00  0.00    -0.085 A  
HETATM   15  C   UNL     1      -9.533   4.031  68.298  1.00  0.00    -0.216 A  
HETATM   16  C   UNL     1      -9.353   2.646  68.240  1.00  0.00    -0.258 A  
HETATM   17  C   UNL     1      -7.436   7.752  72.002  1.00  0.00    -0.082 A  
HETATM   18  C   UNL     1      -8.319   7.111  72.864  1.00  0.00    -0.106 A  
HETATM   19  C   UNL     1      -8.071   2.111  68.181  1.00  0.00    -0.067 A  
HETATM   20 CL   UNL     1      -8.157   7.316  74.564  1.00  0.00    -0.189 Cl 
HETATM   21  C   UNL     1      -9.326   6.300  72.355  1.00  0.00    -0.141 A  
HETATM   22  C   UNL     1      -6.970   2.961  68.170  1.00  0.00    -0.049 A  
HETATM   23  C   UNL     1      -7.149   4.346  68.252  1.00  0.00    -0.060 A  
HETATM   24  C   UNL     1      -9.440   6.121  70.973  1.00  0.00    -0.187 A  
ENDBRANCH   8   9
ENDBRANCH   7   8
ENDBRANCH   6   7
TORSDOF 3
ENDMDL
MODEL      209
REMARK 921   NORMALIZED FREE ENERGY PREDICTED BY IDOCK:   -2.95 KCAL/MOL
REMARK 922        TOTAL FREE ENERGY PREDICTED BY IDOCK:   -4.16 KCAL/MOL
REMARK 923 INTER-LIGAND FREE ENERGY PREDICTED BY IDOCK:   -3.90 KCAL/MOL
REMARK 924 INTRA-LIGAND FREE ENERGY PREDICTED BY IDOCK:   -0.26 KCAL/MOL
REMARK 927      BINDING AFFINITY PREDICTED BY RF-SCORE:    0.00 PKD
ROOT
HETATM    1  C   UNL     1      -8.726   5.174  64.755  1.00  0.00    -0.133 C  
HETATM    2  N   UNL     1      -8.680   4.529  66.064  1.00  0.00    -0.114 NA 
HETATM    3  C   UNL     1      -8.745   3.071  65.934  1.00  0.00    -0.131 C  
HETATM    4  C   UNL     1      -8.272   2.605  67.291  1.00  0.00    -0.082 C  
HETATM    5  C   UNL     1      -7.137   3.561  67.610  1.00  0.00    -0.055 C  
HETATM    6  C   UNL     1      -7.450   4.846  66.826  1.00  0.00    -0.087 C  
ENDROOT
BRANCH   6   7
HETATM    7  C   UNL     1      -7.692   6.060  67.737  1.00  0.00    -0.101 C  
BRANCH   7   8
HETATM    8  C   UNL     1      -8.907   5.932  68.663  1.00  0.00    -0.111 C  
BRANCH   8   9
HETATM    9  O   UNL     1      -8.520   5.376  69.917  1.00  0.00    -0.101 OA 
HETATM   10  C   UNL     1      -8.318   6.305  71.018  1.00  0.00    -0.124 C  
HETATM   11  C   UNL     1      -9.659   6.994  71.379  1.00  0.00    -0.162 A  
HETATM   12  C   UNL     1      -7.852   5.459  72.238  1.00  0.00    -0.103 A  
HETATM   13  C   UNL     1      -7.193   7.296  70.620  1.00  0.00    -0.066 C  
HETATM   14  C   UNL     1      -9.803   8.393  71.439  1.00  0.00    -0.259 A  
HETATM   15  C   UNL     1      -8.208   4.099  72.349  1.00  0.00    -0.099 A  
HETATM   16  C   UNL     1      -7.925   3.362  73.503  1.00  0.00    -0.074 A  
HETATM   17  C   UNL     1     -11.012   8.980  71.830  1.00  0.00    -0.443 A  
HETATM   18  C   UNL     1     -12.097   8.181  72.173  1.00  0.00    -0.357 A  
HETATM   19  C   UNL     1      -7.255   3.958  74.565  1.00  0.00    -0.065 A  
HETATM   20 CL   UNL     1     -13.567   8.907  72.691  1.00  0.00    -0.453 Cl 
HETATM   21  C   UNL     1     -11.992   6.796  72.105  1.00  0.00    -0.309 A  
HETATM   22  C   UNL     1      -6.859   5.288  74.470  1.00  0.00    -0.077 A  
HETATM   23  C   UNL     1      -7.162   6.032  73.325  1.00  0.00    -0.085 A  
HETATM   24  C   UNL     1     -10.787   6.211  71.702  1.00  0.00    -0.308 A  
ENDBRANCH   8   9
ENDBRANCH   7   8
ENDBRANCH   6   7
TORSDOF 3
ENDMDL
MODEL      210
REMARK 921   NORMALIZED FREE ENERGY PREDICTED BY IDOCK:   -2.93 KCAL/MOL
REMARK 922        TOTAL FREE ENERGY PREDICTED BY IDOCK:   -4.14 KCAL/MOL
REMARK 923 INTER-LIGAND FREE ENERGY PREDICTED BY IDOCK:   -3.33 KCAL/MOL
REMARK 924 INTRA-LIGAND FREE ENERGY PREDICTED BY IDOCK:   -0.81 KCAL/MOL
REMARK 927      BINDING AFFINITY PREDICTED BY RF-SCORE:    0.00 PKD
ROOT
HETATM    1  C   UNL     1      -7.864  11.957  67.577  1.00  0.00    -0.152 C  
HETATM    2  N   UNL     1      -9.179  12.184  66.986  1.00  0.00    -0.195 NA 
HETATM    3  C   UNL     1      -9.076  12.397  65.540  1.00  0.00     0.349 C  
HETATM    4  C   UNL     1     -10.501  12.191  65.082  1.00  0.00    -0.317 C  
HETATM    5  C   UNL     1     -10.968  11.015  65.919  1.00  0.00    -0.115 C  
HETATM    6  C   UNL     1     -10.115  11.056  67.197  1.00  0.00    -0.193 C  
ENDROOT
BRANCH   6   7
HETATM    7  C   UNL     1     -10.948  11.291  68.467  1.00  0.00    -0.266 C  
BRANCH   7   8
HETATM    8  C   UNL     1     -11.178  10.039  69.321  1.00  0.00    -0.166 C  
BRANCH   8   9
HETATM    9  O   UNL     1      -9.956   9.615  69.921  1.00  0.00    -0.210 OA 
HETATM   10  C   UNL     1      -9.800   8.190  70.166  1.00  0.00    -0.184 C  
HETATM   11  C   UNL     1      -9.773   7.423  68.820  1.00  0.00    -0.149 A  
HETATM   12  C   UNL     1      -8.424   8.004  70.870  1.00  0.00    -0.126 A  
HETATM   13  C   UNL     1     -10.932   7.732  71.123  1.00  0.00    -0.259 C  
HETATM   14  C   UNL     1     -10.632   6.343  68.541  1.00  0.00    -0.302 A  
HETATM   15  C   UNL     1      -7.384   8.936  70.672  1.00  0.00    -0.080 A  
HETATM   16  C   UNL     1      -6.098   8.712  71.174  1.00  0.00    -0.043 A  
HETATM   17  C   UNL     1     -10.537   5.633  67.339  1.00  0.00    -0.312 A  
HETATM   18  C   UNL     1      -9.579   5.986  66.395  1.00  0.00    -0.137 A  
HETATM   19  C   UNL     1      -5.827   7.565  71.911  1.00  0.00    -0.036 A  
HETATM   20 CL   UNL     1      -9.440   5.085  64.937  1.00  0.00    -0.009 Cl 
HETATM   21  C   UNL     1      -8.728   7.060  66.632  1.00  0.00    -0.131 A  
HETATM   22  C   UNL     1      -6.843   6.646  72.153  1.00  0.00    -0.067 A  
HETATM   23  C   UNL     1      -8.122   6.858  71.630  1.00  0.00    -0.105 A  
HETATM   24  C   UNL     1      -8.833   7.776  67.828  1.00  0.00    -0.126 A  
ENDBRANCH   8   9
ENDBRANCH   7   8
ENDBRANCH   6   7
TORSDOF 3
ENDMDL
MODEL      211
REMARK 921   NORMALIZED FREE ENERGY PREDICTED BY IDOCK:   -2.92 KCAL/MOL
REMARK 922        TOTAL FREE ENERGY PREDICTED BY IDOCK:   -4.13 KCAL/MOL
REMARK 923 INTER-LIGAND FREE ENERGY PREDICTED BY IDOCK:   -4.14 KCAL/MOL
REMARK 924 INTRA-LIGAND FREE ENERGY PREDICTED BY IDOCK:    0.01 KCAL/MOL
REMARK 927      BINDING AFFINITY PREDICTED BY RF-SCORE:    0.00 PKD
ROOT
HETATM    1  C   UNL     1      -9.699  11.593  66.922  1.00  0.00    -0.195 C  
HETATM    2  N   UNL     1     -10.220  11.943  68.240  1.00  0.00    -0.199 NA 
HETATM    3  C   UNL     1     -11.215  13.014  68.144  1.00  0.00    -0.272 C  
HETATM    4  C   UNL     1     -11.907  12.932  69.484  1.00  0.00    -0.383 C  
HETATM    5  C   UNL     1     -12.022  11.438  69.724  1.00  0.00    -0.422 C  
HETATM    6  C   UNL     1     -10.867  10.805  68.931  1.00  0.00    -0.227 C  
ENDROOT
BRANCH   6   7
HETATM    7  C   UNL     1      -9.849  10.083  69.828  1.00  0.00    -0.270 C  
BRANCH   7   8
HETATM    8  C   UNL     1     -10.462   9.325  71.011  1.00  0.00    -0.314 C  
BRANCH   8   9
HETATM    9  O   UNL     1      -9.473   8.523  71.653  1.00  0.00    -0.196 OA 
HETATM   10  C   UNL     1      -9.315   7.160  71.171  1.00  0.00    -0.157 C  
HETATM   11  C   UNL     1      -8.808   7.172  69.707  1.00  0.00    -0.142 A  
HETATM   12  C   UNL     1      -8.229   6.493  72.065  1.00  0.00    -0.107 A  
HETATM   13  C   UNL     1     -10.664   6.416  71.360  1.00  0.00    -0.290 C  
HETATM   14  C   UNL     1      -9.463   6.482  68.669  1.00  0.00    -0.123 A  
HETATM   15  C   UNL     1      -7.241   7.274  72.700  1.00  0.00    -0.068 A  
HETATM   16  C   UNL     1      -6.174   6.685  73.385  1.00  0.00    -0.063 A  
HETATM   17  C   UNL     1      -8.943   6.464  67.370  1.00  0.00    -0.109 A  
HETATM   18  C   UNL     1      -7.756   7.131  67.085  1.00  0.00    -0.108 A  
HETATM   19  C   UNL     1      -6.082   5.301  73.476  1.00  0.00    -0.047 A  
HETATM   20 CL   UNL     1      -7.100   7.072  65.497  1.00  0.00    -0.066 Cl 
HETATM   21  C   UNL     1      -7.096   7.838  68.084  1.00  0.00    -0.085 A  
HETATM   22  C   UNL     1      -7.062   4.506  72.891  1.00  0.00    -0.076 A  
HETATM   23  C   UNL     1      -8.117   5.094  72.185  1.00  0.00    -0.113 A  
HETATM   24  C   UNL     1      -7.624   7.866  69.378  1.00  0.00    -0.103 A  
ENDBRANCH   8   9
ENDBRANCH   7   8
ENDBRANCH   6   7
TORSDOF 3
ENDMDL
MODEL      212
REMARK 921   NORMALIZED FREE ENERGY PREDICTED BY IDOCK:   -2.87 KCAL/MOL
REMARK 922        TOTAL FREE ENERGY PREDICTED BY IDOCK:   -4.07 KCAL/MOL
REMARK 923 INTER-LIGAND FREE ENERGY PREDICTED BY IDOCK:   -4.22 KCAL/MOL
REMARK 924 INTRA-LIGAND FREE ENERGY PREDICTED BY IDOCK:    0.15 KCAL/MOL
REMARK 927      BINDING AFFINITY PREDICTED BY RF-SCORE:    0.00 PKD
ROOT
HETATM    1  C   UNL     1      -7.048   6.591  72.322  1.00  0.00    -0.077 C  
HETATM    2  N   UNL     1      -7.073   7.236  71.012  1.00  0.00    -0.063 NA 
HETATM    3  C   UNL     1      -5.875   6.900  70.238  1.00  0.00    -0.024 C  
HETATM    4  C   UNL     1      -6.279   7.290  68.835  1.00  0.00    -0.034 C  
HETATM    5  C   UNL     1      -7.723   6.832  68.749  1.00  0.00    -0.110 C  
HETATM    6  C   UNL     1      -8.246   6.850  70.194  1.00  0.00    -0.133 C  
ENDROOT
BRANCH   6   7
HETATM    7  C   UNL     1      -9.391   7.853  70.406  1.00  0.00    -0.159 C  
BRANCH   7   8
HETATM    8  C   UNL     1      -9.041   9.305  70.060  1.00  0.00    -0.210 C  
BRANCH   8   9
HETATM    9  O   UNL     1      -8.552   9.392  68.723  1.00  0.00    -0.123 OA 
HETATM   10  C   UNL     1      -9.496   9.823  67.703  1.00  0.00    -0.144 C  
HETATM   11  C   UNL     1      -9.935  11.284  67.974  1.00  0.00    -0.191 A  
HETATM   12  C   UNL     1      -8.737   9.779  66.344  1.00  0.00    -0.144 A  
HETATM   13  C   UNL     1     -10.672   8.813  67.668  1.00  0.00    -0.206 C  
HETATM   14  C   UNL     1     -11.287  11.666  68.074  1.00  0.00    -0.366 A  
HETATM   15  C   UNL     1      -7.334   9.922  66.299  1.00  0.00    -0.102 A  
HETATM   16  C   UNL     1      -6.651  10.032  65.084  1.00  0.00    -0.115 A  
HETATM   17  C   UNL     1     -11.649  13.005  68.257  1.00  0.00    -0.375 A  
HETATM   18  C   UNL     1     -10.668  13.988  68.339  1.00  0.00    -0.251 A  
HETATM   19  C   UNL     1      -7.349   9.973  63.883  1.00  0.00    -0.131 A  
HETATM   20 CL   UNL     1     -11.121  15.637  68.524  1.00  0.00    -0.303 Cl 
HETATM   21  C   UNL     1      -9.324  13.641  68.263  1.00  0.00    -0.204 A  
HETATM   22  C   UNL     1      -8.728   9.796  63.896  1.00  0.00    -0.236 A  
HETATM   23  C   UNL     1      -9.415   9.710  65.112  1.00  0.00    -0.332 A  
HETATM   24  C   UNL     1      -8.964  12.300  68.094  1.00  0.00    -0.192 A  
ENDBRANCH   8   9
ENDBRANCH   7   8
ENDBRANCH   6   7
TORSDOF 3
ENDMDL
MODEL      213
REMARK 921   NORMALIZED FREE ENERGY PREDICTED BY IDOCK:   -2.86 KCAL/MOL
REMARK 922        TOTAL FREE ENERGY PREDICTED BY IDOCK:   -4.06 KCAL/MOL
REMARK 923 INTER-LIGAND FREE ENERGY PREDICTED BY IDOCK:   -3.34 KCAL/MOL
REMARK 924 INTRA-LIGAND FREE ENERGY PREDICTED BY IDOCK:   -0.72 KCAL/MOL
REMARK 927      BINDING AFFINITY PREDICTED BY RF-SCORE:    0.00 PKD
ROOT
HETATM    1  C   UNL     1     -11.288   9.559  71.413  1.00  0.00    -0.392 C  
HETATM    2  N   UNL     1     -11.587   9.854  70.015  1.00  0.00    -0.213 NA 
HETATM    3  C   UNL     1     -11.722  11.297  69.799  1.00  0.00    -0.349 C  
HETATM    4  C   UNL     1     -11.604  11.410  68.297  1.00  0.00    -0.376 C  
HETATM    5  C   UNL     1     -10.509  10.416  67.959  1.00  0.00    -0.232 C  
HETATM    6  C   UNL     1     -10.545   9.367  69.082  1.00  0.00    -0.218 C  
ENDROOT
BRANCH   6   7
HETATM    7  C   UNL     1     -10.904   7.960  68.577  1.00  0.00     0.031 C  
BRANCH   7   8
HETATM    8  C   UNL     1     -10.613   7.721  67.091  1.00  0.00    -0.331 C  
BRANCH   8   9
HETATM    9  O   UNL     1      -9.870   6.516  66.918  1.00  0.00    -0.149 OA 
HETATM   10  C   UNL     1      -8.460   6.652  66.587  1.00  0.00    -0.120 C  
HETATM   11  C   UNL     1      -7.704   7.323  67.762  1.00  0.00    -0.112 A  
HETATM   12  C   UNL     1      -7.904   5.211  66.399  1.00  0.00    -0.103 A  
HETATM   13  C   UNL     1      -8.346   7.426  65.247  1.00  0.00    -0.110 C  
HETATM   14  C   UNL     1      -6.905   8.471  67.596  1.00  0.00    -0.071 A  
HETATM   15  C   UNL     1      -8.505   4.116  67.054  1.00  0.00    -0.100 A  
HETATM   16  C   UNL     1      -7.936   2.840  67.017  1.00  0.00    -0.075 A  
HETATM   17  C   UNL     1      -6.187   9.013  68.667  1.00  0.00    -0.045 A  
HETATM   18  C   UNL     1      -6.249   8.417  69.922  1.00  0.00    -0.032 A  
HETATM   19  C   UNL     1      -6.765   2.619  66.300  1.00  0.00    -0.043 A  
HETATM   20 CL   UNL     1      -5.332   9.065  71.225  1.00  0.00    -0.036 Cl 
HETATM   21  C   UNL     1      -7.044   7.295  70.122  1.00  0.00    -0.065 A  
HETATM   22  C   UNL     1      -6.169   3.672  65.614  1.00  0.00    -0.031 A  
HETATM   23  C   UNL     1      -6.725   4.954  65.671  1.00  0.00    -0.056 A  
HETATM   24  C   UNL     1      -7.772   6.761  69.054  1.00  0.00    -0.110 A  
ENDBRANCH   8   9
ENDBRANCH   7   8
ENDBRANCH   6   7
TORSDOF 3
ENDMDL
MODEL      214
REMARK 921   NORMALIZED FREE ENERGY PREDICTED BY IDOCK:   -2.86 KCAL/MOL
REMARK 922        TOTAL FREE ENERGY PREDICTED BY IDOCK:   -4.05 KCAL/MOL
REMARK 923 INTER-LIGAND FREE ENERGY PREDICTED BY IDOCK:   -3.47 KCAL/MOL
REMARK 924 INTRA-LIGAND FREE ENERGY PREDICTED BY IDOCK:   -0.58 KCAL/MOL
REMARK 927      BINDING AFFINITY PREDICTED BY RF-SCORE:    0.00 PKD
ROOT
HETATM    1  C   UNL     1      -8.034   5.507  64.882  1.00  0.00    -0.115 C  
HETATM    2  N   UNL     1      -8.716   5.145  66.121  1.00  0.00    -0.120 NA 
HETATM    3  C   UNL     1      -8.562   3.717  66.408  1.00  0.00    -0.115 C  
HETATM    4  C   UNL     1      -8.947   3.638  67.867  1.00  0.00    -0.165 C  
HETATM    5  C   UNL     1      -8.312   4.882  68.461  1.00  0.00    -0.083 C  
HETATM    6  C   UNL     1      -8.212   5.886  67.301  1.00  0.00    -0.105 C  
ENDROOT
BRANCH   6   7
HETATM    7  C   UNL     1      -9.054   7.151  67.528  1.00  0.00    -0.123 C  
BRANCH   7   8
HETATM    8  C   UNL     1      -8.342   8.259  68.315  1.00  0.00    -0.132 C  
BRANCH   8   9
HETATM    9  O   UNL     1      -9.074   9.480  68.225  1.00  0.00    -0.127 OA 
HETATM   10  C   UNL     1      -8.310  10.689  67.961  1.00  0.00    -0.118 C  
HETATM   11  C   UNL     1      -7.661  10.607  66.556  1.00  0.00    -0.137 A  
HETATM   12  C   UNL     1      -9.325  11.869  67.969  1.00  0.00    -0.193 A  
HETATM   13  C   UNL     1      -7.288  10.882  69.111  1.00  0.00    -0.126 C  
HETATM   14  C   UNL     1      -6.283  10.795  66.342  1.00  0.00    -0.119 A  
HETATM   15  C   UNL     1     -10.683  11.654  67.653  1.00  0.00    -0.249 A  
HETATM   16  C   UNL     1     -11.577  12.719  67.512  1.00  0.00    -0.412 A  
HETATM   17  C   UNL     1      -5.740  10.776  65.052  1.00  0.00    -0.037 A  
HETATM   18  C   UNL     1      -6.566  10.573  63.951  1.00  0.00     0.082 A  
HETATM   19  C   UNL     1     -11.144  14.025  67.710  1.00  0.00    -0.284 A  
HETATM   20 CL   UNL     1      -5.901  10.590  62.366  1.00  0.00    -0.128 Cl 
HETATM   21  C   UNL     1      -7.929  10.364  64.131  1.00  0.00    -0.073 A  
HETATM   22  C   UNL     1      -9.819  14.266  68.058  1.00  0.00    -0.224 A  
HETATM   23  C   UNL     1      -8.918  13.202  68.176  1.00  0.00    -0.195 A  
HETATM   24  C   UNL     1      -8.467  10.371  65.421  1.00  0.00    -0.173 A  
ENDBRANCH   8   9
ENDBRANCH   7   8
ENDBRANCH   6   7
TORSDOF 3
ENDMDL
MODEL      215
REMARK 921   NORMALIZED FREE ENERGY PREDICTED BY IDOCK:   -2.85 KCAL/MOL
REMARK 922        TOTAL FREE ENERGY PREDICTED BY IDOCK:   -4.05 KCAL/MOL
REMARK 923 INTER-LIGAND FREE ENERGY PREDICTED BY IDOCK:   -3.46 KCAL/MOL
REMARK 924 INTRA-LIGAND FREE ENERGY PREDICTED BY IDOCK:   -0.58 KCAL/MOL
REMARK 927      BINDING AFFINITY PREDICTED BY RF-SCORE:    0.00 PKD
ROOT
HETATM    1  C   UNL     1      -9.072   8.663  71.011  1.00  0.00    -0.199 C  
HETATM    2  N   UNL     1      -8.158   7.545  71.226  1.00  0.00    -0.095 NA 
HETATM    3  C   UNL     1      -7.382   7.730  72.455  1.00  0.00    -0.085 C  
HETATM    4  C   UNL     1      -6.845   6.340  72.709  1.00  0.00    -0.074 C  
HETATM    5  C   UNL     1      -8.019   5.445  72.357  1.00  0.00    -0.103 C  
HETATM    6  C   UNL     1      -8.850   6.240  71.338  1.00  0.00    -0.139 C  
ENDROOT
BRANCH   6   7
HETATM    7  C   UNL     1      -8.922   5.561  69.961  1.00  0.00    -0.149 C  
BRANCH   7   8
HETATM    8  C   UNL     1      -7.797   5.952  68.997  1.00  0.00    -0.095 C  
BRANCH   8   9
HETATM    9  O   UNL     1      -8.243   6.967  68.099  1.00  0.00    -0.117 OA 
HETATM   10  C   UNL     1      -7.723   6.922  66.741  1.00  0.00    -0.102 C  
HETATM   11  C   UNL     1      -8.214   5.635  66.031  1.00  0.00    -0.113 A  
HETATM   12  C   UNL     1      -8.313   8.154  65.996  1.00  0.00    -0.132 A  
HETATM   13  C   UNL     1      -6.179   7.051  66.805  1.00  0.00    -0.042 C  
HETATM   14  C   UNL     1      -7.335   4.725  65.412  1.00  0.00    -0.072 A  
HETATM   15  C   UNL     1      -9.538   8.723  66.402  1.00  0.00    -0.316 A  
HETATM   16  C   UNL     1     -10.157   9.733  65.659  1.00  0.00    -0.282 A  
HETATM   17  C   UNL     1      -7.817   3.605  64.726  1.00  0.00    -0.082 A  
HETATM   18  C   UNL     1      -9.186   3.376  64.640  1.00  0.00    -0.140 A  
HETATM   19  C   UNL     1      -9.552  10.220  64.506  1.00  0.00    -0.378 A  
HETATM   20 CL   UNL     1      -9.775   2.020  63.762  1.00  0.00    -0.125 Cl 
HETATM   21  C   UNL     1     -10.079   4.245  65.257  1.00  0.00    -0.231 A  
HETATM   22  C   UNL     1      -8.326   9.704  64.100  1.00  0.00    -0.171 A  
HETATM   23  C   UNL     1      -7.719   8.677  64.830  1.00  0.00    -0.106 A  
HETATM   24  C   UNL     1      -9.595   5.356  65.954  1.00  0.00    -0.116 A  
ENDBRANCH   8   9
ENDBRANCH   7   8
ENDBRANCH   6   7
TORSDOF 3
ENDMDL
MODEL      216
REMARK 921   NORMALIZED FREE ENERGY PREDICTED BY IDOCK:   -2.82 KCAL/MOL
REMARK 922        TOTAL FREE ENERGY PREDICTED BY IDOCK:   -4.00 KCAL/MOL
REMARK 923 INTER-LIGAND FREE ENERGY PREDICTED BY IDOCK:   -3.59 KCAL/MOL
REMARK 924 INTRA-LIGAND FREE ENERGY PREDICTED BY IDOCK:   -0.41 KCAL/MOL
REMARK 927      BINDING AFFINITY PREDICTED BY RF-SCORE:    0.00 PKD
ROOT
HETATM    1  C   UNL     1     -12.002  14.009  67.643  1.00  0.00    -0.368 C  
HETATM    2  N   UNL     1     -11.713  13.925  69.072  1.00  0.00    -0.314 NA 
HETATM    3  C   UNL     1     -12.187  15.120  69.775  1.00  0.00    -0.289 C  
HETATM    4  C   UNL     1     -12.184  14.668  71.216  1.00  0.00    -0.410 C  
HETATM    5  C   UNL     1     -12.708  13.247  71.135  1.00  0.00    -0.404 C  
HETATM    6  C   UNL     1     -12.344  12.755  69.725  1.00  0.00    -0.032 C  
ENDROOT
BRANCH   6   7
HETATM    7  C   UNL     1     -11.368  11.568  69.737  1.00  0.00    -0.303 C  
BRANCH   7   8
HETATM    8  C   UNL     1      -9.995  11.863  69.122  1.00  0.00     0.222 C  
BRANCH   8   9
HETATM    9  O   UNL     1      -9.621  10.823  68.221  1.00  0.00    -0.155 OA 
HETATM   10  C   UNL     1      -8.197  10.601  68.025  1.00  0.00    -0.113 C  
HETATM   11  C   UNL     1      -7.551  10.118  69.349  1.00  0.00    -0.133 A  
HETATM   12  C   UNL     1      -8.063   9.467  66.967  1.00  0.00    -0.105 A  
HETATM   13  C   UNL     1      -7.572  11.904  67.463  1.00  0.00    -0.140 C  
HETATM   14  C   UNL     1      -6.433  10.752  69.925  1.00  0.00    -0.135 A  
HETATM   15  C   UNL     1      -9.087   8.511  66.802  1.00  0.00    -0.186 A  
HETATM   16  C   UNL     1      -8.925   7.404  65.965  1.00  0.00    -0.156 A  
HETATM   17  C   UNL     1      -5.837  10.252  71.088  1.00  0.00    -0.003 A  
HETATM   18  C   UNL     1      -6.343   9.107  71.694  1.00  0.00    -0.037 A  
HETATM   19  C   UNL     1      -7.744   7.237  65.249  1.00  0.00    -0.114 A  
HETATM   20 CL   UNL     1      -5.582   8.474  73.100  1.00  0.00    -0.064 Cl 
HETATM   21  C   UNL     1      -7.457   8.469  71.160  1.00  0.00    -0.097 A  
HETATM   22  C   UNL     1      -6.731   8.183  65.364  1.00  0.00    -0.052 A  
HETATM   23  C   UNL     1      -6.883   9.278  66.220  1.00  0.00    -0.082 A  
HETATM   24  C   UNL     1      -8.060   8.978  70.006  1.00  0.00    -0.124 A  
ENDBRANCH   8   9
ENDBRANCH   7   8
ENDBRANCH   6   7
TORSDOF 3
ENDMDL
MODEL      217
REMARK 921   NORMALIZED FREE ENERGY PREDICTED BY IDOCK:   -2.78 KCAL/MOL
REMARK 922        TOTAL FREE ENERGY PREDICTED BY IDOCK:   -3.97 KCAL/MOL
REMARK 923 INTER-LIGAND FREE ENERGY PREDICTED BY IDOCK:   -3.71 KCAL/MOL
REMARK 924 INTRA-LIGAND FREE ENERGY PREDICTED BY IDOCK:   -0.26 KCAL/MOL
REMARK 927      BINDING AFFINITY PREDICTED BY RF-SCORE:    0.00 PKD
ROOT
HETATM    1  C   UNL     1      -9.035  10.360  64.750  1.00  0.00    -0.202 C  
HETATM    2  N   UNL     1      -7.630  10.091  65.042  1.00  0.00    -0.135 NA 
HETATM    3  C   UNL     1      -6.782  10.420  63.893  1.00  0.00     0.004 C  
HETATM    4  C   UNL     1      -5.407  10.480  64.515  1.00  0.00    -0.146 C  
HETATM    5  C   UNL     1      -5.655  11.171  65.842  1.00  0.00    -0.078 C  
HETATM    6  C   UNL     1      -7.118  10.862  66.199  1.00  0.00    -0.097 C  
ENDROOT
BRANCH   6   7
HETATM    7  C   UNL     1      -7.260  10.036  67.487  1.00  0.00    -0.089 C  
BRANCH   7   8
HETATM    8  C   UNL     1      -8.034   8.723  67.323  1.00  0.00    -0.097 C  
BRANCH   8   9
HETATM    9  O   UNL     1      -8.672   8.366  68.547  1.00  0.00    -0.135 OA 
HETATM   10  C   UNL     1      -9.780   7.427  68.464  1.00  0.00    -0.151 C  
HETATM   11  C   UNL     1      -9.272   6.053  67.961  1.00  0.00    -0.115 A  
HETATM   12  C   UNL     1     -10.328   7.254  69.911  1.00  0.00    -0.226 A  
HETATM   13  C   UNL     1     -10.883   8.052  67.569  1.00  0.00    -0.132 C  
HETATM   14  C   UNL     1      -9.836   5.391  66.854  1.00  0.00    -0.186 A  
HETATM   15  C   UNL     1      -9.491   7.460  71.027  1.00  0.00    -0.157 A  
HETATM   16  C   UNL     1      -9.919   7.168  72.326  1.00  0.00    -0.193 A  
HETATM   17  C   UNL     1      -9.393   4.122  66.466  1.00  0.00    -0.184 A  
HETATM   18  C   UNL     1      -8.381   3.488  67.180  1.00  0.00    -0.092 A  
HETATM   19  C   UNL     1     -11.206   6.688  72.544  1.00  0.00    -0.302 A  
HETATM   20 CL   UNL     1      -7.868   1.911  66.723  1.00  0.00    -0.066 Cl 
HETATM   21  C   UNL     1      -7.791   4.123  68.266  1.00  0.00    -0.074 A  
HETATM   22  C   UNL     1     -12.066   6.509  71.466  1.00  0.00    -0.363 A  
HETATM   23  C   UNL     1     -11.630   6.779  70.165  1.00  0.00    -0.397 A  
HETATM   24  C   UNL     1      -8.226   5.397  68.645  1.00  0.00    -0.094 A  
ENDBRANCH   8   9
ENDBRANCH   7   8
ENDBRANCH   6   7
TORSDOF 3
ENDMDL
MODEL      218
REMARK 921   NORMALIZED FREE ENERGY PREDICTED BY IDOCK:   -2.77 KCAL/MOL
REMARK 922        TOTAL FREE ENERGY PREDICTED BY IDOCK:   -3.95 KCAL/MOL
REMARK 923 INTER-LIGAND FREE ENERGY PREDICTED BY IDOCK:   -3.34 KCAL/MOL
REMARK 924 INTRA-LIGAND FREE ENERGY PREDICTED BY IDOCK:   -0.61 KCAL/MOL
REMARK 927      BINDING AFFINITY PREDICTED BY RF-SCORE:    0.00 PKD
ROOT
HETATM    1  C   UNL     1     -12.532  10.716  70.212  1.00  0.00    -0.304 C  
HETATM    2  N   UNL     1     -11.570  10.359  69.174  1.00  0.00    -0.205 NA 
HETATM    3  C   UNL     1     -11.496  11.401  68.145  1.00  0.00    -0.305 C  
HETATM    4  C   UNL     1     -10.205  11.063  67.437  1.00  0.00    -0.229 C  
HETATM    5  C   UNL     1      -9.279  10.670  68.573  1.00  0.00    -0.170 C  
HETATM    6  C   UNL     1     -10.198  10.162  69.695  1.00  0.00    -0.242 C  
ENDROOT
BRANCH   6   7
HETATM    7  C   UNL     1      -9.970   8.680  70.032  1.00  0.00    -0.191 C  
BRANCH   7   8
HETATM    8  C   UNL     1      -8.615   8.123  69.581  1.00  0.00    -0.131 C  
BRANCH   8   9
HETATM    9  O   UNL     1      -8.786   7.229  68.483  1.00  0.00    -0.124 OA 
HETATM   10  C   UNL     1      -7.765   6.209  68.297  1.00  0.00    -0.103 C  
HETATM   11  C   UNL     1      -7.767   5.234  69.501  1.00  0.00    -0.073 A  
HETATM   12  C   UNL     1      -8.155   5.415  67.016  1.00  0.00    -0.101 A  
HETATM   13  C   UNL     1      -6.404   6.918  68.068  1.00  0.00    -0.042 C  
HETATM   14  C   UNL     1      -6.609   4.944  70.248  1.00  0.00    -0.036 A  
HETATM   15  C   UNL     1      -9.501   5.335  66.600  1.00  0.00    -0.148 A  
HETATM   16  C   UNL     1      -9.890   4.510  65.541  1.00  0.00    -0.219 A  
HETATM   17  C   UNL     1      -6.634   4.011  71.290  1.00  0.00    -0.026 A  
HETATM   18  C   UNL     1      -7.815   3.345  71.602  1.00  0.00    -0.057 A  
HETATM   19  C   UNL     1      -8.940   3.765  64.852  1.00  0.00    -0.126 A  
HETATM   20 CL   UNL     1      -7.830   2.170  72.856  1.00  0.00    -0.048 Cl 
HETATM   21  C   UNL     1      -8.980   3.623  70.895  1.00  0.00    -0.158 A  
HETATM   22  C   UNL     1      -7.600   3.851  65.216  1.00  0.00    -0.081 A  
HETATM   23  C   UNL     1      -7.214   4.659  66.291  1.00  0.00    -0.076 A  
HETATM   24  C   UNL     1      -8.956   4.566  69.863  1.00  0.00    -0.145 A  
ENDBRANCH   8   9
ENDBRANCH   7   8
ENDBRANCH   6   7
TORSDOF 3
ENDMDL
MODEL      219
REMARK 921   NORMALIZED FREE ENERGY PREDICTED BY IDOCK:   -2.72 KCAL/MOL
REMARK 922        TOTAL FREE ENERGY PREDICTED BY IDOCK:   -3.89 KCAL/MOL
REMARK 923 INTER-LIGAND FREE ENERGY PREDICTED BY IDOCK:   -3.12 KCAL/MOL
REMARK 924 INTRA-LIGAND FREE ENERGY PREDICTED BY IDOCK:   -0.78 KCAL/MOL
REMARK 927      BINDING AFFINITY PREDICTED BY RF-SCORE:    0.00 PKD
ROOT
HETATM    1  C   UNL     1      -7.032   3.760  63.153  1.00  0.00    -0.044 C  
HETATM    2  N   UNL     1      -8.415   4.153  63.407  1.00  0.00    -0.095 NA 
HETATM    3  C   UNL     1      -9.345   3.096  63.000  1.00  0.00    -0.094 C  
HETATM    4  C   UNL     1     -10.618   3.498  63.707  1.00  0.00    -0.280 C  
HETATM    5  C   UNL     1     -10.128   3.971  65.063  1.00  0.00    -0.203 C  
HETATM    6  C   UNL     1      -8.684   4.446  64.834  1.00  0.00    -0.135 C  
ENDROOT
BRANCH   6   7
HETATM    7  C   UNL     1      -8.496   5.947  65.109  1.00  0.00    -0.130 C  
BRANCH   7   8
HETATM    8  C   UNL     1      -7.723   6.269  66.393  1.00  0.00    -0.099 C  
BRANCH   8   9
HETATM    9  O   UNL     1      -7.685   5.129  67.249  1.00  0.00    -0.091 OA 
HETATM   10  C   UNL     1      -7.565   5.380  68.677  1.00  0.00    -0.083 C  
HETATM   11  C   UNL     1      -8.827   6.118  69.191  1.00  0.00    -0.123 A  
HETATM   12  C   UNL     1      -7.489   3.988  69.371  1.00  0.00    -0.053 A  
HETATM   13  C   UNL     1      -6.243   6.152  68.928  1.00  0.00    -0.036 C  
HETATM   14  C   UNL     1      -8.762   7.327  69.910  1.00  0.00    -0.141 A  
HETATM   15  C   UNL     1      -8.067   2.851  68.768  1.00  0.00    -0.069 A  
HETATM   16  C   UNL     1      -8.139   1.626  69.439  1.00  0.00    -0.059 A  
HETATM   17  C   UNL     1      -9.918   7.934  70.413  1.00  0.00    -0.192 A  
HETATM   18  C   UNL     1     -11.160   7.342  70.212  1.00  0.00    -0.266 A  
HETATM   19  C   UNL     1      -7.609   1.499  70.718  1.00  0.00    -0.032 A  
HETATM   20 CL   UNL     1     -12.573   8.071  70.867  1.00  0.00    -0.068 Cl 
HETATM   21  C   UNL     1     -11.260   6.158  69.489  1.00  0.00    -0.482 A  
HETATM   22  C   UNL     1      -7.001   2.594  71.323  1.00  0.00    -0.032 A  
HETATM   23  C   UNL     1      -6.950   3.825  70.662  1.00  0.00    -0.033 A  
HETATM   24  C   UNL     1     -10.105   5.560  68.976  1.00  0.00    -0.275 A  
ENDBRANCH   8   9
ENDBRANCH   7   8
ENDBRANCH   6   7
TORSDOF 3
ENDMDL
MODEL      220
REMARK 921   NORMALIZED FREE ENERGY PREDICTED BY IDOCK:   -2.71 KCAL/MOL
REMARK 922        TOTAL FREE ENERGY PREDICTED BY IDOCK:   -3.88 KCAL/MOL
REMARK 923 INTER-LIGAND FREE ENERGY PREDICTED BY IDOCK:   -3.18 KCAL/MOL
REMARK 924 INTRA-LIGAND FREE ENERGY PREDICTED BY IDOCK:   -0.69 KCAL/MOL
REMARK 927      BINDING AFFINITY PREDICTED BY RF-SCORE:    0.00 PKD
ROOT
HETATM    1  C   UNL     1     -12.399   7.557  72.220  1.00  0.00    -0.156 C  
HETATM    2  N   UNL     1     -12.647   8.800  71.495  1.00  0.00    -0.319 NA 
HETATM    3  C   UNL     1     -13.045   9.872  72.411  1.00  0.00    -0.207 C  
HETATM    4  C   UNL     1     -12.841  11.109  71.568  1.00  0.00    -0.542 C  
HETATM    5  C   UNL     1     -11.550  10.815  70.826  1.00  0.00    -0.322 C  
HETATM    6  C   UNL     1     -11.463   9.282  70.746  1.00  0.00    -0.292 C  
ENDROOT
BRANCH   6   7
HETATM    7  C   UNL     1     -11.502   8.754  69.303  1.00  0.00     0.520 C  
BRANCH   7   8
HETATM    8  C   UNL     1     -10.326   7.847  68.923  1.00  0.00    -0.213 C  
BRANCH   8   9
HETATM    9  O   UNL     1      -9.576   7.494  70.083  1.00  0.00    -0.168 OA 
HETATM   10  C   UNL     1      -9.196   6.097  70.224  1.00  0.00    -0.156 C  
HETATM   11  C   UNL     1      -8.222   5.698  69.086  1.00  0.00    -0.100 A  
HETATM   12  C   UNL     1      -8.447   5.972  71.583  1.00  0.00    -0.127 A  
HETATM   13  C   UNL     1     -10.489   5.241  70.269  1.00  0.00    -0.332 C  
HETATM   14  C   UNL     1      -8.449   4.594  68.242  1.00  0.00    -0.101 A  
HETATM   15  C   UNL     1      -7.774   7.080  72.139  1.00  0.00    -0.092 A  
HETATM   16  C   UNL     1      -6.975   6.953  73.279  1.00  0.00    -0.074 A  
HETATM   17  C   UNL     1      -7.517   4.225  67.266  1.00  0.00    -0.077 A  
HETATM   18  C   UNL     1      -6.339   4.950  67.117  1.00  0.00    -0.040 A  
HETATM   19  C   UNL     1      -6.851   5.720  73.910  1.00  0.00    -0.081 A  
HETATM   20 CL   UNL     1      -5.180   4.468  65.942  1.00  0.00    -0.009 Cl 
HETATM   21  C   UNL     1      -6.095   6.056  67.922  1.00  0.00    -0.021 A  
HETATM   22  C   UNL     1      -7.532   4.617  73.405  1.00  0.00    -0.083 A  
HETATM   23  C   UNL     1      -8.312   4.739  72.251  1.00  0.00    -0.116 A  
HETATM   24  C   UNL     1      -7.033   6.432  68.888  1.00  0.00    -0.076 A  
ENDBRANCH   8   9
ENDBRANCH   7   8
ENDBRANCH   6   7
TORSDOF 3
ENDMDL
MODEL      221
REMARK 921   NORMALIZED FREE ENERGY PREDICTED BY IDOCK:   -2.69 KCAL/MOL
REMARK 922        TOTAL FREE ENERGY PREDICTED BY IDOCK:   -3.86 KCAL/MOL
REMARK 923 INTER-LIGAND FREE ENERGY PREDICTED BY IDOCK:   -2.93 KCAL/MOL
REMARK 924 INTRA-LIGAND FREE ENERGY PREDICTED BY IDOCK:   -0.93 KCAL/MOL
REMARK 927      BINDING AFFINITY PREDICTED BY RF-SCORE:    0.00 PKD
ROOT
HETATM    1  C   UNL     1      -6.419   4.979  65.445  1.00  0.00    -0.036 C  
HETATM    2  N   UNL     1      -6.536   3.626  65.979  1.00  0.00    -0.040 NA 
HETATM    3  C   UNL     1      -5.216   3.053  66.256  1.00  0.00    -0.008 C  
HETATM    4  C   UNL     1      -5.553   1.888  67.156  1.00  0.00    -0.018 C  
HETATM    5  C   UNL     1      -6.642   2.445  68.054  1.00  0.00    -0.035 C  
HETATM    6  C   UNL     1      -7.313   3.562  67.239  1.00  0.00    -0.063 C  
ENDROOT
BRANCH   6   7
HETATM    7  C   UNL     1      -8.792   3.276  66.933  1.00  0.00    -0.149 C  
BRANCH   7   8
HETATM    8  C   UNL     1      -9.785   4.166  67.689  1.00  0.00    -0.122 C  
BRANCH   8   9
HETATM    9  O   UNL     1      -9.222   5.456  67.916  1.00  0.00    -0.108 OA 
HETATM   10  C   UNL     1      -9.697   6.187  69.081  1.00  0.00    -0.139 C  
HETATM   11  C   UNL     1      -9.296   5.436  70.376  1.00  0.00    -0.203 A  
HETATM   12  C   UNL     1      -8.976   7.567  69.066  1.00  0.00    -0.131 A  
HETATM   13  C   UNL     1     -11.225   6.404  68.931  1.00  0.00    -0.385 C  
HETATM   14  C   UNL     1     -10.230   5.079  71.368  1.00  0.00    -0.270 A  
HETATM   15  C   UNL     1      -7.721   7.717  68.441  1.00  0.00    -0.119 A  
HETATM   16  C   UNL     1      -6.992   8.906  68.543  1.00  0.00    -0.065 A  
HETATM   17  C   UNL     1      -9.824   4.457  72.553  1.00  0.00    -0.213 A  
HETATM   18  C   UNL     1      -8.478   4.183  72.772  1.00  0.00    -0.100 A  
HETATM   19  C   UNL     1      -7.512   9.985  69.249  1.00  0.00    -0.103 A  
HETATM   20 CL   UNL     1      -7.980   3.454  74.248  1.00  0.00    -0.069 Cl 
HETATM   21  C   UNL     1      -7.534   4.506  71.803  1.00  0.00    -0.074 A  
HETATM   22  C   UNL     1      -8.764   9.878  69.846  1.00  0.00    -0.225 A  
HETATM   23  C   UNL     1      -9.483   8.682  69.764  1.00  0.00    -0.166 A  
HETATM   24  C   UNL     1      -7.943   5.116  70.613  1.00  0.00    -0.088 A  
ENDBRANCH   8   9
ENDBRANCH   7   8
ENDBRANCH   6   7
TORSDOF 3
ENDMDL
MODEL      222
REMARK 921   NORMALIZED FREE ENERGY PREDICTED BY IDOCK:   -2.69 KCAL/MOL
REMARK 922        TOTAL FREE ENERGY PREDICTED BY IDOCK:   -3.86 KCAL/MOL
REMARK 923 INTER-LIGAND FREE ENERGY PREDICTED BY IDOCK:   -3.23 KCAL/MOL
REMARK 924 INTRA-LIGAND FREE ENERGY PREDICTED BY IDOCK:   -0.63 KCAL/MOL
REMARK 927      BINDING AFFINITY PREDICTED BY RF-SCORE:    0.00 PKD
ROOT
HETATM    1  C   UNL     1      -8.341   7.586  62.333  1.00  0.00    -0.040 C  
HETATM    2  N   UNL     1      -7.465   8.064  63.398  1.00  0.00    -0.114 NA 
HETATM    3  C   UNL     1      -6.085   8.198  62.924  1.00  0.00    -0.077 C  
HETATM    4  C   UNL     1      -5.461   9.069  63.989  1.00  0.00    -0.061 C  
HETATM    5  C   UNL     1      -6.549  10.083  64.290  1.00  0.00    -0.130 C  
HETATM    6  C   UNL     1      -7.871   9.383  63.938  1.00  0.00    -0.129 C  
ENDROOT
BRANCH   6   7
HETATM    7  C   UNL     1      -8.792   9.194  65.154  1.00  0.00    -0.241 C  
BRANCH   7   8
HETATM    8  C   UNL     1      -8.060   8.939  66.476  1.00  0.00    -0.107 C  
BRANCH   8   9
HETATM    9  O   UNL     1      -8.155   7.563  66.839  1.00  0.00    -0.112 OA 
HETATM   10  C   UNL     1      -7.891   7.227  68.229  1.00  0.00    -0.122 C  
HETATM   11  C   UNL     1      -8.968   7.867  69.140  1.00  0.00    -0.145 A  
HETATM   12  C   UNL     1      -8.003   5.678  68.344  1.00  0.00    -0.100 A  
HETATM   13  C   UNL     1      -6.443   7.664  68.571  1.00  0.00    -0.048 C  
HETATM   14  C   UNL     1      -8.646   8.687  70.239  1.00  0.00    -0.144 A  
HETATM   15  C   UNL     1      -8.808   4.946  67.446  1.00  0.00    -0.103 A  
HETATM   16  C   UNL     1      -9.039   3.578  67.621  1.00  0.00    -0.194 A  
HETATM   17  C   UNL     1      -9.643   9.198  71.078  1.00  0.00    -0.350 A  
HETATM   18  C   UNL     1     -10.979   8.896  70.838  1.00  0.00    -0.266 A  
HETATM   19  C   UNL     1      -8.447   2.901  68.681  1.00  0.00    -0.095 A  
HETATM   20 CL   UNL     1     -12.196   9.494  71.895  1.00  0.00    -0.445 Cl 
HETATM   21  C   UNL     1     -11.331   8.106  69.750  1.00  0.00     0.127 A  
HETATM   22  C   UNL     1      -7.619   3.589  69.562  1.00  0.00    -0.051 A  
HETATM   23  C   UNL     1      -7.407   4.963  69.401  1.00  0.00    -0.056 A  
HETATM   24  C   UNL     1     -10.335   7.607  68.905  1.00  0.00    -0.222 A  
ENDBRANCH   8   9
ENDBRANCH   7   8
ENDBRANCH   6   7
TORSDOF 3
ENDMDL
MODEL      223
REMARK 921   NORMALIZED FREE ENERGY PREDICTED BY IDOCK:   -2.68 KCAL/MOL
REMARK 922        TOTAL FREE ENERGY PREDICTED BY IDOCK:   -3.85 KCAL/MOL
REMARK 923 INTER-LIGAND FREE ENERGY PREDICTED BY IDOCK:   -3.23 KCAL/MOL
REMARK 924 INTRA-LIGAND FREE ENERGY PREDICTED BY IDOCK:   -0.61 KCAL/MOL
REMARK 927      BINDING AFFINITY PREDICTED BY RF-SCORE:    0.00 PKD
ROOT
HETATM    1  C   UNL     1      -9.777  11.619  67.336  1.00  0.00    -0.176 C  
HETATM    2  N   UNL     1     -10.257  11.381  68.694  1.00  0.00    -0.204 NA 
HETATM    3  C   UNL     1     -11.075  12.501  69.166  1.00  0.00    -0.196 C  
HETATM    4  C   UNL     1     -11.791  11.899  70.353  1.00  0.00    -0.329 C  
HETATM    5  C   UNL     1     -12.136  10.500  69.877  1.00  0.00    -0.318 C  
HETATM    6  C   UNL     1     -11.081  10.156  68.814  1.00  0.00    -0.203 C  
ENDROOT
BRANCH   6   7
HETATM    7  C   UNL     1     -10.197   8.962  69.210  1.00  0.00    -0.214 C  
BRANCH   7   8
HETATM    8  C   UNL     1     -10.567   7.640  68.528  1.00  0.00    -0.124 C  
BRANCH   8   9
HETATM    9  O   UNL     1      -9.521   6.685  68.697  1.00  0.00    -0.130 OA 
HETATM   10  C   UNL     1      -8.892   6.175  67.488  1.00  0.00    -0.106 C  
HETATM   11  C   UNL     1      -8.156   7.323  66.752  1.00  0.00    -0.119 A  
HETATM   12  C   UNL     1      -7.839   5.122  67.943  1.00  0.00    -0.091 A  
HETATM   13  C   UNL     1      -9.980   5.477  66.630  1.00  0.00    -0.213 C  
HETATM   14  C   UNL     1      -8.386   7.628  65.397  1.00  0.00    -0.134 A  
HETATM   15  C   UNL     1      -7.250   5.200  69.222  1.00  0.00    -0.057 A  
HETATM   16  C   UNL     1      -6.199   4.355  69.593  1.00  0.00    -0.027 A  
HETATM   17  C   UNL     1      -7.658   8.630  64.747  1.00  0.00    -0.102 A  
HETATM   18  C   UNL     1      -6.683   9.343  65.437  1.00  0.00    -0.078 A  
HETATM   19  C   UNL     1      -5.730   3.393  68.706  1.00  0.00    -0.022 A  
HETATM   20 CL   UNL     1      -5.763  10.546  64.622  1.00  0.00    -0.129 Cl 
HETATM   21  C   UNL     1      -6.446   9.079  66.781  1.00  0.00    -0.064 A  
HETATM   22  C   UNL     1      -6.316   3.270  67.451  1.00  0.00    -0.036 A  
HETATM   23  C   UNL     1      -7.351   4.130  67.070  1.00  0.00    -0.073 A  
HETATM   24  C   UNL     1      -7.184   8.086  67.432  1.00  0.00    -0.088 A  
ENDBRANCH   8   9
ENDBRANCH   7   8
ENDBRANCH   6   7
TORSDOF 3
ENDMDL
MODEL      224
REMARK 921   NORMALIZED FREE ENERGY PREDICTED BY IDOCK:   -2.66 KCAL/MOL
REMARK 922        TOTAL FREE ENERGY PREDICTED BY IDOCK:   -3.83 KCAL/MOL
REMARK 923 INTER-LIGAND FREE ENERGY PREDICTED BY IDOCK:   -4.52 KCAL/MOL
REMARK 924 INTRA-LIGAND FREE ENERGY PREDICTED BY IDOCK:    0.69 KCAL/MOL
REMARK 927      BINDING AFFINITY PREDICTED BY RF-SCORE:    0.00 PKD
ROOT
HETATM    1  C   UNL     1     -13.120   6.830  71.341  1.00  0.00    -0.143 C  
HETATM    2  N   UNL     1     -11.699   6.541  71.168  1.00  0.00    -0.332 NA 
HETATM    3  C   UNL     1     -11.246   5.537  72.134  1.00  0.00    -0.183 C  
HETATM    4  C   UNL     1      -9.933   5.086  71.537  1.00  0.00    -0.254 C  
HETATM    5  C   UNL     1     -10.231   5.024  70.051  1.00  0.00    -0.339 C  
HETATM    6  C   UNL     1     -11.370   6.029  69.818  1.00  0.00    -0.273 C  
ENDROOT
BRANCH   6   7
HETATM    7  C   UNL     1     -10.965   7.191  68.897  1.00  0.00    -0.109 C  
BRANCH   7   8
HETATM    8  C   UNL     1      -9.791   6.885  67.960  1.00  0.00    -0.139 C  
BRANCH   8   9
HETATM    9  O   UNL     1      -8.686   7.736  68.255  1.00  0.00    -0.127 OA 
HETATM   10  C   UNL     1      -8.870   9.160  68.025  1.00  0.00    -0.129 C  
HETATM   11  C   UNL     1      -9.957   9.713  68.980  1.00  0.00    -0.189 A  
HETATM   12  C   UNL     1      -7.515   9.847  68.366  1.00  0.00    -0.082 A  
HETATM   13  C   UNL     1      -9.190   9.374  66.522  1.00  0.00    -0.202 C  
HETATM   14  C   UNL     1     -11.077  10.434  68.523  1.00  0.00    -0.318 A  
HETATM   15  C   UNL     1      -6.621   9.258  69.285  1.00  0.00    -0.049 A  
HETATM   16  C   UNL     1      -5.471   9.927  69.715  1.00  0.00    -0.037 A  
HETATM   17  C   UNL     1     -12.006  10.972  69.420  1.00  0.00    -0.408 A  
HETATM   18  C   UNL     1     -11.832  10.806  70.789  1.00  0.00    -0.339 A  
HETATM   19  C   UNL     1      -5.170  11.189  69.217  1.00  0.00    -0.041 A  
HETATM   20 CL   UNL     1     -12.956  11.504  71.888  1.00  0.00    -0.524 Cl 
HETATM   21  C   UNL     1     -10.747  10.083  71.272  1.00  0.00     0.167 A  
HETATM   22  C   UNL     1      -6.015  11.780  68.282  1.00  0.00    -0.049 A  
HETATM   23  C   UNL     1      -7.177  11.121  67.869  1.00  0.00    -0.090 A  
HETATM   24  C   UNL     1      -9.826   9.534  70.374  1.00  0.00    -0.329 A  
ENDBRANCH   8   9
ENDBRANCH   7   8
ENDBRANCH   6   7
TORSDOF 3
ENDMDL
MODEL      225
REMARK 921   NORMALIZED FREE ENERGY PREDICTED BY IDOCK:   -2.66 KCAL/MOL
REMARK 922        TOTAL FREE ENERGY PREDICTED BY IDOCK:   -3.82 KCAL/MOL
REMARK 923 INTER-LIGAND FREE ENERGY PREDICTED BY IDOCK:   -2.99 KCAL/MOL
REMARK 924 INTRA-LIGAND FREE ENERGY PREDICTED BY IDOCK:   -0.83 KCAL/MOL
REMARK 927      BINDING AFFINITY PREDICTED BY RF-SCORE:    0.00 PKD
ROOT
HETATM    1  C   UNL     1      -5.266   5.725  72.913  1.00  0.00    -0.022 C  
HETATM    2  N   UNL     1      -6.378   5.319  72.060  1.00  0.00    -0.037 NA 
HETATM    3  C   UNL     1      -7.280   4.407  72.769  1.00  0.00    -0.073 C  
HETATM    4  C   UNL     1      -8.522   4.449  71.910  1.00  0.00    -0.116 C  
HETATM    5  C   UNL     1      -8.630   5.914  71.528  1.00  0.00    -0.132 C  
HETATM    6  C   UNL     1      -7.195   6.461  71.586  1.00  0.00    -0.086 C  
ENDROOT
BRANCH   6   7
HETATM    7  C   UNL     1      -6.682   6.946  70.221  1.00  0.00    -0.052 C  
BRANCH   7   8
HETATM    8  C   UNL     1      -6.784   8.460  70.001  1.00  0.00    -0.042 C  
BRANCH   8   9
HETATM    9  O   UNL     1      -8.101   8.918  70.299  1.00  0.00    -0.098 OA 
HETATM   10  C   UNL     1      -8.849   9.530  69.213  1.00  0.00    -0.153 C  
HETATM   11  C   UNL     1      -9.124   8.482  68.105  1.00  0.00    -0.138 A  
HETATM   12  C   UNL     1     -10.212   9.987  69.810  1.00  0.00    -0.286 A  
HETATM   13  C   UNL     1      -8.063  10.772  68.718  1.00  0.00    -0.143 C  
HETATM   14  C   UNL     1      -8.780   8.692  66.756  1.00  0.00    -0.135 A  
HETATM   15  C   UNL     1     -10.758   9.338  70.937  1.00  0.00    -0.371 A  
HETATM   16  C   UNL     1     -12.044   9.635  71.399  1.00  0.00    -0.472 A  
HETATM   17  C   UNL     1      -9.099   7.750  65.771  1.00  0.00    -0.063 A  
HETATM   18  C   UNL     1      -9.772   6.583  66.115  1.00  0.00     0.073 A  
HETATM   19  C   UNL     1     -12.806  10.607  70.763  1.00  0.00    -0.439 A  
HETATM   20 CL   UNL     1     -10.197   5.448  64.896  1.00  0.00     0.764 Cl 
HETATM   21  C   UNL     1     -10.109   6.337  67.441  1.00  0.00    -0.191 A  
HETATM   22  C   UNL     1     -12.281  11.289  69.670  1.00  0.00    -0.340 A  
HETATM   23  C   UNL     1     -11.003  10.976  69.194  1.00  0.00    -0.289 A  
HETATM   24  C   UNL     1      -9.777   7.273  68.426  1.00  0.00    -0.151 A  
ENDBRANCH   8   9
ENDBRANCH   7   8
ENDBRANCH   6   7
TORSDOF 3
ENDMDL
MODEL      226
REMARK 921   NORMALIZED FREE ENERGY PREDICTED BY IDOCK:   -2.60 KCAL/MOL
REMARK 922        TOTAL FREE ENERGY PREDICTED BY IDOCK:   -3.75 KCAL/MOL
REMARK 923 INTER-LIGAND FREE ENERGY PREDICTED BY IDOCK:   -2.99 KCAL/MOL
REMARK 924 INTRA-LIGAND FREE ENERGY PREDICTED BY IDOCK:   -0.76 KCAL/MOL
REMARK 927      BINDING AFFINITY PREDICTED BY RF-SCORE:    0.00 PKD
ROOT
HETATM    1  C   UNL     1     -11.282  11.907  67.947  1.00  0.00    -0.263 C  
HETATM    2  N   UNL     1      -9.997  11.751  67.272  1.00  0.00    -0.191 NA 
HETATM    3  C   UNL     1      -9.105  12.874  67.572  1.00  0.00    -0.191 C  
HETATM    4  C   UNL     1      -7.757  12.335  67.156  1.00  0.00    -0.134 C  
HETATM    5  C   UNL     1      -7.796  10.896  67.635  1.00  0.00    -0.113 C  
HETATM    6  C   UNL     1      -9.284  10.511  67.659  1.00  0.00    -0.145 C  
ENDROOT
BRANCH   6   7
HETATM    7  C   UNL     1      -9.627   9.377  66.680  1.00  0.00    -0.250 C  
BRANCH   7   8
HETATM    8  C   UNL     1     -10.421   8.220  67.296  1.00  0.00    -0.303 C  
BRANCH   8   9
HETATM    9  O   UNL     1      -9.679   7.616  68.353  1.00  0.00    -0.152 OA 
HETATM   10  C   UNL     1      -9.323   6.215  68.193  1.00  0.00    -0.115 C  
HETATM   11  C   UNL     1      -8.354   6.050  66.995  1.00  0.00    -0.105 A  
HETATM   12  C   UNL     1      -8.579   5.791  69.493  1.00  0.00    -0.112 A  
HETATM   13  C   UNL     1     -10.630   5.391  68.057  1.00  0.00    -0.157 C  
HETATM   14  C   UNL     1      -8.598   5.155  65.936  1.00  0.00    -0.128 A  
HETATM   15  C   UNL     1      -7.889   6.744  70.270  1.00  0.00    -0.110 A  
HETATM   16  C   UNL     1      -7.095   6.364  71.357  1.00  0.00    -0.077 A  
HETATM   17  C   UNL     1      -7.671   4.987  64.902  1.00  0.00    -0.084 A  
HETATM   18  C   UNL     1      -6.481   5.706  64.908  1.00  0.00    -0.041 A  
HETATM   19  C   UNL     1      -6.992   5.023  71.710  1.00  0.00    -0.057 A  
HETATM   20 CL   UNL     1      -5.327   5.466  63.656  1.00  0.00    -0.013 Cl 
HETATM   21  C   UNL     1      -6.219   6.612  65.929  1.00  0.00    -0.041 A  
HETATM   22  C   UNL     1      -7.691   4.064  70.984  1.00  0.00    -0.055 A  
HETATM   23  C   UNL     1      -8.466   4.442  69.883  1.00  0.00    -0.083 A  
HETATM   24  C   UNL     1      -7.153   6.789  66.955  1.00  0.00    -0.072 A  
ENDBRANCH   8   9
ENDBRANCH   7   8
ENDBRANCH   6   7
TORSDOF 3
ENDMDL
MODEL      227
REMARK 921   NORMALIZED FREE ENERGY PREDICTED BY IDOCK:   -2.57 KCAL/MOL
REMARK 922        TOTAL FREE ENERGY PREDICTED BY IDOCK:   -3.71 KCAL/MOL
REMARK 923 INTER-LIGAND FREE ENERGY PREDICTED BY IDOCK:   -3.01 KCAL/MOL
REMARK 924 INTRA-LIGAND FREE ENERGY PREDICTED BY IDOCK:   -0.70 KCAL/MOL
REMARK 927      BINDING AFFINITY PREDICTED BY RF-SCORE:    0.00 PKD
ROOT
HETATM    1  C   UNL     1     -11.246   7.033  71.151  1.00  0.00    -0.270 C  
HETATM    2  N   UNL     1     -11.613   8.307  70.540  1.00  0.00    -0.195 NA 
HETATM    3  C   UNL     1     -11.816   9.340  71.560  1.00  0.00    -0.374 C  
HETATM    4  C   UNL     1     -11.763  10.612  70.745  1.00  0.00    -0.435 C  
HETATM    5  C   UNL     1     -10.642  10.345  69.759  1.00  0.00    -0.302 C  
HETATM    6  C   UNL     1     -10.590   8.818  69.599  1.00  0.00    -0.219 C  
ENDROOT
BRANCH   6   7
HETATM    7  C   UNL     1     -10.909   8.352  68.169  1.00  0.00     0.010 C  
BRANCH   7   8
HETATM    8  C   UNL     1      -9.826   7.481  67.523  1.00  0.00    -0.162 C  
BRANCH   8   9
HETATM    9  O   UNL     1      -8.847   7.108  68.491  1.00  0.00    -0.126 OA 
HETATM   10  C   UNL     1      -8.422   5.716  68.497  1.00  0.00    -0.105 C  
HETATM   11  C   UNL     1      -7.698   5.379  67.169  1.00  0.00    -0.096 A  
HETATM   12  C   UNL     1      -7.407   5.564  69.668  1.00  0.00    -0.066 A  
HETATM   13  C   UNL     1      -9.664   4.829  68.775  1.00  0.00    -0.235 C  
HETATM   14  C   UNL     1      -8.076   4.299  66.350  1.00  0.00    -0.102 A  
HETATM   15  C   UNL     1      -6.653   6.669  70.114  1.00  0.00    -0.045 A  
HETATM   16  C   UNL     1      -5.634   6.523  71.061  1.00  0.00    -0.026 A  
HETATM   17  C   UNL     1      -7.360   3.986  65.189  1.00  0.00    -0.072 A  
HETATM   18  C   UNL     1      -6.250   4.743  64.828  1.00  0.00    -0.033 A  
HETATM   19  C   UNL     1      -5.362   5.274  71.605  1.00  0.00    -0.009 A  
HETATM   20 CL   UNL     1      -5.350   4.329  63.423  1.00  0.00    -0.012 Cl 
HETATM   21  C   UNL     1      -5.863   5.828  65.606  1.00  0.00    -0.021 A  
HETATM   22  C   UNL     1      -6.113   4.172  71.210  1.00  0.00    -0.014 A  
HETATM   23  C   UNL     1      -7.117   4.313  70.246  1.00  0.00    -0.041 A  
HETATM   24  C   UNL     1      -6.588   6.148  66.759  1.00  0.00    -0.059 A  
ENDBRANCH   8   9
ENDBRANCH   7   8
ENDBRANCH   6   7
TORSDOF 3
ENDMDL
MODEL      228
REMARK 921   NORMALIZED FREE ENERGY PREDICTED BY IDOCK:   -2.53 KCAL/MOL
REMARK 922        TOTAL FREE ENERGY PREDICTED BY IDOCK:   -3.67 KCAL/MOL
REMARK 923 INTER-LIGAND FREE ENERGY PREDICTED BY IDOCK:   -3.06 KCAL/MOL
REMARK 924 INTRA-LIGAND FREE ENERGY PREDICTED BY IDOCK:   -0.61 KCAL/MOL
REMARK 927      BINDING AFFINITY PREDICTED BY RF-SCORE:    0.00 PKD
ROOT
HETATM    1  C   UNL     1      -6.499   3.699  67.177  1.00  0.00    -0.037 C  
HETATM    2  N   UNL     1      -7.735   3.769  67.951  1.00  0.00    -0.069 NA 
HETATM    3  C   UNL     1      -8.335   2.441  68.102  1.00  0.00    -0.063 C  
HETATM    4  C   UNL     1      -9.312   2.655  69.234  1.00  0.00    -0.188 C  
HETATM    5  C   UNL     1      -8.546   3.553  70.188  1.00  0.00    -0.107 C  
HETATM    6  C   UNL     1      -7.539   4.317  69.313  1.00  0.00    -0.054 C  
ENDROOT
BRANCH   6   7
HETATM    7  C   UNL     1      -7.778   5.835  69.310  1.00  0.00    -0.089 C  
BRANCH   7   8
HETATM    8  C   UNL     1      -9.096   6.273  68.659  1.00  0.00    -0.126 C  
BRANCH   8   9
HETATM    9  O   UNL     1      -8.856   6.798  67.356  1.00  0.00    -0.118 OA 
HETATM   10  C   UNL     1      -9.106   8.217  67.159  1.00  0.00    -0.139 C  
HETATM   11  C   UNL     1      -8.124   9.051  68.021  1.00  0.00    -0.105 A  
HETATM   12  C   UNL     1      -8.825   8.518  65.658  1.00  0.00    -0.214 A  
HETATM   13  C   UNL     1     -10.601   8.496  67.468  1.00  0.00    -0.284 C  
HETATM   14  C   UNL     1      -8.556  10.042  68.923  1.00  0.00    -0.138 A  
HETATM   15  C   UNL     1      -7.927   7.719  64.920  1.00  0.00    -0.139 A  
HETATM   16  C   UNL     1      -7.549   8.057  63.617  1.00  0.00    -0.129 A  
HETATM   17  C   UNL     1      -7.639  10.819  69.639  1.00  0.00    -0.052 A  
HETATM   18  C   UNL     1      -6.273  10.624  69.463  1.00  0.00    -0.059 A  
HETATM   19  C   UNL     1      -8.082   9.188  63.008  1.00  0.00    -0.162 A  
HETATM   20 CL   UNL     1      -5.150  11.609  70.315  1.00  0.00    -0.078 Cl 
HETATM   21  C   UNL     1      -5.815   9.641  68.594  1.00  0.00    -0.039 A  
HETATM   22  C   UNL     1      -8.998   9.975  63.698  1.00  0.00    -0.280 A  
HETATM   23  C   UNL     1      -9.358   9.650  65.010  1.00  0.00    -0.319 A  
HETATM   24  C   UNL     1      -6.733   8.856  67.889  1.00  0.00    -0.069 A  
ENDBRANCH   8   9
ENDBRANCH   7   8
ENDBRANCH   6   7
TORSDOF 3
ENDMDL
MODEL      229
REMARK 921   NORMALIZED FREE ENERGY PREDICTED BY IDOCK:   -2.43 KCAL/MOL
REMARK 922        TOTAL FREE ENERGY PREDICTED BY IDOCK:   -3.55 KCAL/MOL
REMARK 923 INTER-LIGAND FREE ENERGY PREDICTED BY IDOCK:   -2.93 KCAL/MOL
REMARK 924 INTRA-LIGAND FREE ENERGY PREDICTED BY IDOCK:   -0.62 KCAL/MOL
REMARK 927      BINDING AFFINITY PREDICTED BY RF-SCORE:    0.00 PKD
ROOT
HETATM    1  C   UNL     1      -8.902   5.131  63.335  1.00  0.00     0.026 C  
HETATM    2  N   UNL     1      -9.244   4.324  64.502  1.00  0.00    -0.152 NA 
HETATM    3  C   UNL     1      -8.277   3.240  64.694  1.00  0.00    -0.090 C  
HETATM    4  C   UNL     1      -8.548   2.815  66.119  1.00  0.00    -0.117 C  
HETATM    5  C   UNL     1      -8.774   4.133  66.837  1.00  0.00    -0.114 C  
HETATM    6  C   UNL     1      -9.281   5.106  65.760  1.00  0.00    -0.156 C  
ENDROOT
BRANCH   6   7
HETATM    7  C   UNL     1     -10.709   5.607  66.029  1.00  0.00     0.092 C  
BRANCH   7   8
HETATM    8  C   UNL     1     -10.798   7.066  66.490  1.00  0.00     0.269 C  
BRANCH   8   9
HETATM    9  O   UNL     1      -9.548   7.495  67.025  1.00  0.00    -0.150 OA 
HETATM   10  C   UNL     1      -8.982   8.719  66.480  1.00  0.00    -0.148 C  
HETATM   11  C   UNL     1      -9.899   9.921  66.819  1.00  0.00    -0.256 A  
HETATM   12  C   UNL     1      -7.609   8.929  67.185  1.00  0.00    -0.092 A  
HETATM   13  C   UNL     1      -8.753   8.516  64.960  1.00  0.00    -0.124 C  
HETATM   14  C   UNL     1     -10.389  10.804  65.839  1.00  0.00    -0.302 A  
HETATM   15  C   UNL     1      -7.372   8.399  68.471  1.00  0.00    -0.093 A  
HETATM   16  C   UNL     1      -6.205   8.699  69.180  1.00  0.00    -0.043 A  
HETATM   17  C   UNL     1     -11.164  11.916  66.188  1.00  0.00    -0.387 A  
HETATM   18  C   UNL     1     -11.459  12.169  67.523  1.00  0.00    -0.340 A  
HETATM   19  C   UNL     1      -5.233   9.513  68.611  1.00  0.00    -0.033 A  
HETATM   20 CL   UNL     1     -12.377  13.559  67.949  1.00  0.00    -0.143 Cl 
HETATM   21  C   UNL     1     -11.005  11.305  68.513  1.00  0.00    -0.266 A  
HETATM   22  C   UNL     1      -5.423  10.021  67.330  1.00  0.00    -0.042 A  
HETATM   23  C   UNL     1      -6.601   9.741  66.630  1.00  0.00    -0.071 A  
HETATM   24  C   UNL     1     -10.243  10.187  68.162  1.00  0.00    -0.200 A  
ENDBRANCH   8   9
ENDBRANCH   7   8
ENDBRANCH   6   7
TORSDOF 3
ENDMDL
MODEL      230
REMARK 921   NORMALIZED FREE ENERGY PREDICTED BY IDOCK:   -2.31 KCAL/MOL
REMARK 922        TOTAL FREE ENERGY PREDICTED BY IDOCK:   -3.40 KCAL/MOL
REMARK 923 INTER-LIGAND FREE ENERGY PREDICTED BY IDOCK:   -3.17 KCAL/MOL
REMARK 924 INTRA-LIGAND FREE ENERGY PREDICTED BY IDOCK:   -0.23 KCAL/MOL
REMARK 927      BINDING AFFINITY PREDICTED BY RF-SCORE:    0.00 PKD
ROOT
HETATM    1  C   UNL     1     -13.179   6.911  72.095  1.00  0.00     0.041 C  
HETATM    2  N   UNL     1     -11.797   6.446  72.176  1.00  0.00    -0.324 NA 
HETATM    3  C   UNL     1     -11.673   5.328  73.115  1.00  0.00    -0.077 C  
HETATM    4  C   UNL     1     -10.328   4.746  72.746  1.00  0.00    -0.244 C  
HETATM    5  C   UNL     1     -10.320   4.824  71.230  1.00  0.00    -0.184 C  
HETATM    6  C   UNL     1     -11.260   5.986  70.874  1.00  0.00    -0.265 C  
ENDROOT
BRANCH   6   7
HETATM    7  C   UNL     1     -10.541   7.143  70.161  1.00  0.00    -0.247 C  
BRANCH   7   8
HETATM    8  C   UNL     1     -11.282   7.700  68.941  1.00  0.00     0.359 C  
BRANCH   8   9
HETATM    9  O   UNL     1     -10.512   7.499  67.758  1.00  0.00    -0.210 OA 
HETATM   10  C   UNL     1      -9.714   8.622  67.291  1.00  0.00    -0.185 C  
HETATM   11  C   UNL     1      -8.614   8.956  68.330  1.00  0.00    -0.134 A  
HETATM   12  C   UNL     1      -9.026   8.163  65.971  1.00  0.00    -0.213 A  
HETATM   13  C   UNL     1     -10.669   9.806  66.988  1.00  0.00    -0.236 C  
HETATM   14  C   UNL     1      -8.440  10.246  68.865  1.00  0.00    -0.138 A  
HETATM   15  C   UNL     1      -8.767   6.798  65.732  1.00  0.00    -0.122 A  
HETATM   16  C   UNL     1      -8.021   6.379  64.626  1.00  0.00    -0.118 A  
HETATM   17  C   UNL     1      -7.396  10.526  69.754  1.00  0.00    -0.139 A  
HETATM   18  C   UNL     1      -6.505   9.524  70.121  1.00  0.00    -0.067 A  
HETATM   19  C   UNL     1      -7.540   7.313  63.715  1.00  0.00    -0.110 A  
HETATM   20 CL   UNL     1      -5.201   9.884  71.183  1.00  0.00    -0.055 Cl 
HETATM   21  C   UNL     1      -6.661   8.235  69.625  1.00  0.00    -0.037 A  
HETATM   22  C   UNL     1      -7.811   8.664  63.906  1.00  0.00    -0.147 A  
HETATM   23  C   UNL     1      -8.537   9.085  65.025  1.00  0.00    -0.207 A  
HETATM   24  C   UNL     1      -7.712   7.954  68.746  1.00  0.00    -0.112 A  
ENDBRANCH   8   9
ENDBRANCH   7   8
ENDBRANCH   6   7
TORSDOF 3
ENDMDL
MODEL      231
REMARK 921   NORMALIZED FREE ENERGY PREDICTED BY IDOCK:   -2.28 KCAL/MOL
REMARK 922        TOTAL FREE ENERGY PREDICTED BY IDOCK:   -3.38 KCAL/MOL
REMARK 923 INTER-LIGAND FREE ENERGY PREDICTED BY IDOCK:   -3.79 KCAL/MOL
REMARK 924 INTRA-LIGAND FREE ENERGY PREDICTED BY IDOCK:    0.42 KCAL/MOL
REMARK 927      BINDING AFFINITY PREDICTED BY RF-SCORE:    0.00 PKD
ROOT
HETATM    1  C   UNL     1     -12.434  12.376  63.557  1.00  0.00    -0.500 C  
HETATM    2  N   UNL     1     -11.360  11.992  64.469  1.00  0.00    -0.328 NA 
HETATM    3  C   UNL     1     -10.905  10.626  64.198  1.00  0.00     0.394 C  
HETATM    4  C   UNL     1      -9.576  10.581  64.916  1.00  0.00    -0.334 C  
HETATM    5  C   UNL     1      -8.977  11.944  64.622  1.00  0.00     0.571 C  
HETATM    6  C   UNL     1     -10.174  12.875  64.376  1.00  0.00    -0.318 C  
ENDROOT
BRANCH   6   7
HETATM    7  C   UNL     1     -10.277  14.007  65.410  1.00  0.00    -0.368 C  
BRANCH   7   8
HETATM    8  C   UNL     1      -9.216  13.960  66.516  1.00  0.00    -0.200 C  
BRANCH   8   9
HETATM    9  O   UNL     1      -9.782  14.356  67.764  1.00  0.00    -0.215 OA 
HETATM   10  C   UNL     1     -10.997  13.675  68.183  1.00  0.00    -0.253 C  
HETATM   11  C   UNL     1     -10.701  12.174  68.434  1.00  0.00    -0.252 A  
HETATM   12  C   UNL     1     -11.432  14.325  69.529  1.00  0.00    -0.336 A  
HETATM   13  C   UNL     1     -12.092  13.926  67.114  1.00  0.00    -0.422 C  
HETATM   14  C   UNL     1     -11.435  11.141  67.820  1.00  0.00    -0.349 A  
HETATM   15  C   UNL     1     -10.481  14.933  70.375  1.00  0.00     0.088 A  
HETATM   16  C   UNL     1     -10.826  15.391  71.651  1.00  0.00     0.061 A  
HETATM   17  C   UNL     1     -11.181   9.798  68.118  1.00  0.00    -0.073 A  
HETATM   18  C   UNL     1     -10.193   9.461  69.037  1.00  0.00    -0.205 A  
HETATM   19  C   UNL     1     -12.136  15.278  72.102  1.00  0.00    -0.477 A  
HETATM   20 CL   UNL     1      -9.913   7.811  69.429  1.00  0.00    -0.184 Cl 
HETATM   21  C   UNL     1      -9.439  10.458  69.646  1.00  0.00    -0.118 A  
HETATM   22  C   UNL     1     -13.103  14.715  71.276  1.00  0.00    -0.424 A  
HETATM   23  C   UNL     1     -12.754  14.236  70.009  1.00  0.00    -0.167 A  
HETATM   24  C   UNL     1      -9.684  11.799  69.338  1.00  0.00     0.611 A  
ENDBRANCH   8   9
ENDBRANCH   7   8
ENDBRANCH   6   7
TORSDOF 3
ENDMDL
MODEL      232
REMARK 921   NORMALIZED FREE ENERGY PREDICTED BY IDOCK:   -2.25 KCAL/MOL
REMARK 922        TOTAL FREE ENERGY PREDICTED BY IDOCK:   -3.34 KCAL/MOL
REMARK 923 INTER-LIGAND FREE ENERGY PREDICTED BY IDOCK:   -2.81 KCAL/MOL
REMARK 924 INTRA-LIGAND FREE ENERGY PREDICTED BY IDOCK:   -0.53 KCAL/MOL
REMARK 927      BINDING AFFINITY PREDICTED BY RF-SCORE:    0.00 PKD
ROOT
HETATM    1  C   UNL     1     -10.441   4.137  72.018  1.00  0.00     0.002 C  
HETATM    2  N   UNL     1      -9.086   3.950  71.507  1.00  0.00    -0.107 NA 
HETATM    3  C   UNL     1      -8.238   3.284  72.499  1.00  0.00    -0.075 C  
HETATM    4  C   UNL     1      -7.068   2.820  71.663  1.00  0.00    -0.032 C  
HETATM    5  C   UNL     1      -7.726   2.341  70.382  1.00  0.00    -0.043 C  
HETATM    6  C   UNL     1      -9.036   3.135  70.271  1.00  0.00    -0.123 C  
ENDROOT
BRANCH   6   7
HETATM    7  C   UNL     1      -9.082   4.048  69.036  1.00  0.00    -0.193 C  
BRANCH   7   8
HETATM    8  C   UNL     1      -8.223   5.313  69.143  1.00  0.00    -0.092 C  
BRANCH   8   9
HETATM    9  O   UNL     1      -8.268   6.049  67.922  1.00  0.00    -0.111 OA 
HETATM   10  C   UNL     1      -8.804   7.399  67.986  1.00  0.00    -0.126 C  
HETATM   11  C   UNL     1      -7.885   8.292  68.858  1.00  0.00    -0.111 A  
HETATM   12  C   UNL     1      -8.796   7.953  66.531  1.00  0.00    -0.175 A  
HETATM   13  C   UNL     1     -10.267   7.320  68.497  1.00  0.00    -0.197 C  
HETATM   14  C   UNL     1      -8.365   9.040  69.950  1.00  0.00    -0.134 A  
HETATM   15  C   UNL     1      -7.875   7.464  65.580  1.00  0.00    -0.111 A  
HETATM   16  C   UNL     1      -7.752   8.047  64.316  1.00  0.00    -0.128 A  
HETATM   17  C   UNL     1      -7.518   9.884  70.677  1.00  0.00     0.047 A  
HETATM   18  C   UNL     1      -6.178  10.000  70.324  1.00  0.00    -0.094 A  
HETATM   19  C   UNL     1      -8.566   9.117  63.959  1.00  0.00    -0.186 A  
HETATM   20 CL   UNL     1      -5.151  11.069  71.196  1.00  0.00    -0.101 Cl 
HETATM   21  C   UNL     1      -5.670   9.259  69.263  1.00  0.00    -0.035 A  
HETATM   22  C   UNL     1      -9.508   9.597  64.863  1.00  0.00    -0.288 A  
HETATM   23  C   UNL     1      -9.615   9.029  66.136  1.00  0.00    -0.341 A  
HETATM   24  C   UNL     1      -6.514   8.406  68.546  1.00  0.00    -0.055 A  
ENDBRANCH   8   9
ENDBRANCH   7   8
ENDBRANCH   6   7
TORSDOF 3
ENDMDL
MODEL      233
REMARK 921   NORMALIZED FREE ENERGY PREDICTED BY IDOCK:   -2.18 KCAL/MOL
REMARK 922        TOTAL FREE ENERGY PREDICTED BY IDOCK:   -3.26 KCAL/MOL
REMARK 923 INTER-LIGAND FREE ENERGY PREDICTED BY IDOCK:   -3.00 KCAL/MOL
REMARK 924 INTRA-LIGAND FREE ENERGY PREDICTED BY IDOCK:   -0.26 KCAL/MOL
REMARK 927      BINDING AFFINITY PREDICTED BY RF-SCORE:    0.00 PKD
ROOT
HETATM    1  C   UNL     1      -6.663   6.814  72.064  1.00  0.00    -0.058 C  
HETATM    2  N   UNL     1      -6.143   6.042  70.940  1.00  0.00    -0.036 NA 
HETATM    3  C   UNL     1      -5.324   4.920  71.407  1.00  0.00    -0.004 C  
HETATM    4  C   UNL     1      -5.246   4.045  70.178  1.00  0.00    -0.004 C  
HETATM    5  C   UNL     1      -6.648   4.128  69.603  1.00  0.00    -0.033 C  
HETATM    6  C   UNL     1      -7.207   5.478  70.078  1.00  0.00    -0.068 C  
ENDROOT
BRANCH   6   7
HETATM    7  C   UNL     1      -7.515   6.441  68.920  1.00  0.00    -0.088 C  
BRANCH   7   8
HETATM    8  C   UNL     1      -7.967   7.840  69.355  1.00  0.00    -0.124 C  
BRANCH   8   9
HETATM    9  O   UNL     1      -9.285   7.789  69.899  1.00  0.00    -0.147 OA 
HETATM   10  C   UNL     1      -9.919   9.060  70.210  1.00  0.00    -0.195 C  
HETATM   11  C   UNL     1     -10.146   9.870  68.908  1.00  0.00    -0.194 A  
HETATM   12  C   UNL     1     -11.307   8.726  70.833  1.00  0.00    -0.322 A  
HETATM   13  C   UNL     1      -9.048   9.797  71.260  1.00  0.00     0.906 C  
HETATM   14  C   UNL     1      -9.688  11.191  68.744  1.00  0.00    -0.194 A  
HETATM   15  C   UNL     1     -11.965   7.519  70.519  1.00  0.00    -0.088 A  
HETATM   16  C   UNL     1     -13.271   7.266  70.950  1.00  0.00    -0.047 A  
HETATM   17  C   UNL     1      -9.965  11.914  67.578  1.00  0.00    -0.197 A  
HETATM   18  C   UNL     1     -10.709  11.333  66.557  1.00  0.00    -0.271 A  
HETATM   19  C   UNL     1     -13.942   8.202  71.729  1.00  0.00    -0.479 A  
HETATM   20 CL   UNL     1     -11.081  12.239  65.144  1.00  0.00    -0.348 Cl 
HETATM   21  C   UNL     1     -11.159  10.023  66.681  1.00  0.00     0.191 A  
HETATM   22  C   UNL     1     -13.304   9.386  72.085  1.00  0.00    -0.545 A  
HETATM   23  C   UNL     1     -12.007   9.650  71.634  1.00  0.00    -0.470 A  
HETATM   24  C   UNL     1     -10.870   9.297  67.841  1.00  0.00    -0.181 A  
ENDBRANCH   8   9
ENDBRANCH   7   8
ENDBRANCH   6   7
TORSDOF 3
ENDMDL
MODEL      234
REMARK 921   NORMALIZED FREE ENERGY PREDICTED BY IDOCK:   -2.13 KCAL/MOL
REMARK 922        TOTAL FREE ENERGY PREDICTED BY IDOCK:   -3.20 KCAL/MOL
REMARK 923 INTER-LIGAND FREE ENERGY PREDICTED BY IDOCK:   -3.59 KCAL/MOL
REMARK 924 INTRA-LIGAND FREE ENERGY PREDICTED BY IDOCK:    0.39 KCAL/MOL
REMARK 927      BINDING AFFINITY PREDICTED BY RF-SCORE:    0.00 PKD
ROOT
HETATM    1  C   UNL     1     -12.544  12.581  71.240  1.00  0.00    -0.231 C  
HETATM    2  N   UNL     1     -12.232  12.146  69.882  1.00  0.00    -0.217 NA 
HETATM    3  C   UNL     1     -12.436  13.234  68.922  1.00  0.00     0.314 C  
HETATM    4  C   UNL     1     -11.684  12.738  67.709  1.00  0.00    -0.412 C  
HETATM    5  C   UNL     1     -10.438  12.110  68.305  1.00  0.00    -0.225 C  
HETATM    6  C   UNL     1     -10.834  11.681  69.727  1.00  0.00     0.176 C  
ENDROOT
BRANCH   6   7
HETATM    7  C   UNL     1     -10.758  10.161  69.938  1.00  0.00    -0.340 C  
BRANCH   7   8
HETATM    8  C   UNL     1      -9.467   9.509  69.429  1.00  0.00    -0.176 C  
BRANCH   8   9
HETATM    9  O   UNL     1      -8.991   8.548  70.369  1.00  0.00    -0.141 OA 
HETATM   10  C   UNL     1      -9.718   7.291  70.452  1.00  0.00    -0.172 C  
HETATM   11  C   UNL     1      -9.586   6.516  69.116  1.00  0.00    -0.137 A  
HETATM   12  C   UNL     1      -9.039   6.456  71.577  1.00  0.00    -0.144 A  
HETATM   13  C   UNL     1     -11.184   7.599  70.854  1.00  0.00    -0.282 C  
HETATM   14  C   UNL     1     -10.701   6.049  68.394  1.00  0.00    -0.351 A  
HETATM   15  C   UNL     1      -7.683   6.660  71.907  1.00  0.00    -0.097 A  
HETATM   16  C   UNL     1      -7.017   5.824  72.808  1.00  0.00    -0.080 A  
HETATM   17  C   UNL     1     -10.543   5.299  67.224  1.00  0.00    -0.200 A  
HETATM   18  C   UNL     1      -9.269   4.997  66.755  1.00  0.00    -0.120 A  
HETATM   19  C   UNL     1      -7.697   4.780  73.425  1.00  0.00    -0.095 A  
HETATM   20 CL   UNL     1      -9.080   4.041  65.339  1.00  0.00    -0.134 Cl 
HETATM   21  C   UNL     1      -8.148   5.460  67.435  1.00  0.00    -0.101 A  
HETATM   22  C   UNL     1      -9.045   4.577  73.147  1.00  0.00    -0.126 A  
HETATM   23  C   UNL     1      -9.705   5.398  72.227  1.00  0.00    -0.187 A  
HETATM   24  C   UNL     1      -8.307   6.221  68.597  1.00  0.00    -0.112 A  
ENDBRANCH   8   9
ENDBRANCH   7   8
ENDBRANCH   6   7
TORSDOF 3
ENDMDL
MODEL      235
REMARK 921   NORMALIZED FREE ENERGY PREDICTED BY IDOCK:   -2.03 KCAL/MOL
REMARK 922        TOTAL FREE ENERGY PREDICTED BY IDOCK:   -3.08 KCAL/MOL
REMARK 923 INTER-LIGAND FREE ENERGY PREDICTED BY IDOCK:   -3.24 KCAL/MOL
REMARK 924 INTRA-LIGAND FREE ENERGY PREDICTED BY IDOCK:    0.16 KCAL/MOL
REMARK 927      BINDING AFFINITY PREDICTED BY RF-SCORE:    0.00 PKD
ROOT
HETATM    1  C   UNL     1      -5.132   5.003  66.306  1.00  0.00    -0.008 C  
HETATM    2  N   UNL     1      -5.587   6.142  65.513  1.00  0.00    -0.017 NA 
HETATM    3  C   UNL     1      -5.695   5.785  64.096  1.00  0.00    -0.021 C  
HETATM    4  C   UNL     1      -6.548   6.905  63.546  1.00  0.00    -0.043 C  
HETATM    5  C   UNL     1      -7.582   7.121  64.635  1.00  0.00    -0.106 C  
HETATM    6  C   UNL     1      -6.911   6.654  65.937  1.00  0.00    -0.053 C  
ENDROOT
BRANCH   6   7
HETATM    7  C   UNL     1      -6.734   7.788  66.960  1.00  0.00    -0.068 C  
BRANCH   7   8
HETATM    8  C   UNL     1      -7.985   8.644  67.188  1.00  0.00    -0.100 C  
BRANCH   8   9
HETATM    9  O   UNL     1      -8.650   8.244  68.384  1.00  0.00    -0.131 OA 
HETATM   10  C   UNL     1      -9.852   7.440  68.234  1.00  0.00    -0.160 C  
HETATM   11  C   UNL     1      -9.496   6.072  67.599  1.00  0.00    -0.112 A  
HETATM   12  C   UNL     1     -10.406   7.191  69.668  1.00  0.00    -0.224 A  
HETATM   13  C   UNL     1     -10.888   8.258  67.418  1.00  0.00    -0.105 C  
HETATM   14  C   UNL     1     -10.135   5.579  66.445  1.00  0.00    -0.220 A  
HETATM   15  C   UNL     1      -9.544   7.204  70.784  1.00  0.00    -0.168 A  
HETATM   16  C   UNL     1      -9.993   6.840  72.057  1.00  0.00    -0.183 A  
HETATM   17  C   UNL     1      -9.832   4.312  65.935  1.00  0.00    -0.230 A  
HETATM   18  C   UNL     1      -8.890   3.511  66.571  1.00  0.00    -0.133 A  
HETATM   19  C   UNL     1     -11.322   6.480  72.252  1.00  0.00    -0.318 A  
HETATM   20 CL   UNL     1      -8.551   1.939  65.963  1.00  0.00    -0.107 Cl 
HETATM   21  C   UNL     1      -8.228   3.976  67.702  1.00  0.00    -0.094 A  
HETATM   22  C   UNL     1     -12.203   6.493  71.176  1.00  0.00    -0.263 A  
HETATM   23  C   UNL     1     -11.749   6.835  69.898  1.00  0.00    -0.279 A  
HETATM   24  C   UNL     1      -8.522   5.249  68.202  1.00  0.00    -0.096 A  
ENDBRANCH   8   9
ENDBRANCH   7   8
ENDBRANCH   6   7
TORSDOF 3
ENDMDL
MODEL      236
REMARK 921   NORMALIZED FREE ENERGY PREDICTED BY IDOCK:   -2.02 KCAL/MOL
REMARK 922        TOTAL FREE ENERGY PREDICTED BY IDOCK:   -3.07 KCAL/MOL
REMARK 923 INTER-LIGAND FREE ENERGY PREDICTED BY IDOCK:   -3.44 KCAL/MOL
REMARK 924 INTRA-LIGAND FREE ENERGY PREDICTED BY IDOCK:    0.37 KCAL/MOL
REMARK 927      BINDING AFFINITY PREDICTED BY RF-SCORE:    0.00 PKD
ROOT
HETATM    1  C   UNL     1     -13.487   7.196  71.029  1.00  0.00    -0.001 C  
HETATM    2  N   UNL     1     -12.058   6.927  71.149  1.00  0.00    -0.366 NA 
HETATM    3  C   UNL     1     -11.781   6.056  72.295  1.00  0.00    -0.284 C  
HETATM    4  C   UNL     1     -10.380   5.573  72.001  1.00  0.00    -0.265 C  
HETATM    5  C   UNL     1     -10.404   5.327  70.504  1.00  0.00    -0.336 C  
HETATM    6  C   UNL     1     -11.487   6.267  69.951  1.00  0.00    -0.389 C  
ENDROOT
BRANCH   6   7
HETATM    7  C   UNL     1     -10.929   7.323  68.984  1.00  0.00    -0.077 C  
BRANCH   7   8
HETATM    8  C   UNL     1      -9.534   7.008  68.430  1.00  0.00    -0.133 C  
BRANCH   8   9
HETATM    9  O   UNL     1      -8.832   8.214  68.137  1.00  0.00    -0.132 OA 
HETATM   10  C   UNL     1      -8.851   9.253  69.156  1.00  0.00    -0.141 C  
HETATM   11  C   UNL     1      -8.114   8.759  70.427  1.00  0.00    -0.118 A  
HETATM   12  C   UNL     1      -8.072  10.467  68.572  1.00  0.00    -0.116 A  
HETATM   13  C   UNL     1     -10.326   9.662  69.408  1.00  0.00    -0.226 C  
HETATM   14  C   UNL     1      -8.703   8.782  71.705  1.00  0.00    -0.223 A  
HETATM   15  C   UNL     1      -7.076  10.278  67.590  1.00  0.00    -0.086 A  
HETATM   16  C   UNL     1      -6.266  11.333  67.160  1.00  0.00    -0.096 A  
HETATM   17  C   UNL     1      -7.985   8.387  72.840  1.00  0.00    -0.153 A  
HETATM   18  C   UNL     1      -6.665   7.967  72.719  1.00  0.00    -0.076 A  
HETATM   19  C   UNL     1      -6.449  12.610  67.680  1.00  0.00    -0.146 A  
HETATM   20 CL   UNL     1      -5.776   7.521  74.122  1.00  0.00    -0.064 Cl 
HETATM   21  C   UNL     1      -6.061   7.915  71.468  1.00  0.00    -0.035 A  
HETATM   22  C   UNL     1      -7.447  12.833  68.622  1.00  0.00    -0.092 A  
HETATM   23  C   UNL     1      -8.242  11.773  69.070  1.00  0.00     0.150 A  
HETATM   24  C   UNL     1      -6.784   8.297  70.333  1.00  0.00    -0.036 A  
ENDBRANCH   8   9
ENDBRANCH   7   8
ENDBRANCH   6   7
TORSDOF 3
ENDMDL
MODEL      237
REMARK 921   NORMALIZED FREE ENERGY PREDICTED BY IDOCK:   -1.85 KCAL/MOL
REMARK 922        TOTAL FREE ENERGY PREDICTED BY IDOCK:   -2.87 KCAL/MOL
REMARK 923 INTER-LIGAND FREE ENERGY PREDICTED BY IDOCK:   -2.39 KCAL/MOL
REMARK 924 INTRA-LIGAND FREE ENERGY PREDICTED BY IDOCK:   -0.49 KCAL/MOL
REMARK 927      BINDING AFFINITY PREDICTED BY RF-SCORE:    0.00 PKD
ROOT
HETATM    1  C   UNL     1      -8.594  16.017  68.579  1.00  0.00    -0.190 C  
HETATM    2  N   UNL     1      -9.556  16.546  67.617  1.00  0.00    -0.233 NA 
HETATM    3  C   UNL     1     -10.005  17.886  68.006  1.00  0.00    -0.333 C  
HETATM    4  C   UNL     1     -10.625  18.401  66.728  1.00  0.00    -0.367 C  
HETATM    5  C   UNL     1      -9.672  17.905  65.655  1.00  0.00     0.369 C  
HETATM    6  C   UNL     1      -9.010  16.649  66.244  1.00  0.00    -0.305 C  
ENDROOT
BRANCH   6   7
HETATM    7  C   UNL     1      -9.333  15.373  65.451  1.00  0.00     0.140 C  
BRANCH   7   8
HETATM    8  C   UNL     1     -10.803  14.941  65.506  1.00  0.00    -0.356 C  
BRANCH   8   9
HETATM    9  O   UNL     1     -11.062  14.213  66.704  1.00  0.00    -0.302 OA 
HETATM   10  C   UNL     1     -11.448  12.818  66.559  1.00  0.00    -0.355 C  
HETATM   11  C   UNL     1     -10.278  12.008  65.945  1.00  0.00    -0.263 A  
HETATM   12  C   UNL     1     -11.724  12.278  67.993  1.00  0.00    -0.417 A  
HETATM   13  C   UNL     1     -12.755  12.757  65.726  1.00  0.00     0.147 C  
HETATM   14  C   UNL     1     -10.426  11.210  64.794  1.00  0.00    -0.388 A  
HETATM   15  C   UNL     1     -11.093  12.858  69.113  1.00  0.00    -0.245 A  
HETATM   16  C   UNL     1     -11.213  12.297  70.389  1.00  0.00     0.778 A  
HETATM   17  C   UNL     1      -9.364  10.443  64.303  1.00  0.00    -0.324 A  
HETATM   18  C   UNL     1      -8.135  10.454  64.955  1.00  0.00    -0.136 A  
HETATM   19  C   UNL     1     -11.989  11.160  70.581  1.00  0.00    -0.459 A  
HETATM   20 CL   UNL     1      -6.846   9.478  64.371  1.00  0.00    -0.095 Cl 
HETATM   21  C   UNL     1      -7.952  11.246  66.083  1.00  0.00    -0.038 A  
HETATM   22  C   UNL     1     -12.652  10.588  69.501  1.00  0.00     0.179 A  
HETATM   23  C   UNL     1     -12.514  11.134  68.221  1.00  0.00     1.002 A  
HETATM   24  C   UNL     1      -9.010  12.023  66.564  1.00  0.00    -0.193 A  
ENDBRANCH   8   9
ENDBRANCH   7   8
ENDBRANCH   6   7
TORSDOF 3
ENDMDL
MODEL      238
REMARK 921   NORMALIZED FREE ENERGY PREDICTED BY IDOCK:   -1.73 KCAL/MOL
REMARK 922        TOTAL FREE ENERGY PREDICTED BY IDOCK:   -2.73 KCAL/MOL
REMARK 923 INTER-LIGAND FREE ENERGY PREDICTED BY IDOCK:   -4.11 KCAL/MOL
REMARK 924 INTRA-LIGAND FREE ENERGY PREDICTED BY IDOCK:    1.39 KCAL/MOL
REMARK 927      BINDING AFFINITY PREDICTED BY RF-SCORE:    0.00 PKD
ROOT
HETATM    1  C   UNL     1     -12.546  12.444  63.563  1.00  0.00    -0.425 C  
HETATM    2  N   UNL     1     -11.281  11.935  64.083  1.00  0.00    -0.353 NA 
HETATM    3  C   UNL     1     -10.967  10.623  63.511  1.00  0.00     0.815 C  
HETATM    4  C   UNL     1      -9.496  10.478  63.825  1.00  0.00    -0.342 C  
HETATM    5  C   UNL     1      -8.948  11.871  63.572  1.00  0.00     0.491 C  
HETATM    6  C   UNL     1     -10.132  12.825  63.795  1.00  0.00    -0.014 C  
ENDROOT
BRANCH   6   7
HETATM    7  C   UNL     1      -9.909  13.795  64.966  1.00  0.00    -0.087 C  
BRANCH   7   8
HETATM    8  C   UNL     1     -11.011  14.845  65.144  1.00  0.00    -0.399 C  
BRANCH   8   9
HETATM    9  O   UNL     1     -11.161  15.177  66.523  1.00  0.00    -0.341 OA 
HETATM   10  C   UNL     1     -11.282  14.071  67.459  1.00  0.00    -0.309 C  
HETATM   11  C   UNL     1      -9.969  13.247  67.475  1.00  0.00    -0.223 A  
HETATM   12  C   UNL     1     -11.490  14.698  68.869  1.00  0.00    -0.323 A  
HETATM   13  C   UNL     1     -12.536  13.242  67.076  1.00  0.00    -0.000 C  
HETATM   14  C   UNL     1      -9.942  11.856  67.262  1.00  0.00    -0.200 A  
HETATM   15  C   UNL     1     -11.002  15.989  69.161  1.00  0.00    -0.297 A  
HETATM   16  C   UNL     1     -11.048  16.511  70.457  1.00  0.00    -0.104 A  
HETATM   17  C   UNL     1      -8.746  11.134  67.345  1.00  0.00    -0.133 A  
HETATM   18  C   UNL     1      -7.556  11.788  67.647  1.00  0.00    -0.132 A  
HETATM   19  C   UNL     1     -11.607  15.766  71.489  1.00  0.00    -0.531 A  
HETATM   20 CL   UNL     1      -6.096  10.891  67.787  1.00  0.00    -0.046 Cl 
HETATM   21  C   UNL     1      -7.547  13.164  67.844  1.00  0.00    -0.147 A  
HETATM   22  C   UNL     1     -12.129  14.504  71.224  1.00  0.00    -0.419 A  
HETATM   23  C   UNL     1     -12.062  13.972  69.932  1.00  0.00    -0.406 A  
HETATM   24  C   UNL     1      -8.741  13.886  67.747  1.00  0.00    -0.187 A  
ENDBRANCH   8   9
ENDBRANCH   7   8
ENDBRANCH   6   7
TORSDOF 3
ENDMDL
MODEL      239
REMARK 921   NORMALIZED FREE ENERGY PREDICTED BY IDOCK:   -1.48 KCAL/MOL
REMARK 922        TOTAL FREE ENERGY PREDICTED BY IDOCK:   -2.43 KCAL/MOL
REMARK 923 INTER-LIGAND FREE ENERGY PREDICTED BY IDOCK:   -2.38 KCAL/MOL
REMARK 924 INTRA-LIGAND FREE ENERGY PREDICTED BY IDOCK:   -0.05 KCAL/MOL
REMARK 927      BINDING AFFINITY PREDICTED BY RF-SCORE:    0.00 PKD
ROOT
HETATM    1  C   UNL     1      -6.986   7.041  71.692  1.00  0.00    -0.069 C  
HETATM    2  N   UNL     1      -6.468   5.976  70.837  1.00  0.00    -0.040 NA 
HETATM    3  C   UNL     1      -5.843   4.919  71.636  1.00  0.00    -0.013 C  
HETATM    4  C   UNL     1      -5.766   3.775  70.652  1.00  0.00    -0.013 C  
HETATM    5  C   UNL     1      -7.089   3.862  69.915  1.00  0.00    -0.042 C  
HETATM    6  C   UNL     1      -7.515   5.336  70.007  1.00  0.00    -0.064 C  
ENDROOT
BRANCH   6   7
HETATM    7  C   UNL     1      -7.594   6.024  68.635  1.00  0.00    -0.091 C  
BRANCH   7   8
HETATM    8  C   UNL     1      -7.462   7.551  68.678  1.00  0.00    -0.101 C  
BRANCH   8   9
HETATM    9  O   UNL     1      -7.948   8.125  67.466  1.00  0.00    -0.118 OA 
HETATM   10  C   UNL     1      -8.698   9.367  67.579  1.00  0.00    -0.122 C  
HETATM   11  C   UNL     1      -7.778  10.493  68.114  1.00  0.00    -0.096 A  
HETATM   12  C   UNL     1      -9.156   9.744  66.139  1.00  0.00    -0.198 A  
HETATM   13  C   UNL     1      -9.946   9.105  68.463  1.00  0.00    -0.192 C  
HETATM   14  C   UNL     1      -8.105  11.271  69.241  1.00  0.00     0.103 A  
HETATM   15  C   UNL     1      -8.425   9.309  65.014  1.00  0.00    -0.178 A  
HETATM   16  C   UNL     1      -8.733   9.757  63.726  1.00  0.00    -0.239 A  
HETATM   17  C   UNL     1      -7.281  12.321  69.660  1.00  0.00     0.448 A  
HETATM   18  C   UNL     1      -6.117  12.617  68.958  1.00  0.00    -0.085 A  
HETATM   19  C   UNL     1      -9.798  10.629  63.526  1.00  0.00    -0.384 A  
HETATM   20 CL   UNL     1      -5.128  13.934  69.453  1.00  0.00    -0.083 Cl 
HETATM   21  C   UNL     1      -5.757  11.855  67.852  1.00  0.00    -0.054 A  
HETATM   22  C   UNL     1     -10.559  11.046  64.613  1.00  0.00    -0.369 A  
HETATM   23  C   UNL     1     -10.237  10.617  65.904  1.00  0.00    -0.314 A  
HETATM   24  C   UNL     1      -6.575  10.797  67.443  1.00  0.00    -0.071 A  
ENDBRANCH   8   9
ENDBRANCH   7   8
ENDBRANCH   6   7
TORSDOF 3
ENDMDL
MODEL      240
REMARK 921   NORMALIZED FREE ENERGY PREDICTED BY IDOCK:   -1.43 KCAL/MOL
REMARK 922        TOTAL FREE ENERGY PREDICTED BY IDOCK:   -2.38 KCAL/MOL
REMARK 923 INTER-LIGAND FREE ENERGY PREDICTED BY IDOCK:   -3.41 KCAL/MOL
REMARK 924 INTRA-LIGAND FREE ENERGY PREDICTED BY IDOCK:    1.03 KCAL/MOL
REMARK 927      BINDING AFFINITY PREDICTED BY RF-SCORE:    0.00 PKD
ROOT
HETATM    1  C   UNL     1      -5.275   9.133  72.496  1.00  0.00    -0.071 C  
HETATM    2  N   UNL     1      -6.016  10.052  71.638  1.00  0.00    -0.302 NA 
HETATM    3  C   UNL     1      -5.153  11.136  71.160  1.00  0.00    -0.111 C  
HETATM    4  C   UNL     1      -5.952  11.698  70.007  1.00  0.00    -0.152 C  
HETATM    5  C   UNL     1      -6.514  10.458  69.337  1.00  0.00    -0.057 C  
HETATM    6  C   UNL     1      -6.594   9.394  70.443  1.00  0.00    -0.077 C  
ENDROOT
BRANCH   6   7
HETATM    7  C   UNL     1      -8.033   8.940  70.736  1.00  0.00    -0.150 C  
BRANCH   7   8
HETATM    8  C   UNL     1      -8.161   7.489  71.214  1.00  0.00    -0.100 C  
BRANCH   8   9
HETATM    9  O   UNL     1      -9.510   7.203  71.578  1.00  0.00    -0.157 OA 
HETATM   10  C   UNL     1     -10.551   7.689  70.686  1.00  0.00    -0.221 C  
HETATM   11  C   UNL     1     -10.439   6.984  69.310  1.00  0.00    -0.223 A  
HETATM   12  C   UNL     1     -11.912   7.299  71.333  1.00  0.00    -0.354 A  
HETATM   13  C   UNL     1     -10.444   9.235  70.607  1.00  0.00    -0.325 C  
HETATM   14  C   UNL     1     -10.354   7.692  68.097  1.00  0.00    -0.250 A  
HETATM   15  C   UNL     1     -12.006   6.190  72.199  1.00  0.00    -0.314 A  
HETATM   16  C   UNL     1     -13.240   5.736  72.673  1.00  0.00     0.855 A  
HETATM   17  C   UNL     1     -10.317   7.023  66.868  1.00  0.00    -0.338 A  
HETATM   18  C   UNL     1     -10.370   5.634  66.829  1.00  0.00    -0.262 A  
HETATM   19  C   UNL     1     -14.410   6.396  72.316  1.00  0.00     0.188 A  
HETATM   20 CL   UNL     1     -10.366   4.818  65.316  1.00  0.00    -0.088 Cl 
HETATM   21  C   UNL     1     -10.436   4.905  68.011  1.00  0.00     0.044 A  
HETATM   22  C   UNL     1     -14.346   7.515  71.492  1.00  0.00    -0.603 A  
HETATM   23  C   UNL     1     -13.113   7.955  70.999  1.00  0.00    -0.005 A  
HETATM   24  C   UNL     1     -10.459   5.575  69.239  1.00  0.00    -0.336 A  
ENDBRANCH   8   9
ENDBRANCH   7   8
ENDBRANCH   6   7
TORSDOF 3
ENDMDL
MODEL      241
REMARK 921   NORMALIZED FREE ENERGY PREDICTED BY IDOCK:   -0.28 KCAL/MOL
REMARK 922        TOTAL FREE ENERGY PREDICTED BY IDOCK:   -1.03 KCAL/MOL
REMARK 923 INTER-LIGAND FREE ENERGY PREDICTED BY IDOCK:   -2.43 KCAL/MOL
REMARK 924 INTRA-LIGAND FREE ENERGY PREDICTED BY IDOCK:    1.40 KCAL/MOL
REMARK 927      BINDING AFFINITY PREDICTED BY RF-SCORE:    0.00 PKD
ROOT
HETATM    1  C   UNL     1      -7.987  19.365  67.417  1.00  0.00    -0.268 C  
HETATM    2  N   UNL     1      -7.275  18.092  67.353  1.00  0.00    -0.197 NA 
HETATM    3  C   UNL     1      -6.496  17.988  66.116  1.00  0.00    -0.248 C  
HETATM    4  C   UNL     1      -5.547  16.854  66.429  1.00  0.00     0.076 C  
HETATM    5  C   UNL     1      -5.157  17.115  67.872  1.00  0.00    -0.121 C  
HETATM    6  C   UNL     1      -6.335  17.894  68.480  1.00  0.00    -0.199 C  
ENDROOT
BRANCH   6   7
HETATM    7  C   UNL     1      -7.031  17.134  69.620  1.00  0.00     0.107 C  
BRANCH   7   8
HETATM    8  C   UNL     1      -7.160  15.623  69.396  1.00  0.00    -0.198 C  
BRANCH   8   9
HETATM    9  O   UNL     1      -8.443  15.309  68.857  1.00  0.00    -0.173 OA 
HETATM   10  C   UNL     1      -8.470  14.521  67.634  1.00  0.00    -0.182 C  
HETATM   11  C   UNL     1      -7.887  13.110  67.903  1.00  0.00    -0.151 A  
HETATM   12  C   UNL     1      -9.966  14.370  67.233  1.00  0.00    -0.247 A  
HETATM   13  C   UNL     1      -7.718  15.308  66.530  1.00  0.00     0.421 C  
HETATM   14  C   UNL     1      -6.839  12.562  67.139  1.00  0.00    -0.058 A  
HETATM   15  C   UNL     1     -10.983  14.433  68.208  1.00  0.00    -0.259 A  
HETATM   16  C   UNL     1     -12.316  14.155  67.892  1.00  0.00    -0.020 A  
HETATM   17  C   UNL     1      -6.380  11.260  67.369  1.00  0.00    -0.076 A  
HETATM   18  C   UNL     1      -6.962  10.481  68.363  1.00  0.00    -0.066 A  
HETATM   19  C   UNL     1     -12.671  13.834  66.586  1.00  0.00     0.018 A  
HETATM   20 CL   UNL     1      -6.420   8.868  68.614  1.00  0.00    -0.053 Cl 
HETATM   21  C   UNL     1      -7.985  11.000  69.147  1.00  0.00    -0.081 A  
HETATM   22  C   UNL     1     -11.695  13.800  65.596  1.00  0.00    -0.360 A  
HETATM   23  C   UNL     1     -10.358  14.055  65.917  1.00  0.00    -0.327 A  
HETATM   24  C   UNL     1      -8.434  12.306  68.925  1.00  0.00     0.234 A  
ENDBRANCH   8   9
ENDBRANCH   7   8
ENDBRANCH   6   7
TORSDOF 3
ENDMDL
MODEL      242
REMARK 921   NORMALIZED FREE ENERGY PREDICTED BY IDOCK:   -0.26 KCAL/MOL
REMARK 922        TOTAL FREE ENERGY PREDICTED BY IDOCK:   -1.00 KCAL/MOL
REMARK 923 INTER-LIGAND FREE ENERGY PREDICTED BY IDOCK:   -0.83 KCAL/MOL
REMARK 924 INTRA-LIGAND FREE ENERGY PREDICTED BY IDOCK:   -0.18 KCAL/MOL
REMARK 927      BINDING AFFINITY PREDICTED BY RF-SCORE:    0.00 PKD
ROOT
HETATM    1  C   UNL     1      -9.151  18.856  68.417  1.00  0.00    -0.343 C  
HETATM    2  N   UNL     1      -8.114  18.089  67.735  1.00  0.00    -0.233 NA 
HETATM    3  C   UNL     1      -8.523  17.749  66.369  1.00  0.00    -0.239 C  
HETATM    4  C   UNL     1      -7.213  17.357  65.728  1.00  0.00     0.044 C  
HETATM    5  C   UNL     1      -6.235  18.374  66.287  1.00  0.00    -0.226 C  
HETATM    6  C   UNL     1      -6.824  18.811  67.638  1.00  0.00    -0.205 C  
ENDROOT
BRANCH   6   7
HETATM    7  C   UNL     1      -5.925  18.447  68.830  1.00  0.00    -0.203 C  
BRANCH   7   8
HETATM    8  C   UNL     1      -6.479  17.339  69.734  1.00  0.00    -0.077 C  
BRANCH   8   9
HETATM    9  O   UNL     1      -6.112  16.057  69.230  1.00  0.00    -0.123 OA 
HETATM   10  C   UNL     1      -6.799  14.905  69.793  1.00  0.00    -0.182 C  
HETATM   11  C   UNL     1      -8.307  14.964  69.438  1.00  0.00    -0.069 A  
HETATM   12  C   UNL     1      -6.182  13.644  69.122  1.00  0.00    -0.098 A  
HETATM   13  C   UNL     1      -6.517  14.867  71.318  1.00  0.00     0.586 C  
HETATM   14  C   UNL     1      -9.321  14.884  70.410  1.00  0.00     0.995 A  
HETATM   15  C   UNL     1      -5.598  13.723  67.840  1.00  0.00    -0.105 A  
HETATM   16  C   UNL     1      -5.171  12.579  67.160  1.00  0.00     0.043 A  
HETATM   17  C   UNL     1     -10.673  14.878  70.048  1.00  0.00    -0.165 A  
HETATM   18  C   UNL     1     -11.036  14.947  68.707  1.00  0.00    -0.253 A  
HETATM   19  C   UNL     1      -5.291  11.328  67.755  1.00  0.00    -0.045 A  
HETATM   20 CL   UNL     1     -12.697  14.898  68.265  1.00  0.00     0.640 Cl 
HETATM   21  C   UNL     1     -10.058  15.046  67.724  1.00  0.00    -0.234 A  
HETATM   22  C   UNL     1      -5.830  11.223  69.033  1.00  0.00    -0.041 A  
HETATM   23  C   UNL     1      -6.278  12.365  69.704  1.00  0.00    -0.130 A  
HETATM   24  C   UNL     1      -8.708  15.066  68.089  1.00  0.00    -0.165 A  
ENDBRANCH   8   9
ENDBRANCH   7   8
ENDBRANCH   6   7
TORSDOF 3
ENDMDL
MODEL      243
REMARK 921   NORMALIZED FREE ENERGY PREDICTED BY IDOCK:    1.37 KCAL/MOL
REMARK 922        TOTAL FREE ENERGY PREDICTED BY IDOCK:    0.92 KCAL/MOL
REMARK 923 INTER-LIGAND FREE ENERGY PREDICTED BY IDOCK:   -1.89 KCAL/MOL
REMARK 924 INTRA-LIGAND FREE ENERGY PREDICTED BY IDOCK:    2.81 KCAL/MOL
REMARK 927      BINDING AFFINITY PREDICTED BY RF-SCORE:    0.00 PKD
ROOT
HETATM    1  C   UNL     1     -10.586  13.771  64.273  1.00  0.00    -0.150 C  
HETATM    2  N   UNL     1     -10.509  12.732  65.295  1.00  0.00    -0.287 NA 
HETATM    3  C   UNL     1     -11.760  11.974  65.370  1.00  0.00    -0.255 C  
HETATM    4  C   UNL     1     -11.344  10.741  66.138  1.00  0.00     0.394 C  
HETATM    5  C   UNL     1      -9.978  10.418  65.562  1.00  0.00    -0.348 C  
HETATM    6  C   UNL     1      -9.420  11.757  65.053  1.00  0.00    -0.062 C  
ENDROOT
BRANCH   6   7
HETATM    7  C   UNL     1      -8.145  12.195  65.791  1.00  0.00     1.004 C  
BRANCH   7   8
HETATM    8  C   UNL     1      -7.196  11.050  66.162  1.00  0.00    -0.054 C  
BRANCH   8   9
HETATM    9  O   UNL     1      -7.313   9.984  65.222  1.00  0.00    -0.125 OA 
HETATM   10  C   UNL     1      -7.051   8.640  65.713  1.00  0.00    -0.079 C  
HETATM   11  C   UNL     1      -8.115   8.247  66.769  1.00  0.00    -0.103 A  
HETATM   12  C   UNL     1      -7.188   7.684  64.492  1.00  0.00    -0.076 A  
HETATM   13  C   UNL     1      -5.594   8.590  66.244  1.00  0.00    -0.039 C  
HETATM   14  C   UNL     1      -7.776   7.788  68.056  1.00  0.00    -0.126 A  
HETATM   15  C   UNL     1      -8.008   8.028  63.397  1.00  0.00    -0.133 A  
HETATM   16  C   UNL     1      -8.261   7.123  62.362  1.00  0.00    -0.071 A  
HETATM   17  C   UNL     1      -8.762   7.383  68.963  1.00  0.00    -0.133 A  
HETATM   18  C   UNL     1     -10.104   7.424  68.599  1.00  0.00    -0.179 A  
HETATM   19  C   UNL     1      -7.678   5.861  62.380  1.00  0.00    -0.076 A  
HETATM   20 CL   UNL     1     -11.308   6.886  69.703  1.00  0.00    -0.280 Cl 
HETATM   21  C   UNL     1     -10.472   7.890  67.342  1.00  0.00    -0.360 A  
HETATM   22  C   UNL     1      -6.836   5.507  63.430  1.00  0.00    -0.037 A  
HETATM   23  C   UNL     1      -6.602   6.403  64.477  1.00  0.00    -0.034 A  
HETATM   24  C   UNL     1      -9.486   8.308  66.442  1.00  0.00    -0.287 A  
ENDBRANCH   8   9
ENDBRANCH   7   8
ENDBRANCH   6   7
TORSDOF 3
ENDMDL
MODEL      244
REMARK 921   NORMALIZED FREE ENERGY PREDICTED BY IDOCK:    4.28 KCAL/MOL
REMARK 922        TOTAL FREE ENERGY PREDICTED BY IDOCK:    4.34 KCAL/MOL
REMARK 923 INTER-LIGAND FREE ENERGY PREDICTED BY IDOCK:    4.83 KCAL/MOL
REMARK 924 INTRA-LIGAND FREE ENERGY PREDICTED BY IDOCK:   -0.50 KCAL/MOL
REMARK 927      BINDING AFFINITY PREDICTED BY RF-SCORE:    0.00 PKD
ROOT
HETATM    1  C   UNL     1     -11.859  11.682  71.996  1.00  0.00     2.522 C  
HETATM    2  N   UNL     1     -12.182  12.979  71.409  1.00  0.00     0.004 NA 
HETATM    3  C   UNL     1     -12.439  13.978  72.450  1.00  0.00    -0.046 C  
HETATM    4  C   UNL     1     -12.332  15.276  71.684  1.00  0.00    -0.432 C  
HETATM    5  C   UNL     1     -11.156  15.035  70.756  1.00  0.00    -0.227 C  
HETATM    6  C   UNL     1     -11.103  13.513  70.547  1.00  0.00     0.973 C  
ENDROOT
BRANCH   6   7
HETATM    7  C   UNL     1     -11.340  13.099  69.086  1.00  0.00    -0.335 C  
BRANCH   7   8
HETATM    8  C   UNL     1     -10.066  12.964  68.245  1.00  0.00    -0.242 C  
BRANCH   8   9
HETATM    9  O   UNL     1      -8.991  12.478  69.046  1.00  0.00     0.240 OA 
HETATM   10  C   UNL     1      -8.488  11.148  68.741  1.00  0.00    -0.134 C  
HETATM   11  C   UNL     1      -7.857  11.134  67.326  1.00  0.00    -0.137 A  
HETATM   12  C   UNL     1      -7.373  10.841  69.783  1.00  0.00    -0.072 A  
HETATM   13  C   UNL     1      -9.650  10.135  68.918  1.00  0.00    -0.186 C  
HETATM   14  C   UNL     1      -8.238  10.213  66.331  1.00  0.00    -0.122 A  
HETATM   15  C   UNL     1      -6.650  11.887  70.392  1.00  0.00     0.593 A  
HETATM   16  C   UNL     1      -5.550  11.631  71.217  1.00  0.00     0.132 A  
HETATM   17  C   UNL     1      -7.603  10.189  65.085  1.00  0.00    -0.141 A  
HETATM   18  C   UNL     1      -6.572  11.081  64.810  1.00  0.00     0.635 A  
HETATM   19  C   UNL     1      -5.163  10.321  71.476  1.00  0.00    -0.068 A  
HETATM   20 CL   UNL     1      -5.768  11.020  63.291  1.00  0.00     0.083 Cl 
HETATM   21  C   UNL     1      -6.186  12.015  65.764  1.00  0.00     2.028 A  
HETATM   22  C   UNL     1      -5.880   9.268  70.918  1.00  0.00    -0.055 A  
HETATM   23  C   UNL     1      -6.966   9.525  70.075  1.00  0.00    -0.081 A  
HETATM   24  C   UNL     1      -6.830  12.047  67.004  1.00  0.00    -0.097 A  
ENDBRANCH   8   9
ENDBRANCH   7   8
ENDBRANCH   6   7
TORSDOF 3
ENDMDL
MODEL      245
REMARK 921   NORMALIZED FREE ENERGY PREDICTED BY IDOCK:   11.51 KCAL/MOL
REMARK 922        TOTAL FREE ENERGY PREDICTED BY IDOCK:   12.84 KCAL/MOL
REMARK 923 INTER-LIGAND FREE ENERGY PREDICTED BY IDOCK:   11.09 KCAL/MOL
REMARK 924 INTRA-LIGAND FREE ENERGY PREDICTED BY IDOCK:    1.74 KCAL/MOL
REMARK 927      BINDING AFFINITY PREDICTED BY RF-SCORE:    0.00 PKD
ROOT
HETATM    1  C   UNL     1     -12.051   7.852  71.798  1.00  0.00    -0.303 C  
HETATM    2  N   UNL     1     -10.913   7.024  71.408  1.00  0.00    -0.237 NA 
HETATM    3  C   UNL     1     -11.280   5.606  71.380  1.00  0.00    -0.097 C  
HETATM    4  C   UNL     1     -10.153   4.997  70.579  1.00  0.00    -0.323 C  
HETATM    5  C   UNL     1      -9.914   6.020  69.484  1.00  0.00    -0.225 C  
HETATM    6  C   UNL     1     -10.378   7.363  70.069  1.00  0.00    -0.219 C  
ENDROOT
BRANCH   6   7
HETATM    7  C   UNL     1      -9.239   8.387  70.200  1.00  0.00    -0.159 C  
BRANCH   7   8
HETATM    8  C   UNL     1      -9.333   9.574  69.235  1.00  0.00    -0.169 C  
BRANCH   8   9
HETATM    9  O   UNL     1      -8.347   9.462  68.211  1.00  0.00    -0.117 OA 
HETATM   10  C   UNL     1      -8.715   8.715  67.019  1.00  0.00    -0.127 C  
HETATM   11  C   UNL     1      -9.862   9.443  66.273  1.00  0.00    -0.351 A  
HETATM   12  C   UNL     1      -7.460   8.694  66.098  1.00  0.00    -0.086 A  
HETATM   13  C   UNL     1      -9.066   7.264  67.442  1.00  0.00    -0.127 C  
HETATM   14  C   UNL     1     -11.068   8.805  65.924  1.00  0.00     2.959 A  
HETATM   15  C   UNL     1      -6.494   9.719  66.176  1.00  0.00    -0.076 A  
HETATM   16  C   UNL     1      -5.439   9.799  65.261  1.00  0.00    -0.053 A  
HETATM   17  C   UNL     1     -12.056   9.476  65.195  1.00  0.00     9.772 A  
HETATM   18  C   UNL     1     -11.857  10.794  64.798  1.00  0.00     1.934 A  
HETATM   19  C   UNL     1      -5.307   8.840  64.263  1.00  0.00    -0.055 A  
HETATM   20 CL   UNL     1     -13.058  11.600  63.868  1.00  0.00    -0.116 Cl 
HETATM   21  C   UNL     1     -10.685  11.457  65.144  1.00  0.00    -0.332 A  
HETATM   22  C   UNL     1      -6.225   7.797  64.185  1.00  0.00    -0.056 A  
HETATM   23  C   UNL     1      -7.293   7.731  65.084  1.00  0.00    -0.071 A  
HETATM   24  C   UNL     1      -9.704  10.790  65.884  1.00  0.00    -0.272 A  
ENDBRANCH   8   9
ENDBRANCH   7   8
ENDBRANCH   6   7
TORSDOF 3
ENDMDL
MODEL      246
REMARK 921   NORMALIZED FREE ENERGY PREDICTED BY IDOCK:   12.93 KCAL/MOL
REMARK 922        TOTAL FREE ENERGY PREDICTED BY IDOCK:   14.50 KCAL/MOL
REMARK 923 INTER-LIGAND FREE ENERGY PREDICTED BY IDOCK:   12.00 KCAL/MOL
REMARK 924 INTRA-LIGAND FREE ENERGY PREDICTED BY IDOCK:    2.50 KCAL/MOL
REMARK 927      BINDING AFFINITY PREDICTED BY RF-SCORE:    0.00 PKD
ROOT
HETATM    1  C   UNL     1      -8.992  12.786  71.160  1.00  0.00    12.707 C  
HETATM    2  N   UNL     1      -8.653  13.293  69.834  1.00  0.00     2.218 NA 
HETATM    3  C   UNL     1      -7.313  13.886  69.825  1.00  0.00     0.413 C  
HETATM    4  C   UNL     1      -7.000  13.953  68.348  1.00  0.00    -0.102 C  
HETATM    5  C   UNL     1      -7.550  12.642  67.817  1.00  0.00    -0.141 C  
HETATM    6  C   UNL     1      -8.674  12.245  68.787  1.00  0.00     0.140 C  
ENDROOT
BRANCH   6   7
HETATM    7  C   UNL     1     -10.056  12.199  68.115  1.00  0.00    -0.206 C  
BRANCH   7   8
HETATM    8  C   UNL     1     -10.137  12.924  66.767  1.00  0.00    -0.238 C  
BRANCH   8   9
HETATM    9  O   UNL     1      -9.543  14.217  66.863  1.00  0.00    -0.242 OA 
HETATM   10  C   UNL     1     -10.446  15.347  67.015  1.00  0.00    -0.295 C  
HETATM   11  C   UNL     1     -11.198  15.245  68.367  1.00  0.00    -0.314 A  
HETATM   12  C   UNL     1      -9.560  16.627  67.037  1.00  0.00    -0.250 A  
HETATM   13  C   UNL     1     -11.384  15.393  65.780  1.00  0.00    -0.115 C  
HETATM   14  C   UNL     1     -12.601  15.294  68.463  1.00  0.00     0.634 A  
HETATM   15  C   UNL     1      -8.219  16.567  67.468  1.00  0.00    -0.170 A  
HETATM   16  C   UNL     1      -7.452  17.724  67.635  1.00  0.00    -0.207 A  
HETATM   17  C   UNL     1     -13.244  15.261  69.705  1.00  0.00     0.529 A  
HETATM   18  C   UNL     1     -12.496  15.183  70.875  1.00  0.00    -0.365 A  
HETATM   19  C   UNL     1      -7.999  18.970  67.349  1.00  0.00    -0.272 A  
HETATM   20 CL   UNL     1     -13.289  15.183  72.401  1.00  0.00    -0.467 Cl 
HETATM   21  C   UNL     1     -11.109  15.114  70.813  1.00  0.00    -0.293 A  
HETATM   22  C   UNL     1      -9.308  19.058  66.887  1.00  0.00    -0.346 A  
HETATM   23  C   UNL     1     -10.082  17.902  66.743  1.00  0.00    -0.349 A  
HETATM   24  C   UNL     1     -10.469  15.133  69.570  1.00  0.00    -0.268 A  
ENDBRANCH   8   9
ENDBRANCH   7   8
ENDBRANCH   6   7
TORSDOF 3
ENDMDL
MODEL      247
REMARK 921   NORMALIZED FREE ENERGY PREDICTED BY IDOCK:   13.58 KCAL/MOL
REMARK 922        TOTAL FREE ENERGY PREDICTED BY IDOCK:   15.27 KCAL/MOL
REMARK 923 INTER-LIGAND FREE ENERGY PREDICTED BY IDOCK:   14.44 KCAL/MOL
REMARK 924 INTRA-LIGAND FREE ENERGY PREDICTED BY IDOCK:    0.83 KCAL/MOL
REMARK 927      BINDING AFFINITY PREDICTED BY RF-SCORE:    0.00 PKD
ROOT
HETATM    1  C   UNL     1     -13.232   6.857  70.737  1.00  0.00     0.340 C  
HETATM    2  N   UNL     1     -12.089   6.799  69.831  1.00  0.00    -0.069 NA 
HETATM    3  C   UNL     1     -12.076   5.540  69.081  1.00  0.00     4.498 C  
HETATM    4  C   UNL     1     -11.119   5.847  67.953  1.00  0.00    -0.097 C  
HETATM    5  C   UNL     1     -11.480   7.271  67.570  1.00  0.00     0.576 C  
HETATM    6  C   UNL     1     -12.076   7.899  68.839  1.00  0.00     2.579 C  
ENDROOT
BRANCH   6   7
HETATM    7  C   UNL     1     -11.246   9.079  69.371  1.00  0.00     0.102 C  
BRANCH   7   8
HETATM    8  C   UNL     1     -11.903  10.453  69.193  1.00  0.00    -0.063 C  
BRANCH   8   9
HETATM    9  O   UNL     1     -11.000  11.356  68.559  1.00  0.00    -0.191 OA 
HETATM   10  C   UNL     1      -9.776  11.679  69.275  1.00  0.00     0.359 C  
HETATM   11  C   UNL     1      -8.900  10.409  69.422  1.00  0.00    -0.138 A  
HETATM   12  C   UNL     1      -9.006  12.713  68.403  1.00  0.00    -0.125 A  
HETATM   13  C   UNL     1     -10.161  12.333  70.628  1.00  0.00     5.104 C  
HETATM   14  C   UNL     1      -8.416   9.958  70.665  1.00  0.00     0.328 A  
HETATM   15  C   UNL     1      -9.191  12.755  67.005  1.00  0.00    -0.221 A  
HETATM   16  C   UNL     1      -8.404  13.573  66.189  1.00  0.00     1.143 A  
HETATM   17  C   UNL     1      -7.576   8.842  70.753  1.00  0.00    -0.110 A  
HETATM   18  C   UNL     1      -7.199   8.160  69.601  1.00  0.00    -0.065 A  
HETATM   19  C   UNL     1      -7.431  14.391  66.752  1.00  0.00     0.782 A  
HETATM   20 CL   UNL     1      -6.134   6.814  69.711  1.00  0.00    -0.026 Cl 
HETATM   21  C   UNL     1      -7.676   8.569  68.361  1.00  0.00    -0.101 A  
HETATM   22  C   UNL     1      -7.251  14.398  68.131  1.00  0.00    -0.129 A  
HETATM   23  C   UNL     1      -8.022  13.562  68.946  1.00  0.00     0.087 A  
HETATM   24  C   UNL     1      -8.526   9.676  68.276  1.00  0.00    -0.118 A  
ENDBRANCH   8   9
ENDBRANCH   7   8
ENDBRANCH   6   7
TORSDOF 3
ENDMDL
MODEL      248
REMARK 921   NORMALIZED FREE ENERGY PREDICTED BY IDOCK:   13.78 KCAL/MOL
REMARK 922        TOTAL FREE ENERGY PREDICTED BY IDOCK:   15.50 KCAL/MOL
REMARK 923 INTER-LIGAND FREE ENERGY PREDICTED BY IDOCK:   13.19 KCAL/MOL
REMARK 924 INTRA-LIGAND FREE ENERGY PREDICTED BY IDOCK:    2.31 KCAL/MOL
REMARK 927      BINDING AFFINITY PREDICTED BY RF-SCORE:    0.00 PKD
ROOT
HETATM    1  C   UNL     1      -8.783  15.340  66.557  1.00  0.00    -0.279 C  
HETATM    2  N   UNL     1      -8.790  16.799  66.619  1.00  0.00    -0.236 NA 
HETATM    3  C   UNL     1      -9.216  17.378  65.342  1.00  0.00     1.162 C  
HETATM    4  C   UNL     1      -9.556  18.798  65.730  1.00  0.00     0.283 C  
HETATM    5  C   UNL     1     -10.250  18.636  67.070  1.00  0.00    -0.418 C  
HETATM    6  C   UNL     1      -9.695  17.332  67.665  1.00  0.00    -0.272 C  
ENDROOT
BRANCH   6   7
HETATM    7  C   UNL     1      -8.917  17.553  68.972  1.00  0.00    -0.039 C  
BRANCH   7   8
HETATM    8  C   UNL     1      -7.392  17.556  68.816  1.00  0.00    -0.260 C  
BRANCH   8   9
HETATM    9  O   UNL     1      -6.845  16.316  69.259  1.00  0.00    -0.189 OA 
HETATM   10  C   UNL     1      -7.318  15.805  70.536  1.00  0.00     1.238 C  
HETATM   11  C   UNL     1      -8.828  15.468  70.444  1.00  0.00     1.150 A  
HETATM   12  C   UNL     1      -6.534  14.488  70.810  1.00  0.00     0.076 A  
HETATM   13  C   UNL     1      -6.976  16.845  71.635  1.00  0.00     5.642 C  
HETATM   14  C   UNL     1      -9.779  15.984  71.345  1.00  0.00     3.299 A  
HETATM   15  C   UNL     1      -6.019  13.722  69.743  1.00  0.00    -0.122 A  
HETATM   16  C   UNL     1      -5.442  12.467  69.958  1.00  0.00    -0.115 A  
HETATM   17  C   UNL     1     -11.126  15.609  71.269  1.00  0.00    -0.315 A  
HETATM   18  C   UNL     1     -11.546  14.709  70.296  1.00  0.00    -0.280 A  
HETATM   19  C   UNL     1      -5.338  11.958  71.247  1.00  0.00    -0.025 A  
HETATM   20 CL   UNL     1     -13.193  14.221  70.233  1.00  0.00     0.022 Cl 
HETATM   21  C   UNL     1     -10.634  14.197  69.379  1.00  0.00    -0.061 A  
HETATM   22  C   UNL     1      -5.804  12.707  72.323  1.00  0.00     1.469 A  
HETATM   23  C   UNL     1      -6.403  13.952  72.106  1.00  0.00     1.276 A  
HETATM   24  C   UNL     1      -9.292  14.583  69.448  1.00  0.00     0.183 A  
ENDBRANCH   8   9
ENDBRANCH   7   8
ENDBRANCH   6   7
TORSDOF 3
ENDMDL
MODEL      249
REMARK 921   NORMALIZED FREE ENERGY PREDICTED BY IDOCK:   15.86 KCAL/MOL
REMARK 922        TOTAL FREE ENERGY PREDICTED BY IDOCK:   17.95 KCAL/MOL
REMARK 923 INTER-LIGAND FREE ENERGY PREDICTED BY IDOCK:    3.17 KCAL/MOL
REMARK 924 INTRA-LIGAND FREE ENERGY PREDICTED BY IDOCK:   14.78 KCAL/MOL
REMARK 927      BINDING AFFINITY PREDICTED BY RF-SCORE:    0.00 PKD
ROOT
HETATM    1  C   UNL     1      -9.397  13.401  67.692  1.00  0.00    -0.217 C  
HETATM    2  N   UNL     1      -9.701  14.345  66.622  1.00  0.00    -0.267 NA 
HETATM    3  C   UNL     1     -10.024  13.642  65.377  1.00  0.00    -0.213 C  
HETATM    4  C   UNL     1     -10.694  14.723  64.561  1.00  0.00    -0.124 C  
HETATM    5  C   UNL     1     -11.547  15.451  65.583  1.00  0.00     0.049 C  
HETATM    6  C   UNL     1     -10.847  15.229  66.934  1.00  0.00    -0.317 C  
ENDROOT
BRANCH   6   7
HETATM    7  C   UNL     1     -10.348  16.535  67.572  1.00  0.00    -0.294 C  
BRANCH   7   8
HETATM    8  C   UNL     1      -8.895  16.895  67.237  1.00  0.00    -0.195 C  
BRANCH   8   9
HETATM    9  O   UNL     1      -7.998  16.176  68.081  1.00  0.00    -0.143 OA 
HETATM   10  C   UNL     1      -8.377  16.036  69.478  1.00  0.00    -0.017 C  
HETATM   11  C   UNL     1      -9.668  15.185  69.593  1.00  0.00    -0.145 A  
HETATM   12  C   UNL     1      -7.217  15.272  70.181  1.00  0.00     0.120 A  
HETATM   13  C   UNL     1      -8.506  17.454  70.094  1.00  0.00     2.580 C  
HETATM   14  C   UNL     1     -10.811  15.628  70.285  1.00  0.00    -0.366 A  
HETATM   15  C   UNL     1      -6.382  14.401  69.451  1.00  0.00    -0.122 A  
HETATM   16  C   UNL     1      -5.432  13.596  70.087  1.00  0.00    -0.112 A  
HETATM   17  C   UNL     1     -11.937  14.808  70.421  1.00  0.00    -0.368 A  
HETATM   18  C   UNL     1     -11.939  13.529  69.874  1.00  0.00    -0.348 A  
HETATM   19  C   UNL     1      -5.272  13.663  71.466  1.00  0.00    -0.190 A  
HETATM   20 CL   UNL     1     -13.309  12.511  70.079  1.00  0.00     1.357 Cl 
HETATM   21  C   UNL     1     -10.832  13.071  69.168  1.00  0.00    -0.133 A  
HETATM   22  C   UNL     1      -6.057  14.540  72.209  1.00  0.00     0.464 A  
HETATM   23  C   UNL     1      -7.023  15.327  71.576  1.00  0.00     2.081 A  
HETATM   24  C   UNL     1      -9.713  13.896  69.021  1.00  0.00     0.095 A  
ENDBRANCH   8   9
ENDBRANCH   7   8
ENDBRANCH   6   7
TORSDOF 3
ENDMDL
MODEL      250
REMARK 921   NORMALIZED FREE ENERGY PREDICTED BY IDOCK:   35.64 KCAL/MOL
REMARK 922        TOTAL FREE ENERGY PREDICTED BY IDOCK:   41.19 KCAL/MOL
REMARK 923 INTER-LIGAND FREE ENERGY PREDICTED BY IDOCK:   41.93 KCAL/MOL
REMARK 924 INTRA-LIGAND FREE ENERGY PREDICTED BY IDOCK:   -0.73 KCAL/MOL
REMARK 927      BINDING AFFINITY PREDICTED BY RF-SCORE:    0.00 PKD
ROOT
HETATM    1  C   UNL     1     -13.333   8.931  68.198  1.00  0.00    14.176 C  
HETATM    2  N   UNL     1     -13.222   8.532  69.598  1.00  0.00     3.412 NA 
HETATM    3  C   UNL     1     -13.281   7.074  69.735  1.00  0.00     3.446 C  
HETATM    4  C   UNL     1     -12.742   6.859  71.130  1.00  0.00    -0.331 C  
HETATM    5  C   UNL     1     -11.602   7.857  71.219  1.00  0.00    -0.304 C  
HETATM    6  C   UNL     1     -11.962   8.980  70.234  1.00  0.00     0.193 C  
ENDROOT
BRANCH   6   7
HETATM    7  C   UNL     1     -12.172  10.338  70.922  1.00  0.00    -0.465 C  
BRANCH   7   8
HETATM    8  C   UNL     1     -11.242  11.454  70.432  1.00  0.00     0.293 C  
BRANCH   8   9
HETATM    9  O   UNL     1     -10.420  10.983  69.366  1.00  0.00    -0.214 OA 
HETATM   10  C   UNL     1      -9.247  11.777  69.038  1.00  0.00     0.238 C  
HETATM   11  C   UNL     1      -8.254  11.769  70.228  1.00  0.00     3.441 A  
HETATM   12  C   UNL     1      -8.565  11.085  67.821  1.00  0.00    -0.130 A  
HETATM   13  C   UNL     1      -9.717  13.196  68.625  1.00  0.00    -0.062 C  
HETATM   14  C   UNL     1      -7.751  12.950  70.807  1.00  0.00     5.241 A  
HETATM   15  C   UNL     1      -8.727   9.702  67.595  1.00  0.00    -0.126 A  
HETATM   16  C   UNL     1      -8.009   9.036  66.598  1.00  0.00    -0.100 A  
HETATM   17  C   UNL     1      -6.809  12.906  71.840  1.00  0.00     5.115 A  
HETATM   18  C   UNL     1      -6.347  11.681  72.311  1.00  0.00     3.851 A  
HETATM   19  C   UNL     1      -7.130   9.740  65.782  1.00  0.00    -0.104 A  
HETATM   20 CL   UNL     1      -5.159  11.633  73.553  1.00  0.00     0.374 Cl 
HETATM   21  C   UNL     1      -6.838  10.497  71.773  1.00  0.00     2.364 A  
HETATM   22  C   UNL     1      -6.977  11.112  65.958  1.00  0.00     0.057 A  
HETATM   23  C   UNL     1      -7.678  11.774  66.971  1.00  0.00    -0.158 A  
HETATM   24  C   UNL     1      -7.790  10.543  70.750  1.00  0.00     1.720 A  
ENDBRANCH   8   9
ENDBRANCH   7   8
ENDBRANCH   6   7
TORSDOF 3
ENDMDL
MODEL      251
REMARK 921   NORMALIZED FREE ENERGY PREDICTED BY IDOCK:   38.02 KCAL/MOL
REMARK 922        TOTAL FREE ENERGY PREDICTED BY IDOCK:   43.99 KCAL/MOL
REMARK 923 INTER-LIGAND FREE ENERGY PREDICTED BY IDOCK:   44.44 KCAL/MOL
REMARK 924 INTRA-LIGAND FREE ENERGY PREDICTED BY IDOCK:   -0.44 KCAL/MOL
REMARK 927      BINDING AFFINITY PREDICTED BY RF-SCORE:    0.00 PKD
ROOT
HETATM    1  C   UNL     1      -8.817  13.243  72.838  1.00  0.00    17.376 C  
HETATM    2  N   UNL     1      -9.514  14.328  72.154  1.00  0.00     6.198 NA 
HETATM    3  C   UNL     1      -9.875  15.394  73.092  1.00  0.00     6.860 C  
HETATM    4  C   UNL     1     -10.179  16.549  72.166  1.00  0.00     4.682 C  
HETATM    5  C   UNL     1      -9.102  16.434  71.103  1.00  0.00     4.946 C  
HETATM    6  C   UNL     1      -8.709  14.949  71.076  1.00  0.00     2.959 C  
ENDROOT
BRANCH   6   7
HETATM    7  C   UNL     1      -9.016  14.271  69.731  1.00  0.00     0.912 C  
BRANCH   7   8
HETATM    8  C   UNL     1      -8.166  14.768  68.556  1.00  0.00    -0.153 C  
BRANCH   8   9
HETATM    9  O   UNL     1      -8.532  16.102  68.208  1.00  0.00    -0.171 OA 
HETATM   10  C   UNL     1      -8.692  16.394  66.793  1.00  0.00    -0.226 C  
HETATM   11  C   UNL     1      -9.880  15.582  66.217  1.00  0.00    -0.317 A  
HETATM   12  C   UNL     1      -9.030  17.910  66.685  1.00  0.00    -0.282 A  
HETATM   13  C   UNL     1      -7.342  16.117  66.081  1.00  0.00     0.710 C  
HETATM   14  C   UNL     1      -9.757  14.752  65.087  1.00  0.00    -0.013 A  
HETATM   15  C   UNL     1      -9.657  18.585  67.753  1.00  0.00    -0.311 A  
HETATM   16  C   UNL     1     -10.101  19.905  67.623  1.00  0.00    -0.564 A  
HETATM   17  C   UNL     1     -10.865  14.082  64.557  1.00  0.00    -0.362 A  
HETATM   18  C   UNL     1     -12.117  14.232  65.143  1.00  0.00    -0.410 A  
HETATM   19  C   UNL     1      -9.905  20.592  66.431  1.00  0.00    -0.122 A  
HETATM   20 CL   UNL     1     -13.483  13.439  64.464  1.00  0.00     0.949 Cl 
HETATM   21  C   UNL     1     -12.268  15.030  66.272  1.00  0.00     0.250 A  
HETATM   22  C   UNL     1      -9.257  19.964  65.372  1.00  0.00     0.641 A  
HETATM   23  C   UNL     1      -8.834  18.636  65.494  1.00  0.00     1.053 A  
HETATM   24  C   UNL     1     -11.157  15.689  66.808  1.00  0.00    -0.169 A  
ENDBRANCH   8   9
ENDBRANCH   7   8
ENDBRANCH   6   7
TORSDOF 3
ENDMDL
MODEL      252
REMARK 921   NORMALIZED FREE ENERGY PREDICTED BY IDOCK:   51.50 KCAL/MOL
REMARK 922        TOTAL FREE ENERGY PREDICTED BY IDOCK:   59.84 KCAL/MOL
REMARK 923 INTER-LIGAND FREE ENERGY PREDICTED BY IDOCK:    2.97 KCAL/MOL
REMARK 924 INTRA-LIGAND FREE ENERGY PREDICTED BY IDOCK:   56.87 KCAL/MOL
REMARK 927      BINDING AFFINITY PREDICTED BY RF-SCORE:    0.00 PKD
ROOT
HETATM    1  C   UNL     1      -9.783  10.068  66.181  1.00  0.00    -0.227 C  
HETATM    2  N   UNL     1      -9.284   8.783  66.661  1.00  0.00    -0.165 NA 
HETATM    3  C   UNL     1     -10.182   7.692  66.272  1.00  0.00     0.225 C  
HETATM    4  C   UNL     1      -9.314   6.473  66.474  1.00  0.00    -0.188 C  
HETATM    5  C   UNL     1      -7.958   6.923  65.962  1.00  0.00    -0.109 C  
HETATM    6  C   UNL     1      -7.939   8.449  66.138  1.00  0.00    -0.100 C  
ENDROOT
BRANCH   6   7
HETATM    7  C   UNL     1      -6.858   8.926  67.121  1.00  0.00    -0.074 C  
BRANCH   7   8
HETATM    8  C   UNL     1      -6.967  10.401  67.525  1.00  0.00    -0.084 C  
BRANCH   8   9
HETATM    9  O   UNL     1      -8.125  10.992  66.939  1.00  0.00    -0.130 OA 
HETATM   10  C   UNL     1      -8.141  11.118  65.490  1.00  0.00     0.145 C  
HETATM   11  C   UNL     1      -8.141   9.712  64.838  1.00  0.00    -0.133 A  
HETATM   12  C   UNL     1      -9.472  11.835  65.119  1.00  0.00    -0.109 A  
HETATM   13  C   UNL     1      -6.942  12.005  65.064  1.00  0.00     3.757 C  
HETATM   14  C   UNL     1      -7.195   9.322  63.871  1.00  0.00    -0.098 A  
HETATM   15  C   UNL     1     -10.599  11.743  65.961  1.00  0.00    -0.302 A  
HETATM   16  C   UNL     1     -11.842  12.254  65.577  1.00  0.00    -0.420 A  
HETATM   17  C   UNL     1      -7.262   8.066  63.257  1.00  0.00    -0.091 A  
HETATM   18  C   UNL     1      -8.278   7.179  63.595  1.00  0.00     0.095 A  
HETATM   19  C   UNL     1     -11.983  12.897  64.352  1.00  0.00    -0.456 A  
HETATM   20 CL   UNL     1      -8.379   5.653  62.809  1.00  0.00    -0.105 Cl 
HETATM   21  C   UNL     1      -9.216   7.526  64.561  1.00  0.00     1.403 A  
HETATM   22  C   UNL     1     -10.880  13.035  63.516  1.00  0.00    -0.029 A  
HETATM   23  C   UNL     1      -9.642  12.503  63.890  1.00  0.00     0.271 A  
HETATM   24  C   UNL     1      -9.139   8.777  65.183  1.00  0.00    -0.104 A  
ENDBRANCH   8   9
ENDBRANCH   7   8
ENDBRANCH   6   7
TORSDOF 3
ENDMDL
MODEL      253
REMARK 921   NORMALIZED FREE ENERGY PREDICTED BY IDOCK:   51.73 KCAL/MOL
REMARK 922        TOTAL FREE ENERGY PREDICTED BY IDOCK:   60.11 KCAL/MOL
REMARK 923 INTER-LIGAND FREE ENERGY PREDICTED BY IDOCK:   33.26 KCAL/MOL
REMARK 924 INTRA-LIGAND FREE ENERGY PREDICTED BY IDOCK:   26.85 KCAL/MOL
REMARK 927      BINDING AFFINITY PREDICTED BY RF-SCORE:    0.00 PKD
ROOT
HETATM    1  C   UNL     1     -11.213   9.310  66.576  1.00  0.00     1.252 C  
HETATM    2  N   UNL     1     -12.260  10.254  66.197  1.00  0.00     3.794 NA 
HETATM    3  C   UNL     1     -13.179  10.496  67.312  1.00  0.00    10.929 C  
HETATM    4  C   UNL     1     -13.888  11.757  66.878  1.00  0.00    12.587 C  
HETATM    5  C   UNL     1     -12.776  12.586  66.262  1.00  0.00     1.025 C  
HETATM    6  C   UNL     1     -11.730  11.571  65.774  1.00  0.00     0.261 C  
ENDROOT
BRANCH   6   7
HETATM    7  C   UNL     1     -11.535  11.597  64.250  1.00  0.00    -0.332 C  
BRANCH   7   8
HETATM    8  C   UNL     1     -10.658  12.745  63.736  1.00  0.00    -0.336 C  
BRANCH   8   9
HETATM    9  O   UNL     1      -9.424  12.783  64.449  1.00  0.00     0.210 OA 
HETATM   10  C   UNL     1      -9.373  13.621  65.637  1.00  0.00     0.262 C  
HETATM   11  C   UNL     1     -10.341  13.069  66.714  1.00  0.00    -0.256 A  
HETATM   12  C   UNL     1      -7.919  13.531  66.186  1.00  0.00     1.851 A  
HETATM   13  C   UNL     1      -9.674  15.083  65.216  1.00  0.00    -0.144 C  
HETATM   14  C   UNL     1     -11.333  13.861  67.323  1.00  0.00    -0.344 A  
HETATM   15  C   UNL     1      -7.122  12.396  65.930  1.00  0.00     2.391 A  
HETATM   16  C   UNL     1      -5.872  12.230  66.534  1.00  0.00     0.706 A  
HETATM   17  C   UNL     1     -12.149  13.347  68.337  1.00  0.00    -0.270 A  
HETATM   18  C   UNL     1     -11.986  12.033  68.764  1.00  0.00    -0.244 A  
HETATM   19  C   UNL     1      -5.374  13.209  67.386  1.00  0.00     0.092 A  
HETATM   20 CL   UNL     1     -12.964  11.419  70.038  1.00  0.00     0.143 Cl 
HETATM   21  C   UNL     1     -11.028  11.220  68.169  1.00  0.00    -0.284 A  
HETATM   22  C   UNL     1      -6.122  14.357  67.628  1.00  0.00    -0.070 A  
HETATM   23  C   UNL     1      -7.382  14.512  67.043  1.00  0.00     0.275 A  
HETATM   24  C   UNL     1     -10.223  11.731  67.147  1.00  0.00    -0.236 A  
ENDBRANCH   8   9
ENDBRANCH   7   8
ENDBRANCH   6   7
TORSDOF 3
ENDMDL
