MODEL        1
REMARK 921   NORMALIZED FREE ENERGY PREDICTED BY IDOCK:   -6.65 KCAL/MOL
REMARK 922        TOTAL FREE ENERGY PREDICTED BY IDOCK:  -11.94 KCAL/MOL
REMARK 923 INTER-LIGAND FREE ENERGY PREDICTED BY IDOCK:  -10.53 KCAL/MOL
REMARK 924 INTRA-LIGAND FREE ENERGY PREDICTED BY IDOCK:   -1.40 KCAL/MOL
REMARK 927      BINDING AFFINITY PREDICTED BY RF-SCORE:    0.00 PKD
ROOT
HETATM    1  C   UNL     1     -14.354   7.450  71.678  1.00  0.00    -0.614 C  
HETATM    2  C   UNL     1     -12.898   7.245  71.295  1.00  0.00    -0.391 C  
ENDROOT
BRANCH   2   3
HETATM    3  C   UNL     1     -11.974   8.066  72.183  1.00  0.00    -0.399 C  
BRANCH   3   4
HETATM    4  C   UNL     1     -11.825   9.478  71.672  1.00  0.00    -0.397 C  
HETATM    5  O   UNL     1     -12.688  10.343  71.716  1.00  0.00    -0.416 OA 
BRANCH   4   6
HETATM    6  O   UNL     1     -10.562   9.647  71.216  1.00  0.00    -0.320 OA 
BRANCH   6   7
HETATM    7  C   UNL     1     -10.453   9.958  69.834  1.00  0.00    -0.269 C  
BRANCH   7   8
HETATM    8  O   UNL     1     -10.390  11.341  69.486  1.00  0.00    -0.088 OA 
BRANCH   8   9
HETATM    9  C   UNL     1     -11.472  11.880  68.892  1.00  0.00    -0.301 C  
HETATM   10  O   UNL     1     -12.402  11.237  68.434  1.00  0.00    -0.545 OA 
BRANCH   9  11
HETATM   11  C   UNL     1     -11.294  13.358  68.707  1.00  0.00    -0.332 C  
HETATM   12  C   UNL     1     -11.680  14.297  69.611  1.00  0.00    -0.308 C  
HETATM   13  N   UNL     1     -11.317  15.618  69.418  1.00  0.00    -0.304 NA 
HETATM   14  C   UNL     1     -12.488  14.111  70.879  1.00  0.00    -0.436 C  
HETATM   15  C   UNL     1     -10.722  16.134  68.287  1.00  0.00    -0.307 C  
HETATM   16  C   UNL     1     -10.319  15.305  67.297  1.00  0.00    -0.264 C  
HETATM   17  C   UNL     1     -10.583  17.637  68.272  1.00  0.00    -0.342 C  
HETATM   18  C   UNL     1     -10.471  13.776  67.449  1.00  0.00    -0.256 C  
BRANCH  16  19
HETATM   19  C   UNL     1      -9.780  15.900  66.042  1.00  0.00    -0.343 C  
HETATM   20  O   UNL     1     -10.472  16.370  65.152  1.00  0.00    -0.622 OA 
BRANCH  19  21
HETATM   21  O   UNL     1      -8.427  15.823  65.995  1.00  0.00    -0.227 OA 
HETATM   22  C   UNL     1      -7.771  17.042  66.359  1.00  0.00    -0.315 C  
ENDBRANCH  19  21
ENDBRANCH  16  19
BRANCH  18  23
HETATM   23  C   UNL     1     -10.994  13.133  66.156  1.00  0.00    -0.299 A  
HETATM   24  C   UNL     1     -12.258  13.521  65.675  1.00  0.00    -0.500 A  
HETATM   25  C   UNL     1     -12.771  12.988  64.497  1.00  0.00    -0.318 A  
HETATM   26  C   UNL     1     -12.024  12.059  63.765  1.00  0.00    -0.588 A  
HETATM   27  C   UNL     1     -10.771  11.648  64.230  1.00  0.00    -0.341 A  
HETATM   28 CL   UNL     1      -9.915  10.495  63.259  1.00  0.00    -0.310 Cl 
HETATM   29  C   UNL     1     -10.248  12.175  65.421  1.00  0.00    -0.270 A  
HETATM   30 CL   UNL     1      -8.681  11.649  65.970  1.00  0.00    -0.115 Cl 
ENDBRANCH  18  23
ENDBRANCH   9  11
ENDBRANCH   8   9
ENDBRANCH   7   8
ENDBRANCH   6   7
ENDBRANCH   4   6
ENDBRANCH   3   4
ENDBRANCH   2   3
TORSDOF 10
ENDMDL
MODEL        2
REMARK 921   NORMALIZED FREE ENERGY PREDICTED BY IDOCK:   -6.36 KCAL/MOL
REMARK 922        TOTAL FREE ENERGY PREDICTED BY IDOCK:  -11.48 KCAL/MOL
REMARK 923 INTER-LIGAND FREE ENERGY PREDICTED BY IDOCK:   -9.90 KCAL/MOL
REMARK 924 INTRA-LIGAND FREE ENERGY PREDICTED BY IDOCK:   -1.59 KCAL/MOL
REMARK 927      BINDING AFFINITY PREDICTED BY RF-SCORE:    0.00 PKD
ROOT
HETATM    1  C   UNL     1     -10.565   7.008  73.584  1.00  0.00    -0.383 C  
HETATM    2  C   UNL     1     -10.902   7.999  72.484  1.00  0.00    -0.415 C  
ENDROOT
BRANCH   2   3
HETATM    3  C   UNL     1     -12.179   7.602  71.756  1.00  0.00    -0.341 C  
BRANCH   3   4
HETATM    4  C   UNL     1     -13.152   8.752  71.676  1.00  0.00    -0.352 C  
HETATM    5  O   UNL     1     -14.349   8.655  71.446  1.00  0.00    -0.386 OA 
BRANCH   4   6
HETATM    6  O   UNL     1     -12.495   9.902  71.960  1.00  0.00    -0.360 OA 
BRANCH   6   7
HETATM    7  C   UNL     1     -12.582  10.911  70.965  1.00  0.00    -0.417 C  
BRANCH   7   8
HETATM    8  O   UNL     1     -12.292  10.523  69.623  1.00  0.00    -0.225 OA 
BRANCH   8   9
HETATM    9  C   UNL     1     -11.003  10.546  69.237  1.00  0.00    -0.244 C  
HETATM   10  O   UNL     1     -10.051  10.450  69.994  1.00  0.00    -0.193 OA 
BRANCH   9  11
HETATM   11  C   UNL     1     -10.891  10.888  67.780  1.00  0.00    -0.309 C  
HETATM   12  C   UNL     1     -10.357  10.068  66.837  1.00  0.00    -0.234 C  
HETATM   13  N   UNL     1     -10.458  10.410  65.501  1.00  0.00    -0.183 NA 
HETATM   14  C   UNL     1      -9.632   8.752  67.032  1.00  0.00    -0.236 C  
HETATM   15  C   UNL     1     -10.914  11.613  65.009  1.00  0.00    -0.273 C  
HETATM   16  C   UNL     1     -11.442  12.531  65.850  1.00  0.00    -0.417 C  
HETATM   17  C   UNL     1     -10.765  11.787  63.516  1.00  0.00    -0.501 C  
HETATM   18  C   UNL     1     -11.588  12.218  67.355  1.00  0.00    -0.425 C  
BRANCH  16  19
HETATM   19  C   UNL     1     -11.826  13.863  65.305  1.00  0.00    -0.357 C  
HETATM   20  O   UNL     1     -12.977  14.262  65.208  1.00  0.00    -0.679 OA 
BRANCH  19  21
HETATM   21  O   UNL     1     -10.740  14.567  64.897  1.00  0.00    -0.396 OA 
HETATM   22  C   UNL     1     -10.820  15.964  65.193  1.00  0.00    -0.421 C  
ENDBRANCH  19  21
ENDBRANCH  16  19
BRANCH  18  23
HETATM   23  C   UNL     1     -11.164  13.414  68.220  1.00  0.00    -0.310 A  
HETATM   24  C   UNL     1     -12.147  14.079  68.977  1.00  0.00    -0.358 A  
HETATM   25  C   UNL     1     -11.816  15.154  69.796  1.00  0.00    -0.364 A  
HETATM   26  C   UNL     1     -10.488  15.583  69.886  1.00  0.00    -0.323 A  
HETATM   27  C   UNL     1      -9.495  14.947  69.133  1.00  0.00    -0.158 A  
HETATM   28 CL   UNL     1      -7.878  15.544  69.306  1.00  0.00    -0.213 Cl 
HETATM   29  C   UNL     1      -9.821  13.866  68.298  1.00  0.00    -0.231 A  
HETATM   30 CL   UNL     1      -8.562  13.090  67.379  1.00  0.00    -0.189 Cl 
ENDBRANCH  18  23
ENDBRANCH   9  11
ENDBRANCH   8   9
ENDBRANCH   7   8
ENDBRANCH   6   7
ENDBRANCH   4   6
ENDBRANCH   3   4
ENDBRANCH   2   3
TORSDOF 10
ENDMDL
MODEL        3
REMARK 921   NORMALIZED FREE ENERGY PREDICTED BY IDOCK:   -6.26 KCAL/MOL
REMARK 922        TOTAL FREE ENERGY PREDICTED BY IDOCK:  -11.33 KCAL/MOL
REMARK 923 INTER-LIGAND FREE ENERGY PREDICTED BY IDOCK:   -9.36 KCAL/MOL
REMARK 924 INTRA-LIGAND FREE ENERGY PREDICTED BY IDOCK:   -1.97 KCAL/MOL
REMARK 927      BINDING AFFINITY PREDICTED BY RF-SCORE:    0.00 PKD
ROOT
HETATM    1  C   UNL     1      -9.418  10.825  62.715  1.00  0.00    -0.358 C  
HETATM    2  C   UNL     1     -10.120  11.934  63.479  1.00  0.00    -0.464 C  
ENDROOT
BRANCH   2   3
HETATM    3  C   UNL     1     -11.619  11.683  63.562  1.00  0.00    -0.408 C  
BRANCH   3   4
HETATM    4  C   UNL     1     -12.374  12.941  63.916  1.00  0.00    -0.396 C  
HETATM    5  O   UNL     1     -12.456  13.940  63.215  1.00  0.00    -0.817 OA 
BRANCH   4   6
HETATM    6  O   UNL     1     -12.995  12.759  65.105  1.00  0.00    -0.768 OA 
BRANCH   6   7
HETATM    7  C   UNL     1     -12.240  13.135  66.247  1.00  0.00    -0.355 C  
BRANCH   7   8
HETATM    8  O   UNL     1     -12.038  12.136  67.246  1.00  0.00    -0.565 OA 
BRANCH   8   9
HETATM    9  C   UNL     1     -11.379  12.500  68.361  1.00  0.00    -0.291 C  
HETATM   10  O   UNL     1     -10.666  13.485  68.453  1.00  0.00    -0.244 OA 
BRANCH   9  11
HETATM   11  C   UNL     1     -11.491  11.438  69.416  1.00  0.00    -0.378 C  
HETATM   12  C   UNL     1     -12.175  11.582  70.582  1.00  0.00    -0.378 C  
HETATM   13  N   UNL     1     -12.358  10.486  71.404  1.00  0.00    -0.376 NA 
HETATM   14  C   UNL     1     -12.816  12.832  71.151  1.00  0.00    -0.315 C  
HETATM   15  C   UNL     1     -11.765   9.252  71.247  1.00  0.00    -0.346 C  
HETATM   16  C   UNL     1     -11.030   8.991  70.142  1.00  0.00    -0.256 C  
HETATM   17  C   UNL     1     -12.006   8.282  72.380  1.00  0.00    -0.447 C  
HETATM   18  C   UNL     1     -10.896  10.049  69.026  1.00  0.00    -0.253 C  
BRANCH  16  19
HETATM   19  C   UNL     1     -10.312   7.689  70.052  1.00  0.00    -0.223 C  
HETATM   20  O   UNL     1      -9.187   7.492  70.485  1.00  0.00    -0.156 OA 
BRANCH  19  21
HETATM   21  O   UNL     1     -11.051   6.756  69.399  1.00  0.00    -0.268 OA 
HETATM   22  C   UNL     1     -10.556   6.446  68.093  1.00  0.00    -0.255 C  
ENDBRANCH  19  21
ENDBRANCH  16  19
BRANCH  18  23
HETATM   23  C   UNL     1      -9.451  10.145  68.514  1.00  0.00    -0.159 A  
HETATM   24  C   UNL     1      -8.447  10.564  69.407  1.00  0.00    -0.106 A  
HETATM   25  C   UNL     1      -7.118  10.647  69.003  1.00  0.00    -0.086 A  
HETATM   26  C   UNL     1      -6.760  10.301  67.696  1.00  0.00    -0.074 A  
HETATM   27  C   UNL     1      -7.742   9.895  66.787  1.00  0.00    -0.099 A  
HETATM   28 CL   UNL     1      -7.208   9.484  65.190  1.00  0.00    -0.104 Cl 
HETATM   29  C   UNL     1      -9.087   9.814  67.183  1.00  0.00    -0.135 A  
HETATM   30 CL   UNL     1     -10.285   9.297  66.030  1.00  0.00    -0.275 Cl 
ENDBRANCH  18  23
ENDBRANCH   9  11
ENDBRANCH   8   9
ENDBRANCH   7   8
ENDBRANCH   6   7
ENDBRANCH   4   6
ENDBRANCH   3   4
ENDBRANCH   2   3
TORSDOF 10
ENDMDL
MODEL        4
REMARK 921   NORMALIZED FREE ENERGY PREDICTED BY IDOCK:   -6.22 KCAL/MOL
REMARK 922        TOTAL FREE ENERGY PREDICTED BY IDOCK:  -11.25 KCAL/MOL
REMARK 923 INTER-LIGAND FREE ENERGY PREDICTED BY IDOCK:   -9.51 KCAL/MOL
REMARK 924 INTRA-LIGAND FREE ENERGY PREDICTED BY IDOCK:   -1.75 KCAL/MOL
REMARK 927      BINDING AFFINITY PREDICTED BY RF-SCORE:    0.00 PKD
ROOT
HETATM    1  C   UNL     1     -10.239   8.655  66.853  1.00  0.00    -0.367 C  
HETATM    2  C   UNL     1      -9.396   8.433  68.098  1.00  0.00    -0.141 C  
ENDROOT
BRANCH   2   3
HETATM    3  C   UNL     1     -10.270   8.277  69.335  1.00  0.00    -0.204 C  
BRANCH   3   4
HETATM    4  C   UNL     1      -9.676   8.988  70.525  1.00  0.00    -0.216 C  
HETATM    5  O   UNL     1      -8.484   9.185  70.713  1.00  0.00    -0.184 OA 
BRANCH   4   6
HETATM    6  O   UNL     1     -10.681   9.426  71.320  1.00  0.00    -0.316 OA 
BRANCH   6   7
HETATM    7  C   UNL     1     -11.504  10.436  70.755  1.00  0.00    -0.332 C  
BRANCH   7   8
HETATM    8  O   UNL     1     -10.884  11.334  69.835  1.00  0.00    -0.127 OA 
BRANCH   8   9
HETATM    9  C   UNL     1     -11.643  11.813  68.832  1.00  0.00    -0.309 C  
HETATM   10  O   UNL     1     -12.276  11.122  68.052  1.00  0.00    -0.584 OA 
BRANCH   9  11
HETATM   11  C   UNL     1     -11.461  13.296  68.690  1.00  0.00    -0.339 C  
HETATM   12  C   UNL     1     -11.923  14.216  69.577  1.00  0.00    -0.340 C  
HETATM   13  N   UNL     1     -11.553  15.541  69.440  1.00  0.00    -0.331 NA 
HETATM   14  C   UNL     1     -12.828  14.000  70.774  1.00  0.00    -0.355 C  
HETATM   15  C   UNL     1     -10.874  16.082  68.370  1.00  0.00    -0.310 C  
HETATM   16  C   UNL     1     -10.388  15.275  67.400  1.00  0.00    -0.256 C  
HETATM   17  C   UNL     1     -10.743  17.586  68.395  1.00  0.00    -0.280 C  
HETATM   18  C   UNL     1     -10.542  13.742  67.510  1.00  0.00    -0.246 C  
BRANCH  16  19
HETATM   19  C   UNL     1      -9.755  15.896  66.203  1.00  0.00    -0.321 C  
HETATM   20  O   UNL     1     -10.377  16.385  65.271  1.00  0.00    -0.581 OA 
BRANCH  19  21
HETATM   21  O   UNL     1      -8.402  15.822  66.260  1.00  0.00    -0.281 OA 
HETATM   22  C   UNL     1      -7.757  17.099  66.241  1.00  0.00    -0.315 C  
ENDBRANCH  19  21
ENDBRANCH  16  19
BRANCH  18  23
HETATM   23  C   UNL     1     -10.957  13.122  66.167  1.00  0.00    -0.299 A  
HETATM   24  C   UNL     1     -12.210  13.464  65.626  1.00  0.00    -0.510 A  
HETATM   25  C   UNL     1     -12.627  12.950  64.403  1.00  0.00    -0.392 A  
HETATM   26  C   UNL     1     -11.792  12.088  63.684  1.00  0.00    -0.602 A  
HETATM   27  C   UNL     1     -10.548  11.722  64.207  1.00  0.00    -0.335 A  
HETATM   28 CL   UNL     1      -9.580  10.651  63.249  1.00  0.00    -0.347 Cl 
HETATM   29  C   UNL     1     -10.121  12.231  65.445  1.00  0.00    -0.269 A  
HETATM   30 CL   UNL     1      -8.563  11.764  66.066  1.00  0.00    -0.017 Cl 
ENDBRANCH  18  23
ENDBRANCH   9  11
ENDBRANCH   8   9
ENDBRANCH   7   8
ENDBRANCH   6   7
ENDBRANCH   4   6
ENDBRANCH   3   4
ENDBRANCH   2   3
TORSDOF 10
ENDMDL
MODEL        5
REMARK 921   NORMALIZED FREE ENERGY PREDICTED BY IDOCK:   -6.14 KCAL/MOL
REMARK 922        TOTAL FREE ENERGY PREDICTED BY IDOCK:  -11.14 KCAL/MOL
REMARK 923 INTER-LIGAND FREE ENERGY PREDICTED BY IDOCK:   -9.25 KCAL/MOL
REMARK 924 INTRA-LIGAND FREE ENERGY PREDICTED BY IDOCK:   -1.88 KCAL/MOL
REMARK 927      BINDING AFFINITY PREDICTED BY RF-SCORE:    0.00 PKD
ROOT
HETATM    1  C   UNL     1      -9.164  20.432  67.308  1.00  0.00    -0.525 C  
HETATM    2  C   UNL     1      -9.615  18.998  67.527  1.00  0.00    -0.358 C  
ENDROOT
BRANCH   2   3
HETATM    3  C   UNL     1     -10.638  18.576  66.482  1.00  0.00    -0.375 C  
BRANCH   3   4
HETATM    4  C   UNL     1     -10.119  17.451  65.621  1.00  0.00    -0.015 C  
HETATM    5  O   UNL     1      -9.059  16.864  65.783  1.00  0.00    -0.523 OA 
BRANCH   4   6
HETATM    6  O   UNL     1     -11.047  17.157  64.680  1.00  0.00    -1.036 OA 
BRANCH   6   7
HETATM    7  C   UNL     1     -11.401  15.785  64.586  1.00  0.00    -0.337 C  
BRANCH   7   8
HETATM    8  O   UNL     1     -11.824  15.143  65.789  1.00  0.00    -0.123 OA 
BRANCH   8   9
HETATM    9  C   UNL     1     -12.306  13.890  65.686  1.00  0.00    -0.482 C  
HETATM   10  O   UNL     1     -13.490  13.602  65.696  1.00  0.00    -0.426 OA 
BRANCH   9  11
HETATM   11  C   UNL     1     -11.191  12.887  65.740  1.00  0.00    -0.324 C  
HETATM   12  C   UNL     1     -10.897  12.011  64.743  1.00  0.00    -0.306 C  
HETATM   13  N   UNL     1      -9.747  11.248  64.824  1.00  0.00    -0.248 NA 
HETATM   14  C   UNL     1     -11.675  11.731  63.472  1.00  0.00    -0.485 C  
HETATM   15  C   UNL     1      -8.917  11.154  65.920  1.00  0.00    -0.199 C  
HETATM   16  C   UNL     1      -9.123  11.951  66.994  1.00  0.00    -0.191 C  
HETATM   17  C   UNL     1      -7.822  10.122  65.801  1.00  0.00    -0.139 C  
HETATM   18  C   UNL     1     -10.250  13.006  66.978  1.00  0.00    -0.245 C  
BRANCH  16  19
HETATM   19  C   UNL     1      -8.279  11.750  68.205  1.00  0.00    -0.153 C  
HETATM   20  O   UNL     1      -8.284  10.737  68.887  1.00  0.00    -0.135 OA 
BRANCH  19  21
HETATM   21  O   UNL     1      -7.528  12.847  68.476  1.00  0.00    -0.119 OA 
HETATM   22  C   UNL     1      -6.256  12.847  67.821  1.00  0.00    -0.144 C  
ENDBRANCH  19  21
ENDBRANCH  16  19
BRANCH  18  23
HETATM   23  C   UNL     1     -11.017  13.027  68.309  1.00  0.00    -0.285 A  
HETATM   24  C   UNL     1     -11.702  11.864  68.709  1.00  0.00    -0.379 A  
HETATM   25  C   UNL     1     -12.395  11.819  69.914  1.00  0.00    -0.200 A  
HETATM   26  C   UNL     1     -12.409  12.937  70.756  1.00  0.00    -0.385 A  
HETATM   27  C   UNL     1     -11.748  14.108  70.373  1.00  0.00    -0.243 A  
HETATM   28 CL   UNL     1     -11.818  15.443  71.477  1.00  0.00    -0.402 Cl 
HETATM   29  C   UNL     1     -11.052  14.165  69.155  1.00  0.00    -0.262 A  
HETATM   30 CL   UNL     1     -10.232  15.636  68.711  1.00  0.00    -0.209 Cl 
ENDBRANCH  18  23
ENDBRANCH   9  11
ENDBRANCH   8   9
ENDBRANCH   7   8
ENDBRANCH   6   7
ENDBRANCH   4   6
ENDBRANCH   3   4
ENDBRANCH   2   3
TORSDOF 10
ENDMDL
MODEL        6
REMARK 921   NORMALIZED FREE ENERGY PREDICTED BY IDOCK:   -6.11 KCAL/MOL
REMARK 922        TOTAL FREE ENERGY PREDICTED BY IDOCK:  -11.09 KCAL/MOL
REMARK 923 INTER-LIGAND FREE ENERGY PREDICTED BY IDOCK:   -9.69 KCAL/MOL
REMARK 924 INTRA-LIGAND FREE ENERGY PREDICTED BY IDOCK:   -1.40 KCAL/MOL
REMARK 927      BINDING AFFINITY PREDICTED BY RF-SCORE:    0.00 PKD
ROOT
HETATM    1  C   UNL     1      -9.968  19.834  68.085  1.00  0.00    -0.557 C  
HETATM    2  C   UNL     1     -10.724  18.721  67.379  1.00  0.00    -0.487 C  
ENDROOT
BRANCH   2   3
HETATM    3  C   UNL     1      -9.893  18.116  66.256  1.00  0.00    -0.311 C  
BRANCH   3   4
HETATM    4  C   UNL     1     -10.658  17.049  65.514  1.00  0.00    -0.173 C  
HETATM    5  O   UNL     1     -11.226  17.198  64.441  1.00  0.00    -1.143 OA 
BRANCH   4   6
HETATM    6  O   UNL     1     -10.561  15.885  66.198  1.00  0.00    -0.307 OA 
BRANCH   6   7
HETATM    7  C   UNL     1     -10.777  14.710  65.430  1.00  0.00    -0.369 C  
BRANCH   7   8
HETATM    8  O   UNL     1     -10.452  13.465  66.047  1.00  0.00    -0.283 OA 
BRANCH   8   9
HETATM    9  C   UNL     1     -11.449  12.575  66.207  1.00  0.00    -0.370 C  
HETATM   10  O   UNL     1     -12.411  12.473  65.466  1.00  0.00    -0.646 OA 
BRANCH   9  11
HETATM   11  C   UNL     1     -11.310  11.853  67.516  1.00  0.00    -0.381 C  
HETATM   12  C   UNL     1     -11.684  12.364  68.718  1.00  0.00    -0.332 C  
HETATM   13  N   UNL     1     -11.672  11.551  69.837  1.00  0.00    -0.327 NA 
HETATM   14  C   UNL     1     -12.151  13.769  69.043  1.00  0.00    -0.359 C  
HETATM   15  C   UNL     1     -11.149  10.278  69.903  1.00  0.00    -0.304 C  
HETATM   16  C   UNL     1     -10.712   9.667  68.778  1.00  0.00    -0.234 C  
HETATM   17  C   UNL     1     -11.115   9.676  71.288  1.00  0.00    -0.426 C  
HETATM   18  C   UNL     1     -10.845  10.367  67.409  1.00  0.00    -0.344 C  
BRANCH  16  19
HETATM   19  C   UNL     1     -10.053   8.337  68.897  1.00  0.00    -0.199 C  
HETATM   20  O   UNL     1      -8.895   8.171  69.250  1.00  0.00    -0.142 OA 
BRANCH  19  21
HETATM   21  O   UNL     1     -10.889   7.332  68.531  1.00  0.00    -0.162 OA 
HETATM   22  C   UNL     1     -11.061   6.334  69.542  1.00  0.00    -0.408 C  
ENDBRANCH  19  21
ENDBRANCH  16  19
BRANCH  18  23
HETATM   23  C   UNL     1      -9.570  10.203  66.569  1.00  0.00    -0.236 A  
HETATM   24  C   UNL     1      -9.633   9.433  65.392  1.00  0.00    -0.296 A  
HETATM   25  C   UNL     1      -8.514   9.270  64.582  1.00  0.00    -0.192 A  
HETATM   26  C   UNL     1      -7.306   9.885  64.924  1.00  0.00    -0.136 A  
HETATM   27  C   UNL     1      -7.214  10.643  66.095  1.00  0.00    -0.138 A  
HETATM   28 CL   UNL     1      -5.679  11.369  66.440  1.00  0.00    -0.144 Cl 
HETATM   29  C   UNL     1      -8.336  10.808  66.923  1.00  0.00    -0.132 A  
HETATM   30 CL   UNL     1      -8.192  11.766  68.371  1.00  0.00    -0.152 Cl 
ENDBRANCH  18  23
ENDBRANCH   9  11
ENDBRANCH   8   9
ENDBRANCH   7   8
ENDBRANCH   6   7
ENDBRANCH   4   6
ENDBRANCH   3   4
ENDBRANCH   2   3
TORSDOF 10
ENDMDL
MODEL        7
REMARK 921   NORMALIZED FREE ENERGY PREDICTED BY IDOCK:   -6.05 KCAL/MOL
REMARK 922        TOTAL FREE ENERGY PREDICTED BY IDOCK:  -10.98 KCAL/MOL
REMARK 923 INTER-LIGAND FREE ENERGY PREDICTED BY IDOCK:   -9.10 KCAL/MOL
REMARK 924 INTRA-LIGAND FREE ENERGY PREDICTED BY IDOCK:   -1.89 KCAL/MOL
REMARK 927      BINDING AFFINITY PREDICTED BY RF-SCORE:    0.00 PKD
ROOT
HETATM    1  C   UNL     1     -10.450   8.304  67.094  1.00  0.00    -0.386 C  
HETATM    2  C   UNL     1      -9.553   8.689  68.258  1.00  0.00    -0.160 C  
ENDROOT
BRANCH   2   3
HETATM    3  C   UNL     1     -10.152   8.244  69.585  1.00  0.00    -0.199 C  
BRANCH   3   4
HETATM    4  C   UNL     1      -9.659   9.094  70.729  1.00  0.00    -0.275 C  
HETATM    5  O   UNL     1      -8.508   9.478  70.884  1.00  0.00    -0.269 OA 
BRANCH   4   6
HETATM    6  O   UNL     1     -10.709   9.413  71.522  1.00  0.00    -0.346 OA 
BRANCH   6   7
HETATM    7  C   UNL     1     -11.668  10.282  70.936  1.00  0.00    -0.379 C  
BRANCH   7   8
HETATM    8  O   UNL     1     -11.173  11.474  70.326  1.00  0.00    -0.090 OA 
BRANCH   8   9
HETATM    9  C   UNL     1     -11.678  11.809  69.124  1.00  0.00    -0.325 C  
HETATM   10  O   UNL     1     -12.148  11.017  68.325  1.00  0.00    -0.604 OA 
BRANCH   9  11
HETATM   11  C   UNL     1     -11.419  13.257  68.825  1.00  0.00    -0.346 C  
HETATM   12  C   UNL     1     -12.051  14.293  69.439  1.00  0.00    -0.318 C  
HETATM   13  N   UNL     1     -11.617  15.586  69.212  1.00  0.00    -0.334 NA 
HETATM   14  C   UNL     1     -13.223  14.248  70.400  1.00  0.00     0.064 C  
HETATM   15  C   UNL     1     -10.684  15.970  68.273  1.00  0.00    -0.298 C  
HETATM   16  C   UNL     1     -10.007  15.034  67.570  1.00  0.00    -0.226 C  
HETATM   17  C   UNL     1     -10.515  17.463  68.119  1.00  0.00    -0.389 C  
HETATM   18  C   UNL     1     -10.232  13.533  67.852  1.00  0.00    -0.247 C  
BRANCH  16  19
HETATM   19  C   UNL     1      -9.086  15.480  66.487  1.00  0.00    -0.302 C  
HETATM   20  O   UNL     1      -9.453  15.864  65.387  1.00  0.00    -0.355 OA 
BRANCH  19  21
HETATM   21  O   UNL     1      -7.786  15.374  66.863  1.00  0.00    -0.217 OA 
HETATM   22  C   UNL     1      -7.075  16.614  66.820  1.00  0.00    -0.236 C  
ENDBRANCH  19  21
ENDBRANCH  16  19
BRANCH  18  23
HETATM   23  C   UNL     1     -10.332  12.726  66.548  1.00  0.00    -0.262 A  
HETATM   24  C   UNL     1      -9.292  11.834  66.227  1.00  0.00    -0.235 A  
HETATM   25  C   UNL     1      -9.342  11.062  65.071  1.00  0.00    -0.250 A  
HETATM   26  C   UNL     1     -10.443  11.156  64.213  1.00  0.00    -0.427 A  
HETATM   27  C   UNL     1     -11.482  12.045  64.503  1.00  0.00    -0.319 A  
HETATM   28 CL   UNL     1     -12.806  12.096  63.386  1.00  0.00    -0.545 Cl 
HETATM   29  C   UNL     1     -11.438  12.834  65.665  1.00  0.00    -0.342 A  
HETATM   30 CL   UNL     1     -12.751  13.926  66.003  1.00  0.00    -0.475 Cl 
ENDBRANCH  18  23
ENDBRANCH   9  11
ENDBRANCH   8   9
ENDBRANCH   7   8
ENDBRANCH   6   7
ENDBRANCH   4   6
ENDBRANCH   3   4
ENDBRANCH   2   3
TORSDOF 10
ENDMDL
MODEL        8
REMARK 921   NORMALIZED FREE ENERGY PREDICTED BY IDOCK:   -6.04 KCAL/MOL
REMARK 922        TOTAL FREE ENERGY PREDICTED BY IDOCK:  -10.98 KCAL/MOL
REMARK 923 INTER-LIGAND FREE ENERGY PREDICTED BY IDOCK:   -9.16 KCAL/MOL
REMARK 924 INTRA-LIGAND FREE ENERGY PREDICTED BY IDOCK:   -1.82 KCAL/MOL
REMARK 927      BINDING AFFINITY PREDICTED BY RF-SCORE:    0.00 PKD
ROOT
HETATM    1  C   UNL     1      -9.994  16.024  66.036  1.00  0.00    -0.365 C  
HETATM    2  C   UNL     1     -10.862  15.516  64.896  1.00  0.00    -0.447 C  
ENDROOT
BRANCH   2   3
HETATM    3  C   UNL     1     -10.825  13.997  64.811  1.00  0.00    -0.430 C  
BRANCH   3   4
HETATM    4  C   UNL     1     -12.153  13.434  64.369  1.00  0.00    -0.416 C  
HETATM    5  O   UNL     1     -12.713  13.683  63.310  1.00  0.00    -0.765 OA 
BRANCH   4   6
HETATM    6  O   UNL     1     -12.594  12.563  65.307  1.00  0.00    -0.645 OA 
BRANCH   6   7
HETATM    7  C   UNL     1     -11.615  12.133  66.242  1.00  0.00    -0.360 C  
BRANCH   7   8
HETATM    8  O   UNL     1     -12.090  11.623  67.487  1.00  0.00    -0.611 OA 
BRANCH   8   9
HETATM    9  C   UNL     1     -11.514  12.094  68.609  1.00  0.00    -0.296 C  
HETATM   10  O   UNL     1     -10.956  13.174  68.700  1.00  0.00    -0.248 OA 
BRANCH   9  11
HETATM   11  C   UNL     1     -11.491  11.039  69.676  1.00  0.00    -0.375 C  
HETATM   12  C   UNL     1     -12.142  11.134  70.865  1.00  0.00    -0.322 C  
HETATM   13  N   UNL     1     -12.194  10.036  71.704  1.00  0.00    -0.392 NA 
HETATM   14  C   UNL     1     -12.874  12.327  71.448  1.00  0.00    -0.373 C  
HETATM   15  C   UNL     1     -11.496   8.860  71.536  1.00  0.00    -0.321 C  
HETATM   16  C   UNL     1     -10.781   8.653  70.407  1.00  0.00    -0.248 C  
HETATM   17  C   UNL     1     -11.605   7.886  72.685  1.00  0.00    -0.435 C  
HETATM   18  C   UNL     1     -10.785   9.705  69.277  1.00  0.00    -0.246 C  
BRANCH  16  19
HETATM   19  C   UNL     1      -9.950   7.421  70.302  1.00  0.00    -0.188 C  
HETATM   20  O   UNL     1      -8.891   7.253  70.887  1.00  0.00    -0.147 OA 
BRANCH  19  21
HETATM   21  O   UNL     1     -10.500   6.521  69.448  1.00  0.00    -0.190 OA 
HETATM   22  C   UNL     1     -10.347   5.163  69.873  1.00  0.00    -0.277 C  
ENDBRANCH  19  21
ENDBRANCH  16  19
BRANCH  18  23
HETATM   23  C   UNL     1      -9.375   9.926  68.711  1.00  0.00    -0.157 A  
HETATM   24  C   UNL     1      -8.411  10.547  69.527  1.00  0.00    -0.075 A  
HETATM   25  C   UNL     1      -7.112  10.752  69.074  1.00  0.00    -0.091 A  
HETATM   26  C   UNL     1      -6.742  10.329  67.793  1.00  0.00    -0.073 A  
HETATM   27  C   UNL     1      -7.686   9.722  66.957  1.00  0.00    -0.095 A  
HETATM   28 CL   UNL     1      -7.140   9.230  65.388  1.00  0.00    -0.084 Cl 
HETATM   29  C   UNL     1      -9.001   9.518  67.404  1.00  0.00    -0.131 A  
HETATM   30 CL   UNL     1     -10.151   8.752  66.343  1.00  0.00    -0.353 Cl 
ENDBRANCH  18  23
ENDBRANCH   9  11
ENDBRANCH   8   9
ENDBRANCH   7   8
ENDBRANCH   6   7
ENDBRANCH   4   6
ENDBRANCH   3   4
ENDBRANCH   2   3
TORSDOF 10
ENDMDL
MODEL        9
REMARK 921   NORMALIZED FREE ENERGY PREDICTED BY IDOCK:   -6.02 KCAL/MOL
REMARK 922        TOTAL FREE ENERGY PREDICTED BY IDOCK:  -10.95 KCAL/MOL
REMARK 923 INTER-LIGAND FREE ENERGY PREDICTED BY IDOCK:   -9.14 KCAL/MOL
REMARK 924 INTRA-LIGAND FREE ENERGY PREDICTED BY IDOCK:   -1.81 KCAL/MOL
REMARK 927      BINDING AFFINITY PREDICTED BY RF-SCORE:    0.00 PKD
ROOT
HETATM    1  C   UNL     1      -8.381  19.493  68.510  1.00  0.00    -0.372 C  
HETATM    2  C   UNL     1      -9.648  20.031  67.866  1.00  0.00    -0.488 C  
ENDROOT
BRANCH   2   3
HETATM    3  C   UNL     1     -10.550  18.900  67.395  1.00  0.00    -0.534 C  
BRANCH   3   4
HETATM    4  C   UNL     1     -10.652  18.863  65.890  1.00  0.00    -0.373 C  
HETATM    5  O   UNL     1     -11.040  19.782  65.182  1.00  0.00    -0.349 OA 
BRANCH   4   6
HETATM    6  O   UNL     1     -10.187  17.671  65.448  1.00  0.00    -0.576 OA 
BRANCH   6   7
HETATM    7  C   UNL     1     -11.155  16.831  64.838  1.00  0.00    -0.054 C  
BRANCH   7   8
HETATM    8  O   UNL     1     -10.776  15.476  64.596  1.00  0.00    -0.370 OA 
BRANCH   8   9
HETATM    9  C   UNL     1     -11.658  14.517  64.933  1.00  0.00    -0.401 C  
HETATM   10  O   UNL     1     -12.845  14.709  65.137  1.00  0.00    -0.420 OA 
BRANCH   9  11
HETATM   11  C   UNL     1     -10.954  13.219  65.201  1.00  0.00    -0.314 C  
HETATM   12  C   UNL     1     -11.243  12.046  64.578  1.00  0.00    -0.332 C  
HETATM   13  N   UNL     1     -10.422  10.950  64.774  1.00  0.00    -0.325 NA 
HETATM   14  C   UNL     1     -12.388  11.734  63.635  1.00  0.00    -0.488 C  
HETATM   15  C   UNL     1      -9.398  10.864  65.692  1.00  0.00    -0.207 C  
HETATM   16  C   UNL     1      -9.033  11.956  66.402  1.00  0.00    -0.180 C  
HETATM   17  C   UNL     1      -8.768   9.498  65.816  1.00  0.00    -0.170 C  
HETATM   18  C   UNL     1      -9.721  13.315  66.152  1.00  0.00    -0.258 C  
BRANCH  16  19
HETATM   19  C   UNL     1      -7.998  11.806  67.463  1.00  0.00    -0.148 C  
HETATM   20  O   UNL     1      -8.226  11.405  68.595  1.00  0.00    -0.150 OA 
BRANCH  19  21
HETATM   21  O   UNL     1      -6.776  12.204  67.028  1.00  0.00    -0.140 OA 
HETATM   22  C   UNL     1      -6.238  13.307  67.762  1.00  0.00    -0.158 C  
ENDBRANCH  19  21
ENDBRANCH  16  19
BRANCH  18  23
HETATM   23  C   UNL     1     -10.043  14.033  67.471  1.00  0.00    -0.237 A  
HETATM   24  C   UNL     1      -9.351  15.219  67.779  1.00  0.00    -0.196 A  
HETATM   25  C   UNL     1      -9.619  15.922  68.949  1.00  0.00    -0.230 A  
HETATM   26  C   UNL     1     -10.596  15.459  69.836  1.00  0.00    -0.315 A  
HETATM   27  C   UNL     1     -11.288  14.276  69.559  1.00  0.00    -0.269 A  
HETATM   28 CL   UNL     1     -12.482  13.778  70.713  1.00  0.00    -0.430 Cl 
HETATM   29  C   UNL     1     -11.020  13.556  68.384  1.00  0.00    -0.266 A  
HETATM   30 CL   UNL     1     -11.903  12.090  68.063  1.00  0.00    -0.384 Cl 
ENDBRANCH  18  23
ENDBRANCH   9  11
ENDBRANCH   8   9
ENDBRANCH   7   8
ENDBRANCH   6   7
ENDBRANCH   4   6
ENDBRANCH   3   4
ENDBRANCH   2   3
TORSDOF 10
ENDMDL
MODEL       10
REMARK 921   NORMALIZED FREE ENERGY PREDICTED BY IDOCK:   -5.99 KCAL/MOL
REMARK 922        TOTAL FREE ENERGY PREDICTED BY IDOCK:  -10.90 KCAL/MOL
REMARK 923 INTER-LIGAND FREE ENERGY PREDICTED BY IDOCK:   -9.55 KCAL/MOL
REMARK 924 INTRA-LIGAND FREE ENERGY PREDICTED BY IDOCK:   -1.35 KCAL/MOL
REMARK 927      BINDING AFFINITY PREDICTED BY RF-SCORE:    0.00 PKD
ROOT
HETATM    1  C   UNL     1     -14.409   7.354  71.923  1.00  0.00    -0.520 C  
HETATM    2  C   UNL     1     -13.096   7.107  71.200  1.00  0.00    -0.294 C  
ENDROOT
BRANCH   2   3
HETATM    3  C   UNL     1     -11.925   7.708  71.964  1.00  0.00    -0.341 C  
BRANCH   3   4
HETATM    4  C   UNL     1     -11.766   9.178  71.669  1.00  0.00    -0.378 C  
HETATM    5  O   UNL     1     -12.636  10.027  71.801  1.00  0.00    -0.384 OA 
BRANCH   4   6
HETATM    6  O   UNL     1     -10.486   9.414  71.295  1.00  0.00    -0.318 OA 
BRANCH   6   7
HETATM    7  C   UNL     1     -10.312   9.801  69.940  1.00  0.00    -0.254 C  
BRANCH   7   8
HETATM    8  O   UNL     1     -10.333  11.200  69.659  1.00  0.00    -0.073 OA 
BRANCH   8   9
HETATM    9  C   UNL     1     -11.405  11.685  69.005  1.00  0.00    -0.275 C  
HETATM   10  O   UNL     1     -12.315  11.002  68.566  1.00  0.00    -0.536 OA 
BRANCH   9  11
HETATM   11  C   UNL     1     -11.241  13.151  68.731  1.00  0.00    -0.323 C  
HETATM   12  C   UNL     1     -11.862  14.138  69.429  1.00  0.00    -0.330 C  
HETATM   13  N   UNL     1     -11.510  15.456  69.205  1.00  0.00    -0.309 NA 
HETATM   14  C   UNL     1     -12.940  14.010  70.487  1.00  0.00    -0.194 C  
HETATM   15  C   UNL     1     -10.684  15.911  68.201  1.00  0.00    -0.302 C  
HETATM   16  C   UNL     1     -10.029  15.028  67.412  1.00  0.00    -0.226 C  
HETATM   17  C   UNL     1     -10.598  17.413  68.080  1.00  0.00    -0.389 C  
HETATM   18  C   UNL     1     -10.159  13.510  67.665  1.00  0.00    -0.229 C  
BRANCH  16  19
HETATM   19  C   UNL     1      -9.231  15.547  66.267  1.00  0.00    -0.329 C  
HETATM   20  O   UNL     1      -9.694  15.811  65.168  1.00  0.00    -0.326 OA 
BRANCH  19  21
HETATM   21  O   UNL     1      -7.916  15.659  66.586  1.00  0.00    -0.234 OA 
HETATM   22  C   UNL     1      -7.426  17.001  66.532  1.00  0.00    -0.292 C  
ENDBRANCH  19  21
ENDBRANCH  16  19
BRANCH  18  23
HETATM   23  C   UNL     1     -10.338  12.736  66.351  1.00  0.00    -0.271 A  
HETATM   24  C   UNL     1      -9.314  11.862  65.940  1.00  0.00    -0.193 A  
HETATM   25  C   UNL     1      -9.434  11.119  64.770  1.00  0.00    -0.250 A  
HETATM   26  C   UNL     1     -10.589  11.223  63.988  1.00  0.00    -0.450 A  
HETATM   27  C   UNL     1     -11.614  12.094  64.369  1.00  0.00    -0.350 A  
HETATM   28 CL   UNL     1     -13.009  12.159  63.342  1.00  0.00    -0.434 Cl 
HETATM   29  C   UNL     1     -11.500  12.854  65.545  1.00  0.00    -0.326 A  
HETATM   30 CL   UNL     1     -12.797  13.924  65.997  1.00  0.00    -0.416 Cl 
ENDBRANCH  18  23
ENDBRANCH   9  11
ENDBRANCH   8   9
ENDBRANCH   7   8
ENDBRANCH   6   7
ENDBRANCH   4   6
ENDBRANCH   3   4
ENDBRANCH   2   3
TORSDOF 10
ENDMDL
MODEL       11
REMARK 921   NORMALIZED FREE ENERGY PREDICTED BY IDOCK:   -5.91 KCAL/MOL
REMARK 922        TOTAL FREE ENERGY PREDICTED BY IDOCK:  -10.77 KCAL/MOL
REMARK 923 INTER-LIGAND FREE ENERGY PREDICTED BY IDOCK:   -9.48 KCAL/MOL
REMARK 924 INTRA-LIGAND FREE ENERGY PREDICTED BY IDOCK:   -1.29 KCAL/MOL
REMARK 927      BINDING AFFINITY PREDICTED BY RF-SCORE:    0.00 PKD
ROOT
HETATM    1  C   UNL     1      -9.821  19.681  68.383  1.00  0.00    -0.531 C  
HETATM    2  C   UNL     1     -10.891  19.082  67.486  1.00  0.00    -0.478 C  
ENDROOT
BRANCH   2   3
HETATM    3  C   UNL     1     -10.492  19.166  66.019  1.00  0.00    -0.546 C  
BRANCH   3   4
HETATM    4  C   UNL     1     -10.162  17.807  65.456  1.00  0.00     0.150 C  
HETATM    5  O   UNL     1      -9.171  17.145  65.731  1.00  0.00    -0.524 OA 
BRANCH   4   6
HETATM    6  O   UNL     1     -11.172  17.413  64.644  1.00  0.00    -0.992 OA 
BRANCH   6   7
HETATM    7  C   UNL     1     -11.363  16.008  64.553  1.00  0.00    -0.295 C  
BRANCH   7   8
HETATM    8  O   UNL     1     -11.610  15.309  65.773  1.00  0.00    -0.189 OA 
BRANCH   8   9
HETATM    9  C   UNL     1     -12.075  14.050  65.681  1.00  0.00    -0.417 C  
HETATM   10  O   UNL     1     -13.257  13.748  65.657  1.00  0.00    -0.574 OA 
BRANCH   9  11
HETATM   11  C   UNL     1     -10.953  13.060  65.796  1.00  0.00    -0.299 C  
HETATM   12  C   UNL     1     -10.653  12.126  64.855  1.00  0.00    -0.293 C  
HETATM   13  N   UNL     1      -9.497  11.378  64.982  1.00  0.00    -0.215 NA 
HETATM   14  C   UNL     1     -11.431  11.761  63.606  1.00  0.00    -0.524 C  
HETATM   15  C   UNL     1      -8.666  11.359  66.080  1.00  0.00    -0.153 C  
HETATM   16  C   UNL     1      -8.876  12.219  67.102  1.00  0.00    -0.194 C  
HETATM   17  C   UNL     1      -7.562  10.329  66.025  1.00  0.00    -0.128 C  
HETATM   18  C   UNL     1     -10.011  13.263  67.023  1.00  0.00    -0.238 C  
BRANCH  16  19
HETATM   19  C   UNL     1      -8.029  12.102  68.322  1.00  0.00    -0.163 C  
HETATM   20  O   UNL     1      -8.094  11.177  69.119  1.00  0.00    -0.121 OA 
BRANCH  19  21
HETATM   21  O   UNL     1      -7.198  13.166  68.457  1.00  0.00    -0.099 OA 
HETATM   22  C   UNL     1      -5.813  12.829  68.343  1.00  0.00    -0.061 C  
ENDBRANCH  19  21
ENDBRANCH  16  19
BRANCH  18  23
HETATM   23  C   UNL     1     -10.777  13.362  68.351  1.00  0.00    -0.271 A  
HETATM   24  C   UNL     1     -10.837  14.608  69.002  1.00  0.00    -0.252 A  
HETATM   25  C   UNL     1     -11.536  14.760  70.195  1.00  0.00    -0.338 A  
HETATM   26  C   UNL     1     -12.202  13.668  70.760  1.00  0.00    -0.424 A  
HETATM   27  C   UNL     1     -12.145  12.416  70.139  1.00  0.00    -0.290 A  
HETATM   28 CL   UNL     1     -13.000  11.120  70.909  1.00  0.00    -0.342 Cl 
HETATM   29  C   UNL     1     -11.437  12.251  68.938  1.00  0.00    -0.304 A  
HETATM   30 CL   UNL     1     -11.391  10.682  68.185  1.00  0.00    -0.368 Cl 
ENDBRANCH  18  23
ENDBRANCH   9  11
ENDBRANCH   8   9
ENDBRANCH   7   8
ENDBRANCH   6   7
ENDBRANCH   4   6
ENDBRANCH   3   4
ENDBRANCH   2   3
TORSDOF 10
ENDMDL
MODEL       12
REMARK 921   NORMALIZED FREE ENERGY PREDICTED BY IDOCK:   -5.85 KCAL/MOL
REMARK 922        TOTAL FREE ENERGY PREDICTED BY IDOCK:  -10.67 KCAL/MOL
REMARK 923 INTER-LIGAND FREE ENERGY PREDICTED BY IDOCK:   -8.83 KCAL/MOL
REMARK 924 INTRA-LIGAND FREE ENERGY PREDICTED BY IDOCK:   -1.84 KCAL/MOL
REMARK 927      BINDING AFFINITY PREDICTED BY RF-SCORE:    0.00 PKD
ROOT
HETATM    1  C   UNL     1     -10.777  16.320  65.294  1.00  0.00    -0.349 C  
HETATM    2  C   UNL     1     -10.690  14.864  64.868  1.00  0.00    -0.426 C  
ENDROOT
BRANCH   2   3
HETATM    3  C   UNL     1     -12.037  14.352  64.377  1.00  0.00    -0.491 C  
BRANCH   3   4
HETATM    4  C   UNL     1     -11.930  12.953  63.822  1.00  0.00    -0.512 C  
HETATM    5  O   UNL     1     -12.858  12.295  63.373  1.00  0.00    -0.754 OA 
BRANCH   4   6
HETATM    6  O   UNL     1     -10.631  12.572  63.846  1.00  0.00    -0.389 OA 
BRANCH   6   7
HETATM    7  C   UNL     1     -10.353  11.418  64.626  1.00  0.00    -0.307 C  
BRANCH   7   8
HETATM    8  O   UNL     1     -10.882  11.391  65.952  1.00  0.00    -0.272 OA 
BRANCH   8   9
HETATM    9  C   UNL     1     -10.133  11.938  66.928  1.00  0.00    -0.207 C  
HETATM   10  O   UNL     1      -8.982  12.315  66.788  1.00  0.00    -0.204 OA 
BRANCH   9  11
HETATM   11  C   UNL     1     -10.840  11.853  68.249  1.00  0.00    -0.261 C  
HETATM   12  C   UNL     1     -11.431  12.906  68.873  1.00  0.00    -0.304 C  
HETATM   13  N   UNL     1     -12.200  12.685  70.001  1.00  0.00    -0.244 NA 
HETATM   14  C   UNL     1     -11.384  14.374  68.497  1.00  0.00    -0.307 C  
HETATM   15  C   UNL     1     -12.307  11.493  70.683  1.00  0.00    -0.364 C  
HETATM   16  C   UNL     1     -11.735  10.374  70.183  1.00  0.00    -0.394 C  
HETATM   17  C   UNL     1     -13.081  11.569  71.977  1.00  0.00    -0.430 C  
HETATM   18  C   UNL     1     -11.008  10.411  68.821  1.00  0.00    -0.287 C  
BRANCH  16  19
HETATM   19  C   UNL     1     -11.775   9.126  70.995  1.00  0.00    -0.301 C  
HETATM   20  O   UNL     1     -12.587   8.228  70.838  1.00  0.00    -0.124 OA 
BRANCH  19  21
HETATM   21  O   UNL     1     -10.816   9.126  71.955  1.00  0.00    -0.352 OA 
HETATM   22  C   UNL     1     -10.617   7.847  72.565  1.00  0.00    -0.315 C  
ENDBRANCH  19  21
ENDBRANCH  16  19
BRANCH  18  23
HETATM   23  C   UNL     1      -9.685   9.633  68.870  1.00  0.00    -0.163 A  
HETATM   24  C   UNL     1      -8.623  10.159  69.629  1.00  0.00    -0.170 A  
HETATM   25  C   UNL     1      -7.410   9.485  69.726  1.00  0.00    -0.092 A  
HETATM   26  C   UNL     1      -7.234   8.260  69.074  1.00  0.00    -0.073 A  
HETATM   27  C   UNL     1      -8.270   7.724  68.303  1.00  0.00    -0.124 A  
HETATM   28 CL   UNL     1      -7.966   6.202  67.532  1.00  0.00    -0.105 Cl 
HETATM   29  C   UNL     1      -9.496   8.400  68.193  1.00  0.00    -0.138 A  
HETATM   30 CL   UNL     1     -10.770   7.703  67.232  1.00  0.00    -0.375 Cl 
ENDBRANCH  18  23
ENDBRANCH   9  11
ENDBRANCH   8   9
ENDBRANCH   7   8
ENDBRANCH   6   7
ENDBRANCH   4   6
ENDBRANCH   3   4
ENDBRANCH   2   3
TORSDOF 10
ENDMDL
MODEL       13
REMARK 921   NORMALIZED FREE ENERGY PREDICTED BY IDOCK:   -5.78 KCAL/MOL
REMARK 922        TOTAL FREE ENERGY PREDICTED BY IDOCK:  -10.57 KCAL/MOL
REMARK 923 INTER-LIGAND FREE ENERGY PREDICTED BY IDOCK:   -8.78 KCAL/MOL
REMARK 924 INTRA-LIGAND FREE ENERGY PREDICTED BY IDOCK:   -1.79 KCAL/MOL
REMARK 927      BINDING AFFINITY PREDICTED BY RF-SCORE:    0.00 PKD
ROOT
HETATM    1  C   UNL     1     -12.133  12.172  63.408  1.00  0.00    -0.608 C  
HETATM    2  C   UNL     1     -11.261  13.394  63.645  1.00  0.00    -0.010 C  
ENDROOT
BRANCH   2   3
HETATM    3  C   UNL     1     -12.073  14.549  64.212  1.00  0.00    -0.448 C  
BRANCH   3   4
HETATM    4  C   UNL     1     -11.185  15.682  64.663  1.00  0.00    -0.369 C  
HETATM    5  O   UNL     1     -11.255  16.838  64.272  1.00  0.00    -1.163 OA 
BRANCH   4   6
HETATM    6  O   UNL     1     -10.341  15.223  65.617  1.00  0.00    -0.311 OA 
BRANCH   6   7
HETATM    7  C   UNL     1     -10.938  14.959  66.878  1.00  0.00    -0.327 C  
BRANCH   7   8
HETATM    8  O   UNL     1     -10.666  13.688  67.468  1.00  0.00    -0.256 OA 
BRANCH   8   9
HETATM    9  C   UNL     1     -11.630  12.752  67.394  1.00  0.00    -0.356 C  
HETATM   10  O   UNL     1     -12.625  12.837  66.693  1.00  0.00    -0.230 OA 
BRANCH   9  11
HETATM   11  C   UNL     1     -11.410  11.680  68.421  1.00  0.00    -0.339 C  
HETATM   12  C   UNL     1     -11.677  11.819  69.746  1.00  0.00    -0.335 C  
HETATM   13  N   UNL     1     -11.599  10.716  70.576  1.00  0.00    -0.336 NA 
HETATM   14  C   UNL     1     -12.083  13.070  70.501  1.00  0.00    -0.373 C  
HETATM   15  C   UNL     1     -11.105   9.478  70.228  1.00  0.00    -0.271 C  
HETATM   16  C   UNL     1     -10.772   9.220  68.942  1.00  0.00    -0.182 C  
HETATM   17  C   UNL     1     -10.980   8.499  71.370  1.00  0.00    -0.329 C  
HETATM   18  C   UNL     1     -10.992  10.289  67.850  1.00  0.00    -0.350 C  
BRANCH  16  19
HETATM   19  C   UNL     1     -10.139   7.912  68.616  1.00  0.00    -0.197 C  
HETATM   20  O   UNL     1      -8.937   7.697  68.665  1.00  0.00    -0.134 OA 
BRANCH  19  21
HETATM   21  O   UNL     1     -11.060   6.996  68.224  1.00  0.00    -0.122 OA 
HETATM   22  C   UNL     1     -10.875   6.535  66.883  1.00  0.00    -0.357 C  
ENDBRANCH  19  21
ENDBRANCH  16  19
BRANCH  18  23
HETATM   23  C   UNL     1      -9.789  10.375  66.898  1.00  0.00    -0.236 A  
HETATM   24  C   UNL     1      -9.965   9.991  65.555  1.00  0.00    -0.367 A  
HETATM   25  C   UNL     1      -8.916  10.069  64.645  1.00  0.00    -0.249 A  
HETATM   26  C   UNL     1      -7.667  10.546  65.055  1.00  0.00    -0.039 A  
HETATM   27  C   UNL     1      -7.464  10.921  66.386  1.00  0.00    -0.145 A  
HETATM   28 CL   UNL     1      -5.885  11.501  66.805  1.00  0.00    -0.134 Cl 
HETATM   29  C   UNL     1      -8.514  10.839  67.315  1.00  0.00    -0.124 A  
HETATM   30 CL   UNL     1      -8.232  11.320  68.964  1.00  0.00    -0.079 Cl 
ENDBRANCH  18  23
ENDBRANCH   9  11
ENDBRANCH   8   9
ENDBRANCH   7   8
ENDBRANCH   6   7
ENDBRANCH   4   6
ENDBRANCH   3   4
ENDBRANCH   2   3
TORSDOF 10
ENDMDL
MODEL       14
REMARK 921   NORMALIZED FREE ENERGY PREDICTED BY IDOCK:   -5.76 KCAL/MOL
REMARK 922        TOTAL FREE ENERGY PREDICTED BY IDOCK:  -10.54 KCAL/MOL
REMARK 923 INTER-LIGAND FREE ENERGY PREDICTED BY IDOCK:   -9.12 KCAL/MOL
REMARK 924 INTRA-LIGAND FREE ENERGY PREDICTED BY IDOCK:   -1.42 KCAL/MOL
REMARK 927      BINDING AFFINITY PREDICTED BY RF-SCORE:    0.00 PKD
ROOT
HETATM    1  C   UNL     1      -9.575  20.407  67.215  1.00  0.00    -0.592 C  
HETATM    2  C   UNL     1      -9.954  19.025  67.720  1.00  0.00    -0.426 C  
ENDROOT
BRANCH   2   3
HETATM    3  C   UNL     1     -10.952  18.352  66.788  1.00  0.00     0.051 C  
BRANCH   3   4
HETATM    4  C   UNL     1     -10.255  17.564  65.707  1.00  0.00    -0.173 C  
HETATM    5  O   UNL     1      -9.102  17.159  65.754  1.00  0.00    -0.525 OA 
BRANCH   4   6
HETATM    6  O   UNL     1     -11.133  17.326  64.704  1.00  0.00    -1.052 OA 
BRANCH   6   7
HETATM    7  C   UNL     1     -11.323  15.957  64.377  1.00  0.00    -0.267 C  
BRANCH   7   8
HETATM    8  O   UNL     1     -11.131  15.009  65.427  1.00  0.00    -0.344 OA 
BRANCH   8   9
HETATM    9  C   UNL     1     -11.978  13.965  65.480  1.00  0.00    -0.383 C  
HETATM   10  O   UNL     1     -13.183  14.058  65.640  1.00  0.00    -0.634 OA 
BRANCH   9  11
HETATM   11  C   UNL     1     -11.222  12.668  65.501  1.00  0.00    -0.337 C  
HETATM   12  C   UNL     1     -11.235  11.755  64.495  1.00  0.00    -0.305 C  
HETATM   13  N   UNL     1     -10.370  10.677  64.542  1.00  0.00    -0.339 NA 
HETATM   14  C   UNL     1     -12.094  11.739  63.246  1.00  0.00    -0.375 C  
HETATM   15  C   UNL     1      -9.581  10.323  65.615  1.00  0.00    -0.232 C  
HETATM   16  C   UNL     1      -9.505  11.133  66.695  1.00  0.00    -0.204 C  
HETATM   17  C   UNL     1      -8.856   9.007  65.463  1.00  0.00    -0.233 C  
HETATM   18  C   UNL     1     -10.257  12.482  66.713  1.00  0.00    -0.243 C  
BRANCH  16  19
HETATM   19  C   UNL     1      -8.731  10.673  67.882  1.00  0.00    -0.127 C  
HETATM   20  O   UNL     1      -7.656  11.140  68.226  1.00  0.00    -0.099 OA 
BRANCH  19  21
HETATM   21  O   UNL     1      -9.352   9.645  68.514  1.00  0.00    -0.136 OA 
HETATM   22  C   UNL     1      -9.069   9.581  69.915  1.00  0.00    -0.216 C  
ENDBRANCH  19  21
ENDBRANCH  16  19
BRANCH  18  23
HETATM   23  C   UNL     1     -10.946  12.722  68.064  1.00  0.00    -0.266 A  
HETATM   24  C   UNL     1     -11.843  11.749  68.545  1.00  0.00    -0.365 A  
HETATM   25  C   UNL     1     -12.478  11.904  69.773  1.00  0.00    -0.011 A  
HETATM   26  C   UNL     1     -12.222  13.034  70.556  1.00  0.00    -0.392 A  
HETATM   27  C   UNL     1     -11.346  14.021  70.094  1.00  0.00    -0.047 A  
HETATM   28 CL   UNL     1     -11.088  15.386  71.130  1.00  0.00    -0.398 Cl 
HETATM   29  C   UNL     1     -10.705  13.877  68.853  1.00  0.00    -0.236 A  
HETATM   30 CL   UNL     1      -9.614  15.120  68.309  1.00  0.00    -0.207 Cl 
ENDBRANCH  18  23
ENDBRANCH   9  11
ENDBRANCH   8   9
ENDBRANCH   7   8
ENDBRANCH   6   7
ENDBRANCH   4   6
ENDBRANCH   3   4
ENDBRANCH   2   3
TORSDOF 10
ENDMDL
MODEL       15
REMARK 921   NORMALIZED FREE ENERGY PREDICTED BY IDOCK:   -5.74 KCAL/MOL
REMARK 922        TOTAL FREE ENERGY PREDICTED BY IDOCK:  -10.50 KCAL/MOL
REMARK 923 INTER-LIGAND FREE ENERGY PREDICTED BY IDOCK:   -8.69 KCAL/MOL
REMARK 924 INTRA-LIGAND FREE ENERGY PREDICTED BY IDOCK:   -1.81 KCAL/MOL
REMARK 927      BINDING AFFINITY PREDICTED BY RF-SCORE:    0.00 PKD
ROOT
HETATM    1  C   UNL     1      -7.491   9.399  62.446  1.00  0.00    -0.109 C  
HETATM    2  C   UNL     1      -8.571  10.434  62.713  1.00  0.00    -0.208 C  
ENDROOT
BRANCH   2   3
HETATM    3  C   UNL     1      -9.338  10.115  63.988  1.00  0.00    -0.339 C  
BRANCH   3   4
HETATM    4  C   UNL     1     -10.229  11.260  64.401  1.00  0.00    -0.320 C  
HETATM    5  O   UNL     1     -11.012  11.850  63.670  1.00  0.00    -0.371 OA 
BRANCH   4   6
HETATM    6  O   UNL     1     -10.065  11.486  65.726  1.00  0.00    -0.219 OA 
BRANCH   6   7
HETATM    7  C   UNL     1     -10.039  10.323  66.541  1.00  0.00    -0.231 C  
BRANCH   7   8
HETATM    8  O   UNL     1     -10.814  10.356  67.738  1.00  0.00    -0.254 OA 
BRANCH   8   9
HETATM    9  C   UNL     1     -10.223  10.845  68.845  1.00  0.00    -0.198 C  
HETATM   10  O   UNL     1      -9.062  10.642  69.157  1.00  0.00    -0.181 OA 
BRANCH   9  11
HETATM   11  C   UNL     1     -11.231  11.517  69.731  1.00  0.00    -0.237 C  
HETATM   12  C   UNL     1     -12.061  10.861  70.585  1.00  0.00    -0.371 C  
HETATM   13  N   UNL     1     -12.830  11.585  71.478  1.00  0.00    -0.409 NA 
HETATM   14  C   UNL     1     -12.283   9.368  70.726  1.00  0.00    -0.228 C  
HETATM   15  C   UNL     1     -12.975  12.956  71.491  1.00  0.00    -0.294 C  
HETATM   16  C   UNL     1     -12.226  13.722  70.665  1.00  0.00    -0.434 C  
HETATM   17  C   UNL     1     -14.003  13.477  72.466  1.00  0.00    -0.557 C  
HETATM   18  C   UNL     1     -11.169  13.076  69.744  1.00  0.00    -0.010 C  
BRANCH  16  19
HETATM   19  C   UNL     1     -12.482  15.189  70.624  1.00  0.00    -0.388 C  
HETATM   20  O   UNL     1     -13.450  15.704  70.086  1.00  0.00    -0.048 OA 
BRANCH  19  21
HETATM   21  O   UNL     1     -11.488  15.886  71.230  1.00  0.00    -0.387 OA 
HETATM   22  C   UNL     1     -11.804  16.290  72.566  1.00  0.00    -0.510 C  
ENDBRANCH  19  21
ENDBRANCH  16  19
BRANCH  18  23
HETATM   23  C   UNL     1     -11.206  13.684  68.334  1.00  0.00    -0.306 A  
HETATM   24  C   UNL     1     -12.281  13.354  67.487  1.00  0.00    -0.231 A  
HETATM   25  C   UNL     1     -12.376  13.893  66.208  1.00  0.00    -0.489 A  
HETATM   26  C   UNL     1     -11.402  14.786  65.750  1.00  0.00    -0.336 A  
HETATM   27  C   UNL     1     -10.318  15.118  66.568  1.00  0.00    -0.282 A  
HETATM   28 CL   UNL     1      -9.160  16.232  65.919  1.00  0.00    -0.320 Cl 
HETATM   29  C   UNL     1     -10.209  14.574  67.858  1.00  0.00    -0.231 A  
HETATM   30 CL   UNL     1      -8.851  15.013  68.855  1.00  0.00    -0.194 Cl 
ENDBRANCH  18  23
ENDBRANCH   9  11
ENDBRANCH   8   9
ENDBRANCH   7   8
ENDBRANCH   6   7
ENDBRANCH   4   6
ENDBRANCH   3   4
ENDBRANCH   2   3
TORSDOF 10
ENDMDL
MODEL       16
REMARK 921   NORMALIZED FREE ENERGY PREDICTED BY IDOCK:   -5.74 KCAL/MOL
REMARK 922        TOTAL FREE ENERGY PREDICTED BY IDOCK:  -10.49 KCAL/MOL
REMARK 923 INTER-LIGAND FREE ENERGY PREDICTED BY IDOCK:   -8.44 KCAL/MOL
REMARK 924 INTRA-LIGAND FREE ENERGY PREDICTED BY IDOCK:   -2.06 KCAL/MOL
REMARK 927      BINDING AFFINITY PREDICTED BY RF-SCORE:    0.00 PKD
ROOT
HETATM    1  C   UNL     1     -12.203  14.336  64.869  1.00  0.00    -0.449 C  
HETATM    2  C   UNL     1     -12.610  12.879  64.728  1.00  0.00    -0.493 C  
ENDROOT
BRANCH   2   3
HETATM    3  C   UNL     1     -12.023  12.262  63.466  1.00  0.00    -0.625 C  
BRANCH   3   4
HETATM    4  C   UNL     1     -10.616  11.767  63.694  1.00  0.00    -0.439 C  
HETATM    5  O   UNL     1      -9.671  11.939  62.937  1.00  0.00    -0.349 OA 
BRANCH   4   6
HETATM    6  O   UNL     1     -10.557  11.157  64.902  1.00  0.00    -0.309 OA 
BRANCH   6   7
HETATM    7  C   UNL     1      -9.565  10.149  65.023  1.00  0.00    -0.299 C  
BRANCH   7   8
HETATM    8  O   UNL     1      -9.973   8.906  65.594  1.00  0.00    -0.108 OA 
BRANCH   8   9
HETATM    9  C   UNL     1      -9.118   8.305  66.443  1.00  0.00    -0.182 C  
HETATM   10  O   UNL     1      -7.953   8.052  66.189  1.00  0.00    -0.096 OA 
BRANCH   9  11
HETATM   11  C   UNL     1      -9.838   7.826  67.670  1.00  0.00    -0.208 C  
HETATM   12  C   UNL     1     -10.485   6.634  67.765  1.00  0.00    -0.225 C  
HETATM   13  N   UNL     1     -10.968   6.217  68.991  1.00  0.00    -0.340 NA 
HETATM   14  C   UNL     1     -10.767   5.624  66.671  1.00  0.00    -0.339 C  
HETATM   15  C   UNL     1     -11.012   6.976  70.141  1.00  0.00    -0.272 C  
HETATM   16  C   UNL     1     -10.432   8.197  70.168  1.00  0.00    -0.225 C  
HETATM   17  C   UNL     1     -11.742   6.335  71.297  1.00  0.00    -0.300 C  
HETATM   18  C   UNL     1      -9.670   8.726  68.933  1.00  0.00    -0.174 C  
BRANCH  16  19
HETATM   19  C   UNL     1     -10.590   9.038  71.387  1.00  0.00    -0.323 C  
HETATM   20  O   UNL     1     -11.636   9.573  71.722  1.00  0.00    -0.385 OA 
BRANCH  19  21
HETATM   21  O   UNL     1      -9.420   9.163  72.062  1.00  0.00    -0.323 OA 
HETATM   22  C   UNL     1      -9.212   8.142  73.041  1.00  0.00    -0.273 C  
ENDBRANCH  19  21
ENDBRANCH  16  19
BRANCH  18  23
HETATM   23  C   UNL     1     -10.000  10.201  68.660  1.00  0.00    -0.181 A  
HETATM   24  C   UNL     1     -11.337  10.554  68.397  1.00  0.00    -0.328 A  
HETATM   25  C   UNL     1     -11.696  11.878  68.165  1.00  0.00    -0.388 A  
HETATM   26  C   UNL     1     -10.725  12.884  68.202  1.00  0.00    -0.258 A  
HETATM   27  C   UNL     1      -9.388  12.556  68.447  1.00  0.00    -0.149 A  
HETATM   28 CL   UNL     1      -8.253  13.866  68.475  1.00  0.00    -0.146 Cl 
HETATM   29  C   UNL     1      -9.014  11.222  68.676  1.00  0.00    -0.147 A  
HETATM   30 CL   UNL     1      -7.342  10.847  68.986  1.00  0.00    -0.103 Cl 
ENDBRANCH  18  23
ENDBRANCH   9  11
ENDBRANCH   8   9
ENDBRANCH   7   8
ENDBRANCH   6   7
ENDBRANCH   4   6
ENDBRANCH   3   4
ENDBRANCH   2   3
TORSDOF 10
ENDMDL
MODEL       17
REMARK 921   NORMALIZED FREE ENERGY PREDICTED BY IDOCK:   -5.73 KCAL/MOL
REMARK 922        TOTAL FREE ENERGY PREDICTED BY IDOCK:  -10.48 KCAL/MOL
REMARK 923 INTER-LIGAND FREE ENERGY PREDICTED BY IDOCK:   -8.54 KCAL/MOL
REMARK 924 INTRA-LIGAND FREE ENERGY PREDICTED BY IDOCK:   -1.94 KCAL/MOL
REMARK 927      BINDING AFFINITY PREDICTED BY RF-SCORE:    0.00 PKD
ROOT
HETATM    1  C   UNL     1     -12.294  12.105  63.529  1.00  0.00    -0.682 C  
HETATM    2  C   UNL     1     -12.028  13.588  63.725  1.00  0.00    -0.475 C  
ENDROOT
BRANCH   2   3
HETATM    3  C   UNL     1     -10.739  13.818  64.500  1.00  0.00    -0.405 C  
BRANCH   3   4
HETATM    4  C   UNL     1     -10.685  15.207  65.087  1.00  0.00    -0.422 C  
HETATM    5  O   UNL     1     -11.062  16.228  64.529  1.00  0.00    -0.672 OA 
BRANCH   4   6
HETATM    6  O   UNL     1     -10.211  15.130  66.352  1.00  0.00    -0.262 OA 
BRANCH   6   7
HETATM    7  C   UNL     1     -11.188  14.875  67.351  1.00  0.00    -0.338 C  
BRANCH   7   8
HETATM    8  O   UNL     1     -10.954  13.762  68.214  1.00  0.00    -0.235 OA 
BRANCH   8   9
HETATM    9  C   UNL     1     -11.623  12.624  67.952  1.00  0.00    -0.349 C  
HETATM   10  O   UNL     1     -12.405  12.478  67.027  1.00  0.00    -0.403 OA 
BRANCH   9  11
HETATM   11  C   UNL     1     -11.419  11.623  69.051  1.00  0.00    -0.356 C  
HETATM   12  C   UNL     1     -11.984  11.710  70.284  1.00  0.00    -0.358 C  
HETATM   13  N   UNL     1     -11.867  10.649  71.163  1.00  0.00    -0.300 NA 
HETATM   14  C   UNL     1     -12.778  12.856  70.880  1.00  0.00    -0.291 C  
HETATM   15  C   UNL     1     -11.076   9.536  70.983  1.00  0.00    -0.363 C  
HETATM   16  C   UNL     1     -10.433   9.346  69.808  1.00  0.00    -0.243 C  
HETATM   17  C   UNL     1     -11.005   8.607  72.172  1.00  0.00    -0.434 C  
HETATM   18  C   UNL     1     -10.623  10.344  68.645  1.00  0.00    -0.234 C  
BRANCH  16  19
HETATM   19  C   UNL     1      -9.500   8.192  69.682  1.00  0.00    -0.159 C  
HETATM   20  O   UNL     1      -8.376   8.160  70.160  1.00  0.00    -0.120 OA 
BRANCH  19  21
HETATM   21  O   UNL     1     -10.041   7.193  68.940  1.00  0.00    -0.167 OA 
HETATM   22  C   UNL     1      -9.169   6.704  67.917  1.00  0.00    -0.111 C  
ENDBRANCH  19  21
ENDBRANCH  16  19
BRANCH  18  23
HETATM   23  C   UNL     1      -9.287  10.668  67.960  1.00  0.00    -0.151 A  
HETATM   24  C   UNL     1      -8.316  11.386  68.684  1.00  0.00    -0.136 A  
HETATM   25  C   UNL     1      -7.080  11.688  68.121  1.00  0.00    -0.078 A  
HETATM   26  C   UNL     1      -6.781  11.267  66.821  1.00  0.00    -0.140 A  
HETATM   27  C   UNL     1      -7.734  10.564  66.077  1.00  0.00    -0.147 A  
HETATM   28 CL   UNL     1      -7.278  10.082  64.477  1.00  0.00    -0.138 Cl 
HETATM   29  C   UNL     1      -8.987  10.261  66.634  1.00  0.00    -0.140 A  
HETATM   30 CL   UNL     1     -10.150   9.378  65.685  1.00  0.00    -0.230 Cl 
ENDBRANCH  18  23
ENDBRANCH   9  11
ENDBRANCH   8   9
ENDBRANCH   7   8
ENDBRANCH   6   7
ENDBRANCH   4   6
ENDBRANCH   3   4
ENDBRANCH   2   3
TORSDOF 10
ENDMDL
MODEL       18
REMARK 921   NORMALIZED FREE ENERGY PREDICTED BY IDOCK:   -5.72 KCAL/MOL
REMARK 922        TOTAL FREE ENERGY PREDICTED BY IDOCK:  -10.46 KCAL/MOL
REMARK 923 INTER-LIGAND FREE ENERGY PREDICTED BY IDOCK:   -8.96 KCAL/MOL
REMARK 924 INTRA-LIGAND FREE ENERGY PREDICTED BY IDOCK:   -1.51 KCAL/MOL
REMARK 927      BINDING AFFINITY PREDICTED BY RF-SCORE:    0.00 PKD
ROOT
HETATM    1  C   UNL     1     -11.281   5.872  72.337  1.00  0.00    -0.340 C  
HETATM    2  C   UNL     1     -11.912   6.582  71.151  1.00  0.00    -0.365 C  
ENDROOT
BRANCH   2   3
HETATM    3  C   UNL     1     -13.183   7.313  71.560  1.00  0.00    -0.434 C  
BRANCH   3   4
HETATM    4  C   UNL     1     -12.905   8.752  71.916  1.00  0.00    -0.375 C  
HETATM    5  O   UNL     1     -13.695   9.518  72.449  1.00  0.00    -0.438 OA 
BRANCH   4   6
HETATM    6  O   UNL     1     -11.618   9.039  71.605  1.00  0.00    -0.307 OA 
BRANCH   6   7
HETATM    7  C   UNL     1     -11.417  10.277  70.939  1.00  0.00    -0.339 C  
BRANCH   7   8
HETATM    8  O   UNL     1     -11.426  10.251  69.512  1.00  0.00    -0.242 OA 
BRANCH   8   9
HETATM    9  C   UNL     1     -10.249  10.429  68.883  1.00  0.00    -0.205 C  
HETATM   10  O   UNL     1      -9.161  10.419  69.434  1.00  0.00    -0.196 OA 
BRANCH   9  11
HETATM   11  C   UNL     1     -10.466  10.819  67.450  1.00  0.00    -0.268 C  
HETATM   12  C   UNL     1     -10.211  10.012  66.387  1.00  0.00    -0.221 C  
HETATM   13  N   UNL     1     -10.607  10.407  65.122  1.00  0.00    -0.096 NA 
HETATM   14  C   UNL     1      -9.528   8.659  66.371  1.00  0.00    -0.295 C  
HETATM   15  C   UNL     1     -11.105  11.646  64.783  1.00  0.00    -0.264 C  
HETATM   16  C   UNL     1     -11.373  12.555  65.749  1.00  0.00    -0.373 C  
HETATM   17  C   UNL     1     -11.302  11.869  63.303  1.00  0.00    -0.373 C  
HETATM   18  C   UNL     1     -11.175  12.193  67.237  1.00  0.00    -0.366 C  
BRANCH  16  19
HETATM   19  C   UNL     1     -11.806  13.921  65.345  1.00  0.00    -0.355 C  
HETATM   20  O   UNL     1     -12.950  14.338  65.444  1.00  0.00    -0.654 OA 
BRANCH  19  21
HETATM   21  O   UNL     1     -10.778  14.636  64.820  1.00  0.00    -0.412 OA 
HETATM   22  C   UNL     1     -10.741  15.995  65.265  1.00  0.00    -0.399 C  
ENDBRANCH  19  21
ENDBRANCH  16  19
BRANCH  18  23
HETATM   23  C   UNL     1     -10.499  13.337  68.008  1.00  0.00    -0.248 A  
HETATM   24  C   UNL     1      -9.213  13.747  67.611  1.00  0.00    -0.207 A  
HETATM   25  C   UNL     1      -8.563  14.792  68.260  1.00  0.00    -0.164 A  
HETATM   26  C   UNL     1      -9.192  15.461  69.315  1.00  0.00    -0.259 A  
HETATM   27  C   UNL     1     -10.464  15.063  69.735  1.00  0.00    -0.186 A  
HETATM   28 CL   UNL     1     -11.168  15.948  71.049  1.00  0.00    -0.389 Cl 
HETATM   29  C   UNL     1     -11.126  14.004  69.092  1.00  0.00    -0.259 A  
HETATM   30 CL   UNL     1     -12.713  13.537  69.634  1.00  0.00     0.071 Cl 
ENDBRANCH  18  23
ENDBRANCH   9  11
ENDBRANCH   8   9
ENDBRANCH   7   8
ENDBRANCH   6   7
ENDBRANCH   4   6
ENDBRANCH   3   4
ENDBRANCH   2   3
TORSDOF 10
ENDMDL
MODEL       19
REMARK 921   NORMALIZED FREE ENERGY PREDICTED BY IDOCK:   -5.69 KCAL/MOL
REMARK 922        TOTAL FREE ENERGY PREDICTED BY IDOCK:  -10.42 KCAL/MOL
REMARK 923 INTER-LIGAND FREE ENERGY PREDICTED BY IDOCK:   -8.82 KCAL/MOL
REMARK 924 INTRA-LIGAND FREE ENERGY PREDICTED BY IDOCK:   -1.61 KCAL/MOL
REMARK 927      BINDING AFFINITY PREDICTED BY RF-SCORE:    0.00 PKD
ROOT
HETATM    1  C   UNL     1     -12.406  15.990  74.559  1.00  0.00    -0.698 C  
HETATM    2  C   UNL     1     -12.920  15.521  73.208  1.00  0.00    -0.654 C  
ENDROOT
BRANCH   2   3
HETATM    3  C   UNL     1     -11.959  15.901  72.090  1.00  0.00    -0.612 C  
BRANCH   3   4
HETATM    4  C   UNL     1     -12.547  15.610  70.732  1.00  0.00    -0.431 C  
HETATM    5  O   UNL     1     -13.736  15.455  70.491  1.00  0.00    -0.237 OA 
BRANCH   4   6
HETATM    6  O   UNL     1     -11.551  15.613  69.815  1.00  0.00    -0.303 OA 
BRANCH   6   7
HETATM    7  C   UNL     1     -11.635  14.596  68.827  1.00  0.00    -0.317 C  
BRANCH   7   8
HETATM    8  O   UNL     1     -11.013  13.347  69.129  1.00  0.00    -0.237 OA 
BRANCH   8   9
HETATM    9  C   UNL     1     -11.553  12.240  68.588  1.00  0.00    -0.323 C  
HETATM   10  O   UNL     1     -12.121  12.202  67.509  1.00  0.00    -0.534 OA 
BRANCH   9  11
HETATM   11  C   UNL     1     -11.525  11.102  69.567  1.00  0.00    -0.374 C  
HETATM   12  C   UNL     1     -12.224  11.074  70.732  1.00  0.00    -0.380 C  
HETATM   13  N   UNL     1     -12.260   9.909  71.476  1.00  0.00    -0.394 NA 
HETATM   14  C   UNL     1     -13.030  12.184  71.377  1.00  0.00    -0.357 C  
HETATM   15  C   UNL     1     -11.505   8.780  71.244  1.00  0.00    -0.292 C  
HETATM   16  C   UNL     1     -10.739   8.696  70.132  1.00  0.00    -0.244 C  
HETATM   17  C   UNL     1     -11.616   7.711  72.305  1.00  0.00    -0.370 C  
HETATM   18  C   UNL     1     -10.746   9.836  69.092  1.00  0.00    -0.242 C  
BRANCH  16  19
HETATM   19  C   UNL     1      -9.852   7.511  69.963  1.00  0.00    -0.180 C  
HETATM   20  O   UNL     1      -8.767   7.381  70.509  1.00  0.00    -0.144 OA 
BRANCH  19  21
HETATM   21  O   UNL     1     -10.383   6.609  69.100  1.00  0.00    -0.174 OA 
HETATM   22  C   UNL     1     -10.070   5.252  69.425  1.00  0.00    -0.241 C  
ENDBRANCH  19  21
ENDBRANCH  16  19
BRANCH  18  23
HETATM   23  C   UNL     1      -9.326  10.160  68.604  1.00  0.00    -0.161 A  
HETATM   24  C   UNL     1      -8.395  10.664  69.532  1.00  0.00    -0.013 A  
HETATM   25  C   UNL     1      -7.089  10.954  69.150  1.00  0.00    -0.109 A  
HETATM   26  C   UNL     1      -6.679  10.734  67.831  1.00  0.00    -0.064 A  
HETATM   27  C   UNL     1      -7.590  10.247  66.888  1.00  0.00    -0.105 A  
HETATM   28 CL   UNL     1      -6.996  10.004  65.279  1.00  0.00    -0.126 Cl 
HETATM   29  C   UNL     1      -8.912   9.958  67.262  1.00  0.00    -0.135 A  
HETATM   30 CL   UNL     1     -10.020   9.345  66.067  1.00  0.00    -0.370 Cl 
ENDBRANCH  18  23
ENDBRANCH   9  11
ENDBRANCH   8   9
ENDBRANCH   7   8
ENDBRANCH   6   7
ENDBRANCH   4   6
ENDBRANCH   3   4
ENDBRANCH   2   3
TORSDOF 10
ENDMDL
MODEL       20
REMARK 921   NORMALIZED FREE ENERGY PREDICTED BY IDOCK:   -5.65 KCAL/MOL
REMARK 922        TOTAL FREE ENERGY PREDICTED BY IDOCK:  -10.35 KCAL/MOL
REMARK 923 INTER-LIGAND FREE ENERGY PREDICTED BY IDOCK:   -8.72 KCAL/MOL
REMARK 924 INTRA-LIGAND FREE ENERGY PREDICTED BY IDOCK:   -1.63 KCAL/MOL
REMARK 927      BINDING AFFINITY PREDICTED BY RF-SCORE:    0.00 PKD
ROOT
HETATM    1  C   UNL     1     -12.269  15.536  73.885  1.00  0.00    -0.715 C  
HETATM    2  C   UNL     1     -13.510  15.873  73.074  1.00  0.00    -0.653 C  
ENDROOT
BRANCH   2   3
HETATM    3  C   UNL     1     -13.522  15.124  71.749  1.00  0.00    -0.529 C  
BRANCH   3   4
HETATM    4  C   UNL     1     -13.593  13.631  71.957  1.00  0.00    -0.495 C  
HETATM    5  O   UNL     1     -14.397  13.051  72.672  1.00  0.00    -0.565 OA 
BRANCH   4   6
HETATM    6  O   UNL     1     -12.661  13.036  71.175  1.00  0.00    -0.354 OA 
BRANCH   6   7
HETATM    7  C   UNL     1     -12.222  13.804  70.064  1.00  0.00    -0.342 C  
BRANCH   7   8
HETATM    8  O   UNL     1     -11.859  13.086  68.885  1.00  0.00    -0.302 OA 
BRANCH   8   9
HETATM    9  C   UNL     1     -10.764  13.501  68.220  1.00  0.00    -0.258 C  
HETATM   10  O   UNL     1     -10.052  14.427  68.570  1.00  0.00    -0.232 OA 
BRANCH   9  11
HETATM   11  C   UNL     1     -10.643  12.792  66.903  1.00  0.00    -0.257 C  
HETATM   12  C   UNL     1     -11.401  13.069  65.809  1.00  0.00    -0.301 C  
HETATM   13  N   UNL     1     -11.092  12.476  64.599  1.00  0.00    -0.293 NA 
HETATM   14  C   UNL     1     -12.600  13.990  65.700  1.00  0.00    -0.542 C  
HETATM   15  C   UNL     1     -10.167  11.474  64.405  1.00  0.00    -0.300 C  
HETATM   16  C   UNL     1      -9.369  11.083  65.425  1.00  0.00    -0.244 C  
HETATM   17  C   UNL     1     -10.145  10.890  63.012  1.00  0.00    -0.251 C  
HETATM   18  C   UNL     1      -9.451  11.791  66.794  1.00  0.00    -0.202 C  
BRANCH  16  19
HETATM   19  C   UNL     1      -8.456   9.925  65.215  1.00  0.00    -0.150 C  
HETATM   20  O   UNL     1      -8.793   8.755  65.320  1.00  0.00    -0.192 OA 
BRANCH  19  21
HETATM   21  O   UNL     1      -7.194  10.331  64.927  1.00  0.00    -0.136 OA 
HETATM   22  C   UNL     1      -6.194   9.711  65.740  1.00  0.00    -0.066 C  
ENDBRANCH  19  21
ENDBRANCH  16  19
BRANCH  18  23
HETATM   23  C   UNL     1      -9.416  10.781  67.951  1.00  0.00    -0.165 A  
HETATM   24  C   UNL     1     -10.500   9.896  68.105  1.00  0.00    -0.256 A  
HETATM   25  C   UNL     1     -10.510   8.946  69.121  1.00  0.00    -0.236 A  
HETATM   26  C   UNL     1      -9.429   8.852  70.003  1.00  0.00    -0.189 A  
HETATM   27  C   UNL     1      -8.347   9.729  69.880  1.00  0.00    -0.184 A  
HETATM   28 CL   UNL     1      -7.052   9.540  71.015  1.00  0.00    -0.066 Cl 
HETATM   29  C   UNL     1      -8.331  10.696  68.861  1.00  0.00    -0.150 A  
HETATM   30 CL   UNL     1      -6.966  11.769  68.728  1.00  0.00    -0.097 Cl 
ENDBRANCH  18  23
ENDBRANCH   9  11
ENDBRANCH   8   9
ENDBRANCH   7   8
ENDBRANCH   6   7
ENDBRANCH   4   6
ENDBRANCH   3   4
ENDBRANCH   2   3
TORSDOF 10
ENDMDL
MODEL       21
REMARK 921   NORMALIZED FREE ENERGY PREDICTED BY IDOCK:   -5.65 KCAL/MOL
REMARK 922        TOTAL FREE ENERGY PREDICTED BY IDOCK:  -10.35 KCAL/MOL
REMARK 923 INTER-LIGAND FREE ENERGY PREDICTED BY IDOCK:   -8.81 KCAL/MOL
REMARK 924 INTRA-LIGAND FREE ENERGY PREDICTED BY IDOCK:   -1.54 KCAL/MOL
REMARK 927      BINDING AFFINITY PREDICTED BY RF-SCORE:    0.00 PKD
ROOT
HETATM    1  C   UNL     1      -9.889   4.308  66.920  1.00  0.00    -0.224 C  
HETATM    2  C   UNL     1     -10.552   5.636  66.598  1.00  0.00    -0.361 C  
ENDROOT
BRANCH   2   3
HETATM    3  C   UNL     1     -10.849   6.426  67.864  1.00  0.00    -0.404 C  
BRANCH   3   4
HETATM    4  C   UNL     1     -10.475   7.880  67.712  1.00  0.00    -0.212 C  
HETATM    5  O   UNL     1     -10.372   8.478  66.650  1.00  0.00    -0.298 OA 
BRANCH   4   6
HETATM    6  O   UNL     1     -10.335   8.427  68.942  1.00  0.00    -0.214 OA 
BRANCH   6   7
HETATM    7  C   UNL     1      -9.837   9.757  68.960  1.00  0.00    -0.181 C  
BRANCH   7   8
HETATM    8  O   UNL     1     -10.579  10.714  69.715  1.00  0.00    -0.238 OA 
BRANCH   8   9
HETATM    9  C   UNL     1     -11.613  11.319  69.101  1.00  0.00    -0.319 C  
HETATM   10  O   UNL     1     -12.517  10.733  68.529  1.00  0.00    -0.289 OA 
BRANCH   9  11
HETATM   11  C   UNL     1     -11.409  12.805  69.056  1.00  0.00    -0.346 C  
HETATM   12  C   UNL     1     -11.872  13.672  69.995  1.00  0.00    -0.308 C  
HETATM   13  N   UNL     1     -11.483  14.998  69.948  1.00  0.00    -0.271 NA 
HETATM   14  C   UNL     1     -12.797  13.394  71.163  1.00  0.00    -0.372 C  
HETATM   15  C   UNL     1     -10.781  15.597  68.924  1.00  0.00    -0.238 C  
HETATM   16  C   UNL     1     -10.292  14.847  67.911  1.00  0.00    -0.237 C  
HETATM   17  C   UNL     1     -10.631  17.094  69.047  1.00  0.00    -0.282 C  
HETATM   18  C   UNL     1     -10.468  13.313  67.920  1.00  0.00    -0.244 C  
BRANCH  16  19
HETATM   19  C   UNL     1      -9.634  15.534  66.765  1.00  0.00    -0.235 C  
HETATM   20  O   UNL     1      -8.424  15.628  66.622  1.00  0.00    -0.247 OA 
BRANCH  19  21
HETATM   21  O   UNL     1     -10.545  16.074  65.917  1.00  0.00    -0.327 OA 
HETATM   22  C   UNL     1     -10.327  17.463  65.651  1.00  0.00    -0.149 C  
ENDBRANCH  19  21
ENDBRANCH  16  19
BRANCH  18  23
HETATM   23  C   UNL     1     -10.871  12.785  66.535  1.00  0.00    -0.280 A  
HETATM   24  C   UNL     1     -12.131  13.144  66.018  1.00  0.00    -0.495 A  
HETATM   25  C   UNL     1     -12.538  12.714  64.760  1.00  0.00    -0.530 A  
HETATM   26  C   UNL     1     -11.688  11.921  63.982  1.00  0.00    -0.469 A  
HETATM   27  C   UNL     1     -10.438  11.540  64.478  1.00  0.00    -0.314 A  
HETATM   28 CL   UNL     1      -9.451  10.559  63.446  1.00  0.00    -0.321 Cl 
HETATM   29  C   UNL     1     -10.020  11.964  65.750  1.00  0.00    -0.236 A  
HETATM   30 CL   UNL     1      -8.454  11.480  66.338  1.00  0.00    -0.166 Cl 
ENDBRANCH  18  23
ENDBRANCH   9  11
ENDBRANCH   8   9
ENDBRANCH   7   8
ENDBRANCH   6   7
ENDBRANCH   4   6
ENDBRANCH   3   4
ENDBRANCH   2   3
TORSDOF 10
ENDMDL
MODEL       22
REMARK 921   NORMALIZED FREE ENERGY PREDICTED BY IDOCK:   -5.63 KCAL/MOL
REMARK 922        TOTAL FREE ENERGY PREDICTED BY IDOCK:  -10.32 KCAL/MOL
REMARK 923 INTER-LIGAND FREE ENERGY PREDICTED BY IDOCK:   -8.39 KCAL/MOL
REMARK 924 INTRA-LIGAND FREE ENERGY PREDICTED BY IDOCK:   -1.93 KCAL/MOL
REMARK 927      BINDING AFFINITY PREDICTED BY RF-SCORE:    0.00 PKD
ROOT
HETATM    1  C   UNL     1      -9.913   8.361  66.678  1.00  0.00    -0.354 C  
HETATM    2  C   UNL     1      -9.324   7.835  67.976  1.00  0.00    -0.146 C  
ENDROOT
BRANCH   2   3
HETATM    3  C   UNL     1      -7.875   8.273  68.141  1.00  0.00    -0.118 C  
BRANCH   3   4
HETATM    4  C   UNL     1      -7.775   9.607  68.838  1.00  0.00    -0.077 C  
HETATM    5  O   UNL     1      -8.153   9.844  69.976  1.00  0.00    -0.173 OA 
BRANCH   4   6
HETATM    6  O   UNL     1      -7.144  10.482  68.019  1.00  0.00    -0.083 OA 
BRANCH   6   7
HETATM    7  C   UNL     1      -7.098  11.822  68.485  1.00  0.00    -0.091 C  
BRANCH   7   8
HETATM    8  O   UNL     1      -7.445  12.843  67.549  1.00  0.00    -0.137 OA 
BRANCH   8   9
HETATM    9  C   UNL     1      -8.032  13.953  68.034  1.00  0.00    -0.154 C  
HETATM   10  O   UNL     1      -7.870  14.386  69.162  1.00  0.00    -0.113 OA 
BRANCH   9  11
HETATM   11  C   UNL     1      -9.050  14.481  67.065  1.00  0.00    -0.254 C  
HETATM   12  C   UNL     1      -8.937  15.661  66.399  1.00  0.00    -0.326 C  
HETATM   13  N   UNL     1      -9.846  15.971  65.404  1.00  0.00    -0.449 NA 
HETATM   14  C   UNL     1      -7.901  16.752  66.581  1.00  0.00    -0.307 C  
HETATM   15  C   UNL     1     -10.993  15.265  65.111  1.00  0.00    -0.416 C  
HETATM   16  C   UNL     1     -11.239  14.088  65.730  1.00  0.00    -0.303 C  
HETATM   17  C   UNL     1     -11.894  15.914  64.088  1.00  0.00     0.025 C  
HETATM   18  C   UNL     1     -10.215  13.500  66.725  1.00  0.00    -0.264 C  
BRANCH  16  19
HETATM   19  C   UNL     1     -12.536  13.403  65.474  1.00  0.00    -0.465 C  
HETATM   20  O   UNL     1     -13.632  13.907  65.671  1.00  0.00    -0.478 OA 
BRANCH  19  21
HETATM   21  O   UNL     1     -12.352  12.135  65.026  1.00  0.00    -0.454 OA 
HETATM   22  C   UNL     1     -12.276  12.037  63.601  1.00  0.00    -0.538 C  
ENDBRANCH  19  21
ENDBRANCH  16  19
BRANCH  18  23
HETATM   23  C   UNL     1     -10.906  12.942  67.978  1.00  0.00    -0.261 A  
HETATM   24  C   UNL     1     -10.872  11.553  68.202  1.00  0.00    -0.259 A  
HETATM   25  C   UNL     1     -11.463  10.995  69.332  1.00  0.00    -0.364 A  
HETATM   26  C   UNL     1     -12.092  11.818  70.272  1.00  0.00    -0.426 A  
HETATM   27  C   UNL     1     -12.151  13.199  70.064  1.00  0.00    -0.305 A  
HETATM   28 CL   UNL     1     -12.949  14.141  71.280  1.00  0.00    -0.411 Cl 
HETATM   29  C   UNL     1     -11.564  13.771  68.923  1.00  0.00    -0.319 A  
HETATM   30 CL   UNL     1     -11.646  15.495  68.697  1.00  0.00    -0.365 Cl 
ENDBRANCH  18  23
ENDBRANCH   9  11
ENDBRANCH   8   9
ENDBRANCH   7   8
ENDBRANCH   6   7
ENDBRANCH   4   6
ENDBRANCH   3   4
ENDBRANCH   2   3
TORSDOF 10
ENDMDL
MODEL       23
REMARK 921   NORMALIZED FREE ENERGY PREDICTED BY IDOCK:   -5.62 KCAL/MOL
REMARK 922        TOTAL FREE ENERGY PREDICTED BY IDOCK:  -10.31 KCAL/MOL
REMARK 923 INTER-LIGAND FREE ENERGY PREDICTED BY IDOCK:   -8.87 KCAL/MOL
REMARK 924 INTRA-LIGAND FREE ENERGY PREDICTED BY IDOCK:   -1.44 KCAL/MOL
REMARK 927      BINDING AFFINITY PREDICTED BY RF-SCORE:    0.00 PKD
ROOT
HETATM    1  C   UNL     1     -13.432   9.285  71.659  1.00  0.00    -0.465 C  
HETATM    2  C   UNL     1     -12.312   8.384  72.151  1.00  0.00    -0.426 C  
ENDROOT
BRANCH   2   3
HETATM    3  C   UNL     1     -12.405   6.998  71.527  1.00  0.00    -0.420 C  
BRANCH   3   4
HETATM    4  C   UNL     1     -11.386   6.815  70.430  1.00  0.00    -0.347 C  
HETATM    5  O   UNL     1     -11.525   6.108  69.442  1.00  0.00    -0.423 OA 
BRANCH   4   6
HETATM    6  O   UNL     1     -10.319   7.609  70.687  1.00  0.00    -0.203 OA 
BRANCH   6   7
HETATM    7  C   UNL     1      -9.665   8.135  69.542  1.00  0.00    -0.170 C  
BRANCH   7   8
HETATM    8  O   UNL     1     -10.114   9.404  69.067  1.00  0.00    -0.181 OA 
BRANCH   8   9
HETATM    9  C   UNL     1      -9.178  10.270  68.636  1.00  0.00    -0.159 C  
HETATM   10  O   UNL     1      -8.302  10.747  69.336  1.00  0.00    -0.116 OA 
BRANCH   9  11
HETATM   11  C   UNL     1      -9.468  10.707  67.229  1.00  0.00    -0.178 C  
HETATM   12  C   UNL     1      -8.728  10.351  66.146  1.00  0.00    -0.152 C  
HETATM   13  N   UNL     1      -9.180  10.668  64.879  1.00  0.00    -0.204 NA 
HETATM   14  C   UNL     1      -7.408   9.605  66.108  1.00  0.00    -0.098 C  
HETATM   15  C   UNL     1     -10.256  11.477  64.585  1.00  0.00    -0.285 C  
HETATM   16  C   UNL     1     -11.055  11.925  65.579  1.00  0.00    -0.356 C  
HETATM   17  C   UNL     1     -10.431  11.794  63.119  1.00  0.00    -0.359 C  
HETATM   18  C   UNL     1     -10.803  11.492  67.039  1.00  0.00    -0.320 C  
BRANCH  16  19
HETATM   19  C   UNL     1     -12.144  12.885  65.243  1.00  0.00    -0.453 C  
HETATM   20  O   UNL     1     -13.285  12.558  64.954  1.00  0.00    -0.787 OA 
BRANCH  19  21
HETATM   21  O   UNL     1     -11.702  14.168  65.264  1.00  0.00    -0.330 OA 
HETATM   22  C   UNL     1     -12.231  14.973  64.207  1.00  0.00    -0.293 C  
ENDBRANCH  19  21
ENDBRANCH  16  19
BRANCH  18  23
HETATM   23  C   UNL     1     -10.938  12.677  68.008  1.00  0.00    -0.266 A  
HETATM   24  C   UNL     1     -12.009  12.680  68.921  1.00  0.00    -0.284 A  
HETATM   25  C   UNL     1     -12.167  13.717  69.836  1.00  0.00    -0.367 A  
HETATM   26  C   UNL     1     -11.248  14.771  69.866  1.00  0.00    -0.293 A  
HETATM   27  C   UNL     1     -10.184  14.797  68.959  1.00  0.00    -0.237 A  
HETATM   28 CL   UNL     1      -9.094  16.140  69.069  1.00  0.00    -0.241 Cl 
HETATM   29  C   UNL     1     -10.020  13.759  68.028  1.00  0.00    -0.246 A  
HETATM   30 CL   UNL     1      -8.680  13.815  66.917  1.00  0.00    -0.210 Cl 
ENDBRANCH  18  23
ENDBRANCH   9  11
ENDBRANCH   8   9
ENDBRANCH   7   8
ENDBRANCH   6   7
ENDBRANCH   4   6
ENDBRANCH   3   4
ENDBRANCH   2   3
TORSDOF 10
ENDMDL
MODEL       24
REMARK 921   NORMALIZED FREE ENERGY PREDICTED BY IDOCK:   -5.62 KCAL/MOL
REMARK 922        TOTAL FREE ENERGY PREDICTED BY IDOCK:  -10.31 KCAL/MOL
REMARK 923 INTER-LIGAND FREE ENERGY PREDICTED BY IDOCK:   -8.60 KCAL/MOL
REMARK 924 INTRA-LIGAND FREE ENERGY PREDICTED BY IDOCK:   -1.70 KCAL/MOL
REMARK 927      BINDING AFFINITY PREDICTED BY RF-SCORE:    0.00 PKD
ROOT
HETATM    1  C   UNL     1     -12.312  15.701  74.430  1.00  0.00    -0.802 C  
HETATM    2  C   UNL     1     -12.346  16.095  72.963  1.00  0.00    -0.625 C  
ENDROOT
BRANCH   2   3
HETATM    3  C   UNL     1     -13.645  15.653  72.303  1.00  0.00    -0.590 C  
BRANCH   3   4
HETATM    4  C   UNL     1     -13.583  14.210  71.869  1.00  0.00    -0.417 C  
HETATM    5  O   UNL     1     -13.822  13.244  72.580  1.00  0.00    -0.668 OA 
BRANCH   4   6
HETATM    6  O   UNL     1     -13.281  14.162  70.550  1.00  0.00    -0.203 OA 
BRANCH   6   7
HETATM    7  C   UNL     1     -12.057  13.516  70.231  1.00  0.00    -0.355 C  
BRANCH   7   8
HETATM    8  O   UNL     1     -12.130  12.386  69.362  1.00  0.00    -0.265 OA 
BRANCH   8   9
HETATM    9  C   UNL     1     -11.672  12.541  68.106  1.00  0.00    -0.348 C  
HETATM   10  O   UNL     1     -12.351  12.419  67.101  1.00  0.00    -0.380 OA 
BRANCH   9  11
HETATM   11  C   UNL     1     -10.179  12.702  68.102  1.00  0.00    -0.240 C  
HETATM   12  C   UNL     1      -9.528  13.809  67.659  1.00  0.00    -0.217 C  
HETATM   13  N   UNL     1      -8.164  13.922  67.857  1.00  0.00    -0.149 NA 
HETATM   14  C   UNL     1     -10.099  15.019  66.946  1.00  0.00    -0.249 C  
HETATM   15  C   UNL     1      -7.333  12.929  68.327  1.00  0.00    -0.118 C  
HETATM   16  C   UNL     1      -7.856  11.763  68.771  1.00  0.00    -0.076 C  
HETATM   17  C   UNL     1      -5.860  13.262  68.291  1.00  0.00    -0.090 C  
HETATM   18  C   UNL     1      -9.386  11.557  68.804  1.00  0.00    -0.088 C  
BRANCH  16  19
HETATM   19  C   UNL     1      -6.927  10.669  69.170  1.00  0.00    -0.085 C  
HETATM   20  O   UNL     1      -6.335   9.947  68.383  1.00  0.00    -0.050 OA 
BRANCH  19  21
HETATM   21  O   UNL     1      -6.848  10.550  70.520  1.00  0.00    -0.312 OA 
HETATM   22  C   UNL     1      -6.922   9.198  70.980  1.00  0.00    -0.099 C  
ENDBRANCH  19  21
ENDBRANCH  16  19
BRANCH  18  23
HETATM   23  C   UNL     1      -9.776  10.163  68.292  1.00  0.00    -0.154 A  
HETATM   24  C   UNL     1      -9.615   9.880  66.922  1.00  0.00    -0.225 A  
HETATM   25  C   UNL     1      -9.931   8.627  66.408  1.00  0.00    -0.331 A  
HETATM   26  C   UNL     1     -10.406   7.621  67.255  1.00  0.00    -0.367 A  
HETATM   27  C   UNL     1     -10.587   7.882  68.617  1.00  0.00    -0.111 A  
HETATM   28 CL   UNL     1     -11.179   6.577  69.593  1.00  0.00    -0.427 Cl 
HETATM   29  C   UNL     1     -10.277   9.146  69.145  1.00  0.00    -0.207 A  
HETATM   30 CL   UNL     1     -10.507   9.438  70.846  1.00  0.00    -0.357 Cl 
ENDBRANCH  18  23
ENDBRANCH   9  11
ENDBRANCH   8   9
ENDBRANCH   7   8
ENDBRANCH   6   7
ENDBRANCH   4   6
ENDBRANCH   3   4
ENDBRANCH   2   3
TORSDOF 10
ENDMDL
MODEL       25
REMARK 921   NORMALIZED FREE ENERGY PREDICTED BY IDOCK:   -5.56 KCAL/MOL
REMARK 922        TOTAL FREE ENERGY PREDICTED BY IDOCK:  -10.22 KCAL/MOL
REMARK 923 INTER-LIGAND FREE ENERGY PREDICTED BY IDOCK:   -8.42 KCAL/MOL
REMARK 924 INTRA-LIGAND FREE ENERGY PREDICTED BY IDOCK:   -1.80 KCAL/MOL
REMARK 927      BINDING AFFINITY PREDICTED BY RF-SCORE:    0.00 PKD
ROOT
HETATM    1  C   UNL     1     -10.801  15.969  67.384  1.00  0.00    -0.277 C  
HETATM    2  C   UNL     1     -11.733  14.790  67.165  1.00  0.00    -0.351 C  
ENDROOT
BRANCH   2   3
HETATM    3  C   UNL     1     -11.727  14.345  65.710  1.00  0.00    -0.362 C  
BRANCH   3   4
HETATM    4  C   UNL     1     -12.437  13.026  65.531  1.00  0.00    -0.438 C  
HETATM    5  O   UNL     1     -13.237  12.764  64.643  1.00  0.00    -0.776 OA 
BRANCH   4   6
HETATM    6  O   UNL     1     -11.998  12.161  66.475  1.00  0.00    -0.618 OA 
BRANCH   6   7
HETATM    7  C   UNL     1     -10.811  11.455  66.146  1.00  0.00    -0.255 C  
BRANCH   7   8
HETATM    8  O   UNL     1     -10.191  10.709  67.193  1.00  0.00    -0.198 OA 
BRANCH   8   9
HETATM    9  C   UNL     1      -9.976  11.344  68.361  1.00  0.00    -0.204 C  
HETATM   10  O   UNL     1      -9.103  12.174  68.548  1.00  0.00    -0.172 OA 
BRANCH   9  11
HETATM   11  C   UNL     1     -10.834  10.761  69.446  1.00  0.00    -0.289 C  
HETATM   12  C   UNL     1     -11.799  11.447  70.113  1.00  0.00    -0.355 C  
HETATM   13  N   UNL     1     -12.645  10.770  70.973  1.00  0.00    -0.385 NA 
HETATM   14  C   UNL     1     -12.120  12.927  70.050  1.00  0.00    -0.357 C  
HETATM   15  C   UNL     1     -12.510   9.457  71.369  1.00  0.00    -0.352 C  
HETATM   16  C   UNL     1     -11.564   8.674  70.802  1.00  0.00    -0.273 C  
HETATM   17  C   UNL     1     -13.474   9.015  72.444  1.00  0.00    -0.524 C  
HETATM   18  C   UNL     1     -10.667   9.227  69.674  1.00  0.00    -0.244 C  
BRANCH  16  19
HETATM   19  C   UNL     1     -11.371   7.293  71.326  1.00  0.00    -0.264 C  
HETATM   20  O   UNL     1     -10.966   7.033  72.449  1.00  0.00    -0.229 OA 
BRANCH  19  21
HETATM   21  O   UNL     1     -11.668   6.358  70.389  1.00  0.00    -0.396 OA 
HETATM   22  C   UNL     1     -10.648   5.369  70.224  1.00  0.00    -0.259 C  
ENDBRANCH  19  21
ENDBRANCH  16  19
BRANCH  18  23
HETATM   23  C   UNL     1      -9.201   8.811  69.868  1.00  0.00    -0.160 A  
HETATM   24  C   UNL     1      -8.514   9.276  71.005  1.00  0.00    -0.150 A  
HETATM   25  C   UNL     1      -7.193   8.912  71.243  1.00  0.00    -0.111 A  
HETATM   26  C   UNL     1      -6.529   8.064  70.351  1.00  0.00    -0.037 A  
HETATM   27  C   UNL     1      -7.185   7.600  69.207  1.00  0.00    -0.082 A  
HETATM   28 CL   UNL     1      -6.286   6.553  68.158  1.00  0.00    -0.038 Cl 
HETATM   29  C   UNL     1      -8.517   7.967  68.955  1.00  0.00    -0.128 A  
HETATM   30 CL   UNL     1      -9.310   7.367  67.525  1.00  0.00    -0.139 Cl 
ENDBRANCH  18  23
ENDBRANCH   9  11
ENDBRANCH   8   9
ENDBRANCH   7   8
ENDBRANCH   6   7
ENDBRANCH   4   6
ENDBRANCH   3   4
ENDBRANCH   2   3
TORSDOF 10
ENDMDL
MODEL       26
REMARK 921   NORMALIZED FREE ENERGY PREDICTED BY IDOCK:   -5.55 KCAL/MOL
REMARK 922        TOTAL FREE ENERGY PREDICTED BY IDOCK:  -10.20 KCAL/MOL
REMARK 923 INTER-LIGAND FREE ENERGY PREDICTED BY IDOCK:   -8.60 KCAL/MOL
REMARK 924 INTRA-LIGAND FREE ENERGY PREDICTED BY IDOCK:   -1.60 KCAL/MOL
REMARK 927      BINDING AFFINITY PREDICTED BY RF-SCORE:    0.00 PKD
ROOT
HETATM    1  C   UNL     1      -9.766  17.473  67.800  1.00  0.00    -0.274 C  
HETATM    2  C   UNL     1     -10.283  17.500  66.372  1.00  0.00    -0.354 C  
ENDROOT
BRANCH   2   3
HETATM    3  C   UNL     1      -9.995  16.188  65.656  1.00  0.00    -0.330 C  
BRANCH   3   4
HETATM    4  C   UNL     1     -11.148  15.773  64.775  1.00  0.00    -0.400 C  
HETATM    5  O   UNL     1     -11.674  16.470  63.920  1.00  0.00    -1.148 OA 
BRANCH   4   6
HETATM    6  O   UNL     1     -11.461  14.484  65.044  1.00  0.00    -0.350 OA 
BRANCH   6   7
HETATM    7  C   UNL     1     -12.254  14.283  66.205  1.00  0.00    -0.410 C  
BRANCH   7   8
HETATM    8  O   UNL     1     -11.940  13.149  67.014  1.00  0.00    -0.379 OA 
BRANCH   8   9
HETATM    9  C   UNL     1     -11.217  13.366  68.128  1.00  0.00    -0.273 C  
HETATM   10  O   UNL     1     -10.452  14.302  68.286  1.00  0.00    -0.235 OA 
BRANCH   9  11
HETATM   11  C   UNL     1     -11.340  12.207  69.074  1.00  0.00    -0.329 C  
HETATM   12  C   UNL     1     -11.994  12.254  70.265  1.00  0.00    -0.290 C  
HETATM   13  N   UNL     1     -12.193  11.086  70.979  1.00  0.00    -0.361 NA 
HETATM   14  C   UNL     1     -12.583  13.459  70.972  1.00  0.00    -0.425 C  
HETATM   15  C   UNL     1     -11.642   9.858  70.686  1.00  0.00    -0.335 C  
HETATM   16  C   UNL     1     -10.940   9.687  69.542  1.00  0.00    -0.233 C  
HETATM   17  C   UNL     1     -11.889   8.787  71.722  1.00  0.00    -0.414 C  
HETATM   18  C   UNL     1     -10.797  10.848  68.534  1.00  0.00    -0.262 C  
BRANCH  16  19
HETATM   19  C   UNL     1     -10.266   8.381  69.306  1.00  0.00    -0.208 C  
HETATM   20  O   UNL     1     -10.665   7.532  68.523  1.00  0.00    -0.170 OA 
BRANCH  19  21
HETATM   21  O   UNL     1      -9.170   8.235  70.093  1.00  0.00    -0.152 OA 
HETATM   22  C   UNL     1      -8.765   6.874  70.264  1.00  0.00    -0.144 C  
ENDBRANCH  19  21
ENDBRANCH  16  19
BRANCH  18  23
HETATM   23  C   UNL     1      -9.361  10.952  67.999  1.00  0.00    -0.160 A  
HETATM   24  C   UNL     1      -8.356  11.436  68.858  1.00  0.00    -0.042 A  
HETATM   25  C   UNL     1      -7.035  11.530  68.432  1.00  0.00    -0.077 A  
HETATM   26  C   UNL     1      -6.685  11.131  67.138  1.00  0.00    -0.106 A  
HETATM   27  C   UNL     1      -7.668  10.661  66.262  1.00  0.00    -0.143 A  
HETATM   28 CL   UNL     1      -7.145  10.188  64.679  1.00  0.00    -0.139 Cl 
HETATM   29  C   UNL     1      -9.006  10.568  66.680  1.00  0.00    -0.141 A  
HETATM   30 CL   UNL     1     -10.206   9.971  65.568  1.00  0.00    -0.317 Cl 
ENDBRANCH  18  23
ENDBRANCH   9  11
ENDBRANCH   8   9
ENDBRANCH   7   8
ENDBRANCH   6   7
ENDBRANCH   4   6
ENDBRANCH   3   4
ENDBRANCH   2   3
TORSDOF 10
ENDMDL
MODEL       27
REMARK 921   NORMALIZED FREE ENERGY PREDICTED BY IDOCK:   -5.55 KCAL/MOL
REMARK 922        TOTAL FREE ENERGY PREDICTED BY IDOCK:  -10.19 KCAL/MOL
REMARK 923 INTER-LIGAND FREE ENERGY PREDICTED BY IDOCK:   -8.66 KCAL/MOL
REMARK 924 INTRA-LIGAND FREE ENERGY PREDICTED BY IDOCK:   -1.53 KCAL/MOL
REMARK 927      BINDING AFFINITY PREDICTED BY RF-SCORE:    0.00 PKD
ROOT
HETATM    1  C   UNL     1     -12.402  15.776  74.404  1.00  0.00    -0.796 C  
HETATM    2  C   UNL     1     -12.289  16.087  72.921  1.00  0.00    -0.609 C  
ENDROOT
BRANCH   2   3
HETATM    3  C   UNL     1     -13.455  15.493  72.143  1.00  0.00    -0.587 C  
BRANCH   3   4
HETATM    4  C   UNL     1     -13.375  13.988  72.088  1.00  0.00    -0.453 C  
HETATM    5  O   UNL     1     -14.250  13.216  72.455  1.00  0.00    -0.654 OA 
BRANCH   4   6
HETATM    6  O   UNL     1     -12.203  13.633  71.509  1.00  0.00    -0.231 OA 
BRANCH   6   7
HETATM    7  C   UNL     1     -12.276  13.347  70.120  1.00  0.00    -0.315 C  
BRANCH   7   8
HETATM    8  O   UNL     1     -12.144  14.452  69.226  1.00  0.00    -0.322 OA 
BRANCH   8   9
HETATM    9  C   UNL     1     -11.682  14.194  67.988  1.00  0.00    -0.359 C  
HETATM   10  O   UNL     1     -12.313  13.614  67.121  1.00  0.00    -0.336 OA 
BRANCH   9  11
HETATM   11  C   UNL     1     -10.228  14.550  67.879  1.00  0.00    -0.231 C  
HETATM   12  C   UNL     1      -9.755  15.820  67.772  1.00  0.00    -0.216 C  
HETATM   13  N   UNL     1      -8.393  16.048  67.849  1.00  0.00    -0.152 NA 
HETATM   14  C   UNL     1     -10.535  17.105  67.579  1.00  0.00    -0.348 C  
HETATM   15  C   UNL     1      -7.413  15.080  67.861  1.00  0.00    -0.137 C  
HETATM   16  C   UNL     1      -7.754  13.773  67.934  1.00  0.00    -0.161 C  
HETATM   17  C   UNL     1      -5.999  15.605  67.783  1.00  0.00    -0.171 C  
HETATM   18  C   UNL     1      -9.236  13.359  68.059  1.00  0.00    -0.209 C  
BRANCH  16  19
HETATM   19  C   UNL     1      -6.679  12.746  67.835  1.00  0.00    -0.116 C  
HETATM   20  O   UNL     1      -6.153  12.400  66.788  1.00  0.00    -0.210 OA 
BRANCH  19  21
HETATM   21  O   UNL     1      -6.381  12.218  69.048  1.00  0.00    -0.074 OA 
HETATM   22  C   UNL     1      -6.395  10.787  69.068  1.00  0.00    -0.048 C  
ENDBRANCH  19  21
ENDBRANCH  16  19
BRANCH  18  23
HETATM   23  C   UNL     1      -9.566  12.168  67.147  1.00  0.00    -0.195 A  
HETATM   24  C   UNL     1      -9.533  12.359  65.753  1.00  0.00    -0.094 A  
HETATM   25  C   UNL     1      -9.801  11.309  64.880  1.00  0.00    -0.310 A  
HETATM   26  C   UNL     1     -10.098  10.038  65.383  1.00  0.00    -0.317 A  
HETATM   27  C   UNL     1     -10.150   9.827  66.764  1.00  0.00    -0.231 A  
HETATM   28 CL   UNL     1     -10.525   8.222  67.298  1.00  0.00    -0.369 Cl 
HETATM   29  C   UNL     1      -9.888  10.882  67.654  1.00  0.00    -0.171 A  
HETATM   30 CL   UNL     1      -9.953  10.586  69.368  1.00  0.00    -0.239 Cl 
ENDBRANCH  18  23
ENDBRANCH   9  11
ENDBRANCH   8   9
ENDBRANCH   7   8
ENDBRANCH   6   7
ENDBRANCH   4   6
ENDBRANCH   3   4
ENDBRANCH   2   3
TORSDOF 10
ENDMDL
MODEL       28
REMARK 921   NORMALIZED FREE ENERGY PREDICTED BY IDOCK:   -5.54 KCAL/MOL
REMARK 922        TOTAL FREE ENERGY PREDICTED BY IDOCK:  -10.18 KCAL/MOL
REMARK 923 INTER-LIGAND FREE ENERGY PREDICTED BY IDOCK:   -8.02 KCAL/MOL
REMARK 924 INTRA-LIGAND FREE ENERGY PREDICTED BY IDOCK:   -2.16 KCAL/MOL
REMARK 927      BINDING AFFINITY PREDICTED BY RF-SCORE:    0.00 PKD
ROOT
HETATM    1  C   UNL     1     -12.061   8.362  72.425  1.00  0.00    -0.443 C  
HETATM    2  C   UNL     1     -13.332   9.189  72.330  1.00  0.00    -0.540 C  
ENDROOT
BRANCH   2   3
HETATM    3  C   UNL     1     -13.337  10.049  71.074  1.00  0.00    -0.334 C  
BRANCH   3   4
HETATM    4  C   UNL     1     -12.972  11.480  71.382  1.00  0.00    -0.348 C  
HETATM    5  O   UNL     1     -13.510  12.185  72.223  1.00  0.00    -0.491 OA 
BRANCH   4   6
HETATM    6  O   UNL     1     -11.912  11.835  70.617  1.00  0.00    -0.350 OA 
BRANCH   6   7
HETATM    7  C   UNL     1     -12.021  13.098  69.978  1.00  0.00    -0.321 C  
BRANCH   7   8
HETATM    8  O   UNL     1     -12.015  13.102  68.551  1.00  0.00    -0.337 OA 
BRANCH   8   9
HETATM    9  C   UNL     1     -10.893  13.522  67.938  1.00  0.00    -0.247 C  
HETATM   10  O   UNL     1     -10.202  14.452  68.319  1.00  0.00    -0.229 OA 
BRANCH   9  11
HETATM   11  C   UNL     1     -10.707  12.814  66.628  1.00  0.00    -0.279 C  
HETATM   12  C   UNL     1     -11.419  13.083  65.502  1.00  0.00    -0.321 C  
HETATM   13  N   UNL     1     -11.051  12.492  64.306  1.00  0.00    -0.330 NA 
HETATM   14  C   UNL     1     -12.620  13.993  65.339  1.00  0.00    -0.529 C  
HETATM   15  C   UNL     1     -10.109  11.498  64.154  1.00  0.00    -0.307 C  
HETATM   16  C   UNL     1      -9.353  11.116  65.209  1.00  0.00    -0.243 C  
HETATM   17  C   UNL     1     -10.020  10.914  62.765  1.00  0.00    -0.182 C  
HETATM   18  C   UNL     1      -9.502  11.824  66.573  1.00  0.00    -0.225 C  
BRANCH  16  19
HETATM   19  C   UNL     1      -8.421   9.966  65.041  1.00  0.00    -0.154 C  
HETATM   20  O   UNL     1      -8.777   8.804  64.918  1.00  0.00    -0.183 OA 
BRANCH  19  21
HETATM   21  O   UNL     1      -7.125  10.366  65.075  1.00  0.00    -0.128 OA 
HETATM   22  C   UNL     1      -6.384  10.006  63.906  1.00  0.00    -0.132 C  
ENDBRANCH  19  21
ENDBRANCH  16  19
BRANCH  18  23
HETATM   23  C   UNL     1      -9.509  10.815  67.731  1.00  0.00    -0.165 A  
HETATM   24  C   UNL     1     -10.593   9.924  67.841  1.00  0.00    -0.303 A  
HETATM   25  C   UNL     1     -10.640   8.975  68.857  1.00  0.00    -0.203 A  
HETATM   26  C   UNL     1      -9.594   8.887  69.783  1.00  0.00    -0.175 A  
HETATM   27  C   UNL     1      -8.513   9.770  69.702  1.00  0.00    -0.185 A  
HETATM   28 CL   UNL     1      -7.264   9.589  70.889  1.00  0.00    -0.101 Cl 
HETATM   29  C   UNL     1      -8.460  10.736  68.684  1.00  0.00    -0.143 A  
HETATM   30 CL   UNL     1      -7.097  11.816  68.606  1.00  0.00    -0.095 Cl 
ENDBRANCH  18  23
ENDBRANCH   9  11
ENDBRANCH   8   9
ENDBRANCH   7   8
ENDBRANCH   6   7
ENDBRANCH   4   6
ENDBRANCH   3   4
ENDBRANCH   2   3
TORSDOF 10
ENDMDL
MODEL       29
REMARK 921   NORMALIZED FREE ENERGY PREDICTED BY IDOCK:   -5.52 KCAL/MOL
REMARK 922        TOTAL FREE ENERGY PREDICTED BY IDOCK:  -10.15 KCAL/MOL
REMARK 923 INTER-LIGAND FREE ENERGY PREDICTED BY IDOCK:   -8.65 KCAL/MOL
REMARK 924 INTRA-LIGAND FREE ENERGY PREDICTED BY IDOCK:   -1.50 KCAL/MOL
REMARK 927      BINDING AFFINITY PREDICTED BY RF-SCORE:    0.00 PKD
ROOT
HETATM    1  C   UNL     1     -13.409  11.530  72.072  1.00  0.00    -0.397 C  
HETATM    2  C   UNL     1     -13.638  13.024  72.223  1.00  0.00    -0.643 C  
ENDROOT
BRANCH   2   3
HETATM    3  C   UNL     1     -12.631  13.822  71.407  1.00  0.00    -0.433 C  
BRANCH   3   4
HETATM    4  C   UNL     1     -13.194  15.155  70.980  1.00  0.00    -0.450 C  
HETATM    5  O   UNL     1     -14.124  15.738  71.519  1.00  0.00    -0.478 OA 
BRANCH   4   6
HETATM    6  O   UNL     1     -12.463  15.627  69.943  1.00  0.00    -0.330 OA 
BRANCH   6   7
HETATM    7  C   UNL     1     -11.595  14.682  69.334  1.00  0.00    -0.305 C  
BRANCH   7   8
HETATM    8  O   UNL     1     -11.037  15.039  68.070  1.00  0.00    -0.276 OA 
BRANCH   8   9
HETATM    9  C   UNL     1      -9.854  14.489  67.738  1.00  0.00    -0.220 C  
HETATM   10  O   UNL     1      -8.793  14.753  68.279  1.00  0.00    -0.166 OA 
BRANCH   9  11
HETATM   11  C   UNL     1      -9.986  13.651  66.500  1.00  0.00    -0.288 C  
HETATM   12  C   UNL     1     -10.461  14.107  65.311  1.00  0.00    -0.384 C  
HETATM   13  N   UNL     1     -10.382  13.300  64.191  1.00  0.00    -0.339 NA 
HETATM   14  C   UNL     1     -11.095  15.449  65.000  1.00  0.00    -0.428 C  
HETATM   15  C   UNL     1     -10.008  11.974  64.178  1.00  0.00    -0.263 C  
HETATM   16  C   UNL     1      -9.545  11.391  65.307  1.00  0.00    -0.256 C  
HETATM   17  C   UNL     1     -10.166  11.282  62.845  1.00  0.00    -0.201 C  
HETATM   18  C   UNL     1      -9.381  12.217  66.601  1.00  0.00    -0.226 C  
BRANCH  16  19
HETATM   19  C   UNL     1      -9.252   9.930  65.289  1.00  0.00    -0.226 C  
HETATM   20  O   UNL     1     -10.032   9.067  65.662  1.00  0.00    -0.176 OA 
BRANCH  19  21
HETATM   21  O   UNL     1      -7.997   9.679  64.839  1.00  0.00    -0.113 OA 
HETATM   22  C   UNL     1      -7.905   8.506  64.026  1.00  0.00    -0.148 C  
ENDBRANCH  19  21
ENDBRANCH  16  19
BRANCH  18  23
HETATM   23  C   UNL     1      -9.887  11.444  67.828  1.00  0.00    -0.186 A  
HETATM   24  C   UNL     1     -11.273  11.389  68.065  1.00  0.00    -0.346 A  
HETATM   25  C   UNL     1     -11.788  10.685  69.148  1.00  0.00    -0.287 A  
HETATM   26  C   UNL     1     -10.926  10.007  70.016  1.00  0.00    -0.352 A  
HETATM   27  C   UNL     1      -9.544  10.057  69.810  1.00  0.00    -0.216 A  
HETATM   28 CL   UNL     1      -8.552   9.187  70.934  1.00  0.00    -0.256 Cl 
HETATM   29  C   UNL     1      -9.014  10.771  68.723  1.00  0.00    -0.170 A  
HETATM   30 CL   UNL     1      -7.289  10.809  68.489  1.00  0.00    -0.090 Cl 
ENDBRANCH  18  23
ENDBRANCH   9  11
ENDBRANCH   8   9
ENDBRANCH   7   8
ENDBRANCH   6   7
ENDBRANCH   4   6
ENDBRANCH   3   4
ENDBRANCH   2   3
TORSDOF 10
ENDMDL
MODEL       30
REMARK 921   NORMALIZED FREE ENERGY PREDICTED BY IDOCK:   -5.51 KCAL/MOL
REMARK 922        TOTAL FREE ENERGY PREDICTED BY IDOCK:  -10.13 KCAL/MOL
REMARK 923 INTER-LIGAND FREE ENERGY PREDICTED BY IDOCK:   -8.72 KCAL/MOL
REMARK 924 INTRA-LIGAND FREE ENERGY PREDICTED BY IDOCK:   -1.41 KCAL/MOL
REMARK 927      BINDING AFFINITY PREDICTED BY RF-SCORE:    0.00 PKD
ROOT
HETATM    1  C   UNL     1      -9.867  19.642  68.337  1.00  0.00    -0.531 C  
HETATM    2  C   UNL     1     -10.940  19.388  67.292  1.00  0.00    -0.454 C  
ENDROOT
BRANCH   2   3
HETATM    3  C   UNL     1     -10.328  18.955  65.968  1.00  0.00    -0.485 C  
BRANCH   3   4
HETATM    4  C   UNL     1     -10.727  17.546  65.607  1.00  0.00    -0.089 C  
HETATM    5  O   UNL     1     -11.071  17.168  64.496  1.00  0.00    -1.105 OA 
BRANCH   4   6
HETATM    6  O   UNL     1     -10.580  16.757  66.697  1.00  0.00    -0.286 OA 
BRANCH   6   7
HETATM    7  C   UNL     1      -9.768  15.607  66.509  1.00  0.00    -0.266 C  
BRANCH   7   8
HETATM    8  O   UNL     1      -9.965  14.521  67.414  1.00  0.00    -0.226 OA 
BRANCH   8   9
HETATM    9  C   UNL     1     -10.951  13.650  67.129  1.00  0.00    -0.288 C  
HETATM   10  O   UNL     1     -11.693  13.735  66.164  1.00  0.00    -0.339 OA 
BRANCH   9  11
HETATM   11  C   UNL     1     -11.133  12.669  68.250  1.00  0.00    -0.295 C  
HETATM   12  C   UNL     1     -11.819  12.929  69.394  1.00  0.00    -0.312 C  
HETATM   13  N   UNL     1     -12.071  11.902  70.285  1.00  0.00    -0.344 NA 
HETATM   14  C   UNL     1     -12.395  14.248  69.871  1.00  0.00    -0.377 C  
HETATM   15  C   UNL     1     -11.546  10.630  70.219  1.00  0.00    -0.336 C  
HETATM   16  C   UNL     1     -10.816  10.255  69.144  1.00  0.00    -0.270 C  
HETATM   17  C   UNL     1     -11.851   9.754  71.410  1.00  0.00    -0.488 C  
HETATM   18  C   UNL     1     -10.612  11.227  67.962  1.00  0.00    -0.230 C  
BRANCH  16  19
HETATM   19  C   UNL     1     -10.170   8.912  69.151  1.00  0.00    -0.206 C  
HETATM   20  O   UNL     1     -10.567   7.955  68.503  1.00  0.00    -0.187 OA 
BRANCH  19  21
HETATM   21  O   UNL     1      -9.107   8.875  69.992  1.00  0.00    -0.150 OA 
HETATM   22  C   UNL     1      -8.890   7.590  70.583  1.00  0.00    -0.146 C  
ENDBRANCH  19  21
ENDBRANCH  16  19
BRANCH  18  23
HETATM   23  C   UNL     1      -9.159  11.209  67.464  1.00  0.00    -0.146 A  
HETATM   24  C   UNL     1      -8.153  11.722  68.304  1.00  0.00    -0.154 A  
HETATM   25  C   UNL     1      -6.818  11.710  67.913  1.00  0.00    -0.074 A  
HETATM   26  C   UNL     1      -6.456  11.172  66.674  1.00  0.00    -0.134 A  
HETATM   27  C   UNL     1      -7.439  10.669  65.816  1.00  0.00    -0.114 A  
HETATM   28 CL   UNL     1      -6.899  10.021  64.302  1.00  0.00    -0.127 Cl 
HETATM   29  C   UNL     1      -8.790  10.683  66.199  1.00  0.00    -0.168 A  
HETATM   30 CL   UNL     1      -9.989  10.041  65.112  1.00  0.00    -0.395 Cl 
ENDBRANCH  18  23
ENDBRANCH   9  11
ENDBRANCH   8   9
ENDBRANCH   7   8
ENDBRANCH   6   7
ENDBRANCH   4   6
ENDBRANCH   3   4
ENDBRANCH   2   3
TORSDOF 10
ENDMDL
MODEL       31
REMARK 921   NORMALIZED FREE ENERGY PREDICTED BY IDOCK:   -5.46 KCAL/MOL
REMARK 922        TOTAL FREE ENERGY PREDICTED BY IDOCK:  -10.05 KCAL/MOL
REMARK 923 INTER-LIGAND FREE ENERGY PREDICTED BY IDOCK:   -8.49 KCAL/MOL
REMARK 924 INTRA-LIGAND FREE ENERGY PREDICTED BY IDOCK:   -1.57 KCAL/MOL
REMARK 927      BINDING AFFINITY PREDICTED BY RF-SCORE:    0.00 PKD
ROOT
HETATM    1  C   UNL     1      -9.641  18.027  68.373  1.00  0.00    -0.338 C  
HETATM    2  C   UNL     1     -10.370  17.871  67.049  1.00  0.00    -0.366 C  
ENDROOT
BRANCH   2   3
HETATM    3  C   UNL     1      -9.873  16.651  66.286  1.00  0.00    -0.329 C  
BRANCH   3   4
HETATM    4  C   UNL     1     -10.827  16.258  65.186  1.00  0.00    -0.318 C  
HETATM    5  O   UNL     1     -11.388  17.031  64.423  1.00  0.00    -1.140 OA 
BRANCH   4   6
HETATM    6  O   UNL     1     -10.912  14.907  65.143  1.00  0.00    -0.350 OA 
BRANCH   6   7
HETATM    7  C   UNL     1     -11.365  14.290  66.339  1.00  0.00    -0.343 C  
BRANCH   7   8
HETATM    8  O   UNL     1     -10.647  13.139  66.783  1.00  0.00    -0.261 OA 
BRANCH   8   9
HETATM    9  C   UNL     1     -11.216  11.936  66.574  1.00  0.00    -0.327 C  
HETATM   10  O   UNL     1     -12.113  11.467  67.253  1.00  0.00    -0.548 OA 
BRANCH   9  11
HETATM   11  C   UNL     1     -10.476  11.178  65.511  1.00  0.00    -0.317 C  
HETATM   12  C   UNL     1     -10.767  11.234  64.184  1.00  0.00    -0.369 C  
HETATM   13  N   UNL     1      -9.917  10.631  63.275  1.00  0.00    -0.306 NA 
HETATM   14  C   UNL     1     -11.943  11.905  63.503  1.00  0.00    -0.567 C  
HETATM   15  C   UNL     1      -8.856   9.809  63.585  1.00  0.00    -0.236 C  
HETATM   16  C   UNL     1      -8.484   9.644  64.875  1.00  0.00    -0.161 C  
HETATM   17  C   UNL     1      -8.195   9.149  62.399  1.00  0.00    -0.163 C  
HETATM   18  C   UNL     1      -9.208  10.413  66.001  1.00  0.00    -0.200 C  
BRANCH  16  19
HETATM   19  C   UNL     1      -7.404   8.666  65.188  1.00  0.00    -0.088 C  
HETATM   20  O   UNL     1      -6.248   8.974  65.436  1.00  0.00    -0.061 OA 
BRANCH  19  21
HETATM   21  O   UNL     1      -7.856   7.388  65.129  1.00  0.00    -0.108 OA 
HETATM   22  C   UNL     1      -7.350   6.553  66.175  1.00  0.00    -0.080 C  
ENDBRANCH  19  21
ENDBRANCH  16  19
BRANCH  18  23
HETATM   23  C   UNL     1      -9.490   9.506  67.208  1.00  0.00    -0.170 A  
HETATM   24  C   UNL     1     -10.399   8.442  67.053  1.00  0.00    -0.385 A  
HETATM   25  C   UNL     1     -10.675   7.577  68.107  1.00  0.00    -0.145 A  
HETATM   26  C   UNL     1     -10.038   7.749  69.340  1.00  0.00    -0.195 A  
HETATM   27  C   UNL     1      -9.142   8.806  69.523  1.00  0.00    -0.146 A  
HETATM   28 CL   UNL     1      -8.399   8.942  71.082  1.00  0.00    -0.219 Cl 
HETATM   29  C   UNL     1      -8.862   9.689  68.467  1.00  0.00    -0.124 A  
HETATM   30 CL   UNL     1      -7.735  10.992  68.724  1.00  0.00    -0.127 Cl 
ENDBRANCH  18  23
ENDBRANCH   9  11
ENDBRANCH   8   9
ENDBRANCH   7   8
ENDBRANCH   6   7
ENDBRANCH   4   6
ENDBRANCH   3   4
ENDBRANCH   2   3
TORSDOF 10
ENDMDL
MODEL       32
REMARK 921   NORMALIZED FREE ENERGY PREDICTED BY IDOCK:   -5.39 KCAL/MOL
REMARK 922        TOTAL FREE ENERGY PREDICTED BY IDOCK:   -9.94 KCAL/MOL
REMARK 923 INTER-LIGAND FREE ENERGY PREDICTED BY IDOCK:   -7.70 KCAL/MOL
REMARK 924 INTRA-LIGAND FREE ENERGY PREDICTED BY IDOCK:   -2.24 KCAL/MOL
REMARK 927      BINDING AFFINITY PREDICTED BY RF-SCORE:    0.00 PKD
ROOT
HETATM    1  C   UNL     1     -10.651  15.937  65.222  1.00  0.00    -0.441 C  
HETATM    2  C   UNL     1     -11.628  14.809  64.936  1.00  0.00    -0.401 C  
ENDROOT
BRANCH   2   3
HETATM    3  C   UNL     1     -10.898  13.533  64.542  1.00  0.00    -0.422 C  
BRANCH   3   4
HETATM    4  C   UNL     1     -11.861  12.407  64.261  1.00  0.00    -0.398 C  
HETATM    5  O   UNL     1     -13.050  12.400  64.550  1.00  0.00    -0.823 OA 
BRANCH   4   6
HETATM    6  O   UNL     1     -11.210  11.432  63.583  1.00  0.00    -0.402 OA 
BRANCH   6   7
HETATM    7  C   UNL     1      -9.866  11.209  63.986  1.00  0.00    -0.302 C  
BRANCH   7   8
HETATM    8  O   UNL     1      -9.573   9.947  64.585  1.00  0.00    -0.299 OA 
BRANCH   8   9
HETATM    9  C   UNL     1      -8.405   9.833  65.245  1.00  0.00    -0.142 C  
HETATM   10  O   UNL     1      -7.344  10.292  64.859  1.00  0.00    -0.143 OA 
BRANCH   9  11
HETATM   11  C   UNL     1      -8.549   8.912  66.422  1.00  0.00    -0.136 C  
HETATM   12  C   UNL     1      -8.552   7.555  66.339  1.00  0.00    -0.140 C  
HETATM   13  N   UNL     1      -8.518   6.802  67.499  1.00  0.00    -0.121 NA 
HETATM   14  C   UNL     1      -8.577   6.685  65.098  1.00  0.00     0.023 C  
HETATM   15  C   UNL     1      -8.650   7.289  68.781  1.00  0.00    -0.129 C  
HETATM   16  C   UNL     1      -8.691   8.624  68.996  1.00  0.00    -0.134 C  
HETATM   17  C   UNL     1      -8.744   6.233  69.855  1.00  0.00    -0.141 C  
HETATM   18  C   UNL     1      -8.536   9.609  67.817  1.00  0.00    -0.125 C  
BRANCH  16  19
HETATM   19  C   UNL     1      -8.944   9.118  70.378  1.00  0.00    -0.229 C  
HETATM   20  O   UNL     1      -8.068   9.456  71.159  1.00  0.00    -0.322 OA 
BRANCH  19  21
HETATM   21  O   UNL     1     -10.268   9.114  70.675  1.00  0.00    -0.209 OA 
HETATM   22  C   UNL     1     -10.554   8.701  72.014  1.00  0.00    -0.351 C  
ENDBRANCH  19  21
ENDBRANCH  16  19
BRANCH  18  23
HETATM   23  C   UNL     1      -9.545  10.763  67.914  1.00  0.00    -0.171 A  
HETATM   24  C   UNL     1     -10.911  10.480  67.727  1.00  0.00    -0.372 A  
HETATM   25  C   UNL     1     -11.871  11.483  67.825  1.00  0.00    -0.228 A  
HETATM   26  C   UNL     1     -11.486  12.794  68.125  1.00  0.00    -0.357 A  
HETATM   27  C   UNL     1     -10.134  13.102  68.302  1.00  0.00    -0.247 A  
HETATM   28 CL   UNL     1      -9.748  14.751  68.672  1.00  0.00    -0.220 Cl 
HETATM   29  C   UNL     1      -9.157  12.098  68.198  1.00  0.00    -0.196 A  
HETATM   30 CL   UNL     1      -7.482  12.513  68.431  1.00  0.00    -0.121 Cl 
ENDBRANCH  18  23
ENDBRANCH   9  11
ENDBRANCH   8   9
ENDBRANCH   7   8
ENDBRANCH   6   7
ENDBRANCH   4   6
ENDBRANCH   3   4
ENDBRANCH   2   3
TORSDOF 10
ENDMDL
MODEL       33
REMARK 921   NORMALIZED FREE ENERGY PREDICTED BY IDOCK:   -5.38 KCAL/MOL
REMARK 922        TOTAL FREE ENERGY PREDICTED BY IDOCK:   -9.92 KCAL/MOL
REMARK 923 INTER-LIGAND FREE ENERGY PREDICTED BY IDOCK:   -8.54 KCAL/MOL
REMARK 924 INTRA-LIGAND FREE ENERGY PREDICTED BY IDOCK:   -1.38 KCAL/MOL
REMARK 927      BINDING AFFINITY PREDICTED BY RF-SCORE:    0.00 PKD
ROOT
HETATM    1  C   UNL     1     -10.412  19.816  66.020  1.00  0.00    -0.609 C  
HETATM    2  C   UNL     1     -10.647  18.967  67.258  1.00  0.00    -0.554 C  
ENDROOT
BRANCH   2   3
HETATM    3  C   UNL     1      -9.672  19.331  68.369  1.00  0.00    -0.474 C  
BRANCH   3   4
HETATM    4  C   UNL     1      -8.509  18.372  68.423  1.00  0.00    -0.326 C  
HETATM    5  O   UNL     1      -7.367  18.659  68.751  1.00  0.00    -0.291 OA 
BRANCH   4   6
HETATM    6  O   UNL     1      -8.950  17.131  68.109  1.00  0.00    -0.227 OA 
BRANCH   6   7
HETATM    7  C   UNL     1      -8.486  16.091  68.956  1.00  0.00    -0.244 C  
BRANCH   7   8
HETATM    8  O   UNL     1      -8.776  14.752  68.555  1.00  0.00    -0.162 OA 
BRANCH   8   9
HETATM    9  C   UNL     1     -10.066  14.441  68.326  1.00  0.00    -0.239 C  
HETATM   10  O   UNL     1     -10.982  14.678  69.095  1.00  0.00    -0.245 OA 
BRANCH   9  11
HETATM   11  C   UNL     1     -10.198  13.603  67.088  1.00  0.00    -0.244 C  
HETATM   12  C   UNL     1     -10.606  14.076  65.881  1.00  0.00    -0.301 C  
HETATM   13  N   UNL     1     -10.530  13.259  64.768  1.00  0.00    -0.370 NA 
HETATM   14  C   UNL     1     -11.157  15.447  65.541  1.00  0.00    -0.301 C  
HETATM   15  C   UNL     1     -10.226  11.915  64.774  1.00  0.00    -0.276 C  
HETATM   16  C   UNL     1      -9.835  11.315  65.921  1.00  0.00    -0.272 C  
HETATM   17  C   UNL     1     -10.374  11.224  63.439  1.00  0.00    -0.449 C  
HETATM   18  C   UNL     1      -9.674  12.139  67.217  1.00  0.00    -0.193 C  
BRANCH  16  19
HETATM   19  C   UNL     1      -9.620   9.841  65.921  1.00  0.00    -0.250 C  
HETATM   20  O   UNL     1     -10.483   9.019  66.187  1.00  0.00    -0.118 OA 
BRANCH  19  21
HETATM   21  O   UNL     1      -8.335   9.525  65.620  1.00  0.00    -0.119 OA 
HETATM   22  C   UNL     1      -7.891   8.303  66.217  1.00  0.00    -0.098 C  
ENDBRANCH  19  21
ENDBRANCH  16  19
BRANCH  18  23
HETATM   23  C   UNL     1     -10.263  11.402  68.429  1.00  0.00    -0.206 A  
HETATM   24  C   UNL     1     -11.640  11.532  68.692  1.00  0.00    -0.375 A  
HETATM   25  C   UNL     1     -12.231  10.869  69.762  1.00  0.00    -0.381 A  
HETATM   26  C   UNL     1     -11.458  10.048  70.590  1.00  0.00    -0.425 A  
HETATM   27  C   UNL     1     -10.086   9.913  70.357  1.00  0.00    -0.195 A  
HETATM   28 CL   UNL     1      -9.207   8.876  71.432  1.00  0.00    -0.322 Cl 
HETATM   29  C   UNL     1      -9.479  10.584  69.283  1.00  0.00    -0.173 A  
HETATM   30 CL   UNL     1      -7.769  10.390  69.015  1.00  0.00    -0.105 Cl 
ENDBRANCH  18  23
ENDBRANCH   9  11
ENDBRANCH   8   9
ENDBRANCH   7   8
ENDBRANCH   6   7
ENDBRANCH   4   6
ENDBRANCH   3   4
ENDBRANCH   2   3
TORSDOF 10
ENDMDL
MODEL       34
REMARK 921   NORMALIZED FREE ENERGY PREDICTED BY IDOCK:   -5.36 KCAL/MOL
REMARK 922        TOTAL FREE ENERGY PREDICTED BY IDOCK:   -9.89 KCAL/MOL
REMARK 923 INTER-LIGAND FREE ENERGY PREDICTED BY IDOCK:   -8.25 KCAL/MOL
REMARK 924 INTRA-LIGAND FREE ENERGY PREDICTED BY IDOCK:   -1.64 KCAL/MOL
REMARK 927      BINDING AFFINITY PREDICTED BY RF-SCORE:    0.00 PKD
ROOT
HETATM    1  C   UNL     1      -9.301   3.870  68.769  1.00  0.00    -0.231 C  
HETATM    2  C   UNL     1     -10.059   4.803  67.839  1.00  0.00    -0.119 C  
ENDROOT
BRANCH   2   3
HETATM    3  C   UNL     1     -10.774   5.897  68.619  1.00  0.00    -0.339 C  
BRANCH   3   4
HETATM    4  C   UNL     1     -10.098   7.234  68.444  1.00  0.00    -0.171 C  
HETATM    5  O   UNL     1      -9.128   7.628  69.076  1.00  0.00    -0.144 OA 
BRANCH   4   6
HETATM    6  O   UNL     1     -10.702   7.901  67.432  1.00  0.00    -0.272 OA 
BRANCH   6   7
HETATM    7  C   UNL     1     -10.101   9.137  67.077  1.00  0.00    -0.249 C  
BRANCH   7   8
HETATM    8  O   UNL     1     -10.712  10.322  67.587  1.00  0.00    -0.246 OA 
BRANCH   8   9
HETATM    9  C   UNL     1     -10.097  10.943  68.611  1.00  0.00    -0.191 C  
HETATM   10  O   UNL     1      -8.903  10.872  68.848  1.00  0.00    -0.163 OA 
BRANCH   9  11
HETATM   11  C   UNL     1     -11.102  11.581  69.525  1.00  0.00    -0.256 C  
HETATM   12  C   UNL     1     -11.919  10.896  70.368  1.00  0.00    -0.362 C  
HETATM   13  N   UNL     1     -12.685  11.588  71.287  1.00  0.00    -0.398 NA 
HETATM   14  C   UNL     1     -12.125   9.397  70.471  1.00  0.00    -0.102 C  
HETATM   15  C   UNL     1     -12.843  12.956  71.338  1.00  0.00    -0.283 C  
HETATM   16  C   UNL     1     -12.109  13.752  70.527  1.00  0.00    -0.416 C  
HETATM   17  C   UNL     1     -13.866  13.442  72.336  1.00  0.00    -0.665 C  
HETATM   18  C   UNL     1     -11.055  13.140  69.579  1.00  0.00    -0.067 C  
BRANCH  16  19
HETATM   19  C   UNL     1     -12.379  15.217  70.527  1.00  0.00    -0.358 C  
HETATM   20  O   UNL     1     -13.336  15.741  69.978  1.00  0.00     0.028 OA 
BRANCH  19  21
HETATM   21  O   UNL     1     -11.410  15.902  71.185  1.00  0.00    -0.371 OA 
HETATM   22  C   UNL     1     -11.807  16.349  72.485  1.00  0.00    -0.453 C  
ENDBRANCH  19  21
ENDBRANCH  16  19
BRANCH  18  23
HETATM   23  C   UNL     1     -11.111  13.785  68.186  1.00  0.00    -0.282 A  
HETATM   24  C   UNL     1     -12.148  13.410  67.312  1.00  0.00    -0.352 A  
HETATM   25  C   UNL     1     -12.260  13.978  66.047  1.00  0.00    -0.484 A  
HETATM   26  C   UNL     1     -11.340  14.946  65.631  1.00  0.00    -0.325 A  
HETATM   27  C   UNL     1     -10.293  15.326  66.476  1.00  0.00    -0.286 A  
HETATM   28 CL   UNL     1      -9.202  16.533  65.879  1.00  0.00    -0.282 Cl 
HETATM   29  C   UNL     1     -10.168  14.753  67.752  1.00  0.00    -0.232 A  
HETATM   30 CL   UNL     1      -8.858  15.252  68.785  1.00  0.00    -0.180 Cl 
ENDBRANCH  18  23
ENDBRANCH   9  11
ENDBRANCH   8   9
ENDBRANCH   7   8
ENDBRANCH   6   7
ENDBRANCH   4   6
ENDBRANCH   3   4
ENDBRANCH   2   3
TORSDOF 10
ENDMDL
MODEL       35
REMARK 921   NORMALIZED FREE ENERGY PREDICTED BY IDOCK:   -5.28 KCAL/MOL
REMARK 922        TOTAL FREE ENERGY PREDICTED BY IDOCK:   -9.76 KCAL/MOL
REMARK 923 INTER-LIGAND FREE ENERGY PREDICTED BY IDOCK:   -7.51 KCAL/MOL
REMARK 924 INTRA-LIGAND FREE ENERGY PREDICTED BY IDOCK:   -2.25 KCAL/MOL
REMARK 927      BINDING AFFINITY PREDICTED BY RF-SCORE:    0.00 PKD
ROOT
HETATM    1  C   UNL     1     -11.302  11.875  63.419  1.00  0.00    -0.465 C  
HETATM    2  C   UNL     1     -11.594  11.991  64.905  1.00  0.00    -0.332 C  
ENDROOT
BRANCH   2   3
HETATM    3  C   UNL     1     -12.731  12.967  65.170  1.00  0.00    -0.461 C  
BRANCH   3   4
HETATM    4  C   UNL     1     -12.359  14.373  64.767  1.00  0.00    -0.414 C  
HETATM    5  O   UNL     1     -12.658  14.912  63.712  1.00  0.00    -0.791 OA 
BRANCH   4   6
HETATM    6  O   UNL     1     -11.693  14.959  65.790  1.00  0.00    -0.296 OA 
BRANCH   6   7
HETATM    7  C   UNL     1     -10.352  15.331  65.507  1.00  0.00    -0.383 C  
BRANCH   7   8
HETATM    8  O   UNL     1      -9.329  14.429  65.927  1.00  0.00    -0.208 OA 
BRANCH   8   9
HETATM    9  C   UNL     1      -8.974  14.457  67.225  1.00  0.00    -0.212 C  
HETATM   10  O   UNL     1      -8.022  15.075  67.670  1.00  0.00    -0.135 OA 
BRANCH   9  11
HETATM   11  C   UNL     1      -9.795  13.484  68.021  1.00  0.00    -0.238 C  
HETATM   12  C   UNL     1     -10.766  13.840  68.903  1.00  0.00    -0.227 C  
HETATM   13  N   UNL     1     -11.576  12.864  69.454  1.00  0.00    -0.300 NA 
HETATM   14  C   UNL     1     -11.128  15.225  69.401  1.00  0.00    -0.283 C  
HETATM   15  C   UNL     1     -11.399  11.503  69.328  1.00  0.00    -0.288 C  
HETATM   16  C   UNL     1     -10.443  11.020  68.503  1.00  0.00    -0.210 C  
HETATM   17  C   UNL     1     -12.330  10.661  70.167  1.00  0.00    -0.370 C  
HETATM   18  C   UNL     1      -9.583  11.982  67.657  1.00  0.00    -0.188 C  
BRANCH  16  19
HETATM   19  C   UNL     1     -10.203   9.550  68.471  1.00  0.00    -0.199 C  
HETATM   20  O   UNL     1      -9.563   8.939  69.314  1.00  0.00    -0.159 OA 
BRANCH  19  21
HETATM   21  O   UNL     1     -10.755   8.978  67.372  1.00  0.00    -0.271 OA 
HETATM   22  C   UNL     1     -10.452   7.586  67.237  1.00  0.00    -0.321 C  
ENDBRANCH  19  21
ENDBRANCH  16  19
BRANCH  18  23
HETATM   23  C   UNL     1      -8.103  11.571  67.670  1.00  0.00    -0.130 A  
HETATM   24  C   UNL     1      -7.343  11.831  68.826  1.00  0.00    -0.114 A  
HETATM   25  C   UNL     1      -6.004  11.461  68.901  1.00  0.00    -0.048 A  
HETATM   26  C   UNL     1      -5.396  10.809  67.824  1.00  0.00    -0.039 A  
HETATM   27  C   UNL     1      -6.126  10.552  66.660  1.00  0.00    -0.073 A  
HETATM   28 CL   UNL     1      -5.293   9.740  65.375  1.00  0.00    -0.047 Cl 
HETATM   29  C   UNL     1      -7.476  10.928  66.571  1.00  0.00    -0.142 A  
HETATM   30 CL   UNL     1      -8.361  10.587  65.111  1.00  0.00    -0.165 Cl 
ENDBRANCH  18  23
ENDBRANCH   9  11
ENDBRANCH   8   9
ENDBRANCH   7   8
ENDBRANCH   6   7
ENDBRANCH   4   6
ENDBRANCH   3   4
ENDBRANCH   2   3
TORSDOF 10
ENDMDL
MODEL       36
REMARK 921   NORMALIZED FREE ENERGY PREDICTED BY IDOCK:   -5.27 KCAL/MOL
REMARK 922        TOTAL FREE ENERGY PREDICTED BY IDOCK:   -9.75 KCAL/MOL
REMARK 923 INTER-LIGAND FREE ENERGY PREDICTED BY IDOCK:   -7.35 KCAL/MOL
REMARK 924 INTRA-LIGAND FREE ENERGY PREDICTED BY IDOCK:   -2.40 KCAL/MOL
REMARK 927      BINDING AFFINITY PREDICTED BY RF-SCORE:    0.00 PKD
ROOT
HETATM    1  C   UNL     1      -6.082  10.333  65.523  1.00  0.00    -0.113 C  
HETATM    2  C   UNL     1      -7.329   9.988  64.726  1.00  0.00    -0.143 C  
ENDROOT
BRANCH   2   3
HETATM    3  C   UNL     1      -8.567  10.634  65.332  1.00  0.00    -0.185 C  
BRANCH   3   4
HETATM    4  C   UNL     1      -9.740  10.582  64.385  1.00  0.00    -0.328 C  
HETATM    5  O   UNL     1      -9.669  10.412  63.176  1.00  0.00    -0.319 OA 
BRANCH   4   6
HETATM    6  O   UNL     1     -10.885  10.691  65.099  1.00  0.00    -0.110 OA 
BRANCH   6   7
HETATM    7  C   UNL     1     -11.057  11.923  65.783  1.00  0.00    -0.317 C  
BRANCH   7   8
HETATM    8  O   UNL     1     -11.671  11.868  67.071  1.00  0.00    -0.538 OA 
BRANCH   8   9
HETATM    9  C   UNL     1     -10.881  12.067  68.142  1.00  0.00    -0.221 C  
HETATM   10  O   UNL     1      -9.805  12.641  68.112  1.00  0.00    -0.215 OA 
BRANCH   9  11
HETATM   11  C   UNL     1     -11.412  11.331  69.337  1.00  0.00    -0.370 C  
HETATM   12  C   UNL     1     -12.106  11.913  70.351  1.00  0.00    -0.333 C  
HETATM   13  N   UNL     1     -12.696  11.117  71.316  1.00  0.00    -0.422 NA 
HETATM   14  C   UNL     1     -12.359  13.387  70.598  1.00  0.00    -0.423 C  
HETATM   15  C   UNL     1     -12.517   9.759  71.462  1.00  0.00    -0.403 C  
HETATM   16  C   UNL     1     -11.817   9.066  70.535  1.00  0.00    -0.107 C  
HETATM   17  C   UNL     1     -13.146   9.164  72.699  1.00  0.00    -0.345 C  
HETATM   18  C   UNL     1     -11.261   9.779  69.283  1.00  0.00    -0.128 C  
BRANCH  16  19
HETATM   19  C   UNL     1     -11.547   7.621  70.776  1.00  0.00    -0.265 C  
HETATM   20  O   UNL     1     -12.193   6.709  70.281  1.00  0.00    -0.294 OA 
BRANCH  19  21
HETATM   21  O   UNL     1     -10.516   7.443  71.640  1.00  0.00    -0.198 OA 
HETATM   22  C   UNL     1     -10.694   6.331  72.521  1.00  0.00    -0.226 C  
ENDBRANCH  19  21
ENDBRANCH  16  19
BRANCH  18  23
HETATM   23  C   UNL     1      -9.825   9.332  68.974  1.00  0.00    -0.168 A  
HETATM   24  C   UNL     1      -8.770   9.891  69.720  1.00  0.00    -0.229 A  
HETATM   25  C   UNL     1      -7.452   9.507  69.497  1.00  0.00    -0.092 A  
HETATM   26  C   UNL     1      -7.158   8.542  68.528  1.00  0.00    -0.073 A  
HETATM   27  C   UNL     1      -8.187   7.982  67.765  1.00  0.00    -0.129 A  
HETATM   28 CL   UNL     1      -7.732   6.794  66.588  1.00  0.00    -0.103 Cl 
HETATM   29  C   UNL     1      -9.520   8.369  67.977  1.00  0.00    -0.143 A  
HETATM   30 CL   UNL     1     -10.780   7.647  67.016  1.00  0.00    -0.409 Cl 
ENDBRANCH  18  23
ENDBRANCH   9  11
ENDBRANCH   8   9
ENDBRANCH   7   8
ENDBRANCH   6   7
ENDBRANCH   4   6
ENDBRANCH   3   4
ENDBRANCH   2   3
TORSDOF 10
ENDMDL
MODEL       37
REMARK 921   NORMALIZED FREE ENERGY PREDICTED BY IDOCK:   -5.26 KCAL/MOL
REMARK 922        TOTAL FREE ENERGY PREDICTED BY IDOCK:   -9.73 KCAL/MOL
REMARK 923 INTER-LIGAND FREE ENERGY PREDICTED BY IDOCK:   -8.29 KCAL/MOL
REMARK 924 INTRA-LIGAND FREE ENERGY PREDICTED BY IDOCK:   -1.44 KCAL/MOL
REMARK 927      BINDING AFFINITY PREDICTED BY RF-SCORE:    0.00 PKD
ROOT
HETATM    1  C   UNL     1     -11.253   6.726  71.416  1.00  0.00    -0.309 C  
HETATM    2  C   UNL     1     -11.504   6.407  69.951  1.00  0.00    -0.483 C  
ENDROOT
BRANCH   2   3
HETATM    3  C   UNL     1     -10.413   5.508  69.388  1.00  0.00    -0.360 C  
BRANCH   3   4
HETATM    4  C   UNL     1      -9.917   6.007  68.054  1.00  0.00    -0.142 C  
HETATM    5  O   UNL     1      -8.830   5.746  67.558  1.00  0.00    -0.109 OA 
BRANCH   4   6
HETATM    6  O   UNL     1     -10.895   6.738  67.469  1.00  0.00    -0.270 OA 
BRANCH   6   7
HETATM    7  C   UNL     1     -10.506   8.033  67.035  1.00  0.00    -0.340 C  
BRANCH   7   8
HETATM    8  O   UNL     1     -11.070   9.145  67.730  1.00  0.00    -0.079 OA 
BRANCH   8   9
HETATM    9  C   UNL     1     -10.293   9.768  68.636  1.00  0.00    -0.201 C  
HETATM   10  O   UNL     1      -9.356   9.248  69.218  1.00  0.00    -0.152 OA 
BRANCH   9  11
HETATM   11  C   UNL     1     -10.846  11.124  68.966  1.00  0.00    -0.276 C  
HETATM   12  C   UNL     1     -11.639  11.390  70.037  1.00  0.00    -0.299 C  
HETATM   13  N   UNL     1     -11.952  12.701  70.344  1.00  0.00    -0.309 NA 
HETATM   14  C   UNL     1     -12.264  10.414  71.015  1.00  0.00    -0.498 C  
HETATM   15  C   UNL     1     -11.673  13.801  69.561  1.00  0.00    -0.323 C  
HETATM   16  C   UNL     1     -10.917  13.664  68.448  1.00  0.00    -0.284 C  
HETATM   17  C   UNL     1     -12.271  15.098  70.051  1.00  0.00    -0.379 C  
HETATM   18  C   UNL     1     -10.318  12.291  68.075  1.00  0.00    -0.220 C  
BRANCH  16  19
HETATM   19  C   UNL     1     -10.724  14.848  67.565  1.00  0.00    -0.276 C  
HETATM   20  O   UNL     1     -11.590  15.315  66.840  1.00  0.00    -0.225 OA 
BRANCH  19  21
HETATM   21  O   UNL     1      -9.456  15.325  67.640  1.00  0.00    -0.203 OA 
HETATM   22  C   UNL     1      -8.790  15.381  66.375  1.00  0.00    -0.305 C  
ENDBRANCH  19  21
ENDBRANCH  16  19
BRANCH  18  23
HETATM   23  C   UNL     1     -10.463  12.004  66.573  1.00  0.00    -0.253 A  
HETATM   24  C   UNL     1     -11.701  12.262  65.955  1.00  0.00    -0.451 A  
HETATM   25  C   UNL     1     -11.881  12.042  64.593  1.00  0.00    -0.342 A  
HETATM   26  C   UNL     1     -10.821  11.569  63.814  1.00  0.00    -0.486 A  
HETATM   27  C   UNL     1      -9.585  11.292  64.407  1.00  0.00    -0.225 A  
HETATM   28 CL   UNL     1      -8.329  10.710  63.366  1.00  0.00    -0.116 Cl 
HETATM   29  C   UNL     1      -9.396  11.505  65.783  1.00  0.00    -0.221 A  
HETATM   30 CL   UNL     1      -7.843  11.158  66.491  1.00  0.00    -0.154 Cl 
ENDBRANCH  18  23
ENDBRANCH   9  11
ENDBRANCH   8   9
ENDBRANCH   7   8
ENDBRANCH   6   7
ENDBRANCH   4   6
ENDBRANCH   3   4
ENDBRANCH   2   3
TORSDOF 10
ENDMDL
MODEL       38
REMARK 921   NORMALIZED FREE ENERGY PREDICTED BY IDOCK:   -5.24 KCAL/MOL
REMARK 922        TOTAL FREE ENERGY PREDICTED BY IDOCK:   -9.71 KCAL/MOL
REMARK 923 INTER-LIGAND FREE ENERGY PREDICTED BY IDOCK:   -7.95 KCAL/MOL
REMARK 924 INTRA-LIGAND FREE ENERGY PREDICTED BY IDOCK:   -1.77 KCAL/MOL
REMARK 927      BINDING AFFINITY PREDICTED BY RF-SCORE:    0.00 PKD
ROOT
HETATM    1  C   UNL     1     -10.561  18.722  67.141  1.00  0.00    -0.491 C  
HETATM    2  C   UNL     1     -10.159  18.474  68.585  1.00  0.00    -0.406 C  
ENDROOT
BRANCH   2   3
HETATM    3  C   UNL     1      -9.863  17.001  68.829  1.00  0.00    -0.278 C  
BRANCH   3   4
HETATM    4  C   UNL     1     -11.029  16.302  69.483  1.00  0.00    -0.339 C  
HETATM    5  O   UNL     1     -11.257  16.273  70.684  1.00  0.00    -0.371 OA 
BRANCH   4   6
HETATM    6  O   UNL     1     -11.815  15.766  68.519  1.00  0.00    -0.363 OA 
BRANCH   6   7
HETATM    7  C   UNL     1     -11.136  14.975  67.555  1.00  0.00    -0.317 C  
BRANCH   7   8
HETATM    8  O   UNL     1     -10.645  13.707  67.990  1.00  0.00    -0.239 OA 
BRANCH   8   9
HETATM    9  C   UNL     1     -11.425  12.632  67.768  1.00  0.00    -0.322 C  
HETATM   10  O   UNL     1     -12.249  12.548  66.873  1.00  0.00    -0.511 OA 
BRANCH   9  11
HETATM   11  C   UNL     1     -11.275  11.630  68.875  1.00  0.00    -0.306 C  
HETATM   12  C   UNL     1     -11.861  11.741  70.097  1.00  0.00    -0.324 C  
HETATM   13  N   UNL     1     -11.796  10.681  70.982  1.00  0.00    -0.327 NA 
HETATM   14  C   UNL     1     -12.630  12.914  70.671  1.00  0.00    -0.256 C  
HETATM   15  C   UNL     1     -11.037   9.542  70.822  1.00  0.00    -0.323 C  
HETATM   16  C   UNL     1     -10.377   9.327  69.661  1.00  0.00    -0.227 C  
HETATM   17  C   UNL     1     -11.020   8.617  72.015  1.00  0.00    -0.432 C  
HETATM   18  C   UNL     1     -10.511  10.325  68.491  1.00  0.00    -0.217 C  
BRANCH  16  19
HETATM   19  C   UNL     1      -9.479   8.143  69.558  1.00  0.00    -0.156 C  
HETATM   20  O   UNL     1      -8.379   8.066  70.084  1.00  0.00    -0.122 OA 
BRANCH  19  21
HETATM   21  O   UNL     1     -10.020   7.173  68.778  1.00  0.00    -0.156 OA 
HETATM   22  C   UNL     1     -10.613   6.105  69.521  1.00  0.00    -0.287 C  
ENDBRANCH  19  21
ENDBRANCH  16  19
BRANCH  18  23
HETATM   23  C   UNL     1      -9.152  10.603  67.831  1.00  0.00    -0.145 A  
HETATM   24  C   UNL     1      -8.170  11.282  68.576  1.00  0.00    -0.150 A  
HETATM   25  C   UNL     1      -6.914  11.541  68.037  1.00  0.00    -0.077 A  
HETATM   26  C   UNL     1      -6.607  11.116  66.740  1.00  0.00    -0.133 A  
HETATM   27  C   UNL     1      -7.571  10.451  65.976  1.00  0.00    -0.137 A  
HETATM   28 CL   UNL     1      -7.103   9.959  64.382  1.00  0.00    -0.130 Cl 
HETATM   29  C   UNL     1      -8.844  10.191  66.509  1.00  0.00    -0.140 A  
HETATM   30 CL   UNL     1     -10.020   9.354  65.535  1.00  0.00    -0.268 Cl 
ENDBRANCH  18  23
ENDBRANCH   9  11
ENDBRANCH   8   9
ENDBRANCH   7   8
ENDBRANCH   6   7
ENDBRANCH   4   6
ENDBRANCH   3   4
ENDBRANCH   2   3
TORSDOF 10
ENDMDL
MODEL       39
REMARK 921   NORMALIZED FREE ENERGY PREDICTED BY IDOCK:   -5.24 KCAL/MOL
REMARK 922        TOTAL FREE ENERGY PREDICTED BY IDOCK:   -9.70 KCAL/MOL
REMARK 923 INTER-LIGAND FREE ENERGY PREDICTED BY IDOCK:   -7.86 KCAL/MOL
REMARK 924 INTRA-LIGAND FREE ENERGY PREDICTED BY IDOCK:   -1.85 KCAL/MOL
REMARK 927      BINDING AFFINITY PREDICTED BY RF-SCORE:    0.00 PKD
ROOT
HETATM    1  C   UNL     1      -6.098  21.093  67.755  1.00  0.00    -0.423 C  
HETATM    2  C   UNL     1      -7.326  20.201  67.694  1.00  0.00    -0.328 C  
ENDROOT
BRANCH   2   3
HETATM    3  C   UNL     1      -7.554  19.486  69.018  1.00  0.00    -0.356 C  
BRANCH   3   4
HETATM    4  C   UNL     1      -6.632  18.303  69.176  1.00  0.00    -0.258 C  
HETATM    5  O   UNL     1      -5.652  18.258  69.906  1.00  0.00    -0.214 OA 
BRANCH   4   6
HETATM    6  O   UNL     1      -7.101  17.279  68.423  1.00  0.00    -0.192 OA 
BRANCH   6   7
HETATM    7  C   UNL     1      -6.743  15.982  68.875  1.00  0.00    -0.138 C  
BRANCH   7   8
HETATM    8  O   UNL     1      -7.741  14.966  68.781  1.00  0.00    -0.122 OA 
BRANCH   8   9
HETATM    9  C   UNL     1      -9.014  15.324  69.035  1.00  0.00    -0.225 C  
HETATM   10  O   UNL     1      -9.464  15.535  70.149  1.00  0.00    -0.090 OA 
BRANCH   9  11
HETATM   11  C   UNL     1      -9.846  15.251  67.788  1.00  0.00    -0.220 C  
HETATM   12  C   UNL     1     -10.375  16.330  67.154  1.00  0.00    -0.285 C  
HETATM   13  N   UNL     1     -10.980  16.166  65.921  1.00  0.00    -0.148 NA 
HETATM   14  C   UNL     1     -10.398  17.775  67.609  1.00  0.00    -0.375 C  
HETATM   15  C   UNL     1     -11.261  14.961  65.315  1.00  0.00    -0.369 C  
HETATM   16  C   UNL     1     -10.817  13.807  65.864  1.00  0.00    -0.283 C  
HETATM   17  C   UNL     1     -12.076  15.061  64.048  1.00  0.00    -0.119 C  
HETATM   18  C   UNL     1      -9.948  13.835  67.140  1.00  0.00    -0.243 C  
BRANCH  16  19
HETATM   19  C   UNL     1     -11.228  12.516  65.247  1.00  0.00    -0.304 C  
HETATM   20  O   UNL     1     -12.376  12.097  65.228  1.00  0.00    -0.513 OA 
BRANCH  19  21
HETATM   21  O   UNL     1     -10.165  11.845  64.737  1.00  0.00    -0.259 OA 
HETATM   22  C   UNL     1     -10.076  11.912  63.311  1.00  0.00    -0.396 C  
ENDBRANCH  19  21
ENDBRANCH  16  19
BRANCH  18  23
HETATM   23  C   UNL     1     -10.384  12.754  68.140  1.00  0.00    -0.243 A  
HETATM   24  C   UNL     1     -11.584  12.939  68.851  1.00  0.00    -0.360 A  
HETATM   25  C   UNL     1     -12.039  11.982  69.752  1.00  0.00    -0.317 A  
HETATM   26  C   UNL     1     -11.306  10.808  69.955  1.00  0.00    -0.397 A  
HETATM   27  C   UNL     1     -10.104  10.607  69.271  1.00  0.00    -0.206 A  
HETATM   28 CL   UNL     1      -9.263   9.124  69.583  1.00  0.00    -0.161 Cl 
HETATM   29  C   UNL     1      -9.633  11.570  68.364  1.00  0.00    -0.195 A  
HETATM   30 CL   UNL     1      -8.136  11.287  67.521  1.00  0.00    -0.121 Cl 
ENDBRANCH  18  23
ENDBRANCH   9  11
ENDBRANCH   8   9
ENDBRANCH   7   8
ENDBRANCH   6   7
ENDBRANCH   4   6
ENDBRANCH   3   4
ENDBRANCH   2   3
TORSDOF 10
ENDMDL
MODEL       40
REMARK 921   NORMALIZED FREE ENERGY PREDICTED BY IDOCK:   -5.23 KCAL/MOL
REMARK 922        TOTAL FREE ENERGY PREDICTED BY IDOCK:   -9.70 KCAL/MOL
REMARK 923 INTER-LIGAND FREE ENERGY PREDICTED BY IDOCK:   -8.22 KCAL/MOL
REMARK 924 INTRA-LIGAND FREE ENERGY PREDICTED BY IDOCK:   -1.47 KCAL/MOL
REMARK 927      BINDING AFFINITY PREDICTED BY RF-SCORE:    0.00 PKD
ROOT
HETATM    1  C   UNL     1      -6.177  10.777  69.171  1.00  0.00    -0.045 C  
HETATM    2  C   UNL     1      -5.835   9.531  69.971  1.00  0.00    -0.036 C  
ENDROOT
BRANCH   2   3
HETATM    3  C   UNL     1      -6.916   8.469  69.827  1.00  0.00    -0.047 C  
BRANCH   3   4
HETATM    4  C   UNL     1      -7.609   8.203  71.141  1.00  0.00    -0.082 C  
HETATM    5  O   UNL     1      -7.419   7.232  71.859  1.00  0.00    -0.082 OA 
BRANCH   4   6
HETATM    6  O   UNL     1      -8.427   9.244  71.423  1.00  0.00    -0.325 OA 
BRANCH   6   7
HETATM    7  C   UNL     1      -9.625   9.295  70.662  1.00  0.00    -0.273 C  
BRANCH   7   8
HETATM    8  O   UNL     1      -9.765  10.384  69.750  1.00  0.00    -0.182 OA 
BRANCH   8   9
HETATM    9  C   UNL     1     -10.989  10.608  69.236  1.00  0.00    -0.245 C  
HETATM   10  O   UNL     1     -12.035  10.441  69.840  1.00  0.00    -0.260 OA 
BRANCH   9  11
HETATM   11  C   UNL     1     -10.901  10.912  67.769  1.00  0.00    -0.309 C  
HETATM   12  C   UNL     1     -10.373  10.071  66.840  1.00  0.00    -0.234 C  
HETATM   13  N   UNL     1     -10.496  10.377  65.497  1.00  0.00    -0.183 NA 
HETATM   14  C   UNL     1      -9.634   8.766  67.060  1.00  0.00    -0.236 C  
HETATM   15  C   UNL     1     -10.970  11.562  64.980  1.00  0.00    -0.241 C  
HETATM   16  C   UNL     1     -11.494  12.498  65.804  1.00  0.00    -0.407 C  
HETATM   17  C   UNL     1     -10.843  11.698  63.481  1.00  0.00    -0.497 C  
HETATM   18  C   UNL     1     -11.615  12.224  67.318  1.00  0.00    -0.427 C  
BRANCH  16  19
HETATM   19  C   UNL     1     -11.897  13.812  65.229  1.00  0.00    -0.352 C  
HETATM   20  O   UNL     1     -13.053  14.195  65.132  1.00  0.00    -0.757 OA 
BRANCH  19  21
HETATM   21  O   UNL     1     -10.822  14.518  64.796  1.00  0.00    -0.399 OA 
HETATM   22  C   UNL     1     -10.987  15.935  64.900  1.00  0.00    -0.411 C  
ENDBRANCH  19  21
ENDBRANCH  16  19
BRANCH  18  23
HETATM   23  C   UNL     1     -11.189  13.446  68.146  1.00  0.00    -0.304 A  
HETATM   24  C   UNL     1     -12.151  14.078  68.957  1.00  0.00    -0.358 A  
HETATM   25  C   UNL     1     -11.815  15.175  69.744  1.00  0.00    -0.364 A  
HETATM   26  C   UNL     1     -10.503  15.660  69.747  1.00  0.00    -0.312 A  
HETATM   27  C   UNL     1      -9.533  15.057  68.939  1.00  0.00    -0.211 A  
HETATM   28 CL   UNL     1      -7.935  15.723  69.006  1.00  0.00    -0.197 Cl 
HETATM   29  C   UNL     1      -9.864  13.954  68.136  1.00  0.00    -0.240 A  
HETATM   30 CL   UNL     1      -8.633  13.221  67.146  1.00  0.00    -0.207 Cl 
ENDBRANCH  18  23
ENDBRANCH   9  11
ENDBRANCH   8   9
ENDBRANCH   7   8
ENDBRANCH   6   7
ENDBRANCH   4   6
ENDBRANCH   3   4
ENDBRANCH   2   3
TORSDOF 10
ENDMDL
MODEL       41
REMARK 921   NORMALIZED FREE ENERGY PREDICTED BY IDOCK:   -5.23 KCAL/MOL
REMARK 922        TOTAL FREE ENERGY PREDICTED BY IDOCK:   -9.69 KCAL/MOL
REMARK 923 INTER-LIGAND FREE ENERGY PREDICTED BY IDOCK:   -7.92 KCAL/MOL
REMARK 924 INTRA-LIGAND FREE ENERGY PREDICTED BY IDOCK:   -1.77 KCAL/MOL
REMARK 927      BINDING AFFINITY PREDICTED BY RF-SCORE:    0.00 PKD
ROOT
HETATM    1  C   UNL     1     -14.066   8.571  71.792  1.00  0.00    -0.515 C  
HETATM    2  C   UNL     1     -12.949   9.533  72.160  1.00  0.00    -0.497 C  
ENDROOT
BRANCH   2   3
HETATM    3  C   UNL     1     -12.617  10.462  71.000  1.00  0.00    -0.491 C  
BRANCH   3   4
HETATM    4  C   UNL     1     -12.940  11.898  71.331  1.00  0.00    -0.284 C  
HETATM    5  O   UNL     1     -13.596  12.276  72.291  1.00  0.00    -0.472 OA 
BRANCH   4   6
HETATM    6  O   UNL     1     -12.333  12.702  70.426  1.00  0.00    -0.312 OA 
BRANCH   6   7
HETATM    7  C   UNL     1     -11.662  12.029  69.371  1.00  0.00    -0.340 C  
BRANCH   7   8
HETATM    8  O   UNL     1     -11.865  12.532  68.051  1.00  0.00    -0.346 OA 
BRANCH   8   9
HETATM    9  C   UNL     1     -10.798  13.049  67.415  1.00  0.00    -0.251 C  
HETATM   10  O   UNL     1     -10.309  14.140  67.657  1.00  0.00    -0.239 OA 
BRANCH   9  11
HETATM   11  C   UNL     1     -10.405  12.188  66.250  1.00  0.00    -0.250 C  
HETATM   12  C   UNL     1     -11.120  12.080  65.099  1.00  0.00    -0.318 C  
HETATM   13  N   UNL     1     -10.582  11.394  64.025  1.00  0.00    -0.356 NA 
HETATM   14  C   UNL     1     -12.494  12.638  64.786  1.00  0.00    -0.555 C  
HETATM   15  C   UNL     1      -9.429  10.641  64.045  1.00  0.00    -0.285 C  
HETATM   16  C   UNL     1      -8.643  10.638  65.146  1.00  0.00    -0.173 C  
HETATM   17  C   UNL     1      -9.157   9.861  62.781  1.00  0.00    -0.300 C  
HETATM   18  C   UNL     1      -9.001  11.517  66.363  1.00  0.00    -0.200 C  
BRANCH  16  19
HETATM   19  C   UNL     1      -7.462   9.730  65.178  1.00  0.00    -0.122 C  
HETATM   20  O   UNL     1      -7.530   8.516  65.295  1.00  0.00    -0.082 OA 
BRANCH  19  21
HETATM   21  O   UNL     1      -6.298  10.423  65.096  1.00  0.00    -0.122 OA 
HETATM   22  C   UNL     1      -5.638  10.285  63.835  1.00  0.00    -0.143 C  
ENDBRANCH  19  21
ENDBRANCH  16  19
BRANCH  18  23
HETATM   23  C   UNL     1      -8.812  10.753  67.682  1.00  0.00    -0.132 A  
HETATM   24  C   UNL     1      -7.821  11.193  68.580  1.00  0.00    -0.136 A  
HETATM   25  C   UNL     1      -7.622  10.552  69.798  1.00  0.00    -0.102 A  
HETATM   26  C   UNL     1      -8.420   9.460  70.154  1.00  0.00    -0.224 A  
HETATM   27  C   UNL     1      -9.402   8.996  69.274  1.00  0.00    -0.150 A  
HETATM   28 CL   UNL     1     -10.344   7.639  69.797  1.00  0.00    -0.218 Cl 
HETATM   29  C   UNL     1      -9.606   9.632  68.038  1.00  0.00    -0.143 A  
HETATM   30 CL   UNL     1     -10.842   9.034  66.967  1.00  0.00    -0.168 Cl 
ENDBRANCH  18  23
ENDBRANCH   9  11
ENDBRANCH   8   9
ENDBRANCH   7   8
ENDBRANCH   6   7
ENDBRANCH   4   6
ENDBRANCH   3   4
ENDBRANCH   2   3
TORSDOF 10
ENDMDL
MODEL       42
REMARK 921   NORMALIZED FREE ENERGY PREDICTED BY IDOCK:   -5.18 KCAL/MOL
REMARK 922        TOTAL FREE ENERGY PREDICTED BY IDOCK:   -9.60 KCAL/MOL
REMARK 923 INTER-LIGAND FREE ENERGY PREDICTED BY IDOCK:   -7.18 KCAL/MOL
REMARK 924 INTRA-LIGAND FREE ENERGY PREDICTED BY IDOCK:   -2.43 KCAL/MOL
REMARK 927      BINDING AFFINITY PREDICTED BY RF-SCORE:    0.00 PKD
ROOT
HETATM    1  C   UNL     1      -8.652   8.913  71.259  1.00  0.00    -0.259 C  
HETATM    2  C   UNL     1      -8.061   9.051  69.866  1.00  0.00    -0.117 C  
ENDROOT
BRANCH   2   3
HETATM    3  C   UNL     1      -7.710  10.499  69.556  1.00  0.00    -0.141 C  
BRANCH   3   4
HETATM    4  C   UNL     1      -6.225  10.680  69.361  1.00  0.00    -0.051 C  
HETATM    5  O   UNL     1      -5.372  10.532  70.224  1.00  0.00    -0.044 OA 
BRANCH   4   6
HETATM    6  O   UNL     1      -5.988  10.972  68.060  1.00  0.00    -0.049 OA 
BRANCH   6   7
HETATM    7  C   UNL     1      -5.725  12.340  67.784  1.00  0.00    -0.097 C  
BRANCH   7   8
HETATM    8  O   UNL     1      -6.746  13.070  67.104  1.00  0.00    -0.137 OA 
BRANCH   8   9
HETATM    9  C   UNL     1      -7.533  13.870  67.847  1.00  0.00    -0.152 C  
HETATM   10  O   UNL     1      -7.504  13.934  69.064  1.00  0.00    -0.108 OA 
BRANCH   9  11
HETATM   11  C   UNL     1      -8.571  14.535  66.991  1.00  0.00    -0.241 C  
HETATM   12  C   UNL     1      -8.615  15.868  66.733  1.00  0.00    -0.266 C  
HETATM   13  N   UNL     1      -9.511  16.352  65.796  1.00  0.00    -0.499 NA 
HETATM   14  C   UNL     1      -7.778  16.976  67.341  1.00  0.00    -0.192 C  
HETATM   15  C   UNL     1     -10.513  15.627  65.190  1.00  0.00    -0.389 C  
HETATM   16  C   UNL     1     -10.598  14.292  65.391  1.00  0.00    -0.367 C  
HETATM   17  C   UNL     1     -11.454  16.438  64.331  1.00  0.00    -0.000 C  
HETATM   18  C   UNL     1      -9.545  13.564  66.254  1.00  0.00    -0.245 C  
BRANCH  16  19
HETATM   19  C   UNL     1     -11.755  13.554  64.810  1.00  0.00    -0.370 C  
HETATM   20  O   UNL     1     -12.888  13.581  65.267  1.00  0.00    -0.660 OA 
BRANCH  19  21
HETATM   21  O   UNL     1     -11.387  12.820  63.730  1.00  0.00    -0.409 OA 
HETATM   22  C   UNL     1     -12.480  12.152  63.093  1.00  0.00    -0.243 C  
ENDBRANCH  19  21
ENDBRANCH  16  19
BRANCH  18  23
HETATM   23  C   UNL     1     -10.201  12.548  67.201  1.00  0.00    -0.225 A  
HETATM   24  C   UNL     1     -10.849  13.025  68.355  1.00  0.00    -0.280 A  
HETATM   25  C   UNL     1     -11.479  12.151  69.236  1.00  0.00    -0.363 A  
HETATM   26  C   UNL     1     -11.485  10.777  68.975  1.00  0.00    -0.368 A  
HETATM   27  C   UNL     1     -10.836  10.278  67.842  1.00  0.00    -0.284 A  
HETATM   28 CL   UNL     1     -10.895   8.563  67.598  1.00  0.00    -0.172 Cl 
HETATM   29  C   UNL     1     -10.192  11.151  66.951  1.00  0.00    -0.222 A  
HETATM   30 CL   UNL     1      -9.399  10.499  65.544  1.00  0.00    -0.225 Cl 
ENDBRANCH  18  23
ENDBRANCH   9  11
ENDBRANCH   8   9
ENDBRANCH   7   8
ENDBRANCH   6   7
ENDBRANCH   4   6
ENDBRANCH   3   4
ENDBRANCH   2   3
TORSDOF 10
ENDMDL
MODEL       43
REMARK 921   NORMALIZED FREE ENERGY PREDICTED BY IDOCK:   -5.15 KCAL/MOL
REMARK 922        TOTAL FREE ENERGY PREDICTED BY IDOCK:   -9.56 KCAL/MOL
REMARK 923 INTER-LIGAND FREE ENERGY PREDICTED BY IDOCK:   -8.91 KCAL/MOL
REMARK 924 INTRA-LIGAND FREE ENERGY PREDICTED BY IDOCK:   -0.64 KCAL/MOL
REMARK 927      BINDING AFFINITY PREDICTED BY RF-SCORE:    0.00 PKD
ROOT
HETATM    1  C   UNL     1     -11.358  11.721  63.729  1.00  0.00    -0.524 C  
HETATM    2  C   UNL     1     -12.144  12.969  63.364  1.00  0.00    -0.591 C  
ENDROOT
BRANCH   2   3
HETATM    3  C   UNL     1     -12.463  13.800  64.598  1.00  0.00    -0.356 C  
BRANCH   3   4
HETATM    4  C   UNL     1     -11.885  15.189  64.496  1.00  0.00    -0.330 C  
HETATM    5  O   UNL     1     -12.131  15.998  63.613  1.00  0.00    -0.768 OA 
BRANCH   4   6
HETATM    6  O   UNL     1     -11.097  15.416  65.574  1.00  0.00    -0.333 OA 
BRANCH   6   7
HETATM    7  C   UNL     1      -9.802  14.838  65.511  1.00  0.00    -0.301 C  
BRANCH   7   8
HETATM    8  O   UNL     1      -9.644  13.540  66.082  1.00  0.00    -0.269 OA 
BRANCH   8   9
HETATM    9  C   UNL     1      -9.148  13.470  67.332  1.00  0.00    -0.219 C  
HETATM   10  O   UNL     1      -7.972  13.295  67.601  1.00  0.00    -0.148 OA 
BRANCH   9  11
HETATM   11  C   UNL     1     -10.258  13.453  68.343  1.00  0.00    -0.251 C  
HETATM   12  C   UNL     1     -11.248  12.524  68.381  1.00  0.00    -0.272 C  
HETATM   13  N   UNL     1     -12.121  12.501  69.453  1.00  0.00    -0.231 NA 
HETATM   14  C   UNL     1     -11.559  11.434  67.374  1.00  0.00    -0.266 C  
HETATM   15  C   UNL     1     -12.203  13.453  70.446  1.00  0.00    -0.345 C  
HETATM   16  C   UNL     1     -11.292  14.452  70.501  1.00  0.00    -0.117 C  
HETATM   17  C   UNL     1     -13.354  13.273  71.406  1.00  0.00    -0.241 C  
HETATM   18  C   UNL     1     -10.127  14.503  69.490  1.00  0.00     0.071 C  
BRANCH  16  19
HETATM   19  C   UNL     1     -11.470  15.526  71.519  1.00  0.00    -0.421 C  
HETATM   20  O   UNL     1     -11.769  16.681  71.255  1.00  0.00    -0.202 OA 
BRANCH  19  21
HETATM   21  O   UNL     1     -11.225  15.070  72.773  1.00  0.00    -0.183 OA 
HETATM   22  C   UNL     1     -12.176  15.521  73.742  1.00  0.00    -0.585 C  
ENDBRANCH  19  21
ENDBRANCH  16  19
BRANCH  18  23
HETATM   23  C   UNL     1      -9.900  15.930  68.967  1.00  0.00    -0.234 A  
HETATM   24  C   UNL     1     -10.984  16.614  68.385  1.00  0.00    -0.345 A  
HETATM   25  C   UNL     1     -10.841  17.915  67.915  1.00  0.00    -0.225 A  
HETATM   26  C   UNL     1      -9.610  18.569  68.027  1.00  0.00    -0.337 A  
HETATM   27  C   UNL     1      -8.514  17.905  68.588  1.00  0.00    -0.266 A  
HETATM   28 CL   UNL     1      -7.028  18.791  68.686  1.00  0.00    -0.294 Cl 
HETATM   29  C   UNL     1      -8.647  16.589  69.059  1.00  0.00    -0.208 A  
HETATM   30 CL   UNL     1      -7.267  15.792  69.760  1.00  0.00    -0.122 Cl 
ENDBRANCH  18  23
ENDBRANCH   9  11
ENDBRANCH   8   9
ENDBRANCH   7   8
ENDBRANCH   6   7
ENDBRANCH   4   6
ENDBRANCH   3   4
ENDBRANCH   2   3
TORSDOF 10
ENDMDL
MODEL       44
REMARK 921   NORMALIZED FREE ENERGY PREDICTED BY IDOCK:   -5.14 KCAL/MOL
REMARK 922        TOTAL FREE ENERGY PREDICTED BY IDOCK:   -9.55 KCAL/MOL
REMARK 923 INTER-LIGAND FREE ENERGY PREDICTED BY IDOCK:   -8.06 KCAL/MOL
REMARK 924 INTRA-LIGAND FREE ENERGY PREDICTED BY IDOCK:   -1.49 KCAL/MOL
REMARK 927      BINDING AFFINITY PREDICTED BY RF-SCORE:    0.00 PKD
ROOT
HETATM    1  C   UNL     1      -6.057  19.802  70.521  1.00  0.00    -0.285 C  
HETATM    2  C   UNL     1      -6.277  18.957  69.277  1.00  0.00    -0.285 C  
ENDROOT
BRANCH   2   3
HETATM    3  C   UNL     1      -7.374  19.544  68.399  1.00  0.00    -0.352 C  
BRANCH   3   4
HETATM    4  C   UNL     1      -7.369  18.929  67.022  1.00  0.00    -0.214 C  
HETATM    5  O   UNL     1      -7.194  19.536  65.974  1.00  0.00    -0.257 OA 
BRANCH   4   6
HETATM    6  O   UNL     1      -7.528  17.590  67.139  1.00  0.00    -0.181 OA 
BRANCH   6   7
HETATM    7  C   UNL     1      -8.200  16.962  66.057  1.00  0.00    -0.143 C  
BRANCH   7   8
HETATM    8  O   UNL     1      -8.705  15.647  66.286  1.00  0.00    -0.307 OA 
BRANCH   8   9
HETATM    9  C   UNL     1     -10.036  15.469  66.187  1.00  0.00    -0.309 C  
HETATM   10  O   UNL     1     -10.710  15.808  65.229  1.00  0.00    -0.385 OA 
BRANCH   9  11
HETATM   11  C   UNL     1     -10.601  14.967  67.483  1.00  0.00    -0.265 C  
HETATM   12  C   UNL     1     -10.923  15.760  68.539  1.00  0.00    -0.312 C  
HETATM   13  N   UNL     1     -11.595  15.217  69.619  1.00  0.00    -0.290 NA 
HETATM   14  C   UNL     1     -10.653  17.240  68.725  1.00  0.00    -0.305 C  
HETATM   15  C   UNL     1     -11.842  13.877  69.824  1.00  0.00    -0.329 C  
HETATM   16  C   UNL     1     -11.538  12.978  68.860  1.00  0.00    -0.355 C  
HETATM   17  C   UNL     1     -12.449  13.540  71.165  1.00  0.00    -0.424 C  
HETATM   18  C   UNL     1     -10.965  13.450  67.506  1.00  0.00    -0.284 C  
BRANCH  16  19
HETATM   19  C   UNL     1     -11.715  11.528  69.153  1.00  0.00    -0.329 C  
HETATM   20  O   UNL     1     -12.649  10.853  68.747  1.00  0.00    -0.317 OA 
BRANCH  19  21
HETATM   21  O   UNL     1     -10.727  11.057  69.954  1.00  0.00    -0.164 OA 
HETATM   22  C   UNL     1     -10.978   9.743  70.460  1.00  0.00    -0.321 C  
ENDBRANCH  19  21
ENDBRANCH  16  19
BRANCH  18  23
HETATM   23  C   UNL     1      -9.806  12.554  67.045  1.00  0.00    -0.217 A  
HETATM   24  C   UNL     1      -8.629  12.524  67.817  1.00  0.00    -0.178 A  
HETATM   25  C   UNL     1      -7.557  11.714  67.458  1.00  0.00    -0.128 A  
HETATM   26  C   UNL     1      -7.641  10.904  66.321  1.00  0.00    -0.136 A  
HETATM   27  C   UNL     1      -8.794  10.926  65.530  1.00  0.00    -0.188 A  
HETATM   28 CL   UNL     1      -8.811   9.889  64.142  1.00  0.00    -0.226 Cl 
HETATM   29  C   UNL     1      -9.879  11.746  65.881  1.00  0.00    -0.238 A  
HETATM   30 CL   UNL     1     -11.304  11.745  64.880  1.00  0.00    -0.335 Cl 
ENDBRANCH  18  23
ENDBRANCH   9  11
ENDBRANCH   8   9
ENDBRANCH   7   8
ENDBRANCH   6   7
ENDBRANCH   4   6
ENDBRANCH   3   4
ENDBRANCH   2   3
TORSDOF 10
ENDMDL
MODEL       45
REMARK 921   NORMALIZED FREE ENERGY PREDICTED BY IDOCK:   -5.12 KCAL/MOL
REMARK 922        TOTAL FREE ENERGY PREDICTED BY IDOCK:   -9.52 KCAL/MOL
REMARK 923 INTER-LIGAND FREE ENERGY PREDICTED BY IDOCK:   -7.50 KCAL/MOL
REMARK 924 INTRA-LIGAND FREE ENERGY PREDICTED BY IDOCK:   -2.02 KCAL/MOL
REMARK 927      BINDING AFFINITY PREDICTED BY RF-SCORE:    0.00 PKD
ROOT
HETATM    1  C   UNL     1      -9.409  20.289  67.378  1.00  0.00    -0.531 C  
HETATM    2  C   UNL     1      -8.708  19.486  66.296  1.00  0.00    -0.383 C  
ENDROOT
BRANCH   2   3
HETATM    3  C   UNL     1      -7.684  18.532  66.893  1.00  0.00    -0.241 C  
BRANCH   3   4
HETATM    4  C   UNL     1      -6.679  18.079  65.863  1.00  0.00    -0.288 C  
HETATM    5  O   UNL     1      -6.544  18.558  64.746  1.00  0.00    -0.416 OA 
BRANCH   4   6
HETATM    6  O   UNL     1      -5.913  17.100  66.398  1.00  0.00    -0.199 OA 
BRANCH   6   7
HETATM    7  C   UNL     1      -6.571  16.263  67.339  1.00  0.00    -0.179 C  
BRANCH   7   8
HETATM    8  O   UNL     1      -6.507  14.856  67.106  1.00  0.00    -0.263 OA 
BRANCH   8   9
HETATM    9  C   UNL     1      -6.665  14.045  68.169  1.00  0.00    -0.125 C  
HETATM   10  O   UNL     1      -6.030  14.132  69.206  1.00  0.00    -0.089 OA 
BRANCH   9  11
HETATM   11  C   UNL     1      -7.595  12.914  67.840  1.00  0.00    -0.138 C  
HETATM   12  C   UNL     1      -7.224  11.779  67.191  1.00  0.00    -0.147 C  
HETATM   13  N   UNL     1      -8.118  10.729  67.090  1.00  0.00    -0.121 NA 
HETATM   14  C   UNL     1      -5.898  11.461  66.528  1.00  0.00    -0.138 C  
HETATM   15  C   UNL     1      -9.448  10.766  67.446  1.00  0.00    -0.154 C  
HETATM   16  C   UNL     1      -9.951  11.854  68.072  1.00  0.00    -0.192 C  
HETATM   17  C   UNL     1     -10.239   9.533  67.077  1.00  0.00    -0.321 C  
HETATM   18  C   UNL     1      -9.030  13.037  68.441  1.00  0.00    -0.126 C  
BRANCH  16  19
HETATM   19  C   UNL     1     -11.414  11.909  68.346  1.00  0.00    -0.299 C  
HETATM   20  O   UNL     1     -12.271  12.039  67.485  1.00  0.00    -0.490 OA 
BRANCH  19  21
HETATM   21  O   UNL     1     -11.676  11.832  69.675  1.00  0.00    -0.297 OA 
HETATM   22  C   UNL     1     -12.143  10.546  70.093  1.00  0.00    -0.300 C  
ENDBRANCH  19  21
ENDBRANCH  16  19
BRANCH  18  23
HETATM   23  C   UNL     1      -9.693  14.385  68.124  1.00  0.00    -0.223 A  
HETATM   24  C   UNL     1      -9.916  15.290  69.179  1.00  0.00    -0.238 A  
HETATM   25  C   UNL     1     -10.493  16.534  68.946  1.00  0.00    -0.304 A  
HETATM   26  C   UNL     1     -10.851  16.908  67.646  1.00  0.00    -0.244 A  
HETATM   27  C   UNL     1     -10.652  16.021  66.584  1.00  0.00    -0.297 A  
HETATM   28 CL   UNL     1     -11.123  16.568  65.008  1.00  0.00    -0.271 Cl 
HETATM   29  C   UNL     1     -10.076  14.760  66.810  1.00  0.00    -0.256 A  
HETATM   30 CL   UNL     1      -9.834  13.681  65.465  1.00  0.00    -0.227 Cl 
ENDBRANCH  18  23
ENDBRANCH   9  11
ENDBRANCH   8   9
ENDBRANCH   7   8
ENDBRANCH   6   7
ENDBRANCH   4   6
ENDBRANCH   3   4
ENDBRANCH   2   3
TORSDOF 10
ENDMDL
MODEL       46
REMARK 921   NORMALIZED FREE ENERGY PREDICTED BY IDOCK:   -5.12 KCAL/MOL
REMARK 922        TOTAL FREE ENERGY PREDICTED BY IDOCK:   -9.52 KCAL/MOL
REMARK 923 INTER-LIGAND FREE ENERGY PREDICTED BY IDOCK:   -8.32 KCAL/MOL
REMARK 924 INTRA-LIGAND FREE ENERGY PREDICTED BY IDOCK:   -1.19 KCAL/MOL
REMARK 927      BINDING AFFINITY PREDICTED BY RF-SCORE:    0.00 PKD
ROOT
HETATM    1  C   UNL     1     -13.481  14.484  72.369  1.00  0.00    -0.543 C  
HETATM    2  C   UNL     1     -13.588  12.973  72.247  1.00  0.00    -0.643 C  
ENDROOT
BRANCH   2   3
HETATM    3  C   UNL     1     -12.718  12.448  71.114  1.00  0.00    -0.336 C  
BRANCH   3   4
HETATM    4  C   UNL     1     -12.556  10.950  71.187  1.00  0.00    -0.428 C  
HETATM    5  O   UNL     1     -12.992  10.232  72.075  1.00  0.00    -0.432 OA 
BRANCH   4   6
HETATM    6  O   UNL     1     -11.904  10.526  70.079  1.00  0.00    -0.274 OA 
BRANCH   6   7
HETATM    7  C   UNL     1     -10.537  10.191  70.271  1.00  0.00    -0.264 C  
BRANCH   7   8
HETATM    8  O   UNL     1      -9.755   9.969  69.098  1.00  0.00    -0.186 OA 
BRANCH   8   9
HETATM    9  C   UNL     1     -10.184   9.027  68.238  1.00  0.00    -0.204 C  
HETATM   10  O   UNL     1     -10.776   8.011  68.562  1.00  0.00    -0.142 OA 
BRANCH   9  11
HETATM   11  C   UNL     1      -9.678   9.304  66.852  1.00  0.00    -0.248 C  
HETATM   12  C   UNL     1      -8.721   8.573  66.224  1.00  0.00    -0.142 C  
HETATM   13  N   UNL     1      -8.451   8.808  64.888  1.00  0.00    -0.173 NA 
HETATM   14  C   UNL     1      -7.856   7.464  66.790  1.00  0.00    -0.110 C  
HETATM   15  C   UNL     1      -8.949   9.850  64.136  1.00  0.00    -0.240 C  
HETATM   16  C   UNL     1      -9.887  10.673  64.659  1.00  0.00    -0.382 C  
HETATM   17  C   UNL     1      -8.364   9.970  62.749  1.00  0.00    -0.167 C  
HETATM   18  C   UNL     1     -10.445  10.419  66.076  1.00  0.00    -0.211 C  
BRANCH  16  19
HETATM   19  C   UNL     1     -10.326  11.853  63.863  1.00  0.00    -0.389 C  
HETATM   20  O   UNL     1      -9.662  12.869  63.715  1.00  0.00    -0.133 OA 
BRANCH  19  21
HETATM   21  O   UNL     1     -11.569  11.676  63.351  1.00  0.00    -0.395 OA 
HETATM   22  C   UNL     1     -12.482  12.724  63.689  1.00  0.00    -0.389 C  
ENDBRANCH  19  21
ENDBRANCH  16  19
BRANCH  18  23
HETATM   23  C   UNL     1     -10.563  11.726  66.875  1.00  0.00    -0.270 A  
HETATM   24  C   UNL     1     -11.847  12.197  67.208  1.00  0.00    -0.293 A  
HETATM   25  C   UNL     1     -12.011  13.363  67.950  1.00  0.00    -0.360 A  
HETATM   26  C   UNL     1     -10.892  14.080  68.385  1.00  0.00    -0.263 A  
HETATM   27  C   UNL     1      -9.607  13.639  68.055  1.00  0.00    -0.216 A  
HETATM   28 CL   UNL     1      -8.280  14.589  68.637  1.00  0.00    -0.149 Cl 
HETATM   29  C   UNL     1      -9.431  12.468  67.301  1.00  0.00    -0.193 A  
HETATM   30 CL   UNL     1      -7.817  11.940  66.912  1.00  0.00    -0.149 Cl 
ENDBRANCH  18  23
ENDBRANCH   9  11
ENDBRANCH   8   9
ENDBRANCH   7   8
ENDBRANCH   6   7
ENDBRANCH   4   6
ENDBRANCH   3   4
ENDBRANCH   2   3
TORSDOF 10
ENDMDL
MODEL       47
REMARK 921   NORMALIZED FREE ENERGY PREDICTED BY IDOCK:   -5.10 KCAL/MOL
REMARK 922        TOTAL FREE ENERGY PREDICTED BY IDOCK:   -9.48 KCAL/MOL
REMARK 923 INTER-LIGAND FREE ENERGY PREDICTED BY IDOCK:   -7.90 KCAL/MOL
REMARK 924 INTRA-LIGAND FREE ENERGY PREDICTED BY IDOCK:   -1.58 KCAL/MOL
REMARK 927      BINDING AFFINITY PREDICTED BY RF-SCORE:    0.00 PKD
ROOT
HETATM    1  C   UNL     1      -8.374  20.096  67.408  1.00  0.00    -0.390 C  
HETATM    2  C   UNL     1      -9.741  20.237  66.760  1.00  0.00    -0.571 C  
ENDROOT
BRANCH   2   3
HETATM    3  C   UNL     1     -10.732  19.239  67.340  1.00  0.00    -0.594 C  
BRANCH   3   4
HETATM    4  C   UNL     1     -10.496  17.848  66.805  1.00  0.00    -0.311 C  
HETATM    5  O   UNL     1     -10.530  17.527  65.625  1.00  0.00    -0.588 OA 
BRANCH   4   6
HETATM    6  O   UNL     1     -10.181  17.030  67.836  1.00  0.00    -0.289 OA 
BRANCH   6   7
HETATM    7  C   UNL     1      -9.083  16.159  67.604  1.00  0.00    -0.196 C  
BRANCH   7   8
HETATM    8  O   UNL     1      -9.077  14.923  68.319  1.00  0.00    -0.169 OA 
BRANCH   8   9
HETATM    9  C   UNL     1     -10.207  14.193  68.302  1.00  0.00    -0.243 C  
HETATM   10  O   UNL     1     -10.971  14.078  69.245  1.00  0.00    -0.250 OA 
BRANCH   9  11
HETATM   11  C   UNL     1     -10.305  13.396  67.034  1.00  0.00    -0.247 C  
HETATM   12  C   UNL     1     -11.222  13.618  66.056  1.00  0.00    -0.296 C  
HETATM   13  N   UNL     1     -11.116  12.938  64.856  1.00  0.00    -0.288 NA 
HETATM   14  C   UNL     1     -12.409  14.560  66.071  1.00  0.00    -0.234 C  
HETATM   15  C   UNL     1     -10.247  11.903  64.589  1.00  0.00    -0.278 C  
HETATM   16  C   UNL     1      -9.305  11.561  65.497  1.00  0.00    -0.203 C  
HETATM   17  C   UNL     1     -10.453  11.228  63.254  1.00  0.00    -0.370 C  
HETATM   18  C   UNL     1      -9.159  12.360  66.810  1.00  0.00    -0.212 C  
BRANCH  16  19
HETATM   19  C   UNL     1      -8.452  10.369  65.228  1.00  0.00    -0.169 C  
HETATM   20  O   UNL     1      -7.296  10.424  64.838  1.00  0.00    -0.134 OA 
BRANCH  19  21
HETATM   21  O   UNL     1      -9.131   9.213  65.439  1.00  0.00    -0.207 OA 
HETATM   22  C   UNL     1      -8.351   8.039  65.194  1.00  0.00    -0.130 C  
ENDBRANCH  19  21
ENDBRANCH  16  19
BRANCH  18  23
HETATM   23  C   UNL     1      -8.957  11.428  68.015  1.00  0.00    -0.163 A  
HETATM   24  C   UNL     1      -7.678  11.349  68.597  1.00  0.00    -0.137 A  
HETATM   25  C   UNL     1      -7.443  10.538  69.703  1.00  0.00    -0.145 A  
HETATM   26  C   UNL     1      -8.489   9.796  70.262  1.00  0.00    -0.163 A  
HETATM   27  C   UNL     1      -9.765   9.848  69.693  1.00  0.00    -0.229 A  
HETATM   28 CL   UNL     1     -10.999   8.897  70.451  1.00  0.00    -0.265 Cl 
HETATM   29  C   UNL     1     -10.010  10.658  68.572  1.00  0.00    -0.167 A  
HETATM   30 CL   UNL     1     -11.612  10.707  67.892  1.00  0.00    -0.267 Cl 
ENDBRANCH  18  23
ENDBRANCH   9  11
ENDBRANCH   8   9
ENDBRANCH   7   8
ENDBRANCH   6   7
ENDBRANCH   4   6
ENDBRANCH   3   4
ENDBRANCH   2   3
TORSDOF 10
ENDMDL
MODEL       48
REMARK 921   NORMALIZED FREE ENERGY PREDICTED BY IDOCK:   -5.07 KCAL/MOL
REMARK 922        TOTAL FREE ENERGY PREDICTED BY IDOCK:   -9.44 KCAL/MOL
REMARK 923 INTER-LIGAND FREE ENERGY PREDICTED BY IDOCK:   -7.51 KCAL/MOL
REMARK 924 INTRA-LIGAND FREE ENERGY PREDICTED BY IDOCK:   -1.93 KCAL/MOL
REMARK 927      BINDING AFFINITY PREDICTED BY RF-SCORE:    0.00 PKD
ROOT
HETATM    1  C   UNL     1     -11.863  13.660  67.302  1.00  0.00    -0.429 C  
HETATM    2  C   UNL     1     -11.330  13.034  68.580  1.00  0.00    -0.323 C  
ENDROOT
BRANCH   2   3
HETATM    3  C   UNL     1     -11.898  11.637  68.787  1.00  0.00    -0.387 C  
BRANCH   3   4
HETATM    4  C   UNL     1     -12.022  11.302  70.253  1.00  0.00    -0.379 C  
HETATM    5  O   UNL     1     -12.577  11.993  71.095  1.00  0.00    -0.367 OA 
BRANCH   4   6
HETATM    6  O   UNL     1     -11.475  10.083  70.471  1.00  0.00    -0.281 OA 
BRANCH   6   7
HETATM    7  C   UNL     1     -11.827   9.472  71.704  1.00  0.00    -0.397 C  
BRANCH   7   8
HETATM    8  O   UNL     1     -11.357   8.143  71.924  1.00  0.00    -0.263 OA 
BRANCH   8   9
HETATM    9  C   UNL     1     -12.007   7.145  71.298  1.00  0.00    -0.337 C  
HETATM   10  O   UNL     1     -13.207   7.129  71.081  1.00  0.00    -0.347 OA 
BRANCH   9  11
HETATM   11  C   UNL     1     -11.092   5.977  71.068  1.00  0.00    -0.348 C  
HETATM   12  C   UNL     1     -10.736   5.080  72.025  1.00  0.00    -0.135 C  
HETATM   13  N   UNL     1     -10.027   3.948  71.667  1.00  0.00    -0.179 NA 
HETATM   14  C   UNL     1     -11.020   5.124  73.513  1.00  0.00    -0.370 C  
HETATM   15  C   UNL     1      -9.480   3.697  70.427  1.00  0.00    -0.185 C  
HETATM   16  C   UNL     1      -9.734   4.534  69.395  1.00  0.00    -0.272 C  
HETATM   17  C   UNL     1      -8.614   2.463  70.352  1.00  0.00    -0.102 C  
HETATM   18  C   UNL     1     -10.678   5.741  69.582  1.00  0.00    -0.416 C  
BRANCH  16  19
HETATM   19  C   UNL     1      -9.042   4.298  68.097  1.00  0.00    -0.131 C  
HETATM   20  O   UNL     1      -7.863   4.544  67.891  1.00  0.00    -0.081 OA 
BRANCH  19  21
HETATM   21  O   UNL     1      -9.892   3.807  67.160  1.00  0.00    -0.175 OA 
HETATM   22  C   UNL     1      -9.940   4.590  65.964  1.00  0.00    -0.248 C  
ENDBRANCH  19  21
ENDBRANCH  16  19
BRANCH  18  23
HETATM   23  C   UNL     1     -10.114   7.004  68.914  1.00  0.00    -0.174 A  
HETATM   24  C   UNL     1     -10.774   7.519  67.783  1.00  0.00    -0.233 A  
HETATM   25  C   UNL     1     -10.320   8.673  67.152  1.00  0.00    -0.369 A  
HETATM   26  C   UNL     1      -9.198   9.346  67.647  1.00  0.00    -0.142 A  
HETATM   27  C   UNL     1      -8.518   8.846  68.761  1.00  0.00    -0.131 A  
HETATM   28 CL   UNL     1      -7.140   9.745  69.305  1.00  0.00    -0.062 Cl 
HETATM   29  C   UNL     1      -8.964   7.679  69.401  1.00  0.00    -0.139 A  
HETATM   30 CL   UNL     1      -8.100   7.085  70.791  1.00  0.00    -0.112 Cl 
ENDBRANCH  18  23
ENDBRANCH   9  11
ENDBRANCH   8   9
ENDBRANCH   7   8
ENDBRANCH   6   7
ENDBRANCH   4   6
ENDBRANCH   3   4
ENDBRANCH   2   3
TORSDOF 10
ENDMDL
MODEL       49
REMARK 921   NORMALIZED FREE ENERGY PREDICTED BY IDOCK:   -5.06 KCAL/MOL
REMARK 922        TOTAL FREE ENERGY PREDICTED BY IDOCK:   -9.42 KCAL/MOL
REMARK 923 INTER-LIGAND FREE ENERGY PREDICTED BY IDOCK:   -7.25 KCAL/MOL
REMARK 924 INTRA-LIGAND FREE ENERGY PREDICTED BY IDOCK:   -2.17 KCAL/MOL
REMARK 927      BINDING AFFINITY PREDICTED BY RF-SCORE:    0.00 PKD
ROOT
HETATM    1  C   UNL     1     -11.796  13.303  67.843  1.00  0.00    -0.388 C  
HETATM    2  C   UNL     1     -10.995  12.254  68.595  1.00  0.00    -0.276 C  
ENDROOT
BRANCH   2   3
HETATM    3  C   UNL     1     -11.874  11.081  69.005  1.00  0.00    -0.399 C  
BRANCH   3   4
HETATM    4  C   UNL     1     -12.036  11.007  70.504  1.00  0.00    -0.379 C  
HETATM    5  O   UNL     1     -12.758  11.729  71.176  1.00  0.00    -0.378 OA 
BRANCH   4   6
HETATM    6  O   UNL     1     -11.299   9.972  70.973  1.00  0.00    -0.347 OA 
BRANCH   6   7
HETATM    7  C   UNL     1     -11.905   9.221  72.015  1.00  0.00    -0.300 C  
BRANCH   7   8
HETATM    8  O   UNL     1     -11.426   7.892  72.215  1.00  0.00    -0.299 OA 
BRANCH   8   9
HETATM    9  C   UNL     1     -11.971   6.917  71.463  1.00  0.00    -0.344 C  
HETATM   10  O   UNL     1     -13.134   6.893  71.098  1.00  0.00    -0.311 OA 
BRANCH   9  11
HETATM   11  C   UNL     1     -11.007   5.780  71.288  1.00  0.00    -0.299 C  
HETATM   12  C   UNL     1     -10.722   4.860  72.247  1.00  0.00    -0.150 C  
HETATM   13  N   UNL     1      -9.951   3.758  71.926  1.00  0.00    -0.176 NA 
HETATM   14  C   UNL     1     -11.153   4.847  73.701  1.00  0.00    -0.370 C  
HETATM   15  C   UNL     1      -9.279   3.562  70.740  1.00  0.00    -0.134 C  
HETATM   16  C   UNL     1      -9.452   4.426  69.714  1.00  0.00    -0.254 C  
HETATM   17  C   UNL     1      -8.377   2.352  70.713  1.00  0.00    -0.077 C  
HETATM   18  C   UNL     1     -10.442   5.604  69.844  1.00  0.00    -0.378 C  
BRANCH  16  19
HETATM   19  C   UNL     1      -8.630   4.251  68.484  1.00  0.00    -0.093 C  
HETATM   20  O   UNL     1      -7.471   4.621  68.373  1.00  0.00    -0.064 OA 
BRANCH  19  21
HETATM   21  O   UNL     1      -9.339   3.658  67.491  1.00  0.00    -0.175 OA 
HETATM   22  C   UNL     1      -8.704   2.497  66.949  1.00  0.00    -0.124 C  
ENDBRANCH  19  21
ENDBRANCH  16  19
BRANCH  18  23
HETATM   23  C   UNL     1      -9.849   6.902  69.276  1.00  0.00    -0.159 A  
HETATM   24  C   UNL     1      -8.899   7.601  70.044  1.00  0.00    -0.143 A  
HETATM   25  C   UNL     1      -8.313   8.769  69.569  1.00  0.00    -0.119 A  
HETATM   26  C   UNL     1      -8.656   9.261  68.305  1.00  0.00    -0.125 A  
HETATM   27  C   UNL     1      -9.607   8.592  67.529  1.00  0.00    -0.154 A  
HETATM   28 CL   UNL     1      -9.969   9.271  65.976  1.00  0.00    -0.362 Cl 
HETATM   29  C   UNL     1     -10.209   7.415  68.003  1.00  0.00    -0.191 A  
HETATM   30 CL   UNL     1     -11.384   6.600  67.009  1.00  0.00    -0.286 Cl 
ENDBRANCH  18  23
ENDBRANCH   9  11
ENDBRANCH   8   9
ENDBRANCH   7   8
ENDBRANCH   6   7
ENDBRANCH   4   6
ENDBRANCH   3   4
ENDBRANCH   2   3
TORSDOF 10
ENDMDL
MODEL       50
REMARK 921   NORMALIZED FREE ENERGY PREDICTED BY IDOCK:   -5.05 KCAL/MOL
REMARK 922        TOTAL FREE ENERGY PREDICTED BY IDOCK:   -9.40 KCAL/MOL
REMARK 923 INTER-LIGAND FREE ENERGY PREDICTED BY IDOCK:   -7.45 KCAL/MOL
REMARK 924 INTRA-LIGAND FREE ENERGY PREDICTED BY IDOCK:   -1.95 KCAL/MOL
REMARK 927      BINDING AFFINITY PREDICTED BY RF-SCORE:    0.00 PKD
ROOT
HETATM    1  C   UNL     1      -8.421   3.364  69.087  1.00  0.00    -0.094 C  
HETATM    2  C   UNL     1      -9.647   4.070  69.642  1.00  0.00    -0.270 C  
ENDROOT
BRANCH   2   3
HETATM    3  C   UNL     1      -9.591   4.159  71.160  1.00  0.00    -0.249 C  
BRANCH   3   4
HETATM    4  C   UNL     1     -10.481   5.259  71.684  1.00  0.00    -0.214 C  
HETATM    5  O   UNL     1     -10.953   5.314  72.810  1.00  0.00    -0.240 OA 
BRANCH   4   6
HETATM    6  O   UNL     1     -10.620   6.204  70.724  1.00  0.00    -0.218 OA 
BRANCH   6   7
HETATM    7  C   UNL     1     -11.838   6.933  70.763  1.00  0.00    -0.377 C  
BRANCH   7   8
HETATM    8  O   UNL     1     -11.845   8.139  71.526  1.00  0.00    -0.275 OA 
BRANCH   8   9
HETATM    9  C   UNL     1     -10.767   8.940  71.428  1.00  0.00    -0.312 C  
HETATM   10  O   UNL     1      -9.757   8.826  72.101  1.00  0.00    -0.307 OA 
BRANCH   9  11
HETATM   11  C   UNL     1     -11.047  10.096  70.513  1.00  0.00    -0.400 C  
HETATM   12  C   UNL     1     -12.044  11.001  70.700  1.00  0.00    -0.373 C  
HETATM   13  N   UNL     1     -12.107  12.122  69.894  1.00  0.00    -0.284 NA 
HETATM   14  C   UNL     1     -13.161  10.975  71.725  1.00  0.00    -0.554 C  
HETATM   15  C   UNL     1     -11.338  12.354  68.774  1.00  0.00    -0.293 C  
HETATM   16  C   UNL     1     -10.331  11.509  68.458  1.00  0.00    -0.224 C  
HETATM   17  C   UNL     1     -11.724  13.580  67.981  1.00  0.00    -0.394 C  
HETATM   18  C   UNL     1      -9.999  10.312  69.376  1.00  0.00    -0.254 C  
BRANCH  16  19
HETATM   19  C   UNL     1      -9.589  11.724  67.184  1.00  0.00    -0.181 C  
HETATM   20  O   UNL     1      -8.513  12.297  67.103  1.00  0.00    -0.172 OA 
BRANCH  19  21
HETATM   21  O   UNL     1     -10.274  11.235  66.120  1.00  0.00    -0.230 OA 
HETATM   22  C   UNL     1      -9.435  10.867  65.021  1.00  0.00    -0.233 C  
ENDBRANCH  19  21
ENDBRANCH  16  19
BRANCH  18  23
HETATM   23  C   UNL     1      -9.734   9.037  68.563  1.00  0.00    -0.171 A  
HETATM   24  C   UNL     1     -10.768   8.525  67.757  1.00  0.00    -0.170 A  
HETATM   25  C   UNL     1     -10.576   7.386  66.982  1.00  0.00    -0.414 A  
HETATM   26  C   UNL     1      -9.337   6.737  66.986  1.00  0.00    -0.165 A  
HETATM   27  C   UNL     1      -8.298   7.218  67.789  1.00  0.00    -0.118 A  
HETATM   28 CL   UNL     1      -6.798   6.353  67.731  1.00  0.00    -0.067 Cl 
HETATM   29  C   UNL     1      -8.485   8.364  68.580  1.00  0.00    -0.132 A  
HETATM   30 CL   UNL     1      -7.169   8.943  69.563  1.00  0.00    -0.062 Cl 
ENDBRANCH  18  23
ENDBRANCH   9  11
ENDBRANCH   8   9
ENDBRANCH   7   8
ENDBRANCH   6   7
ENDBRANCH   4   6
ENDBRANCH   3   4
ENDBRANCH   2   3
TORSDOF 10
ENDMDL
MODEL       51
REMARK 921   NORMALIZED FREE ENERGY PREDICTED BY IDOCK:   -5.04 KCAL/MOL
REMARK 922        TOTAL FREE ENERGY PREDICTED BY IDOCK:   -9.38 KCAL/MOL
REMARK 923 INTER-LIGAND FREE ENERGY PREDICTED BY IDOCK:   -7.53 KCAL/MOL
REMARK 924 INTRA-LIGAND FREE ENERGY PREDICTED BY IDOCK:   -1.86 KCAL/MOL
REMARK 927      BINDING AFFINITY PREDICTED BY RF-SCORE:    0.00 PKD
ROOT
HETATM    1  C   UNL     1     -11.399   7.631  72.600  1.00  0.00    -0.423 C  
HETATM    2  C   UNL     1     -11.198   6.395  71.740  1.00  0.00    -0.324 C  
ENDROOT
BRANCH   2   3
HETATM    3  C   UNL     1     -11.632   6.646  70.303  1.00  0.00    -0.454 C  
BRANCH   3   4
HETATM    4  C   UNL     1     -10.672   6.026  69.318  1.00  0.00    -0.332 C  
HETATM    5  O   UNL     1      -9.685   5.364  69.608  1.00  0.00    -0.150 OA 
BRANCH   4   6
HETATM    6  O   UNL     1     -11.116   6.269  68.062  1.00  0.00    -0.333 OA 
BRANCH   6   7
HETATM    7  C   UNL     1     -10.174   6.882  67.194  1.00  0.00    -0.240 C  
BRANCH   7   8
HETATM    8  O   UNL     1     -10.629   7.999  66.432  1.00  0.00    -0.036 OA 
BRANCH   8   9
HETATM    9  C   UNL     1      -9.708   8.900  66.044  1.00  0.00    -0.238 C  
HETATM   10  O   UNL     1      -8.548   8.633  65.777  1.00  0.00    -0.143 OA 
BRANCH   9  11
HETATM   11  C   UNL     1     -10.247  10.296  66.160  1.00  0.00    -0.285 C  
HETATM   12  C   UNL     1     -10.553  11.092  65.101  1.00  0.00    -0.226 C  
HETATM   13  N   UNL     1     -11.203  12.293  65.318  1.00  0.00    -0.318 NA 
HETATM   14  C   UNL     1     -10.285  10.849  63.629  1.00  0.00    -0.395 C  
HETATM   15  C   UNL     1     -11.440  12.871  66.545  1.00  0.00    -0.341 C  
HETATM   16  C   UNL     1     -11.151  12.194  67.679  1.00  0.00    -0.320 C  
HETATM   17  C   UNL     1     -12.020  14.264  66.490  1.00  0.00    -0.448 C  
HETATM   18  C   UNL     1     -10.605  10.751  67.609  1.00  0.00    -0.271 C  
BRANCH  16  19
HETATM   19  C   UNL     1     -11.316  12.886  68.988  1.00  0.00    -0.290 C  
HETATM   20  O   UNL     1     -12.149  12.580  69.828  1.00  0.00    -0.287 OA 
BRANCH  19  21
HETATM   21  O   UNL     1     -10.449  13.922  69.118  1.00  0.00    -0.173 OA 
HETATM   22  C   UNL     1     -10.992  15.036  69.832  1.00  0.00    -0.261 C  
ENDBRANCH  19  21
ENDBRANCH  16  19
BRANCH  18  23
HETATM   23  C   UNL     1      -9.451  10.539  68.600  1.00  0.00    -0.172 A  
HETATM   24  C   UNL     1      -9.637   9.640  69.667  1.00  0.00    -0.225 A  
HETATM   25  C   UNL     1      -8.618   9.392  70.582  1.00  0.00    -0.247 A  
HETATM   26  C   UNL     1      -7.382  10.031  70.442  1.00  0.00    -0.094 A  
HETATM   27  C   UNL     1      -7.177  10.938  69.398  1.00  0.00    -0.126 A  
HETATM   28 CL   UNL     1      -5.614  11.681  69.302  1.00  0.00    -0.052 Cl 
HETATM   29  C   UNL     1      -8.201  11.200  68.474  1.00  0.00    -0.149 A  
HETATM   30 CL   UNL     1      -7.913  12.329  67.180  1.00  0.00    -0.173 Cl 
ENDBRANCH  18  23
ENDBRANCH   9  11
ENDBRANCH   8   9
ENDBRANCH   7   8
ENDBRANCH   6   7
ENDBRANCH   4   6
ENDBRANCH   3   4
ENDBRANCH   2   3
TORSDOF 10
ENDMDL
MODEL       52
REMARK 921   NORMALIZED FREE ENERGY PREDICTED BY IDOCK:   -5.03 KCAL/MOL
REMARK 922        TOTAL FREE ENERGY PREDICTED BY IDOCK:   -9.37 KCAL/MOL
REMARK 923 INTER-LIGAND FREE ENERGY PREDICTED BY IDOCK:   -7.99 KCAL/MOL
REMARK 924 INTRA-LIGAND FREE ENERGY PREDICTED BY IDOCK:   -1.38 KCAL/MOL
REMARK 927      BINDING AFFINITY PREDICTED BY RF-SCORE:    0.00 PKD
ROOT
HETATM    1  C   UNL     1      -8.669   3.270  70.451  1.00  0.00    -0.124 C  
HETATM    2  C   UNL     1      -9.869   4.190  70.595  1.00  0.00    -0.249 C  
ENDROOT
BRANCH   2   3
HETATM    3  C   UNL     1      -9.527   5.612  70.175  1.00  0.00    -0.200 C  
BRANCH   3   4
HETATM    4  C   UNL     1     -10.725   6.523  70.273  1.00  0.00    -0.255 C  
HETATM    5  O   UNL     1     -11.661   6.385  71.048  1.00  0.00    -0.324 OA 
BRANCH   4   6
HETATM    6  O   UNL     1     -10.566   7.551  69.407  1.00  0.00    -0.226 OA 
BRANCH   6   7
HETATM    7  C   UNL     1     -10.292   8.810  70.005  1.00  0.00    -0.203 C  
BRANCH   7   8
HETATM    8  O   UNL     1     -10.607   9.972  69.238  1.00  0.00    -0.201 OA 
BRANCH   8   9
HETATM    9  C   UNL     1      -9.591  10.596  68.614  1.00  0.00    -0.179 C  
HETATM   10  O   UNL     1      -8.566  10.968  69.161  1.00  0.00    -0.111 OA 
BRANCH   9  11
HETATM   11  C   UNL     1      -9.964  10.934  67.200  1.00  0.00    -0.221 C  
HETATM   12  C   UNL     1      -9.729  10.129  66.130  1.00  0.00    -0.218 C  
HETATM   13  N   UNL     1     -10.265  10.459  64.899  1.00  0.00    -0.319 NA 
HETATM   14  C   UNL     1      -8.932   8.841  66.075  1.00  0.00    -0.235 C  
HETATM   15  C   UNL     1     -10.899  11.642  64.586  1.00  0.00    -0.314 C  
HETATM   16  C   UNL     1     -11.163  12.544  65.558  1.00  0.00    -0.349 C  
HETATM   17  C   UNL     1     -11.241  11.813  63.125  1.00  0.00    -0.224 C  
HETATM   18  C   UNL     1     -10.808  12.235  67.028  1.00  0.00    -0.288 C  
BRANCH  16  19
HETATM   19  C   UNL     1     -11.750  13.858  65.173  1.00  0.00    -0.350 C  
HETATM   20  O   UNL     1     -12.942  14.121  65.224  1.00  0.00    -0.725 OA 
BRANCH  19  21
HETATM   21  O   UNL     1     -10.799  14.717  64.725  1.00  0.00    -0.399 OA 
HETATM   22  C   UNL     1     -10.993  16.064  65.165  1.00  0.00    -0.348 C  
ENDBRANCH  19  21
ENDBRANCH  16  19
BRANCH  18  23
HETATM   23  C   UNL     1     -10.174  13.450  67.720  1.00  0.00    -0.235 A  
HETATM   24  C   UNL     1      -8.911  13.891  67.283  1.00  0.00    -0.225 A  
HETATM   25  C   UNL     1      -8.300  15.000  67.859  1.00  0.00    -0.151 A  
HETATM   26  C   UNL     1      -8.945  15.703  68.881  1.00  0.00    -0.221 A  
HETATM   27  C   UNL     1     -10.195  15.277  69.343  1.00  0.00    -0.256 A  
HETATM   28 CL   UNL     1     -10.921  16.207  70.611  1.00  0.00    -0.291 Cl 
HETATM   29  C   UNL     1     -10.816  14.154  68.772  1.00  0.00    -0.258 A  
HETATM   30 CL   UNL     1     -12.375  13.652  69.363  1.00  0.00    -0.287 Cl 
ENDBRANCH  18  23
ENDBRANCH   9  11
ENDBRANCH   8   9
ENDBRANCH   7   8
ENDBRANCH   6   7
ENDBRANCH   4   6
ENDBRANCH   3   4
ENDBRANCH   2   3
TORSDOF 10
ENDMDL
MODEL       53
REMARK 921   NORMALIZED FREE ENERGY PREDICTED BY IDOCK:   -5.02 KCAL/MOL
REMARK 922        TOTAL FREE ENERGY PREDICTED BY IDOCK:   -9.36 KCAL/MOL
REMARK 923 INTER-LIGAND FREE ENERGY PREDICTED BY IDOCK:   -7.18 KCAL/MOL
REMARK 924 INTRA-LIGAND FREE ENERGY PREDICTED BY IDOCK:   -2.18 KCAL/MOL
REMARK 927      BINDING AFFINITY PREDICTED BY RF-SCORE:    0.00 PKD
ROOT
HETATM    1  C   UNL     1      -7.253   7.009  66.548  1.00  0.00    -0.082 C  
HETATM    2  C   UNL     1      -8.548   6.758  65.792  1.00  0.00    -0.144 C  
ENDROOT
BRANCH   2   3
HETATM    3  C   UNL     1      -9.752   7.244  66.586  1.00  0.00    -0.249 C  
BRANCH   3   4
HETATM    4  C   UNL     1     -10.680   6.108  66.938  1.00  0.00    -0.340 C  
HETATM    5  O   UNL     1     -10.833   5.087  66.282  1.00  0.00    -0.285 OA 
BRANCH   4   6
HETATM    6  O   UNL     1     -11.267   6.375  68.128  1.00  0.00    -0.312 OA 
BRANCH   6   7
HETATM    7  C   UNL     1     -10.517   7.207  69.001  1.00  0.00    -0.211 C  
BRANCH   7   8
HETATM    8  O   UNL     1     -11.005   8.533  69.207  1.00  0.00    -0.114 OA 
BRANCH   8   9
HETATM    9  C   UNL     1     -10.135   9.446  69.678  1.00  0.00    -0.206 C  
HETATM   10  O   UNL     1      -9.088   9.178  70.243  1.00  0.00    -0.180 OA 
BRANCH   9  11
HETATM   11  C   UNL     1     -10.711  10.828  69.578  1.00  0.00    -0.268 C  
HETATM   12  C   UNL     1     -11.766  11.275  70.309  1.00  0.00    -0.324 C  
HETATM   13  N   UNL     1     -12.107  12.615  70.264  1.00  0.00    -0.341 NA 
HETATM   14  C   UNL     1     -12.676  10.489  71.231  1.00  0.00    -0.532 C  
HETATM   15  C   UNL     1     -11.579  13.553  69.403  1.00  0.00    -0.312 C  
HETATM   16  C   UNL     1     -10.543  13.224  68.598  1.00  0.00    -0.264 C  
HETATM   17  C   UNL     1     -12.246  14.906  69.451  1.00  0.00    -0.240 C  
HETATM   18  C   UNL     1      -9.911  11.817  68.674  1.00  0.00    -0.181 C  
BRANCH  16  19
HETATM   19  C   UNL     1     -10.066  14.224  67.603  1.00  0.00    -0.229 C  
HETATM   20  O   UNL     1      -9.003  14.822  67.683  1.00  0.00    -0.173 OA 
BRANCH  19  21
HETATM   21  O   UNL     1     -10.973  14.415  66.612  1.00  0.00    -0.306 OA 
HETATM   22  C   UNL     1     -10.387  14.531  65.313  1.00  0.00    -0.410 C  
ENDBRANCH  19  21
ENDBRANCH  16  19
BRANCH  18  23
HETATM   23  C   UNL     1      -9.633  11.250  67.274  1.00  0.00    -0.188 A  
HETATM   24  C   UNL     1     -10.722  11.016  66.414  1.00  0.00    -0.286 A  
HETATM   25  C   UNL     1     -10.527  10.525  65.128  1.00  0.00    -0.225 A  
HETATM   26  C   UNL     1      -9.232  10.265  64.666  1.00  0.00    -0.290 A  
HETATM   27  C   UNL     1      -8.135  10.477  65.506  1.00  0.00    -0.155 A  
HETATM   28 CL   UNL     1      -6.568  10.130  64.851  1.00  0.00    -0.126 Cl 
HETATM   29  C   UNL     1      -8.323  10.966  66.809  1.00  0.00    -0.138 A  
HETATM   30 CL   UNL     1      -6.936  11.226  67.829  1.00  0.00    -0.072 Cl 
ENDBRANCH  18  23
ENDBRANCH   9  11
ENDBRANCH   8   9
ENDBRANCH   7   8
ENDBRANCH   6   7
ENDBRANCH   4   6
ENDBRANCH   3   4
ENDBRANCH   2   3
TORSDOF 10
ENDMDL
MODEL       54
REMARK 921   NORMALIZED FREE ENERGY PREDICTED BY IDOCK:   -4.98 KCAL/MOL
REMARK 922        TOTAL FREE ENERGY PREDICTED BY IDOCK:   -9.30 KCAL/MOL
REMARK 923 INTER-LIGAND FREE ENERGY PREDICTED BY IDOCK:   -7.36 KCAL/MOL
REMARK 924 INTRA-LIGAND FREE ENERGY PREDICTED BY IDOCK:   -1.94 KCAL/MOL
REMARK 927      BINDING AFFINITY PREDICTED BY RF-SCORE:    0.00 PKD
ROOT
HETATM    1  C   UNL     1     -11.255   6.177  70.231  1.00  0.00    -0.439 C  
HETATM    2  C   UNL     1     -11.135   6.227  68.717  1.00  0.00    -0.424 C  
ENDROOT
BRANCH   2   3
HETATM    3  C   UNL     1     -10.120   5.212  68.211  1.00  0.00    -0.199 C  
BRANCH   3   4
HETATM    4  C   UNL     1     -10.094   5.158  66.704  1.00  0.00    -0.237 C  
HETATM    5  O   UNL     1     -11.068   4.993  65.983  1.00  0.00    -0.166 OA 
BRANCH   4   6
HETATM    6  O   UNL     1      -8.829   5.383  66.279  1.00  0.00    -0.123 OA 
BRANCH   6   7
HETATM    7  C   UNL     1      -8.376   6.723  66.407  1.00  0.00    -0.121 C  
BRANCH   7   8
HETATM    8  O   UNL     1      -9.196   7.740  65.832  1.00  0.00    -0.129 OA 
BRANCH   8   9
HETATM    9  C   UNL     1      -8.591   8.879  65.448  1.00  0.00    -0.176 C  
HETATM   10  O   UNL     1      -7.401   8.983  65.206  1.00  0.00    -0.090 OA 
BRANCH   9  11
HETATM   11  C   UNL     1      -9.540  10.039  65.535  1.00  0.00    -0.328 C  
HETATM   12  C   UNL     1      -9.938  10.787  64.472  1.00  0.00    -0.333 C  
HETATM   13  N   UNL     1     -10.944  11.722  64.636  1.00  0.00    -0.305 NA 
HETATM   14  C   UNL     1      -9.427  10.748  63.046  1.00  0.00    -0.372 C  
HETATM   15  C   UNL     1     -11.498  12.108  65.837  1.00  0.00    -0.363 C  
HETATM   16  C   UNL     1     -11.161  11.462  66.976  1.00  0.00    -0.364 C  
HETATM   17  C   UNL     1     -12.463  13.266  65.748  1.00  0.00    -0.480 C  
HETATM   18  C   UNL     1     -10.197  10.256  66.933  1.00  0.00    -0.286 C  
BRANCH  16  19
HETATM   19  C   UNL     1     -11.691  11.972  68.271  1.00  0.00    -0.334 C  
HETATM   20  O   UNL     1     -11.402  13.056  68.755  1.00  0.00    -0.252 OA 
BRANCH  19  21
HETATM   21  O   UNL     1     -12.510  11.068  68.865  1.00  0.00    -0.460 OA 
HETATM   22  C   UNL     1     -12.242  10.880  70.258  1.00  0.00    -0.348 C  
ENDBRANCH  19  21
ENDBRANCH  16  19
BRANCH  18  23
HETATM   23  C   UNL     1      -9.167  10.320  68.071  1.00  0.00    -0.138 A  
HETATM   24  C   UNL     1      -9.223   9.345  69.085  1.00  0.00    -0.155 A  
HETATM   25  C   UNL     1      -8.301   9.342  70.126  1.00  0.00    -0.189 A  
HETATM   26  C   UNL     1      -7.292  10.309  70.172  1.00  0.00    -0.115 A  
HETATM   27  C   UNL     1      -7.224  11.296  69.184  1.00  0.00    -0.115 A  
HETATM   28 CL   UNL     1      -5.941  12.453  69.319  1.00  0.00    -0.084 Cl 
HETATM   29  C   UNL     1      -8.154  11.312  68.132  1.00  0.00    -0.134 A  
HETATM   30 CL   UNL     1      -8.039  12.549  66.912  1.00  0.00    -0.095 Cl 
ENDBRANCH  18  23
ENDBRANCH   9  11
ENDBRANCH   8   9
ENDBRANCH   7   8
ENDBRANCH   6   7
ENDBRANCH   4   6
ENDBRANCH   3   4
ENDBRANCH   2   3
TORSDOF 10
ENDMDL
MODEL       55
REMARK 921   NORMALIZED FREE ENERGY PREDICTED BY IDOCK:   -4.98 KCAL/MOL
REMARK 922        TOTAL FREE ENERGY PREDICTED BY IDOCK:   -9.30 KCAL/MOL
REMARK 923 INTER-LIGAND FREE ENERGY PREDICTED BY IDOCK:   -7.65 KCAL/MOL
REMARK 924 INTRA-LIGAND FREE ENERGY PREDICTED BY IDOCK:   -1.64 KCAL/MOL
REMARK 927      BINDING AFFINITY PREDICTED BY RF-SCORE:    0.00 PKD
ROOT
HETATM    1  C   UNL     1     -11.604  14.780  66.582  1.00  0.00    -0.319 C  
HETATM    2  C   UNL     1     -12.628  13.965  65.810  1.00  0.00    -0.533 C  
ENDROOT
BRANCH   2   3
HETATM    3  C   UNL     1     -12.092  12.581  65.474  1.00  0.00    -0.481 C  
BRANCH   3   4
HETATM    4  C   UNL     1     -11.974  12.379  63.983  1.00  0.00    -0.460 C  
HETATM    5  O   UNL     1     -12.462  13.105  63.128  1.00  0.00    -0.686 OA 
BRANCH   4   6
HETATM    6  O   UNL     1     -11.190  11.301  63.748  1.00  0.00    -0.359 OA 
BRANCH   6   7
HETATM    7  C   UNL     1     -10.080  11.157  64.622  1.00  0.00    -0.302 C  
BRANCH   7   8
HETATM    8  O   UNL     1      -9.914   9.887  65.252  1.00  0.00    -0.318 OA 
BRANCH   8   9
HETATM    9  C   UNL     1      -8.958   9.784  66.194  1.00  0.00    -0.152 C  
HETATM   10  O   UNL     1      -7.775   9.599  65.963  1.00  0.00    -0.099 OA 
BRANCH   9  11
HETATM   11  C   UNL     1      -9.567   9.744  67.565  1.00  0.00    -0.178 C  
HETATM   12  C   UNL     1      -9.845  10.843  68.315  1.00  0.00    -0.170 C  
HETATM   13  N   UNL     1     -10.561  10.704  69.490  1.00  0.00    -0.236 NA 
HETATM   14  C   UNL     1      -9.479  12.289  68.042  1.00  0.00    -0.206 C  
HETATM   15  C   UNL     1     -10.898   9.511  70.092  1.00  0.00    -0.258 C  
HETATM   16  C   UNL     1     -10.646   8.341  69.462  1.00  0.00    -0.216 C  
HETATM   17  C   UNL     1     -11.537   9.644  71.454  1.00  0.00    -0.472 C  
HETATM   18  C   UNL     1     -10.031   8.334  68.046  1.00  0.00    -0.224 C  
BRANCH  16  19
HETATM   19  C   UNL     1     -10.920   7.067  70.183  1.00  0.00    -0.272 C  
HETATM   20  O   UNL     1     -11.920   6.384  70.018  1.00  0.00    -0.333 OA 
BRANCH  19  21
HETATM   21  O   UNL     1      -9.938   6.775  71.073  1.00  0.00    -0.182 OA 
HETATM   22  C   UNL     1      -9.538   5.402  71.054  1.00  0.00    -0.172 C  
ENDBRANCH  19  21
ENDBRANCH  16  19
BRANCH  18  23
HETATM   23  C   UNL     1      -8.930   7.271  67.917  1.00  0.00    -0.130 A  
HETATM   24  C   UNL     1      -7.672   7.532  68.492  1.00  0.00    -0.120 A  
HETATM   25  C   UNL     1      -6.645   6.596  68.425  1.00  0.00    -0.059 A  
HETATM   26  C   UNL     1      -6.857   5.368  67.790  1.00  0.00    -0.060 A  
HETATM   27  C   UNL     1      -8.094   5.091  67.199  1.00  0.00    -0.107 A  
HETATM   28 CL   UNL     1      -8.268   3.545  66.435  1.00  0.00    -0.099 Cl 
HETATM   29  C   UNL     1      -9.134   6.032  67.255  1.00  0.00    -0.111 A  
HETATM   30 CL   UNL     1     -10.665   5.654  66.517  1.00  0.00    -0.338 Cl 
ENDBRANCH  18  23
ENDBRANCH   9  11
ENDBRANCH   8   9
ENDBRANCH   7   8
ENDBRANCH   6   7
ENDBRANCH   4   6
ENDBRANCH   3   4
ENDBRANCH   2   3
TORSDOF 10
ENDMDL
MODEL       56
REMARK 921   NORMALIZED FREE ENERGY PREDICTED BY IDOCK:   -4.98 KCAL/MOL
REMARK 922        TOTAL FREE ENERGY PREDICTED BY IDOCK:   -9.29 KCAL/MOL
REMARK 923 INTER-LIGAND FREE ENERGY PREDICTED BY IDOCK:   -7.53 KCAL/MOL
REMARK 924 INTRA-LIGAND FREE ENERGY PREDICTED BY IDOCK:   -1.76 KCAL/MOL
REMARK 927      BINDING AFFINITY PREDICTED BY RF-SCORE:    0.00 PKD
ROOT
HETATM    1  C   UNL     1     -13.175   9.735  71.306  1.00  0.00    -0.452 C  
HETATM    2  C   UNL     1     -12.379   8.710  72.096  1.00  0.00    -0.452 C  
ENDROOT
BRANCH   2   3
HETATM    3  C   UNL     1     -12.491   7.326  71.473  1.00  0.00    -0.408 C  
BRANCH   3   4
HETATM    4  C   UNL     1     -11.216   6.929  70.771  1.00  0.00    -0.294 C  
HETATM    5  O   UNL     1     -11.092   5.983  70.006  1.00  0.00    -0.351 OA 
BRANCH   4   6
HETATM    6  O   UNL     1     -10.250   7.826  71.079  1.00  0.00    -0.197 OA 
BRANCH   6   7
HETATM    7  C   UNL     1      -9.429   8.229  69.993  1.00  0.00    -0.167 C  
BRANCH   7   8
HETATM    8  O   UNL     1      -9.552   9.583  69.559  1.00  0.00    -0.167 OA 
BRANCH   8   9
HETATM    9  C   UNL     1      -8.473  10.150  68.987  1.00  0.00    -0.151 C  
HETATM   10  O   UNL     1      -7.563  10.681  69.601  1.00  0.00    -0.149 OA 
BRANCH   9  11
HETATM   11  C   UNL     1      -8.630  10.203  67.495  1.00  0.00    -0.118 C  
HETATM   12  C   UNL     1      -8.046   9.332  66.631  1.00  0.00    -0.108 C  
HETATM   13  N   UNL     1      -8.391   9.366  65.292  1.00  0.00    -0.134 NA 
HETATM   14  C   UNL     1      -7.018   8.257  66.924  1.00  0.00    -0.070 C  
HETATM   15  C   UNL     1      -9.171  10.327  64.685  1.00  0.00    -0.244 C  
HETATM   16  C   UNL     1      -9.784  11.272  65.433  1.00  0.00    -0.271 C  
HETATM   17  C   UNL     1      -9.256  10.219  63.181  1.00  0.00    -0.311 C  
HETATM   18  C   UNL     1      -9.662  11.250  66.972  1.00  0.00    -0.208 C  
BRANCH  16  19
HETATM   19  C   UNL     1     -10.530  12.360  64.740  1.00  0.00    -0.304 C  
HETATM   20  O   UNL     1     -10.001  13.274  64.127  1.00  0.00    -0.294 OA 
BRANCH  19  21
HETATM   21  O   UNL     1     -11.871  12.228  64.904  1.00  0.00    -0.367 OA 
HETATM   22  C   UNL     1     -12.606  12.293  63.679  1.00  0.00    -0.490 C  
ENDBRANCH  19  21
ENDBRANCH  16  19
BRANCH  18  23
HETATM   23  C   UNL     1      -9.417  12.658  67.536  1.00  0.00    -0.186 A  
HETATM   24  C   UNL     1      -8.153  13.247  67.351  1.00  0.00    -0.179 A  
HETATM   25  C   UNL     1      -7.883  14.528  67.821  1.00  0.00    -0.171 A  
HETATM   26  C   UNL     1      -8.880  15.257  68.478  1.00  0.00    -0.185 A  
HETATM   27  C   UNL     1     -10.140  14.688  68.686  1.00  0.00    -0.238 A  
HETATM   28 CL   UNL     1     -11.313  15.663  69.509  1.00  0.00    -0.301 Cl 
HETATM   29  C   UNL     1     -10.419  13.393  68.222  1.00  0.00    -0.250 A  
HETATM   30 CL   UNL     1     -12.001  12.715  68.489  1.00  0.00    -0.318 Cl 
ENDBRANCH  18  23
ENDBRANCH   9  11
ENDBRANCH   8   9
ENDBRANCH   7   8
ENDBRANCH   6   7
ENDBRANCH   4   6
ENDBRANCH   3   4
ENDBRANCH   2   3
TORSDOF 10
ENDMDL
MODEL       57
REMARK 921   NORMALIZED FREE ENERGY PREDICTED BY IDOCK:   -4.98 KCAL/MOL
REMARK 922        TOTAL FREE ENERGY PREDICTED BY IDOCK:   -9.29 KCAL/MOL
REMARK 923 INTER-LIGAND FREE ENERGY PREDICTED BY IDOCK:   -7.51 KCAL/MOL
REMARK 924 INTRA-LIGAND FREE ENERGY PREDICTED BY IDOCK:   -1.78 KCAL/MOL
REMARK 927      BINDING AFFINITY PREDICTED BY RF-SCORE:    0.00 PKD
ROOT
HETATM    1  C   UNL     1     -12.127  12.863  63.367  1.00  0.00    -0.610 C  
HETATM    2  C   UNL     1     -12.623  12.553  64.770  1.00  0.00    -0.493 C  
ENDROOT
BRANCH   2   3
HETATM    3  C   UNL     1     -12.632  13.803  65.639  1.00  0.00    -0.551 C  
BRANCH   3   4
HETATM    4  C   UNL     1     -12.108  13.517  67.025  1.00  0.00    -0.354 C  
HETATM    5  O   UNL     1     -11.832  14.360  67.867  1.00  0.00    -0.347 OA 
BRANCH   4   6
HETATM    6  O   UNL     1     -12.054  12.176  67.205  1.00  0.00    -0.575 OA 
BRANCH   6   7
HETATM    7  C   UNL     1     -11.634  11.754  68.494  1.00  0.00    -0.321 C  
BRANCH   7   8
HETATM    8  O   UNL     1     -11.099  10.435  68.600  1.00  0.00    -0.243 OA 
BRANCH   8   9
HETATM    9  C   UNL     1      -9.763  10.300  68.504  1.00  0.00    -0.161 C  
HETATM   10  O   UNL     1      -8.954  11.131  68.882  1.00  0.00    -0.156 OA 
BRANCH   9  11
HETATM   11  C   UNL     1      -9.409   9.078  67.709  1.00  0.00    -0.156 C  
HETATM   12  C   UNL     1      -9.442   9.007  66.352  1.00  0.00    -0.226 C  
HETATM   13  N   UNL     1      -8.934   7.890  65.715  1.00  0.00    -0.126 NA 
HETATM   14  C   UNL     1      -9.974  10.030  65.367  1.00  0.00    -0.364 C  
HETATM   15  C   UNL     1      -8.529   6.726  66.330  1.00  0.00    -0.131 C  
HETATM   16  C   UNL     1      -8.481   6.655  67.680  1.00  0.00    -0.121 C  
HETATM   17  C   UNL     1      -8.171   5.601  65.388  1.00  0.00    -0.132 C  
HETATM   18  C   UNL     1      -8.825   7.891  68.538  1.00  0.00    -0.134 C  
BRANCH  16  19
HETATM   19  C   UNL     1      -8.145   5.351  68.316  1.00  0.00    -0.095 C  
HETATM   20  O   UNL     1      -8.894   4.386  68.345  1.00  0.00    -0.098 OA 
BRANCH  19  21
HETATM   21  O   UNL     1      -6.916   5.379  68.891  1.00  0.00    -0.053 OA 
HETATM   22  C   UNL     1      -6.922   5.008  70.272  1.00  0.00    -0.052 C  
ENDBRANCH  19  21
ENDBRANCH  16  19
BRANCH  18  23
HETATM   23  C   UNL     1      -9.708   7.514  69.737  1.00  0.00    -0.171 A  
HETATM   24  C   UNL     1     -10.953   6.905  69.491  1.00  0.00    -0.289 A  
HETATM   25  C   UNL     1     -11.783   6.522  70.540  1.00  0.00    -0.438 A  
HETATM   26  C   UNL     1     -11.381   6.729  71.863  1.00  0.00    -0.306 A  
HETATM   27  C   UNL     1     -10.155   7.345  72.133  1.00  0.00    -0.190 A  
HETATM   28 CL   UNL     1      -9.737   7.562  73.801  1.00  0.00    -0.336 Cl 
HETATM   29  C   UNL     1      -9.313   7.742  71.081  1.00  0.00    -0.150 A  
HETATM   30 CL   UNL     1      -7.789   8.499  71.449  1.00  0.00    -0.135 Cl 
ENDBRANCH  18  23
ENDBRANCH   9  11
ENDBRANCH   8   9
ENDBRANCH   7   8
ENDBRANCH   6   7
ENDBRANCH   4   6
ENDBRANCH   3   4
ENDBRANCH   2   3
TORSDOF 10
ENDMDL
MODEL       58
REMARK 921   NORMALIZED FREE ENERGY PREDICTED BY IDOCK:   -4.94 KCAL/MOL
REMARK 922        TOTAL FREE ENERGY PREDICTED BY IDOCK:   -9.23 KCAL/MOL
REMARK 923 INTER-LIGAND FREE ENERGY PREDICTED BY IDOCK:   -7.77 KCAL/MOL
REMARK 924 INTRA-LIGAND FREE ENERGY PREDICTED BY IDOCK:   -1.47 KCAL/MOL
REMARK 927      BINDING AFFINITY PREDICTED BY RF-SCORE:    0.00 PKD
ROOT
HETATM    1  C   UNL     1     -10.916  15.172  64.956  1.00  0.00    -0.443 C  
HETATM    2  C   UNL     1     -12.278  14.530  64.750  1.00  0.00    -0.441 C  
ENDROOT
BRANCH   2   3
HETATM    3  C   UNL     1     -12.282  13.084  65.224  1.00  0.00    -0.513 C  
BRANCH   3   4
HETATM    4  C   UNL     1     -12.139  12.122  64.071  1.00  0.00    -0.443 C  
HETATM    5  O   UNL     1     -12.877  12.064  63.098  1.00  0.00    -0.661 OA 
BRANCH   4   6
HETATM    6  O   UNL     1     -11.025  11.376  64.260  1.00  0.00    -0.350 OA 
BRANCH   6   7
HETATM    7  C   UNL     1     -10.601  11.250  65.609  1.00  0.00    -0.244 C  
BRANCH   7   8
HETATM    8  O   UNL     1     -10.481   9.925  66.128  1.00  0.00    -0.183 OA 
BRANCH   8   9
HETATM    9  C   UNL     1      -9.268   9.540  66.566  1.00  0.00    -0.160 C  
HETATM   10  O   UNL     1      -8.317   9.295  65.843  1.00  0.00    -0.112 OA 
BRANCH   9  11
HETATM   11  C   UNL     1      -9.295   9.278  68.043  1.00  0.00    -0.145 C  
HETATM   12  C   UNL     1      -8.717  10.079  68.977  1.00  0.00    -0.158 C  
HETATM   13  N   UNL     1      -8.947   9.838  70.319  1.00  0.00    -0.211 NA 
HETATM   14  C   UNL     1      -7.811  11.276  68.763  1.00  0.00    -0.139 C  
HETATM   15  C   UNL     1      -9.591   8.737  70.841  1.00  0.00    -0.221 C  
HETATM   16  C   UNL     1     -10.183   7.845  70.015  1.00  0.00    -0.208 C  
HETATM   17  C   UNL     1      -9.561   8.639  72.348  1.00  0.00    -0.305 C  
HETATM   18  C   UNL     1     -10.189   8.079  68.489  1.00  0.00    -0.231 C  
BRANCH  16  19
HETATM   19  C   UNL     1     -10.775   6.610  70.602  1.00  0.00    -0.241 C  
HETATM   20  O   UNL     1     -10.130   5.734  71.156  1.00  0.00    -0.189 OA 
BRANCH  19  21
HETATM   21  O   UNL     1     -12.118   6.564  70.414  1.00  0.00    -0.360 OA 
HETATM   22  C   UNL     1     -12.865   7.179  71.468  1.00  0.00    -0.391 C  
ENDBRANCH  19  21
ENDBRANCH  16  19
BRANCH  18  23
HETATM   23  C   UNL     1      -9.876   6.787  67.721  1.00  0.00    -0.148 A  
HETATM   24  C   UNL     1     -10.871   6.240  66.889  1.00  0.00    -0.428 A  
HETATM   25  C   UNL     1     -10.633   5.084  66.153  1.00  0.00    -0.321 A  
HETATM   26  C   UNL     1      -9.388   4.451  66.224  1.00  0.00    -0.160 A  
HETATM   27  C   UNL     1      -8.388   4.968  67.054  1.00  0.00    -0.107 A  
HETATM   28 CL   UNL     1      -6.876   4.121  67.079  1.00  0.00    -0.051 Cl 
HETATM   29  C   UNL     1      -8.620   6.131  67.806  1.00  0.00    -0.114 A  
HETATM   30 CL   UNL     1      -7.353   6.754  68.824  1.00  0.00    -0.091 Cl 
ENDBRANCH  18  23
ENDBRANCH   9  11
ENDBRANCH   8   9
ENDBRANCH   7   8
ENDBRANCH   6   7
ENDBRANCH   4   6
ENDBRANCH   3   4
ENDBRANCH   2   3
TORSDOF 10
ENDMDL
MODEL       59
REMARK 921   NORMALIZED FREE ENERGY PREDICTED BY IDOCK:   -4.93 KCAL/MOL
REMARK 922        TOTAL FREE ENERGY PREDICTED BY IDOCK:   -9.22 KCAL/MOL
REMARK 923 INTER-LIGAND FREE ENERGY PREDICTED BY IDOCK:   -7.38 KCAL/MOL
REMARK 924 INTRA-LIGAND FREE ENERGY PREDICTED BY IDOCK:   -1.84 KCAL/MOL
REMARK 927      BINDING AFFINITY PREDICTED BY RF-SCORE:    0.00 PKD
ROOT
HETATM    1  C   UNL     1     -10.531  19.289  67.336  1.00  0.00    -0.564 C  
HETATM    2  C   UNL     1      -9.808  18.016  66.933  1.00  0.00    -0.330 C  
ENDROOT
BRANCH   2   3
HETATM    3  C   UNL     1      -8.697  17.677  67.917  1.00  0.00    -0.245 C  
BRANCH   3   4
HETATM    4  C   UNL     1      -7.584  16.906  67.253  1.00  0.00    -0.171 C  
HETATM    5  O   UNL     1      -7.189  17.074  66.108  1.00  0.00    -0.265 OA 
BRANCH   4   6
HETATM    6  O   UNL     1      -7.055  16.041  68.151  1.00  0.00    -0.115 OA 
BRANCH   6   7
HETATM    7  C   UNL     1      -6.434  14.893  67.592  1.00  0.00    -0.145 C  
BRANCH   7   8
HETATM    8  O   UNL     1      -6.482  13.693  68.364  1.00  0.00    -0.078 OA 
BRANCH   8   9
HETATM    9  C   UNL     1      -6.585  12.530  67.693  1.00  0.00    -0.136 C  
HETATM   10  O   UNL     1      -6.047  12.297  66.624  1.00  0.00    -0.171 OA 
BRANCH   9  11
HETATM   11  C   UNL     1      -7.594  11.630  68.345  1.00  0.00    -0.126 C  
HETATM   12  C   UNL     1      -7.289  10.466  68.977  1.00  0.00    -0.097 C  
HETATM   13  N   UNL     1      -8.269   9.801  69.690  1.00  0.00    -0.140 NA 
HETATM   14  C   UNL     1      -5.957   9.744  69.035  1.00  0.00    -0.034 C  
HETATM   15  C   UNL     1      -9.612  10.112  69.698  1.00  0.00    -0.210 C  
HETATM   16  C   UNL     1     -10.050  11.230  69.077  1.00  0.00    -0.147 C  
HETATM   17  C   UNL     1     -10.489   9.124  70.429  1.00  0.00    -0.268 C  
HETATM   18  C   UNL     1      -9.048  12.192  68.403  1.00  0.00    -0.151 C  
BRANCH  16  19
HETATM   19  C   UNL     1     -11.516  11.483  69.009  1.00  0.00    -0.291 C  
HETATM   20  O   UNL     1     -12.237  11.114  68.094  1.00  0.00    -0.612 OA 
BRANCH  19  21
HETATM   21  O   UNL     1     -11.948  12.204  70.075  1.00  0.00    -0.329 OA 
HETATM   22  C   UNL     1     -11.984  13.613  69.835  1.00  0.00    -0.348 C  
ENDBRANCH  19  21
ENDBRANCH  16  19
BRANCH  18  23
HETATM   23  C   UNL     1      -9.557  12.664  67.033  1.00  0.00    -0.219 A  
HETATM   24  C   UNL     1      -9.859  14.028  66.861  1.00  0.00    -0.267 A  
HETATM   25  C   UNL     1     -10.302  14.515  65.635  1.00  0.00    -0.367 A  
HETATM   26  C   UNL     1     -10.443  13.647  64.547  1.00  0.00    -0.411 A  
HETATM   27  C   UNL     1     -10.163  12.286  64.697  1.00  0.00    -0.285 A  
HETATM   28 CL   UNL     1     -10.364  11.285  63.297  1.00  0.00    -0.416 Cl 
HETATM   29  C   UNL     1      -9.721  11.784  65.932  1.00  0.00    -0.237 A  
HETATM   30 CL   UNL     1      -9.372  10.085  66.086  1.00  0.00    -0.204 Cl 
ENDBRANCH  18  23
ENDBRANCH   9  11
ENDBRANCH   8   9
ENDBRANCH   7   8
ENDBRANCH   6   7
ENDBRANCH   4   6
ENDBRANCH   3   4
ENDBRANCH   2   3
TORSDOF 10
ENDMDL
MODEL       60
REMARK 921   NORMALIZED FREE ENERGY PREDICTED BY IDOCK:   -4.93 KCAL/MOL
REMARK 922        TOTAL FREE ENERGY PREDICTED BY IDOCK:   -9.21 KCAL/MOL
REMARK 923 INTER-LIGAND FREE ENERGY PREDICTED BY IDOCK:   -8.00 KCAL/MOL
REMARK 924 INTRA-LIGAND FREE ENERGY PREDICTED BY IDOCK:   -1.21 KCAL/MOL
REMARK 927      BINDING AFFINITY PREDICTED BY RF-SCORE:    0.00 PKD
ROOT
HETATM    1  C   UNL     1      -9.986  20.061  66.437  1.00  0.00    -0.601 C  
HETATM    2  C   UNL     1     -10.440  19.382  67.717  1.00  0.00    -0.556 C  
ENDROOT
BRANCH   2   3
HETATM    3  C   UNL     1     -10.577  17.878  67.525  1.00  0.00    -0.386 C  
BRANCH   3   4
HETATM    4  C   UNL     1     -10.199  17.123  68.774  1.00  0.00    -0.332 C  
HETATM    5  O   UNL     1     -10.983  16.612  69.561  1.00  0.00    -0.307 OA 
BRANCH   4   6
HETATM    6  O   UNL     1      -8.849  17.049  68.849  1.00  0.00    -0.266 OA 
BRANCH   6   7
HETATM    7  C   UNL     1      -8.324  15.747  69.065  1.00  0.00    -0.236 C  
BRANCH   7   8
HETATM    8  O   UNL     1      -8.555  14.779  68.042  1.00  0.00    -0.155 OA 
BRANCH   8   9
HETATM    9  C   UNL     1      -7.569  13.899  67.789  1.00  0.00    -0.169 C  
HETATM   10  O   UNL     1      -6.589  14.135  67.102  1.00  0.00    -0.183 OA 
BRANCH   9  11
HETATM   11  C   UNL     1      -7.925  12.538  68.313  1.00  0.00    -0.153 C  
HETATM   12  C   UNL     1      -7.111  11.777  69.091  1.00  0.00    -0.071 C  
HETATM   13  N   UNL     1      -7.602  10.615  69.658  1.00  0.00    -0.131 NA 
HETATM   14  C   UNL     1      -5.663  12.023  69.466  1.00  0.00    -0.085 C  
HETATM   15  C   UNL     1      -8.821  10.036  69.382  1.00  0.00    -0.190 C  
HETATM   16  C   UNL     1      -9.711  10.678  68.592  1.00  0.00    -0.178 C  
HETATM   17  C   UNL     1      -9.039   8.682  70.015  1.00  0.00    -0.157 C  
HETATM   18  C   UNL     1      -9.393  12.085  68.041  1.00  0.00    -0.196 C  
BRANCH  16  19
HETATM   19  C   UNL     1     -10.974   9.979  68.223  1.00  0.00    -0.227 C  
HETATM   20  O   UNL     1     -11.023   8.864  67.726  1.00  0.00    -0.112 OA 
BRANCH  19  21
HETATM   21  O   UNL     1     -12.062  10.750  68.475  1.00  0.00    -0.493 OA 
HETATM   22  C   UNL     1     -12.245  11.045  69.862  1.00  0.00    -0.336 C  
ENDBRANCH  19  21
ENDBRANCH  16  19
BRANCH  18  23
HETATM   23  C   UNL     1      -9.790  12.212  66.563  1.00  0.00    -0.232 A  
HETATM   24  C   UNL     1      -9.163  11.372  65.623  1.00  0.00    -0.209 A  
HETATM   25  C   UNL     1      -9.500  11.429  64.275  1.00  0.00    -0.153 A  
HETATM   26  C   UNL     1     -10.483  12.321  63.835  1.00  0.00    -0.458 A  
HETATM   27  C   UNL     1     -11.111  13.174  64.747  1.00  0.00    -0.330 A  
HETATM   28 CL   UNL     1     -12.317  14.246  64.115  1.00  0.00    -0.444 Cl 
HETATM   29  C   UNL     1     -10.773  13.130  66.110  1.00  0.00    -0.278 A  
HETATM   30 CL   UNL     1     -11.578  14.200  67.223  1.00  0.00    -0.374 Cl 
ENDBRANCH  18  23
ENDBRANCH   9  11
ENDBRANCH   8   9
ENDBRANCH   7   8
ENDBRANCH   6   7
ENDBRANCH   4   6
ENDBRANCH   3   4
ENDBRANCH   2   3
TORSDOF 10
ENDMDL
MODEL       61
REMARK 921   NORMALIZED FREE ENERGY PREDICTED BY IDOCK:   -4.92 KCAL/MOL
REMARK 922        TOTAL FREE ENERGY PREDICTED BY IDOCK:   -9.19 KCAL/MOL
REMARK 923 INTER-LIGAND FREE ENERGY PREDICTED BY IDOCK:   -7.60 KCAL/MOL
REMARK 924 INTRA-LIGAND FREE ENERGY PREDICTED BY IDOCK:   -1.59 KCAL/MOL
REMARK 927      BINDING AFFINITY PREDICTED BY RF-SCORE:    0.00 PKD
ROOT
HETATM    1  C   UNL     1      -6.321  15.541  70.197  1.00  0.00    -0.072 C  
HETATM    2  C   UNL     1      -6.313  16.069  68.773  1.00  0.00    -0.117 C  
ENDROOT
BRANCH   2   3
HETATM    3  C   UNL     1      -6.820  15.020  67.793  1.00  0.00    -0.190 C  
BRANCH   3   4
HETATM    4  C   UNL     1      -8.077  15.476  67.094  1.00  0.00    -0.216 C  
HETATM    5  O   UNL     1      -8.123  16.248  66.147  1.00  0.00    -0.293 OA 
BRANCH   4   6
HETATM    6  O   UNL     1      -9.138  14.842  67.647  1.00  0.00    -0.177 OA 
BRANCH   6   7
HETATM    7  C   UNL     1     -10.245  14.645  66.779  1.00  0.00    -0.268 C  
BRANCH   7   8
HETATM    8  O   UNL     1     -10.413  13.337  66.234  1.00  0.00    -0.278 OA 
BRANCH   8   9
HETATM    9  C   UNL     1     -11.544  12.677  66.545  1.00  0.00    -0.381 C  
HETATM   10  O   UNL     1     -12.612  12.827  65.976  1.00  0.00    -0.473 OA 
BRANCH   9  11
HETATM   11  C   UNL     1     -11.361  11.870  67.797  1.00  0.00    -0.361 C  
HETATM   12  C   UNL     1     -11.687  12.303  69.044  1.00  0.00    -0.324 C  
HETATM   13  N   UNL     1     -11.637  11.419  70.106  1.00  0.00    -0.305 NA 
HETATM   14  C   UNL     1     -12.135  13.685  69.476  1.00  0.00    -0.368 C  
HETATM   15  C   UNL     1     -11.119  10.143  70.070  1.00  0.00    -0.308 C  
HETATM   16  C   UNL     1     -10.726   9.606  68.892  1.00  0.00    -0.230 C  
HETATM   17  C   UNL     1     -11.036   9.452  71.410  1.00  0.00    -0.443 C  
HETATM   18  C   UNL     1     -10.906  10.394  67.576  1.00  0.00    -0.358 C  
BRANCH  16  19
HETATM   19  C   UNL     1     -10.070   8.269  68.899  1.00  0.00    -0.199 C  
HETATM   20  O   UNL     1      -8.918   8.070  69.254  1.00  0.00    -0.147 OA 
BRANCH  19  21
HETATM   21  O   UNL     1     -10.899   7.303  68.430  1.00  0.00    -0.159 OA 
HETATM   22  C   UNL     1     -11.148   6.256  69.371  1.00  0.00    -0.410 C  
ENDBRANCH  19  21
ENDBRANCH  16  19
BRANCH  18  23
HETATM   23  C   UNL     1      -9.664  10.282  66.681  1.00  0.00    -0.233 A  
HETATM   24  C   UNL     1      -9.781   9.615  65.447  1.00  0.00    -0.365 A  
HETATM   25  C   UNL     1      -8.694   9.503  64.586  1.00  0.00    -0.233 A  
HETATM   26  C   UNL     1      -7.464  10.069  64.935  1.00  0.00    -0.140 A  
HETATM   27  C   UNL     1      -7.319  10.726  66.161  1.00  0.00    -0.127 A  
HETATM   28 CL   UNL     1      -5.760  11.398  66.510  1.00  0.00    -0.144 Cl 
HETATM   29  C   UNL     1      -8.408  10.838  67.040  1.00  0.00    -0.129 A  
HETATM   30 CL   UNL     1      -8.198  11.668  68.556  1.00  0.00    -0.153 Cl 
ENDBRANCH  18  23
ENDBRANCH   9  11
ENDBRANCH   8   9
ENDBRANCH   7   8
ENDBRANCH   6   7
ENDBRANCH   4   6
ENDBRANCH   3   4
ENDBRANCH   2   3
TORSDOF 10
ENDMDL
MODEL       62
REMARK 921   NORMALIZED FREE ENERGY PREDICTED BY IDOCK:   -4.92 KCAL/MOL
REMARK 922        TOTAL FREE ENERGY PREDICTED BY IDOCK:   -9.19 KCAL/MOL
REMARK 923 INTER-LIGAND FREE ENERGY PREDICTED BY IDOCK:   -8.02 KCAL/MOL
REMARK 924 INTRA-LIGAND FREE ENERGY PREDICTED BY IDOCK:   -1.18 KCAL/MOL
REMARK 927      BINDING AFFINITY PREDICTED BY RF-SCORE:    0.00 PKD
ROOT
HETATM    1  C   UNL     1     -10.262  19.787  68.334  1.00  0.00    -0.568 C  
HETATM    2  C   UNL     1     -10.753  18.791  67.297  1.00  0.00    -0.490 C  
ENDROOT
BRANCH   2   3
HETATM    3  C   UNL     1     -10.604  17.359  67.793  1.00  0.00    -0.371 C  
BRANCH   3   4
HETATM    4  C   UNL     1     -10.493  16.384  66.647  1.00  0.00    -0.274 C  
HETATM    5  O   UNL     1      -9.964  16.613  65.568  1.00  0.00    -0.552 OA 
BRANCH   4   6
HETATM    6  O   UNL     1     -11.019  15.197  67.030  1.00  0.00    -0.314 OA 
BRANCH   6   7
HETATM    7  C   UNL     1     -10.325  14.049  66.567  1.00  0.00    -0.285 C  
BRANCH   7   8
HETATM    8  O   UNL     1     -10.265  12.929  67.450  1.00  0.00    -0.227 OA 
BRANCH   8   9
HETATM    9  C   UNL     1     -10.962  11.831  67.105  1.00  0.00    -0.276 C  
HETATM   10  O   UNL     1     -12.056  11.535  67.556  1.00  0.00    -0.614 OA 
BRANCH   9  11
HETATM   11  C   UNL     1     -10.136  10.930  66.234  1.00  0.00    -0.284 C  
HETATM   12  C   UNL     1     -10.301  10.798  64.891  1.00  0.00    -0.299 C  
HETATM   13  N   UNL     1      -9.378  10.073  64.160  1.00  0.00    -0.278 NA 
HETATM   14  C   UNL     1     -11.400  11.365  64.015  1.00  0.00    -0.291 C  
HETATM   15  C   UNL     1      -8.360   9.305  64.681  1.00  0.00    -0.161 C  
HETATM   16  C   UNL     1      -8.112   9.324  66.010  1.00  0.00    -0.110 C  
HETATM   17  C   UNL     1      -7.599   8.485  63.667  1.00  0.00    -0.127 C  
HETATM   18  C   UNL     1      -8.928  10.244  66.944  1.00  0.00    -0.149 C  
BRANCH  16  19
HETATM   19  C   UNL     1      -7.078   8.402  66.558  1.00  0.00    -0.072 C  
HETATM   20  O   UNL     1      -5.994   8.763  66.992  1.00  0.00    -0.054 OA 
BRANCH  19  21
HETATM   21  O   UNL     1      -7.475   7.106  66.483  1.00  0.00    -0.084 OA 
HETATM   22  C   UNL     1      -7.186   6.350  67.662  1.00  0.00    -0.086 C  
ENDBRANCH  19  21
ENDBRANCH  16  19
BRANCH  18  23
HETATM   23  C   UNL     1      -9.333   9.516  68.235  1.00  0.00    -0.139 A  
HETATM   24  C   UNL     1      -8.886  10.032  69.466  1.00  0.00    -0.209 A  
HETATM   25  C   UNL     1      -9.241   9.427  70.667  1.00  0.00    -0.303 A  
HETATM   26  C   UNL     1     -10.063   8.295  70.666  1.00  0.00    -0.212 A  
HETATM   27  C   UNL     1     -10.508   7.756  69.455  1.00  0.00    -0.220 A  
HETATM   28 CL   UNL     1     -11.522   6.354  69.547  1.00  0.00    -0.464 Cl 
HETATM   29  C   UNL     1     -10.149   8.356  68.237  1.00  0.00    -0.199 A  
HETATM   30 CL   UNL     1     -10.725   7.665  66.745  1.00  0.00    -0.305 Cl 
ENDBRANCH  18  23
ENDBRANCH   9  11
ENDBRANCH   8   9
ENDBRANCH   7   8
ENDBRANCH   6   7
ENDBRANCH   4   6
ENDBRANCH   3   4
ENDBRANCH   2   3
TORSDOF 10
ENDMDL
MODEL       63
REMARK 921   NORMALIZED FREE ENERGY PREDICTED BY IDOCK:   -4.83 KCAL/MOL
REMARK 922        TOTAL FREE ENERGY PREDICTED BY IDOCK:   -9.05 KCAL/MOL
REMARK 923 INTER-LIGAND FREE ENERGY PREDICTED BY IDOCK:   -7.57 KCAL/MOL
REMARK 924 INTRA-LIGAND FREE ENERGY PREDICTED BY IDOCK:   -1.49 KCAL/MOL
REMARK 927      BINDING AFFINITY PREDICTED BY RF-SCORE:    0.00 PKD
ROOT
HETATM    1  C   UNL     1     -14.328  14.812  71.879  1.00  0.00    -0.657 C  
HETATM    2  C   UNL     1     -13.759  13.485  72.352  1.00  0.00    -0.704 C  
ENDROOT
BRANCH   2   3
HETATM    3  C   UNL     1     -12.887  12.846  71.281  1.00  0.00    -0.361 C  
BRANCH   3   4
HETATM    4  C   UNL     1     -12.748  11.359  71.495  1.00  0.00    -0.357 C  
HETATM    5  O   UNL     1     -13.523  10.657  72.129  1.00  0.00    -0.373 OA 
BRANCH   4   6
HETATM    6  O   UNL     1     -11.661  10.919  70.817  1.00  0.00    -0.328 OA 
BRANCH   6   7
HETATM    7  C   UNL     1     -11.651   9.529  70.525  1.00  0.00    -0.254 C  
BRANCH   7   8
HETATM    8  O   UNL     1     -11.221   8.654  71.567  1.00  0.00    -0.252 OA 
BRANCH   8   9
HETATM    9  C   UNL     1     -11.677   7.388  71.540  1.00  0.00    -0.284 C  
HETATM   10  O   UNL     1     -12.856   7.077  71.515  1.00  0.00    -0.376 OA 
BRANCH   9  11
HETATM   11  C   UNL     1     -10.551   6.413  71.727  1.00  0.00    -0.256 C  
HETATM   12  C   UNL     1      -9.934   6.172  72.913  1.00  0.00    -0.174 C  
HETATM   13  N   UNL     1      -9.026   5.133  73.010  1.00  0.00    -0.119 NA 
HETATM   14  C   UNL     1     -10.104   6.901  74.231  1.00  0.00    -0.287 C  
HETATM   15  C   UNL     1      -8.537   4.389  71.958  1.00  0.00    -0.112 C  
HETATM   16  C   UNL     1      -9.047   4.557  70.716  1.00  0.00    -0.182 C  
HETATM   17  C   UNL     1      -7.432   3.427  72.320  1.00  0.00    -0.056 C  
HETATM   18  C   UNL     1     -10.214   5.540  70.478  1.00  0.00    -0.311 C  
BRANCH  16  19
HETATM   19  C   UNL     1      -8.425   3.819  69.582  1.00  0.00    -0.060 C  
HETATM   20  O   UNL     1      -7.325   4.075  69.115  1.00  0.00    -0.053 OA 
BRANCH  19  21
HETATM   21  O   UNL     1      -9.246   2.849  69.108  1.00  0.00    -0.131 OA 
HETATM   22  C   UNL     1      -9.270   2.766  67.680  1.00  0.00    -0.198 C  
ENDBRANCH  19  21
ENDBRANCH  16  19
BRANCH  18  23
HETATM   23  C   UNL     1      -9.993   6.378  69.210  1.00  0.00    -0.178 A  
HETATM   24  C   UNL     1     -10.841   6.165  68.107  1.00  0.00    -0.389 A  
HETATM   25  C   UNL     1     -10.700   6.911  66.941  1.00  0.00    -0.386 A  
HETATM   26  C   UNL     1      -9.712   7.897  66.855  1.00  0.00    -0.285 A  
HETATM   27  C   UNL     1      -8.848   8.117  67.933  1.00  0.00    -0.131 A  
HETATM   28 CL   UNL     1      -7.655   9.359  67.739  1.00  0.00    -0.088 Cl 
HETATM   29  C   UNL     1      -8.978   7.365  69.111  1.00  0.00    -0.135 A  
HETATM   30 CL   UNL     1      -7.892   7.668  70.439  1.00  0.00    -0.090 Cl 
ENDBRANCH  18  23
ENDBRANCH   9  11
ENDBRANCH   8   9
ENDBRANCH   7   8
ENDBRANCH   6   7
ENDBRANCH   4   6
ENDBRANCH   3   4
ENDBRANCH   2   3
TORSDOF 10
ENDMDL
MODEL       64
REMARK 921   NORMALIZED FREE ENERGY PREDICTED BY IDOCK:   -4.82 KCAL/MOL
REMARK 922        TOTAL FREE ENERGY PREDICTED BY IDOCK:   -9.04 KCAL/MOL
REMARK 923 INTER-LIGAND FREE ENERGY PREDICTED BY IDOCK:   -8.38 KCAL/MOL
REMARK 924 INTRA-LIGAND FREE ENERGY PREDICTED BY IDOCK:   -0.66 KCAL/MOL
REMARK 927      BINDING AFFINITY PREDICTED BY RF-SCORE:    0.00 PKD
ROOT
HETATM    1  C   UNL     1     -13.718  13.193  72.250  1.00  0.00    -0.647 C  
HETATM    2  C   UNL     1     -12.898  14.244  72.980  1.00  0.00    -0.461 C  
ENDROOT
BRANCH   2   3
HETATM    3  C   UNL     1     -11.937  14.948  72.033  1.00  0.00    -0.428 C  
BRANCH   3   4
HETATM    4  C   UNL     1     -12.667  15.597  70.884  1.00  0.00    -0.445 C  
HETATM    5  O   UNL     1     -13.873  15.786  70.825  1.00  0.00    -0.359 OA 
BRANCH   4   6
HETATM    6  O   UNL     1     -11.762  15.991  69.957  1.00  0.00    -0.330 OA 
BRANCH   6   7
HETATM    7  C   UNL     1     -10.442  15.504  70.154  1.00  0.00    -0.301 C  
BRANCH   7   8
HETATM    8  O   UNL     1      -9.381  16.260  69.571  1.00  0.00    -0.186 OA 
BRANCH   8   9
HETATM    9  C   UNL     1      -8.718  15.703  68.540  1.00  0.00    -0.182 C  
HETATM   10  O   UNL     1      -7.523  15.459  68.536  1.00  0.00    -0.111 OA 
BRANCH   9  11
HETATM   11  C   UNL     1      -9.607  15.592  67.336  1.00  0.00    -0.213 C  
HETATM   12  C   UNL     1     -10.377  16.603  66.853  1.00  0.00    -0.299 C  
HETATM   13  N   UNL     1     -11.025  16.446  65.642  1.00  0.00    -0.150 NA 
HETATM   14  C   UNL     1     -10.644  17.962  67.469  1.00  0.00    -0.386 C  
HETATM   15  C   UNL     1     -11.112  15.277  64.919  1.00  0.00    -0.424 C  
HETATM   16  C   UNL     1     -10.417  14.185  65.312  1.00  0.00    -0.402 C  
HETATM   17  C   UNL     1     -12.019  15.341  63.713  1.00  0.00     0.390 C  
HETATM   18  C   UNL     1      -9.481  14.256  66.538  1.00  0.00    -0.306 C  
BRANCH  16  19
HETATM   19  C   UNL     1     -10.616  12.906  64.575  1.00  0.00    -0.382 C  
HETATM   20  O   UNL     1      -9.760  12.367  63.889  1.00  0.00    -0.187 OA 
BRANCH  19  21
HETATM   21  O   UNL     1     -11.877  12.431  64.732  1.00  0.00    -0.356 OA 
HETATM   22  C   UNL     1     -12.411  11.824  63.551  1.00  0.00    -0.383 C  
ENDBRANCH  19  21
ENDBRANCH  16  19
BRANCH  18  23
HETATM   23  C   UNL     1      -9.630  13.015  67.431  1.00  0.00    -0.211 A  
HETATM   24  C   UNL     1      -8.503  12.199  67.641  1.00  0.00    -0.163 A  
HETATM   25  C   UNL     1      -8.574  11.075  68.458  1.00  0.00    -0.158 A  
HETATM   26  C   UNL     1      -9.776  10.747  69.095  1.00  0.00    -0.181 A  
HETATM   27  C   UNL     1     -10.913  11.535  68.890  1.00  0.00    -0.229 A  
HETATM   28 CL   UNL     1     -12.358  11.056  69.719  1.00  0.00    -0.367 Cl 
HETATM   29  C   UNL     1     -10.852  12.668  68.062  1.00  0.00    -0.225 A  
HETATM   30 CL   UNL     1     -12.283  13.633  67.833  1.00  0.00    -0.294 Cl 
ENDBRANCH  18  23
ENDBRANCH   9  11
ENDBRANCH   8   9
ENDBRANCH   7   8
ENDBRANCH   6   7
ENDBRANCH   4   6
ENDBRANCH   3   4
ENDBRANCH   2   3
TORSDOF 10
ENDMDL
MODEL       65
REMARK 921   NORMALIZED FREE ENERGY PREDICTED BY IDOCK:   -4.82 KCAL/MOL
REMARK 922        TOTAL FREE ENERGY PREDICTED BY IDOCK:   -9.03 KCAL/MOL
REMARK 923 INTER-LIGAND FREE ENERGY PREDICTED BY IDOCK:   -7.04 KCAL/MOL
REMARK 924 INTRA-LIGAND FREE ENERGY PREDICTED BY IDOCK:   -1.99 KCAL/MOL
REMARK 927      BINDING AFFINITY PREDICTED BY RF-SCORE:    0.00 PKD
ROOT
HETATM    1  C   UNL     1     -12.641  12.216  63.576  1.00  0.00    -0.621 C  
HETATM    2  C   UNL     1     -11.179  12.611  63.697  1.00  0.00    -0.525 C  
ENDROOT
BRANCH   2   3
HETATM    3  C   UNL     1     -10.612  12.218  65.054  1.00  0.00    -0.322 C  
BRANCH   3   4
HETATM    4  C   UNL     1      -9.974  13.394  65.750  1.00  0.00    -0.252 C  
HETATM    5  O   UNL     1      -9.949  14.541  65.328  1.00  0.00    -0.363 OA 
BRANCH   4   6
HETATM    6  O   UNL     1      -9.489  12.984  66.946  1.00  0.00    -0.228 OA 
BRANCH   6   7
HETATM    7  C   UNL     1     -10.313  13.275  68.066  1.00  0.00    -0.241 C  
BRANCH   7   8
HETATM    8  O   UNL     1     -10.606  12.193  68.950  1.00  0.00    -0.212 OA 
BRANCH   8   9
HETATM    9  C   UNL     1     -11.501  11.279  68.535  1.00  0.00    -0.306 C  
HETATM   10  O   UNL     1     -12.404  11.502  67.746  1.00  0.00    -0.329 OA 
BRANCH   9  11
HETATM   11  C   UNL     1     -11.352  10.001  69.307  1.00  0.00    -0.169 C  
HETATM   12  C   UNL     1     -11.928   9.761  70.515  1.00  0.00    -0.206 C  
HETATM   13  N   UNL     1     -11.867   8.492  71.059  1.00  0.00    -0.280 NA 
HETATM   14  C   UNL     1     -12.683  10.726  71.408  1.00  0.00    -0.544 C  
HETATM   15  C   UNL     1     -11.121   7.441  70.573  1.00  0.00    -0.261 C  
HETATM   16  C   UNL     1     -10.471   7.562  69.393  1.00  0.00    -0.222 C  
HETATM   17  C   UNL     1     -11.103   6.213  71.451  1.00  0.00    -0.346 C  
HETATM   18  C   UNL     1     -10.605   8.854  68.558  1.00  0.00    -0.183 C  
BRANCH  16  19
HETATM   19  C   UNL     1      -9.585   6.451  68.946  1.00  0.00    -0.126 C  
HETATM   20  O   UNL     1      -8.485   6.215  69.421  1.00  0.00    -0.118 OA 
BRANCH  19  21
HETATM   21  O   UNL     1     -10.138   5.754  67.922  1.00  0.00    -0.138 OA 
HETATM   22  C   UNL     1      -9.234   5.513  66.840  1.00  0.00    -0.119 C  
ENDBRANCH  19  21
ENDBRANCH  16  19
BRANCH  18  23
HETATM   23  C   UNL     1      -9.248   9.300  67.992  1.00  0.00    -0.138 A  
HETATM   24  C   UNL     1      -9.079   9.332  66.595  1.00  0.00    -0.177 A  
HETATM   25  C   UNL     1      -7.879   9.749  66.029  1.00  0.00    -0.107 A  
HETATM   26  C   UNL     1      -6.821  10.156  66.848  1.00  0.00    -0.084 A  
HETATM   27  C   UNL     1      -6.960  10.120  68.239  1.00  0.00    -0.070 A  
HETATM   28 CL   UNL     1      -5.600  10.643  69.176  1.00  0.00    -0.041 Cl 
HETATM   29  C   UNL     1      -8.165   9.694  68.821  1.00  0.00    -0.106 A  
HETATM   30 CL   UNL     1      -8.311   9.668  70.556  1.00  0.00    -0.204 Cl 
ENDBRANCH  18  23
ENDBRANCH   9  11
ENDBRANCH   8   9
ENDBRANCH   7   8
ENDBRANCH   6   7
ENDBRANCH   4   6
ENDBRANCH   3   4
ENDBRANCH   2   3
TORSDOF 10
ENDMDL
MODEL       66
REMARK 921   NORMALIZED FREE ENERGY PREDICTED BY IDOCK:   -4.81 KCAL/MOL
REMARK 922        TOTAL FREE ENERGY PREDICTED BY IDOCK:   -9.02 KCAL/MOL
REMARK 923 INTER-LIGAND FREE ENERGY PREDICTED BY IDOCK:   -7.46 KCAL/MOL
REMARK 924 INTRA-LIGAND FREE ENERGY PREDICTED BY IDOCK:   -1.56 KCAL/MOL
REMARK 927      BINDING AFFINITY PREDICTED BY RF-SCORE:    0.00 PKD
ROOT
HETATM    1  C   UNL     1     -11.027  15.913  65.028  1.00  0.00    -0.426 C  
HETATM    2  C   UNL     1     -11.575  14.510  65.227  1.00  0.00    -0.359 C  
ENDROOT
BRANCH   2   3
HETATM    3  C   UNL     1     -12.055  13.914  63.911  1.00  0.00    -0.387 C  
BRANCH   3   4
HETATM    4  C   UNL     1     -12.279  12.426  64.026  1.00  0.00    -0.490 C  
HETATM    5  O   UNL     1     -13.004  11.760  63.300  1.00  0.00    -0.633 OA 
BRANCH   4   6
HETATM    6  O   UNL     1     -11.500  11.942  65.021  1.00  0.00    -0.309 OA 
BRANCH   6   7
HETATM    7  C   UNL     1     -10.524  10.992  64.619  1.00  0.00    -0.329 C  
BRANCH   7   8
HETATM    8  O   UNL     1     -10.017  10.119  65.628  1.00  0.00    -0.257 OA 
BRANCH   8   9
HETATM    9  C   UNL     1      -9.296  10.673  66.621  1.00  0.00    -0.165 C  
HETATM   10  O   UNL     1      -8.169  11.122  66.490  1.00  0.00    -0.158 OA 
BRANCH   9  11
HETATM   11  C   UNL     1      -9.988  10.498  67.941  1.00  0.00    -0.193 C  
HETATM   12  C   UNL     1     -10.553  11.509  68.652  1.00  0.00    -0.208 C  
HETATM   13  N   UNL     1     -11.312  11.215  69.770  1.00  0.00    -0.274 NA 
HETATM   14  C   UNL     1     -10.486  13.001  68.388  1.00  0.00    -0.261 C  
HETATM   15  C   UNL     1     -11.431   9.976  70.360  1.00  0.00    -0.314 C  
HETATM   16  C   UNL     1     -10.884   8.890  69.768  1.00  0.00    -0.207 C  
HETATM   17  C   UNL     1     -12.188   9.964  71.666  1.00  0.00    -0.482 C  
HETATM   18  C   UNL     1     -10.173   9.019  68.404  1.00  0.00    -0.232 C  
BRANCH  16  19
HETATM   19  C   UNL     1     -10.935   7.584  70.483  1.00  0.00    -0.252 C  
HETATM   20  O   UNL     1     -11.687   6.667  70.189  1.00  0.00    -0.394 OA 
BRANCH  19  21
HETATM   21  O   UNL     1     -10.065   7.552  71.524  1.00  0.00    -0.182 OA 
HETATM   22  C   UNL     1     -10.269   6.444  72.406  1.00  0.00    -0.186 C  
ENDBRANCH  19  21
ENDBRANCH  16  19
BRANCH  18  23
HETATM   23  C   UNL     1      -8.863   8.219  68.375  1.00  0.00    -0.137 A  
HETATM   24  C   UNL     1      -8.770   7.110  67.513  1.00  0.00    -0.121 A  
HETATM   25  C   UNL     1      -7.600   6.363  67.430  1.00  0.00    -0.100 A  
HETATM   26  C   UNL     1      -6.488   6.715  68.202  1.00  0.00    -0.053 A  
HETATM   27  C   UNL     1      -6.560   7.805  69.076  1.00  0.00    -0.048 A  
HETATM   28 CL   UNL     1      -5.134   8.170  69.991  1.00  0.00    -0.023 Cl 
HETATM   29  C   UNL     1      -7.739   8.561  69.171  1.00  0.00    -0.091 A  
HETATM   30 CL   UNL     1      -7.795   9.916  70.263  1.00  0.00    -0.191 Cl 
ENDBRANCH  18  23
ENDBRANCH   9  11
ENDBRANCH   8   9
ENDBRANCH   7   8
ENDBRANCH   6   7
ENDBRANCH   4   6
ENDBRANCH   3   4
ENDBRANCH   2   3
TORSDOF 10
ENDMDL
MODEL       67
REMARK 921   NORMALIZED FREE ENERGY PREDICTED BY IDOCK:   -4.73 KCAL/MOL
REMARK 922        TOTAL FREE ENERGY PREDICTED BY IDOCK:   -8.90 KCAL/MOL
REMARK 923 INTER-LIGAND FREE ENERGY PREDICTED BY IDOCK:   -7.25 KCAL/MOL
REMARK 924 INTRA-LIGAND FREE ENERGY PREDICTED BY IDOCK:   -1.65 KCAL/MOL
REMARK 927      BINDING AFFINITY PREDICTED BY RF-SCORE:    0.00 PKD
ROOT
HETATM    1  C   UNL     1     -10.914   7.840  73.182  1.00  0.00    -0.372 C  
HETATM    2  C   UNL     1     -12.150   8.473  72.565  1.00  0.00    -0.395 C  
ENDROOT
BRANCH   2   3
HETATM    3  C   UNL     1     -11.860   8.999  71.166  1.00  0.00    -0.362 C  
BRANCH   3   4
HETATM    4  C   UNL     1     -12.214  10.460  71.038  1.00  0.00    -0.393 C  
HETATM    5  O   UNL     1     -13.036  11.053  71.722  1.00  0.00    -0.469 OA 
BRANCH   4   6
HETATM    6  O   UNL     1     -11.430  11.019  70.087  1.00  0.00    -0.293 OA 
BRANCH   6   7
HETATM    7  C   UNL     1     -12.089  11.339  68.870  1.00  0.00    -0.224 C  
BRANCH   7   8
HETATM    8  O   UNL     1     -11.505  10.840  67.668  1.00  0.00    -0.477 OA 
BRANCH   8   9
HETATM    9  C   UNL     1     -10.302  11.329  67.315  1.00  0.00    -0.201 C  
HETATM   10  O   UNL     1      -9.744  12.261  67.869  1.00  0.00    -0.190 OA 
BRANCH   9  11
HETATM   11  C   UNL     1      -9.825  10.696  66.040  1.00  0.00    -0.280 C  
HETATM   12  C   UNL     1     -10.121  11.157  64.796  1.00  0.00    -0.295 C  
HETATM   13  N   UNL     1      -9.492  10.602  63.697  1.00  0.00    -0.271 NA 
HETATM   14  C   UNL     1     -11.084  12.259  64.402  1.00  0.00    -0.381 C  
HETATM   15  C   UNL     1      -8.688   9.483  63.707  1.00  0.00    -0.217 C  
HETATM   16  C   UNL     1      -8.345   8.908  64.882  1.00  0.00    -0.181 C  
HETATM   17  C   UNL     1      -8.262   8.993  62.344  1.00  0.00    -0.171 C  
HETATM   18  C   UNL     1      -8.803   9.531  66.219  1.00  0.00    -0.172 C  
BRANCH  16  19
HETATM   19  C   UNL     1      -7.567   7.638  64.857  1.00  0.00    -0.099 C  
HETATM   20  O   UNL     1      -6.359   7.568  65.024  1.00  0.00    -0.038 OA 
BRANCH  19  21
HETATM   21  O   UNL     1      -8.362   6.571  64.590  1.00  0.00    -0.099 OA 
HETATM   22  C   UNL     1      -7.752   5.602  63.733  1.00  0.00    -0.098 C  
ENDBRANCH  19  21
ENDBRANCH  16  19
BRANCH  18  23
HETATM   23  C   UNL     1      -9.293   8.456  67.200  1.00  0.00    -0.192 A  
HETATM   24  C   UNL     1     -10.474   7.754  66.894  1.00  0.00    -0.388 A  
HETATM   25  C   UNL     1     -10.952   6.755  67.736  1.00  0.00    -0.321 A  
HETATM   26  C   UNL     1     -10.252   6.425  68.900  1.00  0.00    -0.215 A  
HETATM   27  C   UNL     1      -9.083   7.118  69.233  1.00  0.00    -0.137 A  
HETATM   28 CL   UNL     1      -8.280   6.643  70.693  1.00  0.00    -0.123 Cl 
HETATM   29  C   UNL     1      -8.596   8.133  68.393  1.00  0.00    -0.130 A  
HETATM   30 CL   UNL     1      -7.134   8.971  68.831  1.00  0.00    -0.068 Cl 
ENDBRANCH  18  23
ENDBRANCH   9  11
ENDBRANCH   8   9
ENDBRANCH   7   8
ENDBRANCH   6   7
ENDBRANCH   4   6
ENDBRANCH   3   4
ENDBRANCH   2   3
TORSDOF 10
ENDMDL
MODEL       68
REMARK 921   NORMALIZED FREE ENERGY PREDICTED BY IDOCK:   -4.72 KCAL/MOL
REMARK 922        TOTAL FREE ENERGY PREDICTED BY IDOCK:   -8.88 KCAL/MOL
REMARK 923 INTER-LIGAND FREE ENERGY PREDICTED BY IDOCK:   -8.37 KCAL/MOL
REMARK 924 INTRA-LIGAND FREE ENERGY PREDICTED BY IDOCK:   -0.52 KCAL/MOL
REMARK 927      BINDING AFFINITY PREDICTED BY RF-SCORE:    0.00 PKD
ROOT
HETATM    1  C   UNL     1     -12.558  15.950  73.935  1.00  0.00    -0.746 C  
HETATM    2  C   UNL     1     -12.043  15.173  72.736  1.00  0.00    -0.486 C  
ENDROOT
BRANCH   2   3
HETATM    3  C   UNL     1     -11.703  16.104  71.580  1.00  0.00    -0.558 C  
BRANCH   3   4
HETATM    4  C   UNL     1     -11.777  15.390  70.253  1.00  0.00    -0.327 C  
HETATM    5  O   UNL     1     -11.894  15.929  69.162  1.00  0.00    -0.389 OA 
BRANCH   4   6
HETATM    6  O   UNL     1     -11.629  14.060  70.463  1.00  0.00    -0.230 OA 
BRANCH   6   7
HETATM    7  C   UNL     1     -12.660  13.244  69.928  1.00  0.00     0.068 C  
BRANCH   7   8
HETATM    8  O   UNL     1     -12.255  12.121  69.146  1.00  0.00    -0.202 OA 
BRANCH   8   9
HETATM    9  C   UNL     1     -11.721  11.072  69.799  1.00  0.00    -0.335 C  
HETATM   10  O   UNL     1     -11.692  10.954  71.013  1.00  0.00    -0.273 OA 
BRANCH   9  11
HETATM   11  C   UNL     1     -11.006  10.160  68.845  1.00  0.00    -0.261 C  
HETATM   12  C   UNL     1     -10.671   8.872  69.120  1.00  0.00    -0.143 C  
HETATM   13  N   UNL     1     -10.168   8.070  68.112  1.00  0.00    -0.201 NA 
HETATM   14  C   UNL     1     -10.778   8.128  70.436  1.00  0.00    -0.234 C  
HETATM   15  C   UNL     1      -9.803   8.491  66.852  1.00  0.00    -0.242 C  
HETATM   16  C   UNL     1     -10.054   9.763  66.466  1.00  0.00    -0.307 C  
HETATM   17  C   UNL     1      -9.128   7.442  66.001  1.00  0.00    -0.129 C  
HETATM   18  C   UNL     1     -10.797  10.733  67.409  1.00  0.00    -0.345 C  
BRANCH  16  19
HETATM   19  C   UNL     1      -9.550  10.220  65.140  1.00  0.00    -0.277 C  
HETATM   20  O   UNL     1     -10.264  10.457  64.177  1.00  0.00    -0.296 OA 
BRANCH  19  21
HETATM   21  O   UNL     1      -8.197  10.308  65.124  1.00  0.00    -0.153 OA 
HETATM   22  C   UNL     1      -7.618   9.998  63.853  1.00  0.00    -0.138 C  
ENDBRANCH  19  21
ENDBRANCH  16  19
BRANCH  18  23
HETATM   23  C   UNL     1     -10.144  12.123  67.413  1.00  0.00    -0.208 A  
HETATM   24  C   UNL     1      -8.977  12.316  68.177  1.00  0.00    -0.192 A  
HETATM   25  C   UNL     1      -8.331  13.548  68.199  1.00  0.00    -0.167 A  
HETATM   26  C   UNL     1      -8.832  14.616  67.447  1.00  0.00    -0.205 A  
HETATM   27  C   UNL     1      -9.998  14.453  66.692  1.00  0.00    -0.272 A  
HETATM   28 CL   UNL     1     -10.546  15.828  65.791  1.00  0.00    -0.350 Cl 
HETATM   29  C   UNL     1     -10.661  13.215  66.668  1.00  0.00    -0.279 A  
HETATM   30 CL   UNL     1     -12.105  13.041  65.712  1.00  0.00    -0.486 Cl 
ENDBRANCH  18  23
ENDBRANCH   9  11
ENDBRANCH   8   9
ENDBRANCH   7   8
ENDBRANCH   6   7
ENDBRANCH   4   6
ENDBRANCH   3   4
ENDBRANCH   2   3
TORSDOF 10
ENDMDL
MODEL       69
REMARK 921   NORMALIZED FREE ENERGY PREDICTED BY IDOCK:   -4.71 KCAL/MOL
REMARK 922        TOTAL FREE ENERGY PREDICTED BY IDOCK:   -8.86 KCAL/MOL
REMARK 923 INTER-LIGAND FREE ENERGY PREDICTED BY IDOCK:   -7.44 KCAL/MOL
REMARK 924 INTRA-LIGAND FREE ENERGY PREDICTED BY IDOCK:   -1.42 KCAL/MOL
REMARK 927      BINDING AFFINITY PREDICTED BY RF-SCORE:    0.00 PKD
ROOT
HETATM    1  C   UNL     1      -6.742  21.042  67.281  1.00  0.00    -0.430 C  
HETATM    2  C   UNL     1      -6.311  19.915  68.205  1.00  0.00    -0.289 C  
ENDROOT
BRANCH   2   3
HETATM    3  C   UNL     1      -7.043  18.622  67.874  1.00  0.00    -0.245 C  
BRANCH   3   4
HETATM    4  C   UNL     1      -6.668  18.106  66.507  1.00  0.00    -0.212 C  
HETATM    5  O   UNL     1      -7.363  18.184  65.504  1.00  0.00    -0.543 OA 
BRANCH   4   6
HETATM    6  O   UNL     1      -5.413  17.600  66.559  1.00  0.00    -0.150 OA 
BRANCH   6   7
HETATM    7  C   UNL     1      -5.283  16.373  67.260  1.00  0.00    -0.088 C  
BRANCH   7   8
HETATM    8  O   UNL     1      -6.294  15.390  67.035  1.00  0.00    -0.267 OA 
BRANCH   8   9
HETATM    9  C   UNL     1      -6.916  14.884  68.116  1.00  0.00    -0.126 C  
HETATM   10  O   UNL     1      -6.714  15.244  69.263  1.00  0.00    -0.125 OA 
BRANCH   9  11
HETATM   11  C   UNL     1      -7.754  13.697  67.738  1.00  0.00    -0.166 C  
HETATM   12  C   UNL     1      -7.257  12.463  67.460  1.00  0.00    -0.145 C  
HETATM   13  N   UNL     1      -8.126  11.401  67.291  1.00  0.00    -0.141 NA 
HETATM   14  C   UNL     1      -5.809  12.041  67.307  1.00  0.00    -0.142 C  
HETATM   15  C   UNL     1      -9.499  11.487  67.210  1.00  0.00    -0.169 C  
HETATM   16  C   UNL     1     -10.117  12.670  67.435  1.00  0.00    -0.218 C  
HETATM   17  C   UNL     1     -10.198  10.196  66.857  1.00  0.00    -0.295 C  
HETATM   18  C   UNL     1      -9.296  13.914  67.838  1.00  0.00    -0.208 C  
BRANCH  16  19
HETATM   19  C   UNL     1     -11.590  12.757  67.233  1.00  0.00    -0.360 C  
HETATM   20  O   UNL     1     -12.362  13.284  68.020  1.00  0.00    -0.168 OA 
BRANCH  19  21
HETATM   21  O   UNL     1     -11.973  12.148  66.083  1.00  0.00    -0.593 OA 
HETATM   22  C   UNL     1     -12.534  13.044  65.120  1.00  0.00    -0.496 C  
ENDBRANCH  19  21
ENDBRANCH  16  19
BRANCH  18  23
HETATM   23  C   UNL     1      -9.770  15.166  67.084  1.00  0.00    -0.230 A  
HETATM   24  C   UNL     1      -9.912  15.096  65.685  1.00  0.00    -0.387 A  
HETATM   25  C   UNL     1     -10.359  16.193  64.955  1.00  0.00    -0.086 A  
HETATM   26  C   UNL     1     -10.685  17.385  65.610  1.00  0.00    -0.113 A  
HETATM   27  C   UNL     1     -10.539  17.483  66.997  1.00  0.00    -0.245 A  
HETATM   28 CL   UNL     1     -10.968  18.996  67.725  1.00  0.00    -0.366 Cl 
HETATM   29  C   UNL     1     -10.083  16.384  67.743  1.00  0.00    -0.262 A  
HETATM   30 CL   UNL     1      -9.919  16.535  69.470  1.00  0.00    -0.175 Cl 
ENDBRANCH  18  23
ENDBRANCH   9  11
ENDBRANCH   8   9
ENDBRANCH   7   8
ENDBRANCH   6   7
ENDBRANCH   4   6
ENDBRANCH   3   4
ENDBRANCH   2   3
TORSDOF 10
ENDMDL
MODEL       70
REMARK 921   NORMALIZED FREE ENERGY PREDICTED BY IDOCK:   -4.69 KCAL/MOL
REMARK 922        TOTAL FREE ENERGY PREDICTED BY IDOCK:   -8.84 KCAL/MOL
REMARK 923 INTER-LIGAND FREE ENERGY PREDICTED BY IDOCK:   -7.30 KCAL/MOL
REMARK 924 INTRA-LIGAND FREE ENERGY PREDICTED BY IDOCK:   -1.54 KCAL/MOL
REMARK 927      BINDING AFFINITY PREDICTED BY RF-SCORE:    0.00 PKD
ROOT
HETATM    1  C   UNL     1      -9.545  11.401  63.000  1.00  0.00    -0.397 C  
HETATM    2  C   UNL     1     -10.876  11.622  63.698  1.00  0.00    -0.503 C  
ENDROOT
BRANCH   2   3
HETATM    3  C   UNL     1     -10.677  12.167  65.105  1.00  0.00    -0.333 C  
BRANCH   3   4
HETATM    4  C   UNL     1     -11.994  12.474  65.772  1.00  0.00    -0.420 C  
HETATM    5  O   UNL     1     -12.860  13.215  65.328  1.00  0.00    -0.617 OA 
BRANCH   4   6
HETATM    6  O   UNL     1     -12.088  11.748  66.911  1.00  0.00    -0.566 OA 
BRANCH   6   7
HETATM    7  C   UNL     1     -10.874  11.592  67.632  1.00  0.00    -0.225 C  
BRANCH   7   8
HETATM    8  O   UNL     1     -10.594  10.293  68.152  1.00  0.00    -0.190 OA 
BRANCH   8   9
HETATM    9  C   UNL     1      -9.316  10.018  68.474  1.00  0.00    -0.145 C  
HETATM   10  O   UNL     1      -8.500  10.848  68.837  1.00  0.00    -0.153 OA 
BRANCH   9  11
HETATM   11  C   UNL     1      -8.983   8.590  68.154  1.00  0.00    -0.142 C  
HETATM   12  C   UNL     1      -8.860   8.094  66.894  1.00  0.00    -0.131 C  
HETATM   13  N   UNL     1      -8.384   6.809  66.712  1.00  0.00    -0.113 NA 
HETATM   14  C   UNL     1      -9.173   8.776  65.577  1.00  0.00    -0.202 C  
HETATM   15  C   UNL     1      -8.165   5.882  67.707  1.00  0.00    -0.105 C  
HETATM   16  C   UNL     1      -8.285   6.242  69.005  1.00  0.00    -0.114 C  
HETATM   17  C   UNL     1      -7.801   4.500  67.219  1.00  0.00    -0.097 C  
HETATM   18  C   UNL     1      -8.615   7.702  69.383  1.00  0.00    -0.136 C  
BRANCH  16  19
HETATM   19  C   UNL     1      -8.149   5.193  70.054  1.00  0.00    -0.082 C  
HETATM   20  O   UNL     1      -7.181   5.078  70.791  1.00  0.00    -0.056 OA 
BRANCH  19  21
HETATM   21  O   UNL     1      -9.219   4.358  70.067  1.00  0.00    -0.106 OA 
HETATM   22  C   UNL     1      -9.695   4.058  71.382  1.00  0.00    -0.183 C  
ENDBRANCH  19  21
ENDBRANCH  16  19
BRANCH  18  23
HETATM   23  C   UNL     1      -9.666   7.770  70.501  1.00  0.00    -0.175 A  
HETATM   24  C   UNL     1      -9.302   8.348  71.732  1.00  0.00    -0.293 A  
HETATM   25  C   UNL     1     -10.220   8.455  72.771  1.00  0.00    -0.254 A  
HETATM   26  C   UNL     1     -11.530   7.996  72.600  1.00  0.00    -0.465 A  
HETATM   27  C   UNL     1     -11.911   7.405  71.391  1.00  0.00    -0.310 A  
HETATM   28 CL   UNL     1     -13.553   6.866  71.266  1.00  0.00    -0.266 Cl 
HETATM   29  C   UNL     1     -10.990   7.286  70.338  1.00  0.00    -0.252 A  
HETATM   30 CL   UNL     1     -11.496   6.553  68.842  1.00  0.00    -0.271 Cl 
ENDBRANCH  18  23
ENDBRANCH   9  11
ENDBRANCH   8   9
ENDBRANCH   7   8
ENDBRANCH   6   7
ENDBRANCH   4   6
ENDBRANCH   3   4
ENDBRANCH   2   3
TORSDOF 10
ENDMDL
MODEL       71
REMARK 921   NORMALIZED FREE ENERGY PREDICTED BY IDOCK:   -4.69 KCAL/MOL
REMARK 922        TOTAL FREE ENERGY PREDICTED BY IDOCK:   -8.83 KCAL/MOL
REMARK 923 INTER-LIGAND FREE ENERGY PREDICTED BY IDOCK:   -7.10 KCAL/MOL
REMARK 924 INTRA-LIGAND FREE ENERGY PREDICTED BY IDOCK:   -1.73 KCAL/MOL
REMARK 927      BINDING AFFINITY PREDICTED BY RF-SCORE:    0.00 PKD
ROOT
HETATM    1  C   UNL     1      -6.585   8.833  62.742  1.00  0.00    -0.091 C  
HETATM    2  C   UNL     1      -7.841   8.360  63.455  1.00  0.00    -0.152 C  
ENDROOT
BRANCH   2   3
HETATM    3  C   UNL     1      -7.934   8.949  64.856  1.00  0.00    -0.129 C  
BRANCH   3   4
HETATM    4  C   UNL     1      -9.237   9.681  65.063  1.00  0.00    -0.250 C  
HETATM    5  O   UNL     1     -10.065   9.426  65.926  1.00  0.00    -0.296 OA 
BRANCH   4   6
HETATM    6  O   UNL     1      -9.310  10.704  64.179  1.00  0.00    -0.217 OA 
BRANCH   6   7
HETATM    7  C   UNL     1     -10.582  11.327  64.077  1.00  0.00    -0.386 C  
BRANCH   7   8
HETATM    8  O   UNL     1     -10.655  12.709  64.424  1.00  0.00    -0.319 OA 
BRANCH   8   9
HETATM    9  C   UNL     1     -11.542  13.064  65.372  1.00  0.00    -0.341 C  
HETATM   10  O   UNL     1     -12.619  12.521  65.550  1.00  0.00    -0.642 OA 
BRANCH   9  11
HETATM   11  C   UNL     1     -11.108  14.326  66.059  1.00  0.00    -0.319 C  
HETATM   12  C   UNL     1     -11.152  15.561  65.494  1.00  0.00    -0.262 C  
HETATM   13  N   UNL     1     -10.890  16.675  66.271  1.00  0.00    -0.101 NA 
HETATM   14  C   UNL     1     -11.471  15.933  64.059  1.00  0.00     0.146 C  
HETATM   15  C   UNL     1     -10.415  16.663  67.564  1.00  0.00    -0.317 C  
HETATM   16  C   UNL     1     -10.294  15.491  68.229  1.00  0.00    -0.235 C  
HETATM   17  C   UNL     1     -10.058  18.019  68.123  1.00  0.00    -0.378 C  
HETATM   18  C   UNL     1     -10.738  14.169  67.566  1.00  0.00    -0.270 C  
BRANCH  16  19
HETATM   19  C   UNL     1      -9.675  15.498  69.584  1.00  0.00    -0.274 C  
HETATM   20  O   UNL     1      -8.502  15.238  69.806  1.00  0.00    -0.200 OA 
BRANCH  19  21
HETATM   21  O   UNL     1     -10.585  15.796  70.546  1.00  0.00    -0.294 OA 
HETATM   22  C   UNL     1     -11.493  14.727  70.824  1.00  0.00    -0.225 C  
ENDBRANCH  19  21
ENDBRANCH  16  19
BRANCH  18  23
HETATM   23  C   UNL     1      -9.719  13.047  67.814  1.00  0.00    -0.218 A  
HETATM   24  C   UNL     1      -8.428  13.177  67.269  1.00  0.00    -0.199 A  
HETATM   25  C   UNL     1      -7.459  12.202  67.480  1.00  0.00    -0.148 A  
HETATM   26  C   UNL     1      -7.756  11.076  68.255  1.00  0.00    -0.113 A  
HETATM   27  C   UNL     1      -9.035  10.917  68.796  1.00  0.00    -0.164 A  
HETATM   28 CL   UNL     1      -9.314   9.493  69.743  1.00  0.00    -0.208 Cl 
HETATM   29  C   UNL     1     -10.023  11.893  68.582  1.00  0.00    -0.154 A  
HETATM   30 CL   UNL     1     -11.604  11.670  69.276  1.00  0.00    -0.349 Cl 
ENDBRANCH  18  23
ENDBRANCH   9  11
ENDBRANCH   8   9
ENDBRANCH   7   8
ENDBRANCH   6   7
ENDBRANCH   4   6
ENDBRANCH   3   4
ENDBRANCH   2   3
TORSDOF 10
ENDMDL
MODEL       72
REMARK 921   NORMALIZED FREE ENERGY PREDICTED BY IDOCK:   -4.65 KCAL/MOL
REMARK 922        TOTAL FREE ENERGY PREDICTED BY IDOCK:   -8.77 KCAL/MOL
REMARK 923 INTER-LIGAND FREE ENERGY PREDICTED BY IDOCK:   -6.99 KCAL/MOL
REMARK 924 INTRA-LIGAND FREE ENERGY PREDICTED BY IDOCK:   -1.78 KCAL/MOL
REMARK 927      BINDING AFFINITY PREDICTED BY RF-SCORE:    0.00 PKD
ROOT
HETATM    1  C   UNL     1     -11.458   6.886  71.875  1.00  0.00    -0.308 C  
HETATM    2  C   UNL     1     -11.760   6.488  70.440  1.00  0.00    -0.439 C  
ENDROOT
BRANCH   2   3
HETATM    3  C   UNL     1     -10.696   5.547  69.893  1.00  0.00    -0.358 C  
BRANCH   3   4
HETATM    4  C   UNL     1     -10.289   5.925  68.491  1.00  0.00    -0.214 C  
HETATM    5  O   UNL     1     -10.824   5.531  67.465  1.00  0.00    -0.192 OA 
BRANCH   4   6
HETATM    6  O   UNL     1      -9.275   6.820  68.556  1.00  0.00    -0.130 OA 
BRANCH   6   7
HETATM    7  C   UNL     1      -9.514   8.056  67.899  1.00  0.00    -0.145 C  
BRANCH   7   8
HETATM    8  O   UNL     1     -10.433   8.952  68.522  1.00  0.00    -0.205 OA 
BRANCH   8   9
HETATM    9  C   UNL     1      -9.945   9.788  69.458  1.00  0.00    -0.214 C  
HETATM   10  O   UNL     1      -9.329   9.434  70.449  1.00  0.00    -0.232 OA 
BRANCH   9  11
HETATM   11  C   UNL     1     -10.418  11.191  69.214  1.00  0.00    -0.183 C  
HETATM   12  C   UNL     1     -11.598  11.694  69.664  1.00  0.00    -0.330 C  
HETATM   13  N   UNL     1     -11.858  13.045  69.531  1.00  0.00    -0.321 NA 
HETATM   14  C   UNL     1     -12.739  10.961  70.341  1.00  0.00    -0.326 C  
HETATM   15  C   UNL     1     -11.095  13.947  68.820  1.00  0.00    -0.265 C  
HETATM   16  C   UNL     1      -9.911  13.562  68.293  1.00  0.00    -0.233 C  
HETATM   17  C   UNL     1     -11.694  15.328  68.698  1.00  0.00    -0.367 C  
HETATM   18  C   UNL     1      -9.379  12.132  68.527  1.00  0.00    -0.108 C  
BRANCH  16  19
HETATM   19  C   UNL     1      -9.162  14.526  67.439  1.00  0.00    -0.200 C  
HETATM   20  O   UNL     1      -9.439  14.774  66.275  1.00  0.00    -0.283 OA 
BRANCH  19  21
HETATM   21  O   UNL     1      -8.112  15.070  68.103  1.00  0.00    -0.124 OA 
HETATM   22  C   UNL     1      -7.299  15.922  67.291  1.00  0.00    -0.216 C  
ENDBRANCH  19  21
ENDBRANCH  16  19
BRANCH  18  23
HETATM   23  C   UNL     1      -8.795  11.532  67.240  1.00  0.00    -0.160 A  
HETATM   24  C   UNL     1      -7.434  11.171  67.223  1.00  0.00    -0.118 A  
HETATM   25  C   UNL     1      -6.858  10.603  66.091  1.00  0.00    -0.135 A  
HETATM   26  C   UNL     1      -7.634  10.371  64.951  1.00  0.00    -0.074 A  
HETATM   27  C   UNL     1      -8.985  10.733  64.939  1.00  0.00    -0.184 A  
HETATM   28 CL   UNL     1      -9.870  10.409  63.485  1.00  0.00    -0.335 Cl 
HETATM   29  C   UNL     1      -9.574  11.314  66.074  1.00  0.00    -0.218 A  
HETATM   30 CL   UNL     1     -11.260  11.747  66.031  1.00  0.00    -0.368 Cl 
ENDBRANCH  18  23
ENDBRANCH   9  11
ENDBRANCH   8   9
ENDBRANCH   7   8
ENDBRANCH   6   7
ENDBRANCH   4   6
ENDBRANCH   3   4
ENDBRANCH   2   3
TORSDOF 10
ENDMDL
MODEL       73
REMARK 921   NORMALIZED FREE ENERGY PREDICTED BY IDOCK:   -4.64 KCAL/MOL
REMARK 922        TOTAL FREE ENERGY PREDICTED BY IDOCK:   -8.76 KCAL/MOL
REMARK 923 INTER-LIGAND FREE ENERGY PREDICTED BY IDOCK:   -6.46 KCAL/MOL
REMARK 924 INTRA-LIGAND FREE ENERGY PREDICTED BY IDOCK:   -2.30 KCAL/MOL
REMARK 927      BINDING AFFINITY PREDICTED BY RF-SCORE:    0.00 PKD
ROOT
HETATM    1  C   UNL     1      -8.224   5.929  64.825  1.00  0.00    -0.129 C  
HETATM    2  C   UNL     1      -7.229   6.951  65.347  1.00  0.00    -0.073 C  
ENDROOT
BRANCH   2   3
HETATM    3  C   UNL     1      -7.914   8.271  65.671  1.00  0.00    -0.113 C  
BRANCH   3   4
HETATM    4  C   UNL     1      -7.397   9.391  64.802  1.00  0.00    -0.107 C  
HETATM    5  O   UNL     1      -7.290   9.354  63.584  1.00  0.00    -0.102 OA 
BRANCH   4   6
HETATM    6  O   UNL     1      -7.132  10.465  65.584  1.00  0.00    -0.138 OA 
BRANCH   6   7
HETATM    7  C   UNL     1      -7.677  10.409  66.894  1.00  0.00    -0.111 C  
BRANCH   7   8
HETATM    8  O   UNL     1      -8.671  11.380  67.222  1.00  0.00    -0.141 OA 
BRANCH   8   9
HETATM    9  C   UNL     1      -9.959  11.022  67.069  1.00  0.00    -0.190 C  
HETATM   10  O   UNL     1     -10.474  10.725  66.004  1.00  0.00    -0.250 OA 
BRANCH   9  11
HETATM   11  C   UNL     1     -10.718  11.213  68.350  1.00  0.00    -0.234 C  
HETATM   12  C   UNL     1     -11.169  12.412  68.804  1.00  0.00    -0.273 C  
HETATM   13  N   UNL     1     -12.003  12.452  69.906  1.00  0.00    -0.324 NA 
HETATM   14  C   UNL     1     -10.892  13.795  68.250  1.00  0.00    -0.266 C  
HETATM   15  C   UNL     1     -12.310  11.388  70.725  1.00  0.00    -0.386 C  
HETATM   16  C   UNL     1     -11.892  10.143  70.400  1.00  0.00    -0.373 C  
HETATM   17  C   UNL     1     -13.112  11.742  71.955  1.00  0.00    -0.482 C  
HETATM   18  C   UNL     1     -11.119   9.897  69.087  1.00  0.00    -0.197 C  
BRANCH  16  19
HETATM   19  C   UNL     1     -12.145   9.031  71.359  1.00  0.00    -0.327 C  
HETATM   20  O   UNL     1     -13.132   8.311  71.334  1.00  0.00    -0.297 OA 
BRANCH  19  21
HETATM   21  O   UNL     1     -11.159   8.939  72.287  1.00  0.00    -0.339 OA 
HETATM   22  C   UNL     1     -10.978   7.616  72.799  1.00  0.00    -0.377 C  
ENDBRANCH  19  21
ENDBRANCH  16  19
BRANCH  18  23
HETATM   23  C   UNL     1      -9.927   8.952  69.306  1.00  0.00    -0.192 A  
HETATM   24  C   UNL     1      -8.862   9.389  70.115  1.00  0.00    -0.249 A  
HETATM   25  C   UNL     1      -7.768   8.567  70.366  1.00  0.00    -0.080 A  
HETATM   26  C   UNL     1      -7.720   7.280  69.820  1.00  0.00    -0.107 A  
HETATM   27  C   UNL     1      -8.760   6.828  69.001  1.00  0.00    -0.130 A  
HETATM   28 CL   UNL     1      -8.618   5.221  68.369  1.00  0.00    -0.095 Cl 
HETATM   29  C   UNL     1      -9.865   7.654  68.737  1.00  0.00    -0.164 A  
HETATM   30 CL   UNL     1     -11.148   7.060  67.720  1.00  0.00    -0.214 Cl 
ENDBRANCH  18  23
ENDBRANCH   9  11
ENDBRANCH   8   9
ENDBRANCH   7   8
ENDBRANCH   6   7
ENDBRANCH   4   6
ENDBRANCH   3   4
ENDBRANCH   2   3
TORSDOF 10
ENDMDL
MODEL       74
REMARK 921   NORMALIZED FREE ENERGY PREDICTED BY IDOCK:   -4.63 KCAL/MOL
REMARK 922        TOTAL FREE ENERGY PREDICTED BY IDOCK:   -8.74 KCAL/MOL
REMARK 923 INTER-LIGAND FREE ENERGY PREDICTED BY IDOCK:   -7.28 KCAL/MOL
REMARK 924 INTRA-LIGAND FREE ENERGY PREDICTED BY IDOCK:   -1.47 KCAL/MOL
REMARK 927      BINDING AFFINITY PREDICTED BY RF-SCORE:    0.00 PKD
ROOT
HETATM    1  C   UNL     1     -13.633  15.639  72.776  1.00  0.00    -0.678 C  
HETATM    2  C   UNL     1     -13.840  14.217  72.285  1.00  0.00    -0.643 C  
ENDROOT
BRANCH   2   3
HETATM    3  C   UNL     1     -12.892  13.885  71.141  1.00  0.00    -0.423 C  
BRANCH   3   4
HETATM    4  C   UNL     1     -12.611  12.404  71.066  1.00  0.00    -0.254 C  
HETATM    5  O   UNL     1     -13.069  11.556  71.817  1.00  0.00    -0.472 OA 
BRANCH   4   6
HETATM    6  O   UNL     1     -11.820  12.163  69.994  1.00  0.00    -0.328 OA 
BRANCH   6   7
HETATM    7  C   UNL     1     -11.297  10.846  69.911  1.00  0.00    -0.305 C  
BRANCH   7   8
HETATM    8  O   UNL     1     -10.716  10.458  68.666  1.00  0.00    -0.193 OA 
BRANCH   8   9
HETATM    9  C   UNL     1      -9.404  10.156  68.664  1.00  0.00    -0.161 C  
HETATM   10  O   UNL     1      -8.510  10.948  68.910  1.00  0.00    -0.153 OA 
BRANCH   9  11
HETATM   11  C   UNL     1      -9.181   8.767  68.141  1.00  0.00    -0.145 C  
HETATM   12  C   UNL     1      -9.256   8.418  66.830  1.00  0.00    -0.171 C  
HETATM   13  N   UNL     1      -8.866   7.150  66.438  1.00  0.00    -0.141 NA 
HETATM   14  C   UNL     1      -9.720   9.257  65.655  1.00  0.00    -0.302 C  
HETATM   15  C   UNL     1      -8.550   6.108  67.282  1.00  0.00    -0.103 C  
HETATM   16  C   UNL     1      -8.473   6.317  68.616  1.00  0.00    -0.122 C  
HETATM   17  C   UNL     1      -8.318   4.783  66.595  1.00  0.00    -0.106 C  
HETATM   18  C   UNL     1      -8.683   7.731  69.197  1.00  0.00    -0.139 C  
BRANCH  16  19
HETATM   19  C   UNL     1      -8.237   5.149  69.510  1.00  0.00    -0.093 C  
HETATM   20  O   UNL     1      -9.086   4.317  69.793  1.00  0.00    -0.096 OA 
BRANCH  19  21
HETATM   21  O   UNL     1      -6.972   5.143  69.999  1.00  0.00    -0.053 OA 
HETATM   22  C   UNL     1      -6.910   5.083  71.427  1.00  0.00    -0.044 C  
ENDBRANCH  19  21
ENDBRANCH  16  19
BRANCH  18  23
HETATM   23  C   UNL     1      -9.564   7.696  70.455  1.00  0.00    -0.167 A  
HETATM   24  C   UNL     1      -9.023   8.158  71.669  1.00  0.00    -0.212 A  
HETATM   25  C   UNL     1      -9.783   8.170  72.834  1.00  0.00    -0.340 A  
HETATM   26  C   UNL     1     -11.110   7.728  72.809  1.00  0.00    -0.457 A  
HETATM   27  C   UNL     1     -11.666   7.251  71.618  1.00  0.00    -0.284 A  
HETATM   28 CL   UNL     1     -13.316   6.725  71.680  1.00  0.00    -0.300 Cl 
HETATM   29  C   UNL     1     -10.904   7.229  70.438  1.00  0.00    -0.246 A  
HETATM   30 CL   UNL     1     -11.627   6.637  68.969  1.00  0.00    -0.148 Cl 
ENDBRANCH  18  23
ENDBRANCH   9  11
ENDBRANCH   8   9
ENDBRANCH   7   8
ENDBRANCH   6   7
ENDBRANCH   4   6
ENDBRANCH   3   4
ENDBRANCH   2   3
TORSDOF 10
ENDMDL
MODEL       75
REMARK 921   NORMALIZED FREE ENERGY PREDICTED BY IDOCK:   -4.62 KCAL/MOL
REMARK 922        TOTAL FREE ENERGY PREDICTED BY IDOCK:   -8.73 KCAL/MOL
REMARK 923 INTER-LIGAND FREE ENERGY PREDICTED BY IDOCK:   -7.40 KCAL/MOL
REMARK 924 INTRA-LIGAND FREE ENERGY PREDICTED BY IDOCK:   -1.33 KCAL/MOL
REMARK 927      BINDING AFFINITY PREDICTED BY RF-SCORE:    0.00 PKD
ROOT
HETATM    1  C   UNL     1     -13.483  13.067  72.246  1.00  0.00    -0.645 C  
HETATM    2  C   UNL     1     -13.097  14.406  72.851  1.00  0.00    -0.612 C  
ENDROOT
BRANCH   2   3
HETATM    3  C   UNL     1     -11.832  14.957  72.209  1.00  0.00    -0.372 C  
BRANCH   3   4
HETATM    4  C   UNL     1     -12.024  15.212  70.735  1.00  0.00    -0.327 C  
HETATM    5  O   UNL     1     -12.962  15.816  70.235  1.00  0.00    -0.340 OA 
BRANCH   4   6
HETATM    6  O   UNL     1     -10.957  14.717  70.063  1.00  0.00    -0.227 OA 
BRANCH   6   7
HETATM    7  C   UNL     1     -10.506  15.510  68.974  1.00  0.00    -0.231 C  
BRANCH   7   8
HETATM    8  O   UNL     1     -10.472  14.886  67.691  1.00  0.00    -0.245 OA 
BRANCH   8   9
HETATM    9  C   UNL     1      -9.262  14.643  67.153  1.00  0.00    -0.221 C  
HETATM   10  O   UNL     1      -8.798  15.238  66.195  1.00  0.00    -0.284 OA 
BRANCH   9  11
HETATM   11  C   UNL     1      -8.642  13.424  67.772  1.00  0.00    -0.194 C  
HETATM   12  C   UNL     1      -7.543  13.444  68.571  1.00  0.00    -0.127 C  
HETATM   13  N   UNL     1      -7.156  12.289  69.226  1.00  0.00    -0.003 NA 
HETATM   14  C   UNL     1      -6.624  14.608  68.884  1.00  0.00    -0.093 C  
HETATM   15  C   UNL     1      -7.685  11.032  69.025  1.00  0.00    -0.132 C  
HETATM   16  C   UNL     1      -8.764  10.873  68.225  1.00  0.00    -0.140 C  
HETATM   17  C   UNL     1      -6.968   9.917  69.749  1.00  0.00    -0.095 C  
HETATM   18  C   UNL     1      -9.442  12.099  67.576  1.00  0.00    -0.180 C  
BRANCH  16  19
HETATM   19  C   UNL     1      -9.245   9.492  67.940  1.00  0.00    -0.125 C  
HETATM   20  O   UNL     1      -8.648   8.684  67.246  1.00  0.00    -0.124 OA 
BRANCH  19  21
HETATM   21  O   UNL     1     -10.449   9.255  68.521  1.00  0.00    -0.205 OA 
HETATM   22  C   UNL     1     -10.488   8.044  69.281  1.00  0.00    -0.215 C  
ENDBRANCH  19  21
ENDBRANCH  16  19
BRANCH  18  23
HETATM   23  C   UNL     1      -9.798  11.831  66.106  1.00  0.00    -0.254 A  
HETATM   24  C   UNL     1      -8.810  11.289  65.263  1.00  0.00    -0.015 A  
HETATM   25  C   UNL     1      -9.083  11.006  63.928  1.00  0.00    -0.128 A  
HETATM   26  C   UNL     1     -10.359  11.249  63.408  1.00  0.00    -0.449 A  
HETATM   27  C   UNL     1     -11.353  11.800  64.223  1.00  0.00    -0.325 A  
HETATM   28 CL   UNL     1     -12.903  12.066  63.495  1.00  0.00    -0.595 Cl 
HETATM   29  C   UNL     1     -11.084  12.095  65.569  1.00  0.00    -0.316 A  
HETATM   30 CL   UNL     1     -12.345  12.773  66.560  1.00  0.00    -0.181 Cl 
ENDBRANCH  18  23
ENDBRANCH   9  11
ENDBRANCH   8   9
ENDBRANCH   7   8
ENDBRANCH   6   7
ENDBRANCH   4   6
ENDBRANCH   3   4
ENDBRANCH   2   3
TORSDOF 10
ENDMDL
MODEL       76
REMARK 921   NORMALIZED FREE ENERGY PREDICTED BY IDOCK:   -4.62 KCAL/MOL
REMARK 922        TOTAL FREE ENERGY PREDICTED BY IDOCK:   -8.72 KCAL/MOL
REMARK 923 INTER-LIGAND FREE ENERGY PREDICTED BY IDOCK:   -6.72 KCAL/MOL
REMARK 924 INTRA-LIGAND FREE ENERGY PREDICTED BY IDOCK:   -2.00 KCAL/MOL
REMARK 927      BINDING AFFINITY PREDICTED BY RF-SCORE:    0.00 PKD
ROOT
HETATM    1  C   UNL     1     -12.387  14.782  64.448  1.00  0.00    -0.389 C  
HETATM    2  C   UNL     1     -10.904  14.959  64.730  1.00  0.00    -0.382 C  
ENDROOT
BRANCH   2   3
HETATM    3  C   UNL     1     -10.642  16.233  65.520  1.00  0.00    -0.369 C  
BRANCH   3   4
HETATM    4  C   UNL     1     -10.497  15.951  66.995  1.00  0.00    -0.306 C  
HETATM    5  O   UNL     1     -11.401  15.612  67.745  1.00  0.00    -0.326 OA 
BRANCH   4   6
HETATM    6  O   UNL     1      -9.193  16.073  67.338  1.00  0.00    -0.205 OA 
BRANCH   6   7
HETATM    7  C   UNL     1      -8.385  14.939  67.059  1.00  0.00    -0.216 C  
BRANCH   7   8
HETATM    8  O   UNL     1      -8.031  14.110  68.165  1.00  0.00    -0.122 OA 
BRANCH   8   9
HETATM    9  C   UNL     1      -7.052  13.206  67.973  1.00  0.00    -0.115 C  
HETATM   10  O   UNL     1      -6.141  13.331  67.172  1.00  0.00    -0.288 OA 
BRANCH   9  11
HETATM   11  C   UNL     1      -7.333  11.948  68.742  1.00  0.00    -0.105 C  
HETATM   12  C   UNL     1      -6.556  11.475  69.752  1.00  0.00    -0.091 C  
HETATM   13  N   UNL     1      -6.996  10.402  70.505  1.00  0.00    -0.308 NA 
HETATM   14  C   UNL     1      -5.203  11.978  70.217  1.00  0.00    -0.105 C  
HETATM   15  C   UNL     1      -8.101   9.626  70.234  1.00  0.00    -0.183 C  
HETATM   16  C   UNL     1      -8.940   9.972  69.231  1.00  0.00    -0.186 C  
HETATM   17  C   UNL     1      -8.262   8.416  71.122  1.00  0.00    -0.154 C  
HETATM   18  C   UNL     1      -8.698  11.263  68.421  1.00  0.00    -0.159 C  
BRANCH  16  19
HETATM   19  C   UNL     1     -10.065   9.055  68.891  1.00  0.00    -0.196 C  
HETATM   20  O   UNL     1     -11.206   9.183  69.306  1.00  0.00    -0.050 OA 
BRANCH  19  21
HETATM   21  O   UNL     1      -9.655   8.040  68.089  1.00  0.00    -0.149 OA 
HETATM   22  C   UNL     1     -10.524   7.803  66.977  1.00  0.00    -0.349 C  
ENDBRANCH  19  21
ENDBRANCH  16  19
BRANCH  18  23
HETATM   23  C   UNL     1      -8.906  11.031  66.917  1.00  0.00    -0.150 A  
HETATM   24  C   UNL     1      -7.884  10.396  66.186  1.00  0.00    -0.135 A  
HETATM   25  C   UNL     1      -8.028  10.140  64.827  1.00  0.00    -0.146 A  
HETATM   26  C   UNL     1      -9.207  10.503  64.166  1.00  0.00    -0.283 A  
HETATM   27  C   UNL     1     -10.231  11.147  64.868  1.00  0.00    -0.303 A  
HETATM   28 CL   UNL     1     -11.655  11.560  63.971  1.00  0.00    -0.361 Cl 
HETATM   29  C   UNL     1     -10.092  11.416  66.239  1.00  0.00    -0.224 A  
HETATM   30 CL   UNL     1     -11.388  12.212  67.086  1.00  0.00    -0.368 Cl 
ENDBRANCH  18  23
ENDBRANCH   9  11
ENDBRANCH   8   9
ENDBRANCH   7   8
ENDBRANCH   6   7
ENDBRANCH   4   6
ENDBRANCH   3   4
ENDBRANCH   2   3
TORSDOF 10
ENDMDL
MODEL       77
REMARK 921   NORMALIZED FREE ENERGY PREDICTED BY IDOCK:   -4.62 KCAL/MOL
REMARK 922        TOTAL FREE ENERGY PREDICTED BY IDOCK:   -8.72 KCAL/MOL
REMARK 923 INTER-LIGAND FREE ENERGY PREDICTED BY IDOCK:   -6.67 KCAL/MOL
REMARK 924 INTRA-LIGAND FREE ENERGY PREDICTED BY IDOCK:   -2.05 KCAL/MOL
REMARK 927      BINDING AFFINITY PREDICTED BY RF-SCORE:    0.00 PKD
ROOT
HETATM    1  C   UNL     1     -12.540   7.727  71.652  1.00  0.00    -0.357 C  
HETATM    2  C   UNL     1     -11.300   7.850  70.782  1.00  0.00    -0.283 C  
ENDROOT
BRANCH   2   3
HETATM    3  C   UNL     1     -10.605   9.186  71.000  1.00  0.00    -0.362 C  
BRANCH   3   4
HETATM    4  C   UNL     1      -9.110   9.020  71.121  1.00  0.00    -0.246 C  
HETATM    5  O   UNL     1      -8.492   8.902  72.170  1.00  0.00    -0.382 OA 
BRANCH   4   6
HETATM    6  O   UNL     1      -8.574   8.961  69.879  1.00  0.00    -0.124 OA 
BRANCH   6   7
HETATM    7  C   UNL     1      -7.525   9.884  69.627  1.00  0.00    -0.122 C  
BRANCH   7   8
HETATM    8  O   UNL     1      -7.903  11.235  69.366  1.00  0.00    -0.022 OA 
BRANCH   8   9
HETATM    9  C   UNL     1      -7.321  11.849  68.318  1.00  0.00    -0.093 C  
HETATM   10  O   UNL     1      -6.118  11.894  68.124  1.00  0.00    -0.049 OA 
BRANCH   9  11
HETATM   11  C   UNL     1      -8.334  12.621  67.525  1.00  0.00    -0.177 C  
HETATM   12  C   UNL     1      -8.737  13.886  67.818  1.00  0.00    -0.187 C  
HETATM   13  N   UNL     1      -9.546  14.566  66.927  1.00  0.00    -0.240 NA 
HETATM   14  C   UNL     1      -8.409  14.722  69.039  1.00  0.00    -0.144 C  
HETATM   15  C   UNL     1     -10.145  14.028  65.809  1.00  0.00    -0.327 C  
HETATM   16  C   UNL     1      -9.852  12.764  65.427  1.00  0.00    -0.143 C  
HETATM   17  C   UNL     1     -11.111  14.948  65.101  1.00  0.00    -0.399 C  
HETATM   18  C   UNL     1      -8.807  11.936  66.206  1.00  0.00    -0.111 C  
BRANCH  16  19
HETATM   19  C   UNL     1     -10.596  12.173  64.280  1.00  0.00    -0.345 C  
HETATM   20  O   UNL     1     -10.099  11.924  63.192  1.00  0.00    -0.425 OA 
BRANCH  19  21
HETATM   21  O   UNL     1     -11.904  11.977  64.582  1.00  0.00    -0.330 OA 
HETATM   22  C   UNL     1     -12.764  11.988  63.438  1.00  0.00    -0.398 C  
ENDBRANCH  19  21
ENDBRANCH  16  19
BRANCH  18  23
HETATM   23  C   UNL     1      -9.284  10.492  66.423  1.00  0.00    -0.190 A  
HETATM   24  C   UNL     1     -10.470  10.277  67.150  1.00  0.00    -0.311 A  
HETATM   25  C   UNL     1     -10.960   8.992  67.358  1.00  0.00     0.040 A  
HETATM   26  C   UNL     1     -10.279   7.889  66.832  1.00  0.00    -0.380 A  
HETATM   27  C   UNL     1      -9.091   8.076  66.118  1.00  0.00    -0.176 A  
HETATM   28 CL   UNL     1      -8.315   6.655  65.502  1.00  0.00    -0.145 Cl 
HETATM   29  C   UNL     1      -8.585   9.370  65.909  1.00  0.00    -0.141 A  
HETATM   30 CL   UNL     1      -7.108   9.570  65.009  1.00  0.00    -0.104 Cl 
ENDBRANCH  18  23
ENDBRANCH   9  11
ENDBRANCH   8   9
ENDBRANCH   7   8
ENDBRANCH   6   7
ENDBRANCH   4   6
ENDBRANCH   3   4
ENDBRANCH   2   3
TORSDOF 10
ENDMDL
MODEL       78
REMARK 921   NORMALIZED FREE ENERGY PREDICTED BY IDOCK:   -4.61 KCAL/MOL
REMARK 922        TOTAL FREE ENERGY PREDICTED BY IDOCK:   -8.71 KCAL/MOL
REMARK 923 INTER-LIGAND FREE ENERGY PREDICTED BY IDOCK:   -6.51 KCAL/MOL
REMARK 924 INTRA-LIGAND FREE ENERGY PREDICTED BY IDOCK:   -2.20 KCAL/MOL
REMARK 927      BINDING AFFINITY PREDICTED BY RF-SCORE:    0.00 PKD
ROOT
HETATM    1  C   UNL     1     -10.281   7.576  66.799  1.00  0.00    -0.324 C  
HETATM    2  C   UNL     1      -9.153   6.811  67.471  1.00  0.00    -0.117 C  
ENDROOT
BRANCH   2   3
HETATM    3  C   UNL     1      -8.015   7.740  67.867  1.00  0.00    -0.125 C  
BRANCH   3   4
HETATM    4  C   UNL     1      -7.631   7.562  69.315  1.00  0.00    -0.100 C  
HETATM    5  O   UNL     1      -6.536   7.199  69.720  1.00  0.00    -0.042 OA 
BRANCH   4   6
HETATM    6  O   UNL     1      -8.677   7.930  70.092  1.00  0.00    -0.133 OA 
BRANCH   6   7
HETATM    7  C   UNL     1      -8.656   9.279  70.537  1.00  0.00    -0.233 C  
BRANCH   7   8
HETATM    8  O   UNL     1      -9.009  10.279  69.582  1.00  0.00    -0.190 OA 
BRANCH   8   9
HETATM    9  C   UNL     1     -10.319  10.460  69.331  1.00  0.00    -0.237 C  
HETATM   10  O   UNL     1     -11.134   9.560  69.224  1.00  0.00    -0.190 OA 
BRANCH   9  11
HETATM   11  C   UNL     1     -10.606  11.900  69.018  1.00  0.00    -0.152 C  
HETATM   12  C   UNL     1     -11.501  12.669  69.693  1.00  0.00    -0.182 C  
HETATM   13  N   UNL     1     -11.564  14.026  69.435  1.00  0.00    -0.278 NA 
HETATM   14  C   UNL     1     -12.496  12.247  70.756  1.00  0.00    -0.356 C  
HETATM   15  C   UNL     1     -10.908  14.685  68.418  1.00  0.00    -0.245 C  
HETATM   16  C   UNL     1     -10.012  14.023  67.651  1.00  0.00    -0.237 C  
HETATM   17  C   UNL     1     -11.281  16.139  68.258  1.00  0.00    -0.343 C  
HETATM   18  C   UNL     1      -9.677  12.544  67.942  1.00  0.00    -0.205 C  
BRANCH  16  19
HETATM   19  C   UNL     1      -9.401  14.732  66.492  1.00  0.00    -0.290 C  
HETATM   20  O   UNL     1      -9.948  14.878  65.409  1.00  0.00    -0.349 OA 
BRANCH  19  21
HETATM   21  O   UNL     1      -8.148  15.165  66.776  1.00  0.00    -0.204 OA 
HETATM   22  C   UNL     1      -7.977  16.575  66.602  1.00  0.00    -0.284 C  
ENDBRANCH  19  21
ENDBRANCH  16  19
BRANCH  18  23
HETATM   23  C   UNL     1      -9.605  11.719  66.649  1.00  0.00    -0.219 A  
HETATM   24  C   UNL     1     -10.773  11.576  65.876  1.00  0.00    -0.325 A  
HETATM   25  C   UNL     1     -10.760  10.858  64.685  1.00  0.00    -0.254 A  
HETATM   26  C   UNL     1      -9.573  10.276  64.231  1.00  0.00    -0.375 A  
HETATM   27  C   UNL     1      -8.403  10.393  64.987  1.00  0.00    -0.166 A  
HETATM   28 CL   UNL     1      -6.978   9.640  64.348  1.00  0.00    -0.112 Cl 
HETATM   29  C   UNL     1      -8.407  11.109  66.195  1.00  0.00    -0.144 A  
HETATM   30 CL   UNL     1      -6.932  11.244  67.111  1.00  0.00    -0.105 Cl 
ENDBRANCH  18  23
ENDBRANCH   9  11
ENDBRANCH   8   9
ENDBRANCH   7   8
ENDBRANCH   6   7
ENDBRANCH   4   6
ENDBRANCH   3   4
ENDBRANCH   2   3
TORSDOF 10
ENDMDL
MODEL       79
REMARK 921   NORMALIZED FREE ENERGY PREDICTED BY IDOCK:   -4.57 KCAL/MOL
REMARK 922        TOTAL FREE ENERGY PREDICTED BY IDOCK:   -8.65 KCAL/MOL
REMARK 923 INTER-LIGAND FREE ENERGY PREDICTED BY IDOCK:   -7.17 KCAL/MOL
REMARK 924 INTRA-LIGAND FREE ENERGY PREDICTED BY IDOCK:   -1.47 KCAL/MOL
REMARK 927      BINDING AFFINITY PREDICTED BY RF-SCORE:    0.00 PKD
ROOT
HETATM    1  C   UNL     1      -5.993  18.953  68.023  1.00  0.00    -0.208 C  
HETATM    2  C   UNL     1      -7.267  18.621  68.781  1.00  0.00    -0.330 C  
ENDROOT
BRANCH   2   3
HETATM    3  C   UNL     1      -7.637  17.153  68.621  1.00  0.00    -0.258 C  
BRANCH   3   4
HETATM    4  C   UNL     1      -9.099  16.915  68.906  1.00  0.00    -0.223 C  
HETATM    5  O   UNL     1     -10.011  17.681  68.625  1.00  0.00    -0.329 OA 
BRANCH   4   6
HETATM    6  O   UNL     1      -9.243  15.691  69.466  1.00  0.00    -0.272 OA 
BRANCH   6   7
HETATM    7  C   UNL     1      -8.989  14.595  68.600  1.00  0.00    -0.184 C  
BRANCH   7   8
HETATM    8  O   UNL     1      -9.552  14.662  67.290  1.00  0.00    -0.213 OA 
BRANCH   8   9
HETATM    9  C   UNL     1     -10.646  13.915  67.049  1.00  0.00    -0.279 C  
HETATM   10  O   UNL     1     -11.640  13.894  67.755  1.00  0.00    -0.307 OA 
BRANCH   9  11
HETATM   11  C   UNL     1     -10.408  12.981  65.899  1.00  0.00    -0.296 C  
HETATM   12  C   UNL     1     -10.987  13.104  64.676  1.00  0.00    -0.356 C  
HETATM   13  N   UNL     1     -10.569  12.291  63.638  1.00  0.00    -0.444 NA 
HETATM   14  C   UNL     1     -12.081  14.059  64.241  1.00  0.00    -0.476 C  
HETATM   15  C   UNL     1      -9.710  11.219  63.750  1.00  0.00    -0.298 C  
HETATM   16  C   UNL     1      -9.091  10.968  64.926  1.00  0.00    -0.164 C  
HETATM   17  C   UNL     1      -9.550  10.399  62.492  1.00  0.00    -0.228 C  
HETATM   18  C   UNL     1      -9.298  11.909  66.133  1.00  0.00    -0.228 C  
BRANCH  16  19
HETATM   19  C   UNL     1      -8.256   9.741  65.048  1.00  0.00    -0.142 C  
HETATM   20  O   UNL     1      -7.041   9.720  64.917  1.00  0.00    -0.112 OA 
BRANCH  19  21
HETATM   21  O   UNL     1      -9.015   8.642  65.287  1.00  0.00    -0.181 OA 
HETATM   22  C   UNL     1      -8.265   7.425  65.325  1.00  0.00    -0.127 C  
ENDBRANCH  19  21
ENDBRANCH  16  19
BRANCH  18  23
HETATM   23  C   UNL     1      -9.501  11.118  67.434  1.00  0.00    -0.176 A  
HETATM   24  C   UNL     1     -10.791  10.644  67.739  1.00  0.00    -0.338 A  
HETATM   25  C   UNL     1     -11.027   9.903  68.892  1.00  0.00    -0.214 A  
HETATM   26  C   UNL     1      -9.974   9.608  69.764  1.00  0.00    -0.252 A  
HETATM   27  C   UNL     1      -8.687  10.080  69.489  1.00  0.00    -0.192 A  
HETATM   28 CL   UNL     1      -7.443   9.666  70.623  1.00  0.00    -0.140 Cl 
HETATM   29  C   UNL     1      -8.439  10.834  68.331  1.00  0.00    -0.137 A  
HETATM   30 CL   UNL     1      -6.824  11.401  68.014  1.00  0.00    -0.065 Cl 
ENDBRANCH  18  23
ENDBRANCH   9  11
ENDBRANCH   8   9
ENDBRANCH   7   8
ENDBRANCH   6   7
ENDBRANCH   4   6
ENDBRANCH   3   4
ENDBRANCH   2   3
TORSDOF 10
ENDMDL
MODEL       80
REMARK 921   NORMALIZED FREE ENERGY PREDICTED BY IDOCK:   -4.56 KCAL/MOL
REMARK 922        TOTAL FREE ENERGY PREDICTED BY IDOCK:   -8.63 KCAL/MOL
REMARK 923 INTER-LIGAND FREE ENERGY PREDICTED BY IDOCK:   -6.74 KCAL/MOL
REMARK 924 INTRA-LIGAND FREE ENERGY PREDICTED BY IDOCK:   -1.89 KCAL/MOL
REMARK 927      BINDING AFFINITY PREDICTED BY RF-SCORE:    0.00 PKD
ROOT
HETATM    1  C   UNL     1     -11.069  15.109  65.506  1.00  0.00    -0.347 C  
HETATM    2  C   UNL     1     -12.145  14.050  65.679  1.00  0.00    -0.432 C  
ENDROOT
BRANCH   2   3
HETATM    3  C   UNL     1     -11.571  12.650  65.520  1.00  0.00    -0.409 C  
BRANCH   3   4
HETATM    4  C   UNL     1     -11.815  12.104  64.135  1.00  0.00    -0.404 C  
HETATM    5  O   UNL     1     -12.626  12.542  63.332  1.00  0.00    -0.690 OA 
BRANCH   4   6
HETATM    6  O   UNL     1     -10.945  11.092  63.904  1.00  0.00    -0.374 OA 
BRANCH   6   7
HETATM    7  C   UNL     1     -10.089  10.769  64.990  1.00  0.00    -0.313 C  
BRANCH   7   8
HETATM    8  O   UNL     1     -10.241   9.474  65.569  1.00  0.00    -0.174 OA 
BRANCH   8   9
HETATM    9  C   UNL     1      -9.122   8.755  65.780  1.00  0.00    -0.212 C  
HETATM   10  O   UNL     1      -8.292   8.500  64.924  1.00  0.00    -0.157 OA 
BRANCH   9  11
HETATM   11  C   UNL     1      -9.126   8.160  67.157  1.00  0.00    -0.163 C  
HETATM   12  C   UNL     1      -9.669   6.954  67.472  1.00  0.00    -0.134 C  
HETATM   13  N   UNL     1      -9.468   6.425  68.733  1.00  0.00    -0.127 NA 
HETATM   14  C   UNL     1     -10.505   6.039  66.599  1.00  0.00    -0.291 C  
HETATM   15  C   UNL     1      -8.892   7.079  69.800  1.00  0.00    -0.142 C  
HETATM   16  C   UNL     1      -8.341   8.302  69.626  1.00  0.00    -0.123 C  
HETATM   17  C   UNL     1      -8.944   6.329  71.110  1.00  0.00    -0.146 C  
HETATM   18  C   UNL     1      -8.304   8.949  68.224  1.00  0.00    -0.125 C  
BRANCH  16  19
HETATM   19  C   UNL     1      -7.824   9.030  70.818  1.00  0.00    -0.136 C  
HETATM   20  O   UNL     1      -8.501   9.323  71.792  1.00  0.00    -0.283 OA 
BRANCH  19  21
HETATM   21  O   UNL     1      -6.516   9.358  70.674  1.00  0.00    -0.062 OA 
HETATM   22  C   UNL     1      -5.618   8.322  71.080  1.00  0.00    -0.033 C  
ENDBRANCH  19  21
ENDBRANCH  16  19
BRANCH  18  23
HETATM   23  C   UNL     1      -8.680  10.437  68.282  1.00  0.00    -0.128 A  
HETATM   24  C   UNL     1      -7.733  11.387  67.858  1.00  0.00    -0.114 A  
HETATM   25  C   UNL     1      -8.028  12.747  67.868  1.00  0.00    -0.158 A  
HETATM   26  C   UNL     1      -9.286  13.187  68.294  1.00  0.00    -0.194 A  
HETATM   27  C   UNL     1     -10.238  12.263  68.733  1.00  0.00    -0.102 A  
HETATM   28 CL   UNL     1     -11.769  12.898  69.242  1.00  0.00    -0.360 Cl 
HETATM   29  C   UNL     1      -9.948  10.889  68.733  1.00  0.00    -0.195 A  
HETATM   30 CL   UNL     1     -11.158   9.763  69.279  1.00  0.00    -0.216 Cl 
ENDBRANCH  18  23
ENDBRANCH   9  11
ENDBRANCH   8   9
ENDBRANCH   7   8
ENDBRANCH   6   7
ENDBRANCH   4   6
ENDBRANCH   3   4
ENDBRANCH   2   3
TORSDOF 10
ENDMDL
MODEL       81
REMARK 921   NORMALIZED FREE ENERGY PREDICTED BY IDOCK:   -4.55 KCAL/MOL
REMARK 922        TOTAL FREE ENERGY PREDICTED BY IDOCK:   -8.61 KCAL/MOL
REMARK 923 INTER-LIGAND FREE ENERGY PREDICTED BY IDOCK:   -7.09 KCAL/MOL
REMARK 924 INTRA-LIGAND FREE ENERGY PREDICTED BY IDOCK:   -1.52 KCAL/MOL
REMARK 927      BINDING AFFINITY PREDICTED BY RF-SCORE:    0.00 PKD
ROOT
HETATM    1  C   UNL     1      -8.368   3.338  69.171  1.00  0.00    -0.085 C  
HETATM    2  C   UNL     1      -9.607   4.184  69.413  1.00  0.00    -0.265 C  
ENDROOT
BRANCH   2   3
HETATM    3  C   UNL     1      -9.674   5.355  68.443  1.00  0.00    -0.179 C  
BRANCH   3   4
HETATM    4  C   UNL     1     -10.974   6.108  68.572  1.00  0.00    -0.320 C  
HETATM    5  O   UNL     1     -11.616   6.245  69.604  1.00  0.00    -0.430 OA 
BRANCH   4   6
HETATM    6  O   UNL     1     -11.281   6.659  67.374  1.00  0.00    -0.344 OA 
BRANCH   6   7
HETATM    7  C   UNL     1     -10.262   7.463  66.798  1.00  0.00    -0.242 C  
BRANCH   7   8
HETATM    8  O   UNL     1     -10.638   8.770  66.365  1.00  0.00    -0.132 OA 
BRANCH   8   9
HETATM    9  C   UNL     1      -9.755   9.450  65.610  1.00  0.00    -0.266 C  
HETATM   10  O   UNL     1      -8.795   8.949  65.049  1.00  0.00    -0.190 OA 
BRANCH   9  11
HETATM   11  C   UNL     1     -10.005  10.927  65.700  1.00  0.00    -0.305 C  
HETATM   12  C   UNL     1     -10.223  11.736  64.631  1.00  0.00    -0.284 C  
HETATM   13  N   UNL     1     -10.611  13.047  64.836  1.00  0.00    -0.320 NA 
HETATM   14  C   UNL     1     -10.111  11.403  63.156  1.00  0.00    -0.390 C  
HETATM   15  C   UNL     1     -10.646  13.697  66.051  1.00  0.00    -0.290 C  
HETATM   16  C   UNL     1     -10.415  13.009  67.192  1.00  0.00    -0.243 C  
HETATM   17  C   UNL     1     -10.948  15.174  65.974  1.00  0.00    -0.332 C  
HETATM   18  C   UNL     1     -10.165  11.486  67.148  1.00  0.00    -0.233 C  
BRANCH  16  19
HETATM   19  C   UNL     1     -10.352  13.758  68.479  1.00  0.00    -0.244 C  
HETATM   20  O   UNL     1     -11.241  13.761  69.317  1.00  0.00    -0.253 OA 
BRANCH  19  21
HETATM   21  O   UNL     1      -9.199  14.464  68.588  1.00  0.00    -0.196 OA 
HETATM   22  C   UNL     1      -9.284  15.561  69.502  1.00  0.00    -0.265 C  
ENDBRANCH  19  21
ENDBRANCH  16  19
BRANCH  18  23
HETATM   23  C   UNL     1      -9.008  11.080  68.073  1.00  0.00    -0.145 A  
HETATM   24  C   UNL     1      -7.718  11.568  67.791  1.00  0.00    -0.124 A  
HETATM   25  C   UNL     1      -6.638  11.250  68.608  1.00  0.00    -0.064 A  
HETATM   26  C   UNL     1      -6.825  10.445  69.736  1.00  0.00    -0.130 A  
HETATM   27  C   UNL     1      -8.095   9.937  70.030  1.00  0.00    -0.177 A  
HETATM   28 CL   UNL     1      -8.235   8.949  71.446  1.00  0.00    -0.197 Cl 
HETATM   29  C   UNL     1      -9.190  10.246  69.207  1.00  0.00    -0.202 A  
HETATM   30 CL   UNL     1     -10.760   9.605  69.603  1.00  0.00    -0.243 Cl 
ENDBRANCH  18  23
ENDBRANCH   9  11
ENDBRANCH   8   9
ENDBRANCH   7   8
ENDBRANCH   6   7
ENDBRANCH   4   6
ENDBRANCH   3   4
ENDBRANCH   2   3
TORSDOF 10
ENDMDL
MODEL       82
REMARK 921   NORMALIZED FREE ENERGY PREDICTED BY IDOCK:   -4.55 KCAL/MOL
REMARK 922        TOTAL FREE ENERGY PREDICTED BY IDOCK:   -8.61 KCAL/MOL
REMARK 923 INTER-LIGAND FREE ENERGY PREDICTED BY IDOCK:   -7.45 KCAL/MOL
REMARK 924 INTRA-LIGAND FREE ENERGY PREDICTED BY IDOCK:   -1.15 KCAL/MOL
REMARK 927      BINDING AFFINITY PREDICTED BY RF-SCORE:    0.00 PKD
ROOT
HETATM    1  C   UNL     1      -8.580   8.112  72.295  1.00  0.00    -0.234 C  
HETATM    2  C   UNL     1      -9.757   8.945  71.817  1.00  0.00    -0.365 C  
ENDROOT
BRANCH   2   3
HETATM    3  C   UNL     1      -9.533   9.453  70.400  1.00  0.00    -0.319 C  
BRANCH   3   4
HETATM    4  C   UNL     1     -10.469   8.791  69.419  1.00  0.00    -0.222 C  
HETATM    5  O   UNL     1     -10.851   7.630  69.475  1.00  0.00    -0.234 OA 
BRANCH   4   6
HETATM    6  O   UNL     1     -10.865   9.707  68.504  1.00  0.00    -0.215 OA 
BRANCH   6   7
HETATM    7  C   UNL     1     -12.102  10.346  68.783  1.00  0.00     0.387 C  
BRANCH   7   8
HETATM    8  O   UNL     1     -12.128  11.770  68.692  1.00  0.00    -0.406 OA 
BRANCH   8   9
HETATM    9  C   UNL     1     -11.811  12.467  69.799  1.00  0.00    -0.310 C  
HETATM   10  O   UNL     1     -11.945  12.055  70.939  1.00  0.00    -0.226 OA 
BRANCH   9  11
HETATM   11  C   UNL     1     -11.444  13.880  69.450  1.00  0.00    -0.334 C  
HETATM   12  C   UNL     1     -12.126  14.977  69.872  1.00  0.00    -0.334 C  
HETATM   13  N   UNL     1     -11.605  16.236  69.634  1.00  0.00    -0.228 NA 
HETATM   14  C   UNL     1     -13.444  15.041  70.618  1.00  0.00    -0.210 C  
HETATM   15  C   UNL     1     -10.512  16.520  68.845  1.00  0.00    -0.304 C  
HETATM   16  C   UNL     1      -9.765  15.514  68.336  1.00  0.00    -0.203 C  
HETATM   17  C   UNL     1     -10.256  17.991  68.620  1.00  0.00    -0.385 C  
HETATM   18  C   UNL     1     -10.098  14.045  68.678  1.00  0.00    -0.217 C  
BRANCH  16  19
HETATM   19  C   UNL     1      -8.656  15.849  67.399  1.00  0.00    -0.172 C  
HETATM   20  O   UNL     1      -8.800  16.030  66.200  1.00  0.00    -0.320 OA 
BRANCH  19  21
HETATM   21  O   UNL     1      -7.460  15.895  68.038  1.00  0.00    -0.120 OA 
HETATM   22  C   UNL     1      -6.509  14.951  67.539  1.00  0.00    -0.077 C  
ENDBRANCH  19  21
ENDBRANCH  16  19
BRANCH  18  23
HETATM   23  C   UNL     1     -10.011  13.146  67.436  1.00  0.00    -0.229 A  
HETATM   24  C   UNL     1      -8.971  12.201  67.361  1.00  0.00    -0.180 A  
HETATM   25  C   UNL     1      -8.857  11.346  66.269  1.00  0.00    -0.196 A  
HETATM   26  C   UNL     1      -9.791  11.409  65.230  1.00  0.00    -0.290 A  
HETATM   27  C   UNL     1     -10.826  12.348  65.276  1.00  0.00    -0.289 A  
HETATM   28 CL   UNL     1     -11.937  12.354  63.946  1.00  0.00    -0.524 Cl 
HETATM   29  C   UNL     1     -10.945  13.220  66.370  1.00  0.00    -0.289 A  
HETATM   30 CL   UNL     1     -12.249  14.374  66.401  1.00  0.00    -0.412 Cl 
ENDBRANCH  18  23
ENDBRANCH   9  11
ENDBRANCH   8   9
ENDBRANCH   7   8
ENDBRANCH   6   7
ENDBRANCH   4   6
ENDBRANCH   3   4
ENDBRANCH   2   3
TORSDOF 10
ENDMDL
MODEL       83
REMARK 921   NORMALIZED FREE ENERGY PREDICTED BY IDOCK:   -4.55 KCAL/MOL
REMARK 922        TOTAL FREE ENERGY PREDICTED BY IDOCK:   -8.60 KCAL/MOL
REMARK 923 INTER-LIGAND FREE ENERGY PREDICTED BY IDOCK:   -7.86 KCAL/MOL
REMARK 924 INTRA-LIGAND FREE ENERGY PREDICTED BY IDOCK:   -0.75 KCAL/MOL
REMARK 927      BINDING AFFINITY PREDICTED BY RF-SCORE:    0.00 PKD
ROOT
HETATM    1  C   UNL     1     -10.747  19.310  67.092  1.00  0.00    -0.584 C  
HETATM    2  C   UNL     1     -10.730  18.627  65.736  1.00  0.00    -0.224 C  
ENDROOT
BRANCH   2   3
HETATM    3  C   UNL     1     -10.367  17.154  65.865  1.00  0.00    -0.294 C  
BRANCH   3   4
HETATM    4  C   UNL     1     -11.144  16.304  64.890  1.00  0.00    -0.290 C  
HETATM    5  O   UNL     1     -11.687  16.708  63.872  1.00  0.00    -1.153 OA 
BRANCH   4   6
HETATM    6  O   UNL     1     -11.090  15.013  65.296  1.00  0.00    -0.349 OA 
BRANCH   6   7
HETATM    7  C   UNL     1     -11.686  14.075  64.412  1.00  0.00    -0.397 C  
BRANCH   7   8
HETATM    8  O   UNL     1     -11.177  12.742  64.445  1.00  0.00    -0.313 OA 
BRANCH   8   9
HETATM    9  C   UNL     1     -11.176  12.109  65.632  1.00  0.00    -0.335 C  
HETATM   10  O   UNL     1     -12.173  11.886  66.298  1.00  0.00    -0.471 OA 
BRANCH   9  11
HETATM   11  C   UNL     1      -9.772  11.879  66.110  1.00  0.00    -0.251 C  
HETATM   12  C   UNL     1      -9.004  10.816  65.753  1.00  0.00    -0.187 C  
HETATM   13  N   UNL     1      -7.669  10.789  66.113  1.00  0.00    -0.151 NA 
HETATM   14  C   UNL     1      -9.404   9.586  64.963  1.00  0.00    -0.294 C  
HETATM   15  C   UNL     1      -7.046  11.674  66.965  1.00  0.00    -0.145 C  
HETATM   16  C   UNL     1      -7.713  12.759  67.419  1.00  0.00    -0.165 C  
HETATM   17  C   UNL     1      -5.622  11.319  67.320  1.00  0.00    -0.064 C  
HETATM   18  C   UNL     1      -9.155  13.043  66.946  1.00  0.00    -0.227 C  
BRANCH  16  19
HETATM   19  C   UNL     1      -7.051  13.638  68.423  1.00  0.00    -0.107 C  
HETATM   20  O   UNL     1      -6.594  14.744  68.175  1.00  0.00    -0.107 OA 
BRANCH  19  21
HETATM   21  O   UNL     1      -6.988  13.044  69.641  1.00  0.00     0.082 OA 
HETATM   22  C   UNL     1      -5.753  13.274  70.327  1.00  0.00    -0.154 C  
ENDBRANCH  19  21
ENDBRANCH  16  19
BRANCH  18  23
HETATM   23  C   UNL     1     -10.054  13.479  68.112  1.00  0.00    -0.250 A  
HETATM   24  C   UNL     1     -10.326  14.850  68.277  1.00  0.00    -0.232 A  
HETATM   25  C   UNL     1     -11.151  15.298  69.303  1.00  0.00    -0.277 A  
HETATM   26  C   UNL     1     -11.735  14.382  70.184  1.00  0.00    -0.361 A  
HETATM   27  C   UNL     1     -11.469  13.016  70.049  1.00  0.00    -0.014 A  
HETATM   28 CL   UNL     1     -12.236  11.953  71.183  1.00  0.00    -0.294 Cl 
HETATM   29  C   UNL     1     -10.632  12.554  69.021  1.00  0.00    -0.045 A  
HETATM   30 CL   UNL     1     -10.326  10.846  68.874  1.00  0.00    -0.207 Cl 
ENDBRANCH  18  23
ENDBRANCH   9  11
ENDBRANCH   8   9
ENDBRANCH   7   8
ENDBRANCH   6   7
ENDBRANCH   4   6
ENDBRANCH   3   4
ENDBRANCH   2   3
TORSDOF 10
ENDMDL
MODEL       84
REMARK 921   NORMALIZED FREE ENERGY PREDICTED BY IDOCK:   -4.54 KCAL/MOL
REMARK 922        TOTAL FREE ENERGY PREDICTED BY IDOCK:   -8.60 KCAL/MOL
REMARK 923 INTER-LIGAND FREE ENERGY PREDICTED BY IDOCK:   -6.69 KCAL/MOL
REMARK 924 INTRA-LIGAND FREE ENERGY PREDICTED BY IDOCK:   -1.91 KCAL/MOL
REMARK 927      BINDING AFFINITY PREDICTED BY RF-SCORE:    0.00 PKD
ROOT
HETATM    1  C   UNL     1      -9.167   2.220  67.283  1.00  0.00    -0.140 C  
HETATM    2  C   UNL     1      -9.320   3.273  68.368  1.00  0.00    -0.241 C  
ENDROOT
BRANCH   2   3
HETATM    3  C   UNL     1      -8.037   4.073  68.545  1.00  0.00    -0.078 C  
BRANCH   3   4
HETATM    4  C   UNL     1      -8.304   5.557  68.538  1.00  0.00    -0.101 C  
HETATM    5  O   UNL     1      -7.676   6.395  69.171  1.00  0.00    -0.097 OA 
BRANCH   4   6
HETATM    6  O   UNL     1      -9.311   5.817  67.670  1.00  0.00    -0.109 OA 
BRANCH   6   7
HETATM    7  C   UNL     1      -8.911   6.385  66.432  1.00  0.00    -0.153 C  
BRANCH   7   8
HETATM    8  O   UNL     1      -9.620   7.545  65.995  1.00  0.00    -0.053 OA 
BRANCH   8   9
HETATM    9  C   UNL     1      -8.890   8.595  65.575  1.00  0.00    -0.179 C  
HETATM   10  O   UNL     1      -7.695   8.556  65.337  1.00  0.00    -0.088 OA 
BRANCH   9  11
HETATM   11  C   UNL     1      -9.703   9.856  65.614  1.00  0.00    -0.346 C  
HETATM   12  C   UNL     1     -10.064  10.572  64.517  1.00  0.00    -0.332 C  
HETATM   13  N   UNL     1     -10.954  11.621  64.651  1.00  0.00    -0.310 NA 
HETATM   14  C   UNL     1      -9.623  10.382  63.079  1.00  0.00    -0.341 C  
HETATM   15  C   UNL     1     -11.410  12.145  65.841  1.00  0.00    -0.356 C  
HETATM   16  C   UNL     1     -11.094  11.542  67.010  1.00  0.00    -0.365 C  
HETATM   17  C   UNL     1     -12.246  13.395  65.706  1.00  0.00    -0.507 C  
HETATM   18  C   UNL     1     -10.271  10.237  67.017  1.00  0.00    -0.282 C  
BRANCH  16  19
HETATM   19  C   UNL     1     -11.509  12.192  68.284  1.00  0.00    -0.305 C  
HETATM   20  O   UNL     1     -11.091  13.272  68.674  1.00  0.00    -0.245 OA 
BRANCH  19  21
HETATM   21  O   UNL     1     -12.385  11.420  68.976  1.00  0.00    -0.407 OA 
HETATM   22  C   UNL     1     -12.216  11.494  70.394  1.00  0.00    -0.355 C  
ENDBRANCH  19  21
ENDBRANCH  16  19
BRANCH  18  23
HETATM   23  C   UNL     1      -9.190  10.260  68.108  1.00  0.00    -0.137 A  
HETATM   24  C   UNL     1      -8.073  11.098  67.932  1.00  0.00    -0.119 A  
HETATM   25  C   UNL     1      -7.076  11.176  68.899  1.00  0.00    -0.101 A  
HETATM   26  C   UNL     1      -7.179  10.424  70.073  1.00  0.00    -0.143 A  
HETATM   27  C   UNL     1      -8.272   9.574  70.266  1.00  0.00    -0.187 A  
HETATM   28 CL   UNL     1      -8.319   8.681  71.750  1.00  0.00    -0.213 Cl 
HETATM   29  C   UNL     1      -9.281   9.484  69.293  1.00  0.00    -0.169 A  
HETATM   30 CL   UNL     1     -10.634   8.422  69.565  1.00  0.00    -0.228 Cl 
ENDBRANCH  18  23
ENDBRANCH   9  11
ENDBRANCH   8   9
ENDBRANCH   7   8
ENDBRANCH   6   7
ENDBRANCH   4   6
ENDBRANCH   3   4
ENDBRANCH   2   3
TORSDOF 10
ENDMDL
MODEL       85
REMARK 921   NORMALIZED FREE ENERGY PREDICTED BY IDOCK:   -4.54 KCAL/MOL
REMARK 922        TOTAL FREE ENERGY PREDICTED BY IDOCK:   -8.60 KCAL/MOL
REMARK 923 INTER-LIGAND FREE ENERGY PREDICTED BY IDOCK:   -7.44 KCAL/MOL
REMARK 924 INTRA-LIGAND FREE ENERGY PREDICTED BY IDOCK:   -1.16 KCAL/MOL
REMARK 927      BINDING AFFINITY PREDICTED BY RF-SCORE:    0.00 PKD
ROOT
HETATM    1  C   UNL     1     -12.992  14.232  65.593  1.00  0.00    -0.210 C  
HETATM    2  C   UNL     1     -11.969  14.584  64.526  1.00  0.00    -0.482 C  
ENDROOT
BRANCH   2   3
HETATM    3  C   UNL     1     -12.251  13.842  63.227  1.00  0.00     0.039 C  
BRANCH   3   4
HETATM    4  C   UNL     1     -12.188  12.347  63.417  1.00  0.00    -0.523 C  
HETATM    5  O   UNL     1     -13.151  11.609  63.570  1.00  0.00    -0.472 OA 
BRANCH   4   6
HETATM    6  O   UNL     1     -10.897  11.948  63.330  1.00  0.00    -0.398 OA 
BRANCH   6   7
HETATM    7  C   UNL     1     -10.189  11.914  64.561  1.00  0.00    -0.282 C  
BRANCH   7   8
HETATM    8  O   UNL     1     -10.560  10.897  65.491  1.00  0.00    -0.243 OA 
BRANCH   8   9
HETATM    9  C   UNL     1     -10.839  11.283  66.750  1.00  0.00    -0.282 C  
HETATM   10  O   UNL     1     -11.936  11.653  67.134  1.00  0.00    -0.614 OA 
BRANCH   9  11
HETATM   11  C   UNL     1      -9.584  11.371  67.569  1.00  0.00    -0.176 C  
HETATM   12  C   UNL     1      -8.958  10.304  68.132  1.00  0.00    -0.130 C  
HETATM   13  N   UNL     1      -7.718  10.474  68.720  1.00  0.00    -0.101 NA 
HETATM   14  C   UNL     1      -9.431   8.866  68.211  1.00  0.00    -0.150 C  
HETATM   15  C   UNL     1      -7.095  11.681  68.953  1.00  0.00    -0.115 C  
HETATM   16  C   UNL     1      -7.634  12.824  68.471  1.00  0.00    -0.120 C  
HETATM   17  C   UNL     1      -5.822  11.594  69.760  1.00  0.00    -0.111 C  
HETATM   18  C   UNL     1      -8.918  12.781  67.614  1.00  0.00    -0.191 C  
BRANCH  16  19
HETATM   19  C   UNL     1      -6.997  14.122  68.831  1.00  0.00    -0.109 C  
HETATM   20  O   UNL     1      -7.293  14.785  69.814  1.00  0.00    -0.155 OA 
BRANCH  19  21
HETATM   21  O   UNL     1      -6.071  14.494  67.912  1.00  0.00    -0.141 OA 
HETATM   22  C   UNL     1      -6.062  15.899  67.645  1.00  0.00    -0.156 C  
ENDBRANCH  19  21
ENDBRANCH  16  19
BRANCH  18  23
HETATM   23  C   UNL     1      -9.900  13.890  68.019  1.00  0.00    -0.234 A  
HETATM   24  C   UNL     1     -10.808  13.636  69.065  1.00  0.00    -0.237 A  
HETATM   25  C   UNL     1     -11.705  14.612  69.487  1.00  0.00    -0.366 A  
HETATM   26  C   UNL     1     -11.707  15.872  68.880  1.00  0.00    -0.376 A  
HETATM   27  C   UNL     1     -10.824  16.143  67.830  1.00  0.00    -0.332 A  
HETATM   28 CL   UNL     1     -10.896  17.730  67.138  1.00  0.00    -0.207 Cl 
HETATM   29  C   UNL     1      -9.920  15.163  67.392  1.00  0.00    -0.226 A  
HETATM   30 CL   UNL     1      -8.827  15.534  66.087  1.00  0.00    -0.342 Cl 
ENDBRANCH  18  23
ENDBRANCH   9  11
ENDBRANCH   8   9
ENDBRANCH   7   8
ENDBRANCH   6   7
ENDBRANCH   4   6
ENDBRANCH   3   4
ENDBRANCH   2   3
TORSDOF 10
ENDMDL
MODEL       86
REMARK 921   NORMALIZED FREE ENERGY PREDICTED BY IDOCK:   -4.54 KCAL/MOL
REMARK 922        TOTAL FREE ENERGY PREDICTED BY IDOCK:   -8.60 KCAL/MOL
REMARK 923 INTER-LIGAND FREE ENERGY PREDICTED BY IDOCK:   -7.57 KCAL/MOL
REMARK 924 INTRA-LIGAND FREE ENERGY PREDICTED BY IDOCK:   -1.03 KCAL/MOL
REMARK 927      BINDING AFFINITY PREDICTED BY RF-SCORE:    0.00 PKD
ROOT
HETATM    1  C   UNL     1     -10.653  19.852  65.590  1.00  0.00    -0.431 C  
HETATM    2  C   UNL     1     -10.718  19.455  67.055  1.00  0.00    -0.582 C  
ENDROOT
BRANCH   2   3
HETATM    3  C   UNL     1     -10.469  17.964  67.234  1.00  0.00    -0.373 C  
BRANCH   3   4
HETATM    4  C   UNL     1      -9.963  17.649  68.620  1.00  0.00    -0.367 C  
HETATM    5  O   UNL     1     -10.658  17.323  69.572  1.00  0.00    -0.264 OA 
BRANCH   4   6
HETATM    6  O   UNL     1      -8.612  17.725  68.620  1.00  0.00    -0.295 OA 
BRANCH   6   7
HETATM    7  C   UNL     1      -7.936  16.500  68.869  1.00  0.00    -0.239 C  
BRANCH   7   8
HETATM    8  O   UNL     1      -8.702  15.303  68.741  1.00  0.00    -0.171 OA 
BRANCH   8   9
HETATM    9  C   UNL     1      -8.377  14.464  67.740  1.00  0.00    -0.169 C  
HETATM   10  O   UNL     1      -8.310  14.783  66.565  1.00  0.00    -0.086 OA 
BRANCH   9  11
HETATM   11  C   UNL     1      -8.289  13.051  68.238  1.00  0.00    -0.158 C  
HETATM   12  C   UNL     1      -7.159  12.481  68.734  1.00  0.00    -0.092 C  
HETATM   13  N   UNL     1      -7.228  11.232  69.322  1.00  0.00    -0.114 NA 
HETATM   14  C   UNL     1      -5.750  13.039  68.752  1.00  0.00    -0.072 C  
HETATM   15  C   UNL     1      -8.325  10.398  69.318  1.00  0.00    -0.155 C  
HETATM   16  C   UNL     1      -9.505  10.836  68.823  1.00  0.00    -0.187 C  
HETATM   17  C   UNL     1      -8.080   9.022  69.889  1.00  0.00    -0.117 C  
HETATM   18  C   UNL     1      -9.646  12.286  68.310  1.00  0.00    -0.212 C  
BRANCH  16  19
HETATM   19  C   UNL     1     -10.642   9.878  68.732  1.00  0.00    -0.222 C  
HETATM   20  O   UNL     1     -11.556   9.816  69.541  1.00  0.00    -0.090 OA 
BRANCH  19  21
HETATM   21  O   UNL     1     -10.520   9.060  67.656  1.00  0.00    -0.245 OA 
HETATM   22  C   UNL     1     -10.510   7.670  67.993  1.00  0.00    -0.189 C  
ENDBRANCH  19  21
ENDBRANCH  16  19
BRANCH  18  23
HETATM   23  C   UNL     1     -10.430  12.340  66.990  1.00  0.00    -0.237 A  
HETATM   24  C   UNL     1     -11.662  13.022  66.967  1.00  0.00    -0.441 A  
HETATM   25  C   UNL     1     -12.403  13.122  65.794  1.00  0.00    -0.496 A  
HETATM   26  C   UNL     1     -11.922  12.551  64.611  1.00  0.00    -0.468 A  
HETATM   27  C   UNL     1     -10.707  11.858  64.612  1.00  0.00    -0.307 A  
HETATM   28 CL   UNL     1     -10.189  11.184  63.102  1.00  0.00    -0.377 Cl 
HETATM   29  C   UNL     1      -9.956  11.745  65.793  1.00  0.00    -0.238 A  
HETATM   30 CL   UNL     1      -8.444  10.882  65.760  1.00  0.00    -0.172 Cl 
ENDBRANCH  18  23
ENDBRANCH   9  11
ENDBRANCH   8   9
ENDBRANCH   7   8
ENDBRANCH   6   7
ENDBRANCH   4   6
ENDBRANCH   3   4
ENDBRANCH   2   3
TORSDOF 10
ENDMDL
MODEL       87
REMARK 921   NORMALIZED FREE ENERGY PREDICTED BY IDOCK:   -4.54 KCAL/MOL
REMARK 922        TOTAL FREE ENERGY PREDICTED BY IDOCK:   -8.59 KCAL/MOL
REMARK 923 INTER-LIGAND FREE ENERGY PREDICTED BY IDOCK:   -6.97 KCAL/MOL
REMARK 924 INTRA-LIGAND FREE ENERGY PREDICTED BY IDOCK:   -1.62 KCAL/MOL
REMARK 927      BINDING AFFINITY PREDICTED BY RF-SCORE:    0.00 PKD
ROOT
HETATM    1  C   UNL     1     -11.134   7.189  71.674  1.00  0.00    -0.264 C  
HETATM    2  C   UNL     1     -10.757   8.661  71.638  1.00  0.00    -0.374 C  
ENDROOT
BRANCH   2   3
HETATM    3  C   UNL     1     -10.861   9.222  70.226  1.00  0.00    -0.286 C  
BRANCH   3   4
HETATM    4  C   UNL     1     -11.360  10.645  70.231  1.00  0.00    -0.319 C  
HETATM    5  O   UNL     1     -12.180  11.107  71.012  1.00  0.00    -0.356 OA 
BRANCH   4   6
HETATM    6  O   UNL     1     -10.708  11.341  69.270  1.00  0.00    -0.219 OA 
BRANCH   6   7
HETATM    7  C   UNL     1      -9.503  10.750  68.807  1.00  0.00    -0.182 C  
BRANCH   7   8
HETATM    8  O   UNL     1      -8.320  11.543  68.891  1.00  0.00    -0.110 OA 
BRANCH   8   9
HETATM    9  C   UNL     1      -7.788  11.987  67.736  1.00  0.00    -0.145 C  
HETATM   10  O   UNL     1      -7.632  11.303  66.739  1.00  0.00    -0.141 OA 
BRANCH   9  11
HETATM   11  C   UNL     1      -7.248  13.377  67.900  1.00  0.00    -0.133 C  
HETATM   12  C   UNL     1      -6.108  13.684  68.574  1.00  0.00    -0.091 C  
HETATM   13  N   UNL     1      -5.611  14.973  68.520  1.00  0.00    -0.093 NA 
HETATM   14  C   UNL     1      -5.238  12.775  69.420  1.00  0.00    -0.075 C  
HETATM   15  C   UNL     1      -6.251  16.062  67.971  1.00  0.00    -0.126 C  
HETATM   16  C   UNL     1      -7.413  15.895  67.299  1.00  0.00    -0.244 C  
HETATM   17  C   UNL     1      -5.559  17.385  68.192  1.00  0.00    -0.133 C  
HETATM   18  C   UNL     1      -8.001  14.482  67.096  1.00  0.00    -0.167 C  
BRANCH  16  19
HETATM   19  C   UNL     1      -8.138  17.102  66.812  1.00  0.00    -0.243 C  
HETATM   20  O   UNL     1      -8.005  17.580  65.695  1.00  0.00    -0.512 OA 
BRANCH  19  21
HETATM   21  O   UNL     1      -8.938  17.626  67.774  1.00  0.00    -0.241 OA 
HETATM   22  C   UNL     1     -10.238  17.991  67.301  1.00  0.00    -0.364 C  
ENDBRANCH  19  21
ENDBRANCH  16  19
BRANCH  18  23
HETATM   23  C   UNL     1      -9.517  14.464  67.338  1.00  0.00    -0.207 A  
HETATM   24  C   UNL     1      -9.994  14.719  68.637  1.00  0.00    -0.232 A  
HETATM   25  C   UNL     1     -11.359  14.737  68.909  1.00  0.00    -0.302 A  
HETATM   26  C   UNL     1     -12.281  14.512  67.882  1.00  0.00    -0.144 A  
HETATM   27  C   UNL     1     -11.831  14.243  66.585  1.00  0.00    -0.421 A  
HETATM   28 CL   UNL     1     -13.043  13.976  65.376  1.00  0.00    -0.377 Cl 
HETATM   29  C   UNL     1     -10.456  14.215  66.303  1.00  0.00    -0.286 A  
HETATM   30 CL   UNL     1      -9.927  13.885  64.677  1.00  0.00    -0.180 Cl 
ENDBRANCH  18  23
ENDBRANCH   9  11
ENDBRANCH   8   9
ENDBRANCH   7   8
ENDBRANCH   6   7
ENDBRANCH   4   6
ENDBRANCH   3   4
ENDBRANCH   2   3
TORSDOF 10
ENDMDL
MODEL       88
REMARK 921   NORMALIZED FREE ENERGY PREDICTED BY IDOCK:   -4.53 KCAL/MOL
REMARK 922        TOTAL FREE ENERGY PREDICTED BY IDOCK:   -8.57 KCAL/MOL
REMARK 923 INTER-LIGAND FREE ENERGY PREDICTED BY IDOCK:   -7.02 KCAL/MOL
REMARK 924 INTRA-LIGAND FREE ENERGY PREDICTED BY IDOCK:   -1.56 KCAL/MOL
REMARK 927      BINDING AFFINITY PREDICTED BY RF-SCORE:    0.00 PKD
ROOT
HETATM    1  C   UNL     1     -14.074  14.906  71.906  1.00  0.00    -0.613 C  
HETATM    2  C   UNL     1     -13.806  13.447  72.236  1.00  0.00    -0.671 C  
ENDROOT
BRANCH   2   3
HETATM    3  C   UNL     1     -12.654  12.897  71.408  1.00  0.00    -0.319 C  
BRANCH   3   4
HETATM    4  C   UNL     1     -12.918  11.480  70.962  1.00  0.00    -0.159 C  
HETATM    5  O   UNL     1     -12.920  11.089  69.804  1.00  0.00    -0.075 OA 
BRANCH   4   6
HETATM    6  O   UNL     1     -13.090  10.703  72.057  1.00  0.00    -0.481 OA 
BRANCH   6   7
HETATM    7  C   UNL     1     -12.348   9.492  72.063  1.00  0.00    -0.329 C  
BRANCH   7   8
HETATM    8  O   UNL     1     -10.951   9.589  71.789  1.00  0.00    -0.333 OA 
BRANCH   8   9
HETATM    9  C   UNL     1     -10.213   8.472  71.927  1.00  0.00    -0.299 C  
HETATM   10  O   UNL     1      -9.499   8.228  72.885  1.00  0.00    -0.262 OA 
BRANCH   9  11
HETATM   11  C   UNL     1     -10.246   7.655  70.668  1.00  0.00    -0.199 C  
HETATM   12  C   UNL     1     -10.666   6.364  70.600  1.00  0.00    -0.257 C  
HETATM   13  N   UNL     1     -10.816   5.761  69.365  1.00  0.00    -0.333 NA 
HETATM   14  C   UNL     1     -11.027   5.429  71.737  1.00  0.00    -0.198 C  
HETATM   15  C   UNL     1     -10.418   6.289  68.156  1.00  0.00    -0.226 C  
HETATM   16  C   UNL     1      -9.950   7.556  68.093  1.00  0.00    -0.198 C  
HETATM   17  C   UNL     1     -10.549   5.351  66.980  1.00  0.00    -0.298 C  
HETATM   18  C   UNL     1      -9.910   8.437  69.360  1.00  0.00    -0.185 C  
BRANCH  16  19
HETATM   19  C   UNL     1      -9.426   8.061  66.793  1.00  0.00    -0.202 C  
HETATM   20  O   UNL     1     -10.021   8.845  66.069  1.00  0.00    -0.270 OA 
BRANCH  19  21
HETATM   21  O   UNL     1      -8.221   7.515  66.496  1.00  0.00    -0.115 OA 
HETATM   22  C   UNL     1      -8.078   7.158  65.118  1.00  0.00    -0.127 C  
ENDBRANCH  19  21
ENDBRANCH  16  19
BRANCH  18  23
HETATM   23  C   UNL     1      -8.592   9.220  69.458  1.00  0.00    -0.147 A  
HETATM   24  C   UNL     1      -7.448   8.555  69.937  1.00  0.00    -0.063 A  
HETATM   25  C   UNL     1      -6.223   9.208  70.025  1.00  0.00    -0.038 A  
HETATM   26  C   UNL     1      -6.111  10.543  69.624  1.00  0.00    -0.056 A  
HETATM   27  C   UNL     1      -7.237  11.230  69.157  1.00  0.00    -0.115 A  
HETATM   28 CL   UNL     1      -7.006  12.880  68.681  1.00  0.00    -0.097 Cl 
HETATM   29  C   UNL     1      -8.479  10.581  69.071  1.00  0.00    -0.157 A  
HETATM   30 CL   UNL     1      -9.860  11.460  68.478  1.00  0.00    -0.195 Cl 
ENDBRANCH  18  23
ENDBRANCH   9  11
ENDBRANCH   8   9
ENDBRANCH   7   8
ENDBRANCH   6   7
ENDBRANCH   4   6
ENDBRANCH   3   4
ENDBRANCH   2   3
TORSDOF 10
ENDMDL
MODEL       89
REMARK 921   NORMALIZED FREE ENERGY PREDICTED BY IDOCK:   -4.51 KCAL/MOL
REMARK 922        TOTAL FREE ENERGY PREDICTED BY IDOCK:   -8.55 KCAL/MOL
REMARK 923 INTER-LIGAND FREE ENERGY PREDICTED BY IDOCK:   -6.64 KCAL/MOL
REMARK 924 INTRA-LIGAND FREE ENERGY PREDICTED BY IDOCK:   -1.91 KCAL/MOL
REMARK 927      BINDING AFFINITY PREDICTED BY RF-SCORE:    0.00 PKD
ROOT
HETATM    1  C   UNL     1     -10.642  18.424  66.535  1.00  0.00    -0.344 C  
HETATM    2  C   UNL     1      -9.980  19.774  66.317  1.00  0.00    -0.581 C  
ENDROOT
BRANCH   2   3
HETATM    3  C   UNL     1      -8.690  19.890  67.115  1.00  0.00    -0.397 C  
BRANCH   3   4
HETATM    4  C   UNL     1      -7.497  20.097  66.214  1.00  0.00    -0.274 C  
HETATM    5  O   UNL     1      -6.695  21.016  66.299  1.00  0.00    -0.228 OA 
BRANCH   4   6
HETATM    6  O   UNL     1      -7.427  19.067  65.339  1.00  0.00    -0.442 OA 
BRANCH   6   7
HETATM    7  C   UNL     1      -6.828  17.882  65.844  1.00  0.00    -0.280 C  
BRANCH   7   8
HETATM    8  O   UNL     1      -7.657  16.723  65.924  1.00  0.00    -0.184 OA 
BRANCH   8   9
HETATM    9  C   UNL     1      -7.400  15.846  66.913  1.00  0.00    -0.172 C  
HETATM   10  O   UNL     1      -6.401  15.149  66.978  1.00  0.00    -0.214 OA 
BRANCH   9  11
HETATM   11  C   UNL     1      -8.586  15.709  67.822  1.00  0.00    -0.168 C  
HETATM   12  C   UNL     1      -8.814  16.491  68.910  1.00  0.00    -0.244 C  
HETATM   13  N   UNL     1     -10.021  16.393  69.579  1.00  0.00    -0.207 NA 
HETATM   14  C   UNL     1      -7.901  17.526  69.538  1.00  0.00     0.492 C  
HETATM   15  C   UNL     1     -10.991  15.441  69.355  1.00  0.00    -0.276 C  
HETATM   16  C   UNL     1     -10.867  14.579  68.320  1.00  0.00    -0.247 C  
HETATM   17  C   UNL     1     -12.138  15.459  70.337  1.00  0.00    -0.408 C  
HETATM   18  C   UNL     1      -9.670  14.689  67.352  1.00  0.00    -0.218 C  
BRANCH  16  19
HETATM   19  C   UNL     1     -11.875  13.492  68.170  1.00  0.00    -0.365 C  
HETATM   20  O   UNL     1     -12.717  13.452  67.285  1.00  0.00     0.120 OA 
BRANCH  19  21
HETATM   21  O   UNL     1     -11.764  12.569  69.158  1.00  0.00    -0.289 OA 
HETATM   22  C   UNL     1     -11.715  11.222  68.679  1.00  0.00    -0.324 C  
ENDBRANCH  19  21
ENDBRANCH  16  19
BRANCH  18  23
HETATM   23  C   UNL     1      -9.083  13.308  67.024  1.00  0.00    -0.232 A  
HETATM   24  C   UNL     1      -8.227  12.701  67.962  1.00  0.00    -0.167 A  
HETATM   25  C   UNL     1      -7.685  11.442  67.727  1.00  0.00    -0.115 A  
HETATM   26  C   UNL     1      -7.997  10.753  66.550  1.00  0.00    -0.144 A  
HETATM   27  C   UNL     1      -8.835  11.341  65.597  1.00  0.00    -0.118 A  
HETATM   28 CL   UNL     1      -9.169  10.416  64.171  1.00  0.00    -0.267 Cl 
HETATM   29  C   UNL     1      -9.381  12.615  65.822  1.00  0.00     0.056 A  
HETATM   30 CL   UNL     1     -10.427  13.318  64.620  1.00  0.00    -0.405 Cl 
ENDBRANCH  18  23
ENDBRANCH   9  11
ENDBRANCH   8   9
ENDBRANCH   7   8
ENDBRANCH   6   7
ENDBRANCH   4   6
ENDBRANCH   3   4
ENDBRANCH   2   3
TORSDOF 10
ENDMDL
MODEL       90
REMARK 921   NORMALIZED FREE ENERGY PREDICTED BY IDOCK:   -4.49 KCAL/MOL
REMARK 922        TOTAL FREE ENERGY PREDICTED BY IDOCK:   -8.52 KCAL/MOL
REMARK 923 INTER-LIGAND FREE ENERGY PREDICTED BY IDOCK:   -7.31 KCAL/MOL
REMARK 924 INTRA-LIGAND FREE ENERGY PREDICTED BY IDOCK:   -1.22 KCAL/MOL
REMARK 927      BINDING AFFINITY PREDICTED BY RF-SCORE:    0.00 PKD
ROOT
HETATM    1  C   UNL     1     -11.377   6.278  70.662  1.00  0.00    -0.409 C  
HETATM    2  C   UNL     1     -12.475   6.872  71.528  1.00  0.00    -0.420 C  
ENDROOT
BRANCH   2   3
HETATM    3  C   UNL     1     -11.996   8.129  72.241  1.00  0.00    -0.434 C  
BRANCH   3   4
HETATM    4  C   UNL     1     -12.680   9.363  71.707  1.00  0.00    -0.390 C  
HETATM    5  O   UNL     1     -13.884   9.577  71.736  1.00  0.00    -0.326 OA 
BRANCH   4   6
HETATM    6  O   UNL     1     -11.738  10.222  71.249  1.00  0.00    -0.354 OA 
BRANCH   6   7
HETATM    7  C   UNL     1     -11.650  10.325  69.836  1.00  0.00    -0.256 C  
BRANCH   7   8
HETATM    8  O   UNL     1     -11.102   9.206  69.139  1.00  0.00    -0.098 OA 
BRANCH   8   9
HETATM    9  C   UNL     1     -10.173   9.457  68.198  1.00  0.00    -0.200 C  
HETATM   10  O   UNL     1     -10.187   8.995  67.070  1.00  0.00    -0.226 OA 
BRANCH   9  11
HETATM   11  C   UNL     1      -9.026  10.232  68.778  1.00  0.00    -0.155 C  
HETATM   12  C   UNL     1      -8.301   9.837  69.858  1.00  0.00    -0.184 C  
HETATM   13  N   UNL     1      -7.160  10.537  70.205  1.00  0.00    -0.251 NA 
HETATM   14  C   UNL     1      -8.557   8.671  70.792  1.00  0.00    -0.197 C  
HETATM   15  C   UNL     1      -6.749  11.733  69.656  1.00  0.00    -0.034 C  
HETATM   16  C   UNL     1      -7.407  12.250  68.594  1.00  0.00    -0.106 C  
HETATM   17  C   UNL     1      -5.557  12.366  70.332  1.00  0.00    -0.162 C  
HETATM   18  C   UNL     1      -8.586  11.483  67.957  1.00  0.00    -0.150 C  
BRANCH  16  19
HETATM   19  C   UNL     1      -7.008  13.595  68.092  1.00  0.00    -0.119 C  
HETATM   20  O   UNL     1      -6.295  13.782  67.118  1.00  0.00    -0.205 OA 
BRANCH  19  21
HETATM   21  O   UNL     1      -7.508  14.587  68.872  1.00  0.00    -0.122 OA 
HETATM   22  C   UNL     1      -7.745  15.807  68.163  1.00  0.00    -0.128 C  
ENDBRANCH  19  21
ENDBRANCH  16  19
BRANCH  18  23
HETATM   23  C   UNL     1      -9.757  12.422  67.632  1.00  0.00    -0.195 A  
HETATM   24  C   UNL     1     -10.312  13.191  68.673  1.00  0.00    -0.207 A  
HETATM   25  C   UNL     1     -11.359  14.074  68.431  1.00  0.00    -0.321 A  
HETATM   26  C   UNL     1     -11.869  14.219  67.136  1.00  0.00    -0.454 A  
HETATM   27  C   UNL     1     -11.343  13.456  66.089  1.00  0.00    -0.303 A  
HETATM   28 CL   UNL     1     -12.035  13.701  64.519  1.00  0.00    -0.428 Cl 
HETATM   29  C   UNL     1     -10.291  12.557  66.324  1.00  0.00    -0.250 A  
HETATM   30 CL   UNL     1      -9.652  11.628  64.997  1.00  0.00    -0.225 Cl 
ENDBRANCH  18  23
ENDBRANCH   9  11
ENDBRANCH   8   9
ENDBRANCH   7   8
ENDBRANCH   6   7
ENDBRANCH   4   6
ENDBRANCH   3   4
ENDBRANCH   2   3
TORSDOF 10
ENDMDL
MODEL       91
REMARK 921   NORMALIZED FREE ENERGY PREDICTED BY IDOCK:   -4.49 KCAL/MOL
REMARK 922        TOTAL FREE ENERGY PREDICTED BY IDOCK:   -8.52 KCAL/MOL
REMARK 923 INTER-LIGAND FREE ENERGY PREDICTED BY IDOCK:   -6.90 KCAL/MOL
REMARK 924 INTRA-LIGAND FREE ENERGY PREDICTED BY IDOCK:   -1.62 KCAL/MOL
REMARK 927      BINDING AFFINITY PREDICTED BY RF-SCORE:    0.00 PKD
ROOT
HETATM    1  C   UNL     1      -6.058  15.742  69.858  1.00  0.00    -0.166 C  
HETATM    2  C   UNL     1      -6.122  16.901  68.877  1.00  0.00    -0.164 C  
ENDROOT
BRANCH   2   3
HETATM    3  C   UNL     1      -7.302  16.753  67.927  1.00  0.00    -0.169 C  
BRANCH   3   4
HETATM    4  C   UNL     1      -8.410  17.719  68.265  1.00  0.00    -0.276 C  
HETATM    5  O   UNL     1      -8.380  18.927  68.079  1.00  0.00    -0.278 OA 
BRANCH   4   6
HETATM    6  O   UNL     1      -9.465  17.022  68.749  1.00  0.00    -0.260 OA 
BRANCH   6   7
HETATM    7  C   UNL     1     -10.191  16.274  67.784  1.00  0.00    -0.270 C  
BRANCH   7   8
HETATM    8  O   UNL     1      -9.977  14.862  67.767  1.00  0.00    -0.220 OA 
BRANCH   8   9
HETATM    9  C   UNL     1     -11.047  14.077  67.540  1.00  0.00    -0.298 C  
HETATM   10  O   UNL     1     -11.866  14.262  66.656  1.00  0.00    -0.390 OA 
BRANCH   9  11
HETATM   11  C   UNL     1     -11.195  13.055  68.629  1.00  0.00    -0.316 C  
HETATM   12  C   UNL     1     -11.862  13.265  69.794  1.00  0.00    -0.325 C  
HETATM   13  N   UNL     1     -12.084  12.204  70.653  1.00  0.00    -0.331 NA 
HETATM   14  C   UNL     1     -12.446  14.559  70.328  1.00  0.00    -0.405 C  
HETATM   15  C   UNL     1     -11.545  10.943  70.532  1.00  0.00    -0.300 C  
HETATM   16  C   UNL     1     -10.831  10.615  69.431  1.00  0.00    -0.289 C  
HETATM   17  C   UNL     1     -11.816  10.021  71.697  1.00  0.00    -0.315 C  
HETATM   18  C   UNL     1     -10.662  11.631  68.280  1.00  0.00    -0.246 C  
BRANCH  16  19
HETATM   19  C   UNL     1     -10.169   9.282  69.378  1.00  0.00    -0.210 C  
HETATM   20  O   UNL     1     -10.643   8.300  68.827  1.00  0.00    -0.202 OA 
BRANCH  19  21
HETATM   21  O   UNL     1      -8.989   9.284  70.047  1.00  0.00    -0.163 OA 
HETATM   22  C   UNL     1      -7.997   8.436  69.461  1.00  0.00    -0.111 C  
ENDBRANCH  19  21
ENDBRANCH  16  19
BRANCH  18  23
HETATM   23  C   UNL     1      -9.218  11.649  67.755  1.00  0.00    -0.178 A  
HETATM   24  C   UNL     1      -8.230  12.291  68.525  1.00  0.00    -0.096 A  
HETATM   25  C   UNL     1      -6.903  12.319  68.109  1.00  0.00    -0.078 A  
HETATM   26  C   UNL     1      -6.531  11.693  66.915  1.00  0.00    -0.134 A  
HETATM   27  C   UNL     1      -7.496  11.061  66.126  1.00  0.00    -0.076 A  
HETATM   28 CL   UNL     1      -6.945  10.312  64.664  1.00  0.00    -0.115 Cl 
HETATM   29  C   UNL     1      -8.840  11.034  66.534  1.00  0.00    -0.169 A  
HETATM   30 CL   UNL     1     -10.018  10.232  65.533  1.00  0.00    -0.351 Cl 
ENDBRANCH  18  23
ENDBRANCH   9  11
ENDBRANCH   8   9
ENDBRANCH   7   8
ENDBRANCH   6   7
ENDBRANCH   4   6
ENDBRANCH   3   4
ENDBRANCH   2   3
TORSDOF 10
ENDMDL
MODEL       92
REMARK 921   NORMALIZED FREE ENERGY PREDICTED BY IDOCK:   -4.47 KCAL/MOL
REMARK 922        TOTAL FREE ENERGY PREDICTED BY IDOCK:   -8.48 KCAL/MOL
REMARK 923 INTER-LIGAND FREE ENERGY PREDICTED BY IDOCK:   -6.54 KCAL/MOL
REMARK 924 INTRA-LIGAND FREE ENERGY PREDICTED BY IDOCK:   -1.94 KCAL/MOL
REMARK 927      BINDING AFFINITY PREDICTED BY RF-SCORE:    0.00 PKD
ROOT
HETATM    1  C   UNL     1     -12.649  11.558  70.957  1.00  0.00    -0.457 C  
HETATM    2  C   UNL     1     -13.063  10.544  72.010  1.00  0.00    -0.511 C  
ENDROOT
BRANCH   2   3
HETATM    3  C   UNL     1     -13.543   9.249  71.370  1.00  0.00    -0.358 C  
BRANCH   3   4
HETATM    4  C   UNL     1     -12.566   8.123  71.599  1.00  0.00    -0.320 C  
HETATM    5  O   UNL     1     -12.707   6.971  71.212  1.00  0.00    -0.377 OA 
BRANCH   4   6
HETATM    6  O   UNL     1     -11.482   8.609  72.249  1.00  0.00    -0.365 OA 
BRANCH   6   7
HETATM    7  C   UNL     1     -10.239   8.398  71.595  1.00  0.00    -0.241 C  
BRANCH   7   8
HETATM    8  O   UNL     1      -9.804   9.413  70.691  1.00  0.00    -0.245 OA 
BRANCH   8   9
HETATM    9  C   UNL     1      -8.511   9.395  70.317  1.00  0.00    -0.212 C  
HETATM   10  O   UNL     1      -7.600   9.899  70.952  1.00  0.00    -0.293 OA 
BRANCH   9  11
HETATM   11  C   UNL     1      -8.367   8.837  68.932  1.00  0.00    -0.127 C  
HETATM   12  C   UNL     1      -7.949   7.574  68.652  1.00  0.00    -0.123 C  
HETATM   13  N   UNL     1      -8.016   7.106  67.352  1.00  0.00    -0.111 NA 
HETATM   14  C   UNL     1      -7.397   6.530  69.603  1.00  0.00    -0.084 C  
HETATM   15  C   UNL     1      -8.318   7.860  66.239  1.00  0.00    -0.126 C  
HETATM   16  C   UNL     1      -8.718   9.144  66.380  1.00  0.00    -0.147 C  
HETATM   17  C   UNL     1      -8.158   7.139  64.922  1.00  0.00    -0.107 C  
HETATM   18  C   UNL     1      -8.891   9.758  67.786  1.00  0.00    -0.129 C  
BRANCH  16  19
HETATM   19  C   UNL     1      -8.932   9.965  65.155  1.00  0.00    -0.198 C  
HETATM   20  O   UNL     1      -8.035  10.489  64.513  1.00  0.00    -0.127 OA 
BRANCH  19  21
HETATM   21  O   UNL     1     -10.251  10.086  64.861  1.00  0.00    -0.261 OA 
HETATM   22  C   UNL     1     -10.596  11.353  64.292  1.00  0.00    -0.355 C  
ENDBRANCH  19  21
ENDBRANCH  16  19
BRANCH  18  23
HETATM   23  C   UNL     1      -8.312  11.178  67.854  1.00  0.00    -0.129 A  
HETATM   24  C   UNL     1      -6.913  11.336  67.846  1.00  0.00    -0.073 A  
HETATM   25  C   UNL     1      -6.334  12.600  67.883  1.00  0.00    -0.111 A  
HETATM   26  C   UNL     1      -7.143  13.740  67.917  1.00  0.00    -0.161 A  
HETATM   27  C   UNL     1      -8.535  13.609  67.940  1.00  0.00    -0.177 A  
HETATM   28 CL   UNL     1      -9.459  15.075  67.981  1.00  0.00    -0.191 Cl 
HETATM   29  C   UNL     1      -9.129  12.337  67.909  1.00  0.00    -0.190 A  
HETATM   30 CL   UNL     1     -10.865  12.207  67.930  1.00  0.00    -0.239 Cl 
ENDBRANCH  18  23
ENDBRANCH   9  11
ENDBRANCH   8   9
ENDBRANCH   7   8
ENDBRANCH   6   7
ENDBRANCH   4   6
ENDBRANCH   3   4
ENDBRANCH   2   3
TORSDOF 10
ENDMDL
MODEL       93
REMARK 921   NORMALIZED FREE ENERGY PREDICTED BY IDOCK:   -4.45 KCAL/MOL
REMARK 922        TOTAL FREE ENERGY PREDICTED BY IDOCK:   -8.45 KCAL/MOL
REMARK 923 INTER-LIGAND FREE ENERGY PREDICTED BY IDOCK:   -6.52 KCAL/MOL
REMARK 924 INTRA-LIGAND FREE ENERGY PREDICTED BY IDOCK:   -1.93 KCAL/MOL
REMARK 927      BINDING AFFINITY PREDICTED BY RF-SCORE:    0.00 PKD
ROOT
HETATM    1  C   UNL     1     -14.290   8.680  72.102  1.00  0.00    -0.518 C  
HETATM    2  C   UNL     1     -13.052   9.554  72.218  1.00  0.00    -0.492 C  
ENDROOT
BRANCH   2   3
HETATM    3  C   UNL     1     -13.361  10.999  71.855  1.00  0.00    -0.423 C  
BRANCH   3   4
HETATM    4  C   UNL     1     -12.398  11.529  70.822  1.00  0.00    -0.375 C  
HETATM    5  O   UNL     1     -12.258  12.706  70.519  1.00  0.00    -0.365 OA 
BRANCH   4   6
HETATM    6  O   UNL     1     -11.671  10.498  70.331  1.00  0.00    -0.289 OA 
BRANCH   6   7
HETATM    7  C   UNL     1     -11.651  10.391  68.915  1.00  0.00    -0.139 C  
BRANCH   7   8
HETATM    8  O   UNL     1     -10.441  10.762  68.256  1.00  0.00    -0.165 OA 
BRANCH   8   9
HETATM    9  C   UNL     1      -9.330  10.066  68.564  1.00  0.00    -0.145 C  
HETATM   10  O   UNL     1      -8.478  10.437  69.353  1.00  0.00    -0.161 OA 
BRANCH   9  11
HETATM   11  C   UNL     1      -9.192   8.866  67.674  1.00  0.00    -0.151 C  
HETATM   12  C   UNL     1      -9.308   8.896  66.320  1.00  0.00    -0.219 C  
HETATM   13  N   UNL     1      -8.994   7.768  65.585  1.00  0.00    -0.070 NA 
HETATM   14  C   UNL     1      -9.744  10.046  65.436  1.00  0.00    -0.368 C  
HETATM   15  C   UNL     1      -8.722   6.519  66.100  1.00  0.00    -0.147 C  
HETATM   16  C   UNL     1      -8.611   6.349  67.437  1.00  0.00    -0.107 C  
HETATM   17  C   UNL     1      -8.574   5.425  65.070  1.00  0.00    -0.142 C  
HETATM   18  C   UNL     1      -8.735   7.557  68.391  1.00  0.00    -0.123 C  
BRANCH  16  19
HETATM   19  C   UNL     1      -8.425   4.970  67.970  1.00  0.00    -0.103 C  
HETATM   20  O   UNL     1      -9.291   4.108  67.965  1.00  0.00    -0.140 OA 
BRANCH  19  21
HETATM   21  O   UNL     1      -7.184   4.801  68.492  1.00  0.00    -0.059 OA 
HETATM   22  C   UNL     1      -7.189   4.218  69.799  1.00  0.00    -0.049 C  
ENDBRANCH  19  21
ENDBRANCH  16  19
BRANCH  18  23
HETATM   23  C   UNL     1      -9.595   7.219  69.617  1.00  0.00    -0.155 A  
HETATM   24  C   UNL     1     -10.924   6.801  69.412  1.00  0.00    -0.321 A  
HETATM   25  C   UNL     1     -11.741   6.460  70.485  1.00  0.00    -0.385 A  
HETATM   26  C   UNL     1     -11.244   6.520  71.791  1.00  0.00    -0.312 A  
HETATM   27  C   UNL     1      -9.932   6.945  72.021  1.00  0.00    -0.166 A  
HETATM   28 CL   UNL     1      -9.400   6.988  73.670  1.00  0.00    -0.203 Cl 
HETATM   29  C   UNL     1      -9.101   7.298  70.945  1.00  0.00    -0.151 A  
HETATM   30 CL   UNL     1      -7.469   7.816  71.263  1.00  0.00    -0.076 Cl 
ENDBRANCH  18  23
ENDBRANCH   9  11
ENDBRANCH   8   9
ENDBRANCH   7   8
ENDBRANCH   6   7
ENDBRANCH   4   6
ENDBRANCH   3   4
ENDBRANCH   2   3
TORSDOF 10
ENDMDL
MODEL       94
REMARK 921   NORMALIZED FREE ENERGY PREDICTED BY IDOCK:   -4.45 KCAL/MOL
REMARK 922        TOTAL FREE ENERGY PREDICTED BY IDOCK:   -8.45 KCAL/MOL
REMARK 923 INTER-LIGAND FREE ENERGY PREDICTED BY IDOCK:   -7.70 KCAL/MOL
REMARK 924 INTRA-LIGAND FREE ENERGY PREDICTED BY IDOCK:   -0.75 KCAL/MOL
REMARK 927      BINDING AFFINITY PREDICTED BY RF-SCORE:    0.00 PKD
ROOT
HETATM    1  C   UNL     1      -5.452   5.828  69.332  1.00  0.00    -0.004 C  
HETATM    2  C   UNL     1      -6.760   5.991  68.577  1.00  0.00    -0.061 C  
ENDROOT
BRANCH   2   3
HETATM    3  C   UNL     1      -7.822   6.646  69.449  1.00  0.00    -0.113 C  
BRANCH   3   4
HETATM    4  C   UNL     1      -8.256   7.977  68.888  1.00  0.00    -0.125 C  
HETATM    5  O   UNL     1      -8.171   8.316  67.716  1.00  0.00    -0.124 OA 
BRANCH   4   6
HETATM    6  O   UNL     1      -8.812   8.710  69.881  1.00  0.00    -0.138 OA 
BRANCH   6   7
HETATM    7  C   UNL     1      -9.434   9.918  69.468  1.00  0.00    -0.223 C  
BRANCH   7   8
HETATM    8  O   UNL     1     -10.834  10.042  69.716  1.00  0.00    -0.236 OA 
BRANCH   8   9
HETATM    9  C   UNL     1     -11.544  10.824  68.881  1.00  0.00    -0.291 C  
HETATM   10  O   UNL     1     -11.937  10.482  67.779  1.00  0.00    -0.226 OA 
BRANCH   9  11
HETATM   11  C   UNL     1     -11.629  12.226  69.411  1.00  0.00    -0.378 C  
HETATM   12  C   UNL     1     -12.217  12.568  70.587  1.00  0.00    -0.276 C  
HETATM   13  N   UNL     1     -12.090  13.860  71.062  1.00  0.00    -0.327 NA 
HETATM   14  C   UNL     1     -13.034  11.698  71.523  1.00  0.00    -0.463 C  
HETATM   15  C   UNL     1     -11.549  14.923  70.372  1.00  0.00    -0.281 C  
HETATM   16  C   UNL     1     -10.960  14.720  69.172  1.00  0.00    -0.277 C  
HETATM   17  C   UNL     1     -11.683  16.261  71.058  1.00  0.00    -0.317 C  
HETATM   18  C   UNL     1     -10.839  13.294  68.593  1.00  0.00    -0.285 C  
BRANCH  16  19
HETATM   19  C   UNL     1     -10.482  15.902  68.401  1.00  0.00    -0.254 C  
HETATM   20  O   UNL     1     -11.187  16.848  68.085  1.00  0.00    -0.297 OA 
BRANCH  19  21
HETATM   21  O   UNL     1      -9.174  15.781  68.062  1.00  0.00    -0.187 OA 
HETATM   22  C   UNL     1      -8.298  16.573  68.869  1.00  0.00    -0.241 C  
ENDBRANCH  19  21
ENDBRANCH  16  19
BRANCH  18  23
HETATM   23  C   UNL     1     -11.179  13.266  67.095  1.00  0.00    -0.327 A  
HETATM   24  C   UNL     1     -12.398  13.828  66.671  1.00  0.00    -0.403 A  
HETATM   25  C   UNL     1     -12.747  13.850  65.325  1.00  0.00    -0.485 A  
HETATM   26  C   UNL     1     -11.877  13.318  64.367  1.00  0.00    -0.448 A  
HETATM   27  C   UNL     1     -10.667  12.742  64.765  1.00  0.00    -0.316 A  
HETATM   28 CL   UNL     1      -9.651  12.109  63.511  1.00  0.00    -0.141 Cl 
HETATM   29  C   UNL     1     -10.309  12.709  66.122  1.00  0.00    -0.256 A  
HETATM   30 CL   UNL     1      -8.791  11.992  66.586  1.00  0.00    -0.201 Cl 
ENDBRANCH  18  23
ENDBRANCH   9  11
ENDBRANCH   8   9
ENDBRANCH   7   8
ENDBRANCH   6   7
ENDBRANCH   4   6
ENDBRANCH   3   4
ENDBRANCH   2   3
TORSDOF 10
ENDMDL
MODEL       95
REMARK 921   NORMALIZED FREE ENERGY PREDICTED BY IDOCK:   -4.44 KCAL/MOL
REMARK 922        TOTAL FREE ENERGY PREDICTED BY IDOCK:   -8.43 KCAL/MOL
REMARK 923 INTER-LIGAND FREE ENERGY PREDICTED BY IDOCK:   -6.84 KCAL/MOL
REMARK 924 INTRA-LIGAND FREE ENERGY PREDICTED BY IDOCK:   -1.60 KCAL/MOL
REMARK 927      BINDING AFFINITY PREDICTED BY RF-SCORE:    0.00 PKD
ROOT
HETATM    1  C   UNL     1      -8.165   5.484  69.901  1.00  0.00    -0.105 C  
HETATM    2  C   UNL     1      -9.541   4.838  69.919  1.00  0.00    -0.251 C  
ENDROOT
BRANCH   2   3
HETATM    3  C   UNL     1     -10.039   4.641  71.344  1.00  0.00    -0.248 C  
BRANCH   3   4
HETATM    4  C   UNL     1     -11.016   5.718  71.744  1.00  0.00    -0.256 C  
HETATM    5  O   UNL     1     -11.320   6.010  72.892  1.00  0.00    -0.256 OA 
BRANCH   4   6
HETATM    6  O   UNL     1     -11.454   6.348  70.628  1.00  0.00    -0.334 OA 
BRANCH   6   7
HETATM    7  C   UNL     1     -12.110   7.587  70.850  1.00  0.00    -0.226 C  
BRANCH   7   8
HETATM    8  O   UNL     1     -11.464   8.759  70.352  1.00  0.00    -0.240 OA 
BRANCH   8   9
HETATM    9  C   UNL     1     -10.588   8.601  69.343  1.00  0.00    -0.199 C  
HETATM   10  O   UNL     1     -10.720   7.803  68.431  1.00  0.00    -0.150 OA 
BRANCH   9  11
HETATM   11  C   UNL     1      -9.346   9.406  69.587  1.00  0.00    -0.199 C  
HETATM   12  C   UNL     1      -8.549   9.276  70.681  1.00  0.00    -0.225 C  
HETATM   13  N   UNL     1      -7.339   9.944  70.726  1.00  0.00    -0.314 NA 
HETATM   14  C   UNL     1      -8.791   8.455  71.932  1.00  0.00    -0.267 C  
HETATM   15  C   UNL     1      -6.907  10.890  69.822  1.00  0.00    -0.134 C  
HETATM   16  C   UNL     1      -7.627  11.137  68.704  1.00  0.00    -0.127 C  
HETATM   17  C   UNL     1      -5.619  11.585  70.196  1.00  0.00    -0.123 C  
HETATM   18  C   UNL     1      -8.906  10.325  68.405  1.00  0.00    -0.129 C  
BRANCH  16  19
HETATM   19  C   UNL     1      -7.193  12.240  67.802  1.00  0.00    -0.114 C  
HETATM   20  O   UNL     1      -6.592  12.073  66.752  1.00  0.00    -0.096 OA 
BRANCH  19  21
HETATM   21  O   UNL     1      -7.517  13.456  68.309  1.00  0.00    -0.109 OA 
HETATM   22  C   UNL     1      -8.034  14.364  67.332  1.00  0.00    -0.201 C  
ENDBRANCH  19  21
ENDBRANCH  16  19
BRANCH  18  23
HETATM   23  C   UNL     1     -10.041  11.230  67.903  1.00  0.00    -0.195 A  
HETATM   24  C   UNL     1     -10.648  12.116  68.812  1.00  0.00    -0.230 A  
HETATM   25  C   UNL     1     -11.665  12.974  68.406  1.00  0.00    -0.386 A  
HETATM   26  C   UNL     1     -12.091  12.974  67.074  1.00  0.00    -0.330 A  
HETATM   27  C   UNL     1     -11.512  12.094  66.155  1.00  0.00    -0.371 A  
HETATM   28 CL   UNL     1     -12.101  12.163  64.526  1.00  0.00    -0.435 Cl 
HETATM   29  C   UNL     1     -10.490  11.219  66.557  1.00  0.00    -0.253 A  
HETATM   30 CL   UNL     1      -9.784  10.140  65.387  1.00  0.00    -0.331 Cl 
ENDBRANCH  18  23
ENDBRANCH   9  11
ENDBRANCH   8   9
ENDBRANCH   7   8
ENDBRANCH   6   7
ENDBRANCH   4   6
ENDBRANCH   3   4
ENDBRANCH   2   3
TORSDOF 10
ENDMDL
MODEL       96
REMARK 921   NORMALIZED FREE ENERGY PREDICTED BY IDOCK:   -4.42 KCAL/MOL
REMARK 922        TOTAL FREE ENERGY PREDICTED BY IDOCK:   -8.40 KCAL/MOL
REMARK 923 INTER-LIGAND FREE ENERGY PREDICTED BY IDOCK:   -6.33 KCAL/MOL
REMARK 924 INTRA-LIGAND FREE ENERGY PREDICTED BY IDOCK:   -2.08 KCAL/MOL
REMARK 927      BINDING AFFINITY PREDICTED BY RF-SCORE:    0.00 PKD
ROOT
HETATM    1  C   UNL     1      -8.889   5.342  65.269  1.00  0.00    -0.132 C  
HETATM    2  C   UNL     1      -7.777   6.372  65.171  1.00  0.00    -0.100 C  
ENDROOT
BRANCH   2   3
HETATM    3  C   UNL     1      -8.339   7.779  65.026  1.00  0.00    -0.094 C  
BRANCH   3   4
HETATM    4  C   UNL     1      -7.885   8.427  63.741  1.00  0.00    -0.151 C  
HETATM    5  O   UNL     1      -7.677   7.845  62.686  1.00  0.00    -0.117 OA 
BRANCH   4   6
HETATM    6  O   UNL     1      -7.806   9.766  63.931  1.00  0.00    -0.131 OA 
BRANCH   6   7
HETATM    7  C   UNL     1      -7.848  10.189  65.286  1.00  0.00    -0.143 C  
BRANCH   7   8
HETATM    8  O   UNL     1      -8.676  11.312  65.587  1.00  0.00    -0.169 OA 
BRANCH   8   9
HETATM    9  C   UNL     1      -9.997  11.088  65.717  1.00  0.00    -0.244 C  
HETATM   10  O   UNL     1     -10.709  10.620  64.845  1.00  0.00    -0.217 OA 
BRANCH   9  11
HETATM   11  C   UNL     1     -10.508  11.660  67.007  1.00  0.00    -0.258 C  
HETATM   12  C   UNL     1     -10.626  12.989  67.265  1.00  0.00    -0.242 C  
HETATM   13  N   UNL     1     -11.266  13.405  68.418  1.00  0.00    -0.262 NA 
HETATM   14  C   UNL     1     -10.145  14.159  66.429  1.00  0.00    -0.299 C  
HETATM   15  C   UNL     1     -11.670  12.592  69.454  1.00  0.00    -0.322 C  
HETATM   16  C   UNL     1     -11.575  11.248  69.335  1.00  0.00    -0.390 C  
HETATM   17  C   UNL     1     -12.194  13.321  70.668  1.00  0.00    -0.417 C  
HETATM   18  C   UNL     1     -11.067  10.615  68.022  1.00  0.00    -0.361 C  
BRANCH  16  19
HETATM   19  C   UNL     1     -11.917  10.400  70.511  1.00  0.00    -0.334 C  
HETATM   20  O   UNL     1     -11.112  10.042  71.359  1.00  0.00    -0.259 OA 
BRANCH  19  21
HETATM   21  O   UNL     1     -13.226  10.044  70.506  1.00  0.00    -0.232 OA 
HETATM   22  C   UNL     1     -13.646   9.390  71.707  1.00  0.00    -0.388 C  
ENDBRANCH  19  21
ENDBRANCH  16  19
BRANCH  18  23
HETATM   23  C   UNL     1     -10.083   9.467  68.296  1.00  0.00    -0.210 A  
HETATM   24  C   UNL     1     -10.518   8.144  68.092  1.00  0.00    -0.225 A  
HETATM   25  C   UNL     1      -9.662   7.068  68.303  1.00  0.00    -0.136 A  
HETATM   26  C   UNL     1      -8.344   7.291  68.713  1.00  0.00    -0.129 A  
HETATM   27  C   UNL     1      -7.892   8.596  68.934  1.00  0.00    -0.104 A  
HETATM   28 CL   UNL     1      -6.244   8.779  69.439  1.00  0.00    -0.040 Cl 
HETATM   29  C   UNL     1      -8.750   9.689  68.731  1.00  0.00    -0.126 A  
HETATM   30 CL   UNL     1      -8.156  11.302  69.008  1.00  0.00    -0.093 Cl 
ENDBRANCH  18  23
ENDBRANCH   9  11
ENDBRANCH   8   9
ENDBRANCH   7   8
ENDBRANCH   6   7
ENDBRANCH   4   6
ENDBRANCH   3   4
ENDBRANCH   2   3
TORSDOF 10
ENDMDL
MODEL       97
REMARK 921   NORMALIZED FREE ENERGY PREDICTED BY IDOCK:   -4.41 KCAL/MOL
REMARK 922        TOTAL FREE ENERGY PREDICTED BY IDOCK:   -8.39 KCAL/MOL
REMARK 923 INTER-LIGAND FREE ENERGY PREDICTED BY IDOCK:   -6.63 KCAL/MOL
REMARK 924 INTRA-LIGAND FREE ENERGY PREDICTED BY IDOCK:   -1.76 KCAL/MOL
REMARK 927      BINDING AFFINITY PREDICTED BY RF-SCORE:    0.00 PKD
ROOT
HETATM    1  C   UNL     1      -9.313   6.449  70.748  1.00  0.00    -0.165 C  
HETATM    2  C   UNL     1      -8.932   7.630  71.625  1.00  0.00    -0.148 C  
ENDROOT
BRANCH   2   3
HETATM    3  C   UNL     1      -9.067   8.944  70.869  1.00  0.00    -0.283 C  
BRANCH   3   4
HETATM    4  C   UNL     1      -7.719   9.559  70.583  1.00  0.00    -0.124 C  
HETATM    5  O   UNL     1      -6.792   9.638  71.375  1.00  0.00    -0.320 OA 
BRANCH   4   6
HETATM    6  O   UNL     1      -7.685   9.952  69.287  1.00  0.00    -0.089 OA 
BRANCH   6   7
HETATM    7  C   UNL     1      -6.632  10.845  68.953  1.00  0.00    -0.056 C  
BRANCH   7   8
HETATM    8  O   UNL     1      -6.929  12.240  68.999  1.00  0.00    -0.103 OA 
BRANCH   8   9
HETATM    9  C   UNL     1      -6.776  12.943  67.862  1.00  0.00    -0.123 C  
HETATM   10  O   UNL     1      -5.831  12.831  67.100  1.00  0.00    -0.323 OA 
BRANCH   9  11
HETATM   11  C   UNL     1      -7.828  14.009  67.751  1.00  0.00    -0.176 C  
HETATM   12  C   UNL     1      -7.743  15.235  68.332  1.00  0.00    -0.124 C  
HETATM   13  N   UNL     1      -8.686  16.199  68.027  1.00  0.00    -0.174 NA 
HETATM   14  C   UNL     1      -6.708  15.744  69.315  1.00  0.00    -0.174 C  
HETATM   15  C   UNL     1      -9.837  15.999  67.297  1.00  0.00    -0.236 C  
HETATM   16  C   UNL     1     -10.056  14.810  66.692  1.00  0.00    -0.269 C  
HETATM   17  C   UNL     1     -10.775  17.182  67.252  1.00  0.00    -0.208 C  
HETATM   18  C   UNL     1      -8.997  13.688  66.769  1.00  0.00    -0.196 C  
BRANCH  16  19
HETATM   19  C   UNL     1     -11.358  14.587  66.003  1.00  0.00    -0.341 C  
HETATM   20  O   UNL     1     -12.411  14.357  66.578  1.00  0.00    -0.411 OA 
BRANCH  19  21
HETATM   21  O   UNL     1     -11.222  14.637  64.653  1.00  0.00    -0.377 OA 
HETATM   22  C   UNL     1     -12.047  13.696  63.960  1.00  0.00    -0.425 C  
ENDBRANCH  19  21
ENDBRANCH  16  19
BRANCH  18  23
HETATM   23  C   UNL     1      -9.645  12.323  67.042  1.00  0.00    -0.208 A  
HETATM   24  C   UNL     1      -9.424  11.278  66.125  1.00  0.00    -0.232 A  
HETATM   25  C   UNL     1      -9.967  10.014  66.333  1.00  0.00    -0.300 A  
HETATM   26  C   UNL     1     -10.737   9.762  67.473  1.00  0.00    -0.327 A  
HETATM   27  C   UNL     1     -10.982  10.788  68.392  1.00  0.00    -0.248 A  
HETATM   28 CL   UNL     1     -11.946  10.386  69.775  1.00  0.00    -0.275 Cl 
HETATM   29  C   UNL     1     -10.444  12.068  68.187  1.00  0.00    -0.202 A  
HETATM   30 CL   UNL     1     -10.761  13.322  69.353  1.00  0.00     0.010 Cl 
ENDBRANCH  18  23
ENDBRANCH   9  11
ENDBRANCH   8   9
ENDBRANCH   7   8
ENDBRANCH   6   7
ENDBRANCH   4   6
ENDBRANCH   3   4
ENDBRANCH   2   3
TORSDOF 10
ENDMDL
MODEL       98
REMARK 921   NORMALIZED FREE ENERGY PREDICTED BY IDOCK:   -4.40 KCAL/MOL
REMARK 922        TOTAL FREE ENERGY PREDICTED BY IDOCK:   -8.38 KCAL/MOL
REMARK 923 INTER-LIGAND FREE ENERGY PREDICTED BY IDOCK:   -7.10 KCAL/MOL
REMARK 924 INTRA-LIGAND FREE ENERGY PREDICTED BY IDOCK:   -1.28 KCAL/MOL
REMARK 927      BINDING AFFINITY PREDICTED BY RF-SCORE:    0.00 PKD
ROOT
HETATM    1  C   UNL     1     -12.262   7.401  71.340  1.00  0.00    -0.374 C  
HETATM    2  C   UNL     1     -11.272   8.089  70.414  1.00  0.00    -0.230 C  
ENDROOT
BRANCH   2   3
HETATM    3  C   UNL     1     -10.680   9.331  71.066  1.00  0.00    -0.387 C  
BRANCH   3   4
HETATM    4  C   UNL     1      -9.288   9.613  70.557  1.00  0.00    -0.166 C  
HETATM    5  O   UNL     1      -8.251   9.397  71.168  1.00  0.00    -0.314 OA 
BRANCH   4   6
HETATM    6  O   UNL     1      -9.373  10.087  69.291  1.00  0.00    -0.188 OA 
BRANCH   6   7
HETATM    7  C   UNL     1      -8.182  10.668  68.781  1.00  0.00    -0.142 C  
BRANCH   7   8
HETATM    8  O   UNL     1      -8.147  12.092  68.685  1.00  0.00    -0.137 OA 
BRANCH   8   9
HETATM    9  C   UNL     1      -7.362  12.629  67.733  1.00  0.00    -0.128 C  
HETATM   10  O   UNL     1      -6.805  11.992  66.855  1.00  0.00    -0.125 OA 
BRANCH   9  11
HETATM   11  C   UNL     1      -7.118  14.085  68.004  1.00  0.00    -0.147 C  
HETATM   12  C   UNL     1      -6.162  14.560  68.846  1.00  0.00    -0.087 C  
HETATM   13  N   UNL     1      -5.911  15.919  68.893  1.00  0.00    -0.110 NA 
HETATM   14  C   UNL     1      -5.267  13.784  69.791  1.00  0.00    -0.086 C  
HETATM   15  C   UNL     1      -6.659  16.899  68.279  1.00  0.00    -0.147 C  
HETATM   16  C   UNL     1      -7.663  16.557  67.440  1.00  0.00    -0.174 C  
HETATM   17  C   UNL     1      -6.263  18.314  68.628  1.00  0.00    -0.208 C  
HETATM   18  C   UNL     1      -7.943  15.072  67.121  1.00  0.00    -0.238 C  
BRANCH  16  19
HETATM   19  C   UNL     1      -8.523  17.635  66.877  1.00  0.00    -0.241 C  
HETATM   20  O   UNL     1      -8.427  18.068  65.738  1.00  0.00    -0.499 OA 
BRANCH  19  21
HETATM   21  O   UNL     1      -9.405  18.101  67.797  1.00  0.00    -0.261 OA 
HETATM   22  C   UNL     1     -10.604  18.630  67.224  1.00  0.00    -0.430 C  
ENDBRANCH  19  21
ENDBRANCH  16  19
BRANCH  18  23
HETATM   23  C   UNL     1      -9.448  14.769  67.137  1.00  0.00    -0.233 A  
HETATM   24  C   UNL     1     -10.062  14.347  65.942  1.00  0.00    -0.344 A  
HETATM   25  C   UNL     1     -11.418  14.037  65.904  1.00  0.00    -0.330 A  
HETATM   26  C   UNL     1     -12.191  14.131  67.066  1.00  0.00    -0.374 A  
HETATM   27  C   UNL     1     -11.606  14.560  68.262  1.00  0.00    -0.329 A  
HETATM   28 CL   UNL     1     -12.638  14.645  69.652  1.00  0.00    -0.193 Cl 
HETATM   29  C   UNL     1     -10.240  14.882  68.309  1.00  0.00    -0.225 A  
HETATM   30 CL   UNL     1      -9.540  15.405  69.815  1.00  0.00    -0.248 Cl 
ENDBRANCH  18  23
ENDBRANCH   9  11
ENDBRANCH   8   9
ENDBRANCH   7   8
ENDBRANCH   6   7
ENDBRANCH   4   6
ENDBRANCH   3   4
ENDBRANCH   2   3
TORSDOF 10
ENDMDL
MODEL       99
REMARK 921   NORMALIZED FREE ENERGY PREDICTED BY IDOCK:   -4.40 KCAL/MOL
REMARK 922        TOTAL FREE ENERGY PREDICTED BY IDOCK:   -8.38 KCAL/MOL
REMARK 923 INTER-LIGAND FREE ENERGY PREDICTED BY IDOCK:   -6.37 KCAL/MOL
REMARK 924 INTRA-LIGAND FREE ENERGY PREDICTED BY IDOCK:   -2.01 KCAL/MOL
REMARK 927      BINDING AFFINITY PREDICTED BY RF-SCORE:    0.00 PKD
ROOT
HETATM    1  C   UNL     1      -9.796   6.500  70.850  1.00  0.00    -0.201 C  
HETATM    2  C   UNL     1      -9.774   7.459  72.029  1.00  0.00    -0.182 C  
ENDROOT
BRANCH   2   3
HETATM    3  C   UNL     1      -9.549   8.892  71.569  1.00  0.00    -0.362 C  
BRANCH   3   4
HETATM    4  C   UNL     1      -8.128   9.112  71.115  1.00  0.00    -0.085 C  
HETATM    5  O   UNL     1      -7.131   8.974  71.809  1.00  0.00    -0.272 OA 
BRANCH   4   6
HETATM    6  O   UNL     1      -8.133   9.425  69.797  1.00  0.00    -0.104 OA 
BRANCH   6   7
HETATM    7  C   UNL     1      -7.015  10.178  69.349  1.00  0.00    -0.076 C  
BRANCH   7   8
HETATM    8  O   UNL     1      -7.244  11.553  69.041  1.00  0.00    -0.109 OA 
BRANCH   8   9
HETATM    9  C   UNL     1      -6.952  11.964  67.793  1.00  0.00    -0.102 C  
HETATM   10  O   UNL     1      -5.946  11.652  67.178  1.00  0.00    -0.095 OA 
BRANCH   9  11
HETATM   11  C   UNL     1      -7.937  12.999  67.332  1.00  0.00    -0.173 C  
HETATM   12  C   UNL     1      -7.775  14.339  67.493  1.00  0.00    -0.191 C  
HETATM   13  N   UNL     1      -8.657  15.210  66.881  1.00  0.00    -0.242 NA 
HETATM   14  C   UNL     1      -6.706  15.072  68.279  1.00  0.00    -0.116 C  
HETATM   15  C   UNL     1      -9.821  14.856  66.235  1.00  0.00    -0.294 C  
HETATM   16  C   UNL     1     -10.115  13.551  66.037  1.00  0.00    -0.316 C  
HETATM   17  C   UNL     1     -10.685  16.016  65.800  1.00  0.00    -0.310 C  
HETATM   18  C   UNL     1      -9.127  12.452  66.484  1.00  0.00    -0.181 C  
BRANCH  16  19
HETATM   19  C   UNL     1     -11.431  13.197  65.433  1.00  0.00    -0.304 C  
HETATM   20  O   UNL     1     -12.507  13.354  65.989  1.00  0.00    -0.420 OA 
BRANCH  19  21
HETATM   21  O   UNL     1     -11.282  12.648  64.202  1.00  0.00    -0.336 OA 
HETATM   22  C   UNL     1     -12.309  13.024  63.280  1.00  0.00    -0.306 C  
ENDBRANCH  19  21
ENDBRANCH  16  19
BRANCH  18  23
HETATM   23  C   UNL     1      -9.856  11.285  67.167  1.00  0.00    -0.213 A  
HETATM   24  C   UNL     1     -10.674  11.562  68.280  1.00  0.00    -0.247 A  
HETATM   25  C   UNL     1     -11.375  10.547  68.923  1.00  0.00    -0.313 A  
HETATM   26  C   UNL     1     -11.284   9.230  68.460  1.00  0.00     0.197 A  
HETATM   27  C   UNL     1     -10.467   8.929  67.366  1.00  0.00    -0.277 A  
HETATM   28 CL   UNL     1     -10.415   7.272  66.860  1.00  0.00    -0.376 Cl 
HETATM   29  C   UNL     1      -9.750   9.945  66.714  1.00  0.00    -0.192 A  
HETATM   30 CL   UNL     1      -8.748   9.539  65.349  1.00  0.00    -0.172 Cl 
ENDBRANCH  18  23
ENDBRANCH   9  11
ENDBRANCH   8   9
ENDBRANCH   7   8
ENDBRANCH   6   7
ENDBRANCH   4   6
ENDBRANCH   3   4
ENDBRANCH   2   3
TORSDOF 10
ENDMDL
MODEL      100
REMARK 921   NORMALIZED FREE ENERGY PREDICTED BY IDOCK:   -4.39 KCAL/MOL
REMARK 922        TOTAL FREE ENERGY PREDICTED BY IDOCK:   -8.37 KCAL/MOL
REMARK 923 INTER-LIGAND FREE ENERGY PREDICTED BY IDOCK:   -6.47 KCAL/MOL
REMARK 924 INTRA-LIGAND FREE ENERGY PREDICTED BY IDOCK:   -1.90 KCAL/MOL
REMARK 927      BINDING AFFINITY PREDICTED BY RF-SCORE:    0.00 PKD
ROOT
HETATM    1  C   UNL     1     -10.307   4.678  73.558  1.00  0.00    -0.242 C  
HETATM    2  C   UNL     1     -11.428   5.491  72.932  1.00  0.00    -0.327 C  
ENDROOT
BRANCH   2   3
HETATM    3  C   UNL     1     -10.890   6.747  72.263  1.00  0.00    -0.263 C  
BRANCH   3   4
HETATM    4  C   UNL     1     -11.650   7.071  71.000  1.00  0.00    -0.320 C  
HETATM    5  O   UNL     1     -11.724   6.354  70.012  1.00  0.00    -0.429 OA 
BRANCH   4   6
HETATM    6  O   UNL     1     -12.286   8.255  71.164  1.00  0.00    -0.289 OA 
BRANCH   6   7
HETATM    7  C   UNL     1     -11.463   9.406  71.051  1.00  0.00    -0.334 C  
BRANCH   7   8
HETATM    8  O   UNL     1     -10.859   9.647  69.780  1.00  0.00    -0.230 OA 
BRANCH   8   9
HETATM    9  C   UNL     1      -9.523   9.509  69.693  1.00  0.00    -0.199 C  
HETATM   10  O   UNL     1      -8.728   9.954  70.503  1.00  0.00    -0.100 OA 
BRANCH   9  11
HETATM   11  C   UNL     1      -9.137   8.897  68.378  1.00  0.00    -0.137 C  
HETATM   12  C   UNL     1      -8.657   7.634  68.230  1.00  0.00    -0.124 C  
HETATM   13  N   UNL     1      -8.494   7.112  66.960  1.00  0.00    -0.120 NA 
HETATM   14  C   UNL     1      -8.258   6.644  69.306  1.00  0.00    -0.124 C  
HETATM   15  C   UNL     1      -8.615   7.812  65.779  1.00  0.00    -0.143 C  
HETATM   16  C   UNL     1      -9.054   9.091  65.792  1.00  0.00    -0.272 C  
HETATM   17  C   UNL     1      -8.222   7.042  64.541  1.00  0.00     0.001 C  
HETATM   18  C   UNL     1      -9.473   9.758  67.120  1.00  0.00    -0.189 C  
BRANCH  16  19
HETATM   19  C   UNL     1      -9.070   9.855  64.514  1.00  0.00    -0.250 C  
HETATM   20  O   UNL     1      -8.072  10.136  63.868  1.00  0.00    -0.152 OA 
BRANCH  19  21
HETATM   21  O   UNL     1     -10.328  10.231  64.173  1.00  0.00    -0.146 OA 
HETATM   22  C   UNL     1     -10.402  11.547  63.619  1.00  0.00    -0.417 C  
ENDBRANCH  19  21
ENDBRANCH  16  19
BRANCH  18  23
HETATM   23  C   UNL     1      -8.937  11.193  67.222  1.00  0.00    -0.147 A  
HETATM   24  C   UNL     1      -7.544  11.390  67.262  1.00  0.00    -0.138 A  
HETATM   25  C   UNL     1      -7.002  12.669  67.331  1.00  0.00    -0.143 A  
HETATM   26  C   UNL     1      -7.844  13.786  67.350  1.00  0.00    -0.167 A  
HETATM   27  C   UNL     1      -9.232  13.616  67.325  1.00  0.00    -0.232 A  
HETATM   28 CL   UNL     1     -10.198  15.054  67.352  1.00  0.00    -0.234 Cl 
HETATM   29  C   UNL     1      -9.788  12.328  67.262  1.00  0.00    -0.205 A  
HETATM   30 CL   UNL     1     -11.520  12.149  67.225  1.00  0.00    -0.396 Cl 
ENDBRANCH  18  23
ENDBRANCH   9  11
ENDBRANCH   8   9
ENDBRANCH   7   8
ENDBRANCH   6   7
ENDBRANCH   4   6
ENDBRANCH   3   4
ENDBRANCH   2   3
TORSDOF 10
ENDMDL
MODEL      101
REMARK 921   NORMALIZED FREE ENERGY PREDICTED BY IDOCK:   -4.39 KCAL/MOL
REMARK 922        TOTAL FREE ENERGY PREDICTED BY IDOCK:   -8.36 KCAL/MOL
REMARK 923 INTER-LIGAND FREE ENERGY PREDICTED BY IDOCK:   -7.22 KCAL/MOL
REMARK 924 INTRA-LIGAND FREE ENERGY PREDICTED BY IDOCK:   -1.13 KCAL/MOL
REMARK 927      BINDING AFFINITY PREDICTED BY RF-SCORE:    0.00 PKD
ROOT
HETATM    1  C   UNL     1      -7.220  19.101  69.051  1.00  0.00    -0.370 C  
HETATM    2  C   UNL     1      -6.559  17.954  68.305  1.00  0.00    -0.199 C  
ENDROOT
BRANCH   2   3
HETATM    3  C   UNL     1      -6.680  16.650  69.080  1.00  0.00    -0.217 C  
BRANCH   3   4
HETATM    4  C   UNL     1      -5.988  15.515  68.367  1.00  0.00    -0.107 C  
HETATM    5  O   UNL     1      -5.217  15.633  67.426  1.00  0.00    -0.310 OA 
BRANCH   4   6
HETATM    6  O   UNL     1      -6.311  14.352  68.979  1.00  0.00    -0.089 OA 
BRANCH   6   7
HETATM    7  C   UNL     1      -6.865  13.355  68.133  1.00  0.00    -0.117 C  
BRANCH   7   8
HETATM    8  O   UNL     1      -6.968  12.036  68.669  1.00  0.00    -0.083 OA 
BRANCH   8   9
HETATM    9  C   UNL     1      -8.169  11.431  68.596  1.00  0.00    -0.142 C  
HETATM   10  O   UNL     1      -8.725  10.884  69.533  1.00  0.00     0.024 OA 
BRANCH   9  11
HETATM   11  C   UNL     1      -8.643  11.361  67.174  1.00  0.00    -0.151 C  
HETATM   12  C   UNL     1      -8.006  10.681  66.185  1.00  0.00    -0.151 C  
HETATM   13  N   UNL     1      -8.618  10.540  64.953  1.00  0.00    -0.179 NA 
HETATM   14  C   UNL     1      -6.652  10.001  66.227  1.00  0.00    -0.085 C  
HETATM   15  C   UNL     1      -9.772  11.174  64.548  1.00  0.00    -0.265 C  
HETATM   16  C   UNL     1     -10.484  11.910  65.432  1.00  0.00    -0.312 C  
HETATM   17  C   UNL     1     -10.132  10.974  63.095  1.00  0.00    -0.350 C  
HETATM   18  C   UNL     1     -10.041  12.001  66.908  1.00  0.00    -0.224 C  
BRANCH  16  19
HETATM   19  C   UNL     1     -11.666  12.672  64.940  1.00  0.00    -0.353 C  
HETATM   20  O   UNL     1     -12.821  12.281  65.024  1.00  0.00    -0.563 OA 
BRANCH  19  21
HETATM   21  O   UNL     1     -11.299  13.839  64.354  1.00  0.00    -0.373 OA 
HETATM   22  C   UNL     1     -12.323  14.837  64.375  1.00  0.00    -0.368 C  
ENDBRANCH  19  21
ENDBRANCH  16  19
BRANCH  18  23
HETATM   23  C   UNL     1     -10.147  13.439  67.438  1.00  0.00    -0.237 A  
HETATM   24  C   UNL     1      -9.504  14.468  66.725  1.00  0.00    -0.284 A  
HETATM   25  C   UNL     1      -9.586  15.791  67.148  1.00  0.00    -0.224 A  
HETATM   26  C   UNL     1     -10.324  16.118  68.290  1.00  0.00    -0.266 A  
HETATM   27  C   UNL     1     -10.960  15.111  69.023  1.00  0.00    -0.244 A  
HETATM   28 CL   UNL     1     -11.852  15.606  70.423  1.00  0.00    -0.356 Cl 
HETATM   29  C   UNL     1     -10.877  13.771  68.608  1.00  0.00    -0.263 A  
HETATM   30 CL   UNL     1     -11.687  12.541  69.538  1.00  0.00    -0.368 Cl 
ENDBRANCH  18  23
ENDBRANCH   9  11
ENDBRANCH   8   9
ENDBRANCH   7   8
ENDBRANCH   6   7
ENDBRANCH   4   6
ENDBRANCH   3   4
ENDBRANCH   2   3
TORSDOF 10
ENDMDL
MODEL      102
REMARK 921   NORMALIZED FREE ENERGY PREDICTED BY IDOCK:   -4.37 KCAL/MOL
REMARK 922        TOTAL FREE ENERGY PREDICTED BY IDOCK:   -8.33 KCAL/MOL
REMARK 923 INTER-LIGAND FREE ENERGY PREDICTED BY IDOCK:   -6.20 KCAL/MOL
REMARK 924 INTRA-LIGAND FREE ENERGY PREDICTED BY IDOCK:   -2.13 KCAL/MOL
REMARK 927      BINDING AFFINITY PREDICTED BY RF-SCORE:    0.00 PKD
ROOT
HETATM    1  C   UNL     1     -13.008  10.949  71.628  1.00  0.00    -0.569 C  
HETATM    2  C   UNL     1     -12.544   9.503  71.597  1.00  0.00    -0.476 C  
ENDROOT
BRANCH   2   3
HETATM    3  C   UNL     1     -11.035   9.411  71.416  1.00  0.00    -0.443 C  
BRANCH   3   4
HETATM    4  C   UNL     1     -10.418   8.439  72.390  1.00  0.00    -0.332 C  
HETATM    5  O   UNL     1      -9.275   8.496  72.822  1.00  0.00    -0.250 OA 
BRANCH   4   6
HETATM    6  O   UNL     1     -11.354   7.532  72.755  1.00  0.00    -0.337 OA 
BRANCH   6   7
HETATM    7  C   UNL     1     -11.098   6.198  72.341  1.00  0.00    -0.275 C  
BRANCH   7   8
HETATM    8  O   UNL     1     -10.160   6.019  71.280  1.00  0.00    -0.184 OA 
BRANCH   8   9
HETATM    9  C   UNL     1     -10.634   6.063  70.021  1.00  0.00    -0.274 C  
HETATM   10  O   UNL     1     -11.783   6.341  69.723  1.00  0.00    -0.403 OA 
BRANCH   9  11
HETATM   11  C   UNL     1      -9.610   5.550  69.051  1.00  0.00    -0.180 C  
HETATM   12  C   UNL     1      -9.188   4.260  68.991  1.00  0.00    -0.145 C  
HETATM   13  N   UNL     1      -8.370   3.858  67.950  1.00  0.00    -0.092 NA 
HETATM   14  C   UNL     1      -9.500   3.119  69.939  1.00  0.00    -0.203 C  
HETATM   15  C   UNL     1      -7.781   4.688  67.021  1.00  0.00    -0.091 C  
HETATM   16  C   UNL     1      -8.094   6.003  66.995  1.00  0.00    -0.106 C  
HETATM   17  C   UNL     1      -6.802   4.010  66.093  1.00  0.00    -0.054 C  
HETATM   18  C   UNL     1      -9.150   6.574  67.967  1.00  0.00    -0.114 C  
BRANCH  16  19
HETATM   19  C   UNL     1      -7.361   6.894  66.053  1.00  0.00    -0.075 C  
HETATM   20  O   UNL     1      -6.262   7.379  66.278  1.00  0.00    -0.039 OA 
BRANCH  19  21
HETATM   21  O   UNL     1      -8.081   7.130  64.927  1.00  0.00    -0.125 OA 
HETATM   22  C   UNL     1      -8.112   8.508  64.545  1.00  0.00    -0.158 C  
ENDBRANCH  19  21
ENDBRANCH  16  19
BRANCH  18  23
HETATM   23  C   UNL     1      -8.695   7.912  68.568  1.00  0.00    -0.131 A  
HETATM   24  C   UNL     1      -7.636   7.908  69.495  1.00  0.00    -0.099 A  
HETATM   25  C   UNL     1      -7.168   9.093  70.054  1.00  0.00    -0.066 A  
HETATM   26  C   UNL     1      -7.743  10.314  69.689  1.00  0.00    -0.166 A  
HETATM   27  C   UNL     1      -8.806  10.343  68.781  1.00  0.00    -0.157 A  
HETATM   28 CL   UNL     1      -9.457  11.900  68.386  1.00  0.00    -0.202 Cl 
HETATM   29  C   UNL     1      -9.290   9.151  68.216  1.00  0.00    -0.135 A  
HETATM   30 CL   UNL     1     -10.609   9.221  67.082  1.00  0.00    -0.316 Cl 
ENDBRANCH  18  23
ENDBRANCH   9  11
ENDBRANCH   8   9
ENDBRANCH   7   8
ENDBRANCH   6   7
ENDBRANCH   4   6
ENDBRANCH   3   4
ENDBRANCH   2   3
TORSDOF 10
ENDMDL
MODEL      103
REMARK 921   NORMALIZED FREE ENERGY PREDICTED BY IDOCK:   -4.36 KCAL/MOL
REMARK 922        TOTAL FREE ENERGY PREDICTED BY IDOCK:   -8.32 KCAL/MOL
REMARK 923 INTER-LIGAND FREE ENERGY PREDICTED BY IDOCK:   -6.77 KCAL/MOL
REMARK 924 INTRA-LIGAND FREE ENERGY PREDICTED BY IDOCK:   -1.55 KCAL/MOL
REMARK 927      BINDING AFFINITY PREDICTED BY RF-SCORE:    0.00 PKD
ROOT
HETATM    1  C   UNL     1      -7.321   5.889  71.169  1.00  0.00    -0.083 C  
HETATM    2  C   UNL     1      -8.265   5.200  70.198  1.00  0.00    -0.086 C  
ENDROOT
BRANCH   2   3
HETATM    3  C   UNL     1      -9.430   4.550  70.930  1.00  0.00    -0.236 C  
BRANCH   3   4
HETATM    4  C   UNL     1     -10.614   5.480  71.026  1.00  0.00    -0.230 C  
HETATM    5  O   UNL     1     -11.206   5.773  72.055  1.00  0.00    -0.265 OA 
BRANCH   4   6
HETATM    6  O   UNL     1     -10.874   5.986  69.797  1.00  0.00    -0.294 OA 
BRANCH   6   7
HETATM    7  C   UNL     1     -11.397   7.306  69.783  1.00  0.00    -0.071 C  
BRANCH   7   8
HETATM    8  O   UNL     1     -10.637   8.295  69.088  1.00  0.00    -0.219 OA 
BRANCH   8   9
HETATM    9  C   UNL     1      -9.980   9.205  69.830  1.00  0.00    -0.197 C  
HETATM   10  O   UNL     1      -9.098   8.940  70.630  1.00  0.00    -0.169 OA 
BRANCH   9  11
HETATM   11  C   UNL     1     -10.601  10.563  69.677  1.00  0.00    -0.281 C  
HETATM   12  C   UNL     1     -11.690  10.992  70.369  1.00  0.00    -0.343 C  
HETATM   13  N   UNL     1     -12.077  12.316  70.277  1.00  0.00    -0.336 NA 
HETATM   14  C   UNL     1     -12.596  10.198  71.290  1.00  0.00    -0.508 C  
HETATM   15  C   UNL     1     -11.560  13.249  69.405  1.00  0.00    -0.305 C  
HETATM   16  C   UNL     1     -10.493  12.935  68.635  1.00  0.00    -0.231 C  
HETATM   17  C   UNL     1     -12.276  14.578  69.398  1.00  0.00    -0.285 C  
HETATM   18  C   UNL     1      -9.814  11.555  68.766  1.00  0.00    -0.153 C  
BRANCH  16  19
HETATM   19  C   UNL     1     -10.025  13.925  67.624  1.00  0.00    -0.237 C  
HETATM   20  O   UNL     1      -9.013  14.599  67.738  1.00  0.00    -0.172 OA 
BRANCH  19  21
HETATM   21  O   UNL     1     -10.882  14.009  66.576  1.00  0.00    -0.296 OA 
HETATM   22  C   UNL     1     -10.343  14.709  65.451  1.00  0.00    -0.383 C  
ENDBRANCH  19  21
ENDBRANCH  16  19
BRANCH  18  23
HETATM   23  C   UNL     1      -9.480  10.960  67.390  1.00  0.00    -0.170 A  
HETATM   24  C   UNL     1     -10.533  10.714  66.490  1.00  0.00    -0.285 A  
HETATM   25  C   UNL     1     -10.286  10.197  65.222  1.00  0.00    -0.261 A  
HETATM   26  C   UNL     1      -8.974   9.925  64.820  1.00  0.00    -0.255 A  
HETATM   27  C   UNL     1      -7.912  10.149  65.702  1.00  0.00    -0.147 A  
HETATM   28 CL   UNL     1      -6.321   9.785  65.120  1.00  0.00    -0.087 Cl 
HETATM   29  C   UNL     1      -8.152  10.664  66.986  1.00  0.00    -0.120 A  
HETATM   30 CL   UNL     1      -6.808  10.939  68.058  1.00  0.00    -0.067 Cl 
ENDBRANCH  18  23
ENDBRANCH   9  11
ENDBRANCH   8   9
ENDBRANCH   7   8
ENDBRANCH   6   7
ENDBRANCH   4   6
ENDBRANCH   3   4
ENDBRANCH   2   3
TORSDOF 10
ENDMDL
MODEL      104
REMARK 921   NORMALIZED FREE ENERGY PREDICTED BY IDOCK:   -4.33 KCAL/MOL
REMARK 922        TOTAL FREE ENERGY PREDICTED BY IDOCK:   -8.27 KCAL/MOL
REMARK 923 INTER-LIGAND FREE ENERGY PREDICTED BY IDOCK:   -6.34 KCAL/MOL
REMARK 924 INTRA-LIGAND FREE ENERGY PREDICTED BY IDOCK:   -1.93 KCAL/MOL
REMARK 927      BINDING AFFINITY PREDICTED BY RF-SCORE:    0.00 PKD
ROOT
HETATM    1  C   UNL     1     -12.783  11.076  71.225  1.00  0.00    -0.537 C  
HETATM    2  C   UNL     1     -13.382  10.068  72.191  1.00  0.00    -0.469 C  
ENDROOT
BRANCH   2   3
HETATM    3  C   UNL     1     -13.570   8.712  71.526  1.00  0.00    -0.356 C  
BRANCH   3   4
HETATM    4  C   UNL     1     -12.416   7.786  71.818  1.00  0.00    -0.320 C  
HETATM    5  O   UNL     1     -12.075   6.836  71.128  1.00  0.00    -0.353 OA 
BRANCH   4   6
HETATM    6  O   UNL     1     -11.782   8.216  72.935  1.00  0.00    -0.373 OA 
BRANCH   6   7
HETATM    7  C   UNL     1     -10.367   8.109  72.908  1.00  0.00    -0.263 C  
BRANCH   7   8
HETATM    8  O   UNL     1      -9.677   8.901  71.942  1.00  0.00    -0.307 OA 
BRANCH   8   9
HETATM    9  C   UNL     1      -8.474   8.463  71.527  1.00  0.00    -0.157 C  
HETATM   10  O   UNL     1      -7.438   9.101  71.612  1.00  0.00    -0.326 OA 
BRANCH   9  11
HETATM   11  C   UNL     1      -8.609   7.166  70.784  1.00  0.00    -0.146 C  
HETATM   12  C   UNL     1      -8.340   5.945  71.316  1.00  0.00    -0.124 C  
HETATM   13  N   UNL     1      -8.660   4.805  70.601  1.00  0.00    -0.099 NA 
HETATM   14  C   UNL     1      -7.716   5.616  72.658  1.00  0.00    -0.102 C  
HETATM   15  C   UNL     1      -9.088   4.768  69.292  1.00  0.00    -0.105 C  
HETATM   16  C   UNL     1      -9.361   5.920  68.637  1.00  0.00    -0.126 C  
HETATM   17  C   UNL     1      -9.208   3.384  68.701  1.00  0.00    -0.229 C  
HETATM   18  C   UNL     1      -9.247   7.277  69.365  1.00  0.00    -0.148 C  
BRANCH  16  19
HETATM   19  C   UNL     1      -9.716   5.854  67.192  1.00  0.00    -0.132 C  
HETATM   20  O   UNL     1     -10.835   6.064  66.748  1.00  0.00    -0.315 OA 
BRANCH  19  21
HETATM   21  O   UNL     1      -8.650   5.497  66.432  1.00  0.00    -0.117 OA 
HETATM   22  C   UNL     1      -9.002   5.092  65.106  1.00  0.00    -0.126 C  
ENDBRANCH  19  21
ENDBRANCH  16  19
BRANCH  18  23
HETATM   23  C   UNL     1      -8.559   8.330  68.484  1.00  0.00    -0.133 A  
HETATM   24  C   UNL     1      -7.210   8.136  68.133  1.00  0.00    -0.094 A  
HETATM   25  C   UNL     1      -6.543   9.047  67.319  1.00  0.00    -0.061 A  
HETATM   26  C   UNL     1      -7.216  10.170  66.827  1.00  0.00    -0.093 A  
HETATM   27  C   UNL     1      -8.553  10.391  67.172  1.00  0.00    -0.130 A  
HETATM   28 CL   UNL     1      -9.307  11.807  66.516  1.00  0.00    -0.209 Cl 
HETATM   29  C   UNL     1      -9.232   9.481  67.999  1.00  0.00    -0.129 A  
HETATM   30 CL   UNL     1     -10.899   9.781  68.405  1.00  0.00    -0.264 Cl 
ENDBRANCH  18  23
ENDBRANCH   9  11
ENDBRANCH   8   9
ENDBRANCH   7   8
ENDBRANCH   6   7
ENDBRANCH   4   6
ENDBRANCH   3   4
ENDBRANCH   2   3
TORSDOF 10
ENDMDL
MODEL      105
REMARK 921   NORMALIZED FREE ENERGY PREDICTED BY IDOCK:   -4.33 KCAL/MOL
REMARK 922        TOTAL FREE ENERGY PREDICTED BY IDOCK:   -8.27 KCAL/MOL
REMARK 923 INTER-LIGAND FREE ENERGY PREDICTED BY IDOCK:   -7.05 KCAL/MOL
REMARK 924 INTRA-LIGAND FREE ENERGY PREDICTED BY IDOCK:   -1.22 KCAL/MOL
REMARK 927      BINDING AFFINITY PREDICTED BY RF-SCORE:    0.00 PKD
ROOT
HETATM    1  C   UNL     1      -8.247   5.853  64.540  1.00  0.00    -0.110 C  
HETATM    2  C   UNL     1      -9.146   5.341  65.653  1.00  0.00    -0.158 C  
ENDROOT
BRANCH   2   3
HETATM    3  C   UNL     1      -8.673   5.833  67.014  1.00  0.00    -0.109 C  
BRANCH   3   4
HETATM    4  C   UNL     1      -8.884   7.319  67.170  1.00  0.00    -0.125 C  
HETATM    5  O   UNL     1      -8.033   8.179  66.992  1.00  0.00    -0.102 OA 
BRANCH   4   6
HETATM    6  O   UNL     1     -10.182   7.547  67.478  1.00  0.00    -0.183 OA 
BRANCH   6   7
HETATM    7  C   UNL     1     -10.714   8.772  66.994  1.00  0.00    -0.116 C  
BRANCH   7   8
HETATM    8  O   UNL     1     -11.226   9.682  67.966  1.00  0.00    -0.129 OA 
BRANCH   8   9
HETATM    9  C   UNL     1     -10.333  10.361  68.710  1.00  0.00    -0.196 C  
HETATM   10  O   UNL     1      -9.493   9.842  69.427  1.00  0.00    -0.187 OA 
BRANCH   9  11
HETATM   11  C   UNL     1     -10.626  11.832  68.681  1.00  0.00    -0.250 C  
HETATM   12  C   UNL     1     -11.439  12.471  69.564  1.00  0.00    -0.230 C  
HETATM   13  N   UNL     1     -11.506  13.852  69.552  1.00  0.00    -0.275 NA 
HETATM   14  C   UNL     1     -12.330  11.869  70.632  1.00  0.00    -0.405 C  
HETATM   15  C   UNL     1     -10.944  14.678  68.604  1.00  0.00    -0.256 C  
HETATM   16  C   UNL     1     -10.138  14.161  67.648  1.00  0.00    -0.236 C  
HETATM   17  C   UNL     1     -11.308  16.138  68.736  1.00  0.00    -0.359 C  
HETATM   18  C   UNL     1      -9.798  12.655  67.645  1.00  0.00    -0.210 C  
BRANCH  16  19
HETATM   19  C   UNL     1      -9.634  15.061  66.574  1.00  0.00    -0.277 C  
HETATM   20  O   UNL     1     -10.328  15.524  65.681  1.00  0.00    -0.328 OA 
BRANCH  19  21
HETATM   21  O   UNL     1      -8.299  15.276  66.689  1.00  0.00    -0.256 OA 
HETATM   22  C   UNL     1      -7.928  16.652  66.565  1.00  0.00    -0.307 C  
ENDBRANCH  19  21
ENDBRANCH  16  19
BRANCH  18  23
HETATM   23  C   UNL     1      -9.867  12.067  66.228  1.00  0.00    -0.250 A  
HETATM   24  C   UNL     1      -8.740  11.392  65.724  1.00  0.00    -0.062 A  
HETATM   25  C   UNL     1      -8.754  10.821  64.456  1.00  0.00    -0.097 A  
HETATM   26  C   UNL     1      -9.905  10.901  63.665  1.00  0.00    -0.403 A  
HETATM   27  C   UNL     1     -11.033  11.577  64.138  1.00  0.00    -0.366 A  
HETATM   28 CL   UNL     1     -12.414  11.626  63.092  1.00  0.00    -0.390 Cl 
HETATM   29  C   UNL     1     -11.026  12.163  65.414  1.00  0.00    -0.302 A  
HETATM   30 CL   UNL     1     -12.449  12.993  65.979  1.00  0.00    -0.374 Cl 
ENDBRANCH  18  23
ENDBRANCH   9  11
ENDBRANCH   8   9
ENDBRANCH   7   8
ENDBRANCH   6   7
ENDBRANCH   4   6
ENDBRANCH   3   4
ENDBRANCH   2   3
TORSDOF 10
ENDMDL
MODEL      106
REMARK 921   NORMALIZED FREE ENERGY PREDICTED BY IDOCK:   -4.33 KCAL/MOL
REMARK 922        TOTAL FREE ENERGY PREDICTED BY IDOCK:   -8.26 KCAL/MOL
REMARK 923 INTER-LIGAND FREE ENERGY PREDICTED BY IDOCK:   -6.51 KCAL/MOL
REMARK 924 INTRA-LIGAND FREE ENERGY PREDICTED BY IDOCK:   -1.75 KCAL/MOL
REMARK 927      BINDING AFFINITY PREDICTED BY RF-SCORE:    0.00 PKD
ROOT
HETATM    1  C   UNL     1      -7.565   5.511  67.308  1.00  0.00    -0.089 C  
HETATM    2  C   UNL     1      -7.819   7.006  67.205  1.00  0.00    -0.109 C  
ENDROOT
BRANCH   2   3
HETATM    3  C   UNL     1      -6.544   7.758  66.852  1.00  0.00    -0.059 C  
BRANCH   3   4
HETATM    4  C   UNL     1      -6.012   8.532  68.033  1.00  0.00    -0.046 C  
HETATM    5  O   UNL     1      -5.510   8.043  69.035  1.00  0.00    -0.028 OA 
BRANCH   4   6
HETATM    6  O   UNL     1      -6.126   9.856  67.775  1.00  0.00    -0.053 OA 
BRANCH   6   7
HETATM    7  C   UNL     1      -7.173  10.521  68.467  1.00  0.00    -0.085 C  
BRANCH   7   8
HETATM    8  O   UNL     1      -8.101  11.263  67.676  1.00  0.00    -0.113 OA 
BRANCH   8   9
HETATM    9  C   UNL     1      -9.276  10.674  67.385  1.00  0.00    -0.143 C  
HETATM   10  O   UNL     1      -9.537  10.140  66.321  1.00  0.00    -0.174 OA 
BRANCH   9  11
HETATM   11  C   UNL     1     -10.278  10.922  68.475  1.00  0.00    -0.197 C  
HETATM   12  C   UNL     1     -10.827   9.949  69.249  1.00  0.00    -0.227 C  
HETATM   13  N   UNL     1     -11.609  10.303  70.334  1.00  0.00    -0.304 NA 
HETATM   14  C   UNL     1     -10.701   8.446  69.107  1.00  0.00    -0.123 C  
HETATM   15  C   UNL     1     -12.043  11.575  70.635  1.00  0.00    -0.353 C  
HETATM   16  C   UNL     1     -11.594  12.630  69.917  1.00  0.00    -0.248 C  
HETATM   17  C   UNL     1     -13.021  11.659  71.782  1.00  0.00    -0.483 C  
HETATM   18  C   UNL     1     -10.553  12.424  68.795  1.00  0.00    -0.213 C  
BRANCH  16  19
HETATM   19  C   UNL     1     -12.163  13.978  70.194  1.00  0.00    -0.359 C  
HETATM   20  O   UNL     1     -13.122  14.454  69.606  1.00  0.00     0.256 OA 
BRANCH  19  21
HETATM   21  O   UNL     1     -11.463  14.627  71.159  1.00  0.00    -0.265 OA 
HETATM   22  C   UNL     1     -11.680  16.041  71.171  1.00  0.00    -0.439 C  
ENDBRANCH  19  21
ENDBRANCH  16  19
BRANCH  18  23
HETATM   23  C   UNL     1     -10.907  13.243  67.545  1.00  0.00    -0.276 A  
HETATM   24  C   UNL     1     -11.858  12.723  66.646  1.00  0.00    -0.462 A  
HETATM   25  C   UNL     1     -12.233  13.433  65.510  1.00  0.00    -0.499 A  
HETATM   26  C   UNL     1     -11.671  14.687  65.250  1.00  0.00    -0.346 A  
HETATM   27  C   UNL     1     -10.714  15.219  66.120  1.00  0.00    -0.320 A  
HETATM   28 CL   UNL     1     -10.073  16.778  65.721  1.00  0.00    -0.311 Cl 
HETATM   29  C   UNL     1     -10.325  14.507  67.267  1.00  0.00    -0.260 A  
HETATM   30 CL   UNL     1      -9.136  15.199  68.335  1.00  0.00    -0.179 Cl 
ENDBRANCH  18  23
ENDBRANCH   9  11
ENDBRANCH   8   9
ENDBRANCH   7   8
ENDBRANCH   6   7
ENDBRANCH   4   6
ENDBRANCH   3   4
ENDBRANCH   2   3
TORSDOF 10
ENDMDL
MODEL      107
REMARK 921   NORMALIZED FREE ENERGY PREDICTED BY IDOCK:   -4.33 KCAL/MOL
REMARK 922        TOTAL FREE ENERGY PREDICTED BY IDOCK:   -8.26 KCAL/MOL
REMARK 923 INTER-LIGAND FREE ENERGY PREDICTED BY IDOCK:   -6.29 KCAL/MOL
REMARK 924 INTRA-LIGAND FREE ENERGY PREDICTED BY IDOCK:   -1.97 KCAL/MOL
REMARK 927      BINDING AFFINITY PREDICTED BY RF-SCORE:    0.00 PKD
ROOT
HETATM    1  C   UNL     1      -7.787   6.396  63.177  1.00  0.00    -0.102 C  
HETATM    2  C   UNL     1      -7.815   5.033  63.848  1.00  0.00    -0.088 C  
ENDROOT
BRANCH   2   3
HETATM    3  C   UNL     1      -9.042   4.880  64.735  1.00  0.00    -0.098 C  
BRANCH   3   4
HETATM    4  C   UNL     1      -8.805   5.449  66.112  1.00  0.00    -0.139 C  
HETATM    5  O   UNL     1      -7.851   5.191  66.832  1.00  0.00    -0.098 OA 
BRANCH   4   6
HETATM    6  O   UNL     1      -9.788   6.337  66.393  1.00  0.00    -0.151 OA 
BRANCH   6   7
HETATM    7  C   UNL     1      -9.372   7.692  66.483  1.00  0.00    -0.189 C  
BRANCH   7   8
HETATM    8  O   UNL     1     -10.336   8.634  66.951  1.00  0.00    -0.280 OA 
BRANCH   8   9
HETATM    9  C   UNL     1      -9.917   9.567  67.826  1.00  0.00    -0.174 C  
HETATM   10  O   UNL     1      -8.865  10.177  67.735  1.00  0.00    -0.125 OA 
BRANCH   9  11
HETATM   11  C   UNL     1     -10.826   9.623  69.019  1.00  0.00    -0.206 C  
HETATM   12  C   UNL     1     -11.646  10.666  69.311  1.00  0.00    -0.275 C  
HETATM   13  N   UNL     1     -12.565  10.543  70.337  1.00  0.00    -0.318 NA 
HETATM   14  C   UNL     1     -11.722  12.023  68.641  1.00  0.00    -0.380 C  
HETATM   15  C   UNL     1     -12.635   9.501  71.236  1.00  0.00    -0.339 C  
HETATM   16  C   UNL     1     -11.847   8.414  71.074  1.00  0.00    -0.278 C  
HETATM   17  C   UNL     1     -13.626   9.696  72.359  1.00  0.00    -0.397 C  
HETATM   18  C   UNL     1     -10.905   8.308  69.855  1.00  0.00    -0.213 C  
BRANCH  16  19
HETATM   19  C   UNL     1     -11.867   7.354  72.120  1.00  0.00    -0.286 C  
HETATM   20  O   UNL     1     -12.475   6.299  72.019  1.00  0.00    -0.306 OA 
BRANCH  19  21
HETATM   21  O   UNL     1     -11.154   7.720  73.215  1.00  0.00    -0.373 OA 
HETATM   22  C   UNL     1     -10.302   6.685  73.715  1.00  0.00    -0.349 C  
ENDBRANCH  19  21
ENDBRANCH  16  19
BRANCH  18  23
HETATM   23  C   UNL     1      -9.522   7.776  70.260  1.00  0.00    -0.160 A  
HETATM   24  C   UNL     1      -8.586   8.678  70.800  1.00  0.00    -0.197 A  
HETATM   25  C   UNL     1      -7.326   8.247  71.204  1.00  0.00    -0.070 A  
HETATM   26  C   UNL     1      -6.977   6.898  71.087  1.00  0.00    -0.069 A  
HETATM   27  C   UNL     1      -7.885   5.985  70.541  1.00  0.00    -0.102 A  
HETATM   28 CL   UNL     1      -7.368   4.335  70.436  1.00  0.00    -0.045 Cl 
HETATM   29  C   UNL     1      -9.156   6.412  70.124  1.00  0.00    -0.154 A  
HETATM   30 CL   UNL     1     -10.267   5.250  69.456  1.00  0.00    -0.324 Cl 
ENDBRANCH  18  23
ENDBRANCH   9  11
ENDBRANCH   8   9
ENDBRANCH   7   8
ENDBRANCH   6   7
ENDBRANCH   4   6
ENDBRANCH   3   4
ENDBRANCH   2   3
TORSDOF 10
ENDMDL
MODEL      108
REMARK 921   NORMALIZED FREE ENERGY PREDICTED BY IDOCK:   -4.32 KCAL/MOL
REMARK 922        TOTAL FREE ENERGY PREDICTED BY IDOCK:   -8.24 KCAL/MOL
REMARK 923 INTER-LIGAND FREE ENERGY PREDICTED BY IDOCK:   -6.60 KCAL/MOL
REMARK 924 INTRA-LIGAND FREE ENERGY PREDICTED BY IDOCK:   -1.64 KCAL/MOL
REMARK 927      BINDING AFFINITY PREDICTED BY RF-SCORE:    0.00 PKD
ROOT
HETATM    1  C   UNL     1      -9.961   7.122  68.107  1.00  0.00    -0.172 C  
HETATM    2  C   UNL     1      -9.305   7.866  66.956  1.00  0.00    -0.200 C  
ENDROOT
BRANCH   2   3
HETATM    3  C   UNL     1     -10.263   8.870  66.331  1.00  0.00    -0.273 C  
BRANCH   3   4
HETATM    4  C   UNL     1      -9.640  10.239  66.223  1.00  0.00    -0.189 C  
HETATM    5  O   UNL     1      -9.866  11.055  65.341  1.00  0.00    -0.223 OA 
BRANCH   4   6
HETATM    6  O   UNL     1      -8.837  10.440  67.295  1.00  0.00    -0.132 OA 
BRANCH   6   7
HETATM    7  C   UNL     1      -9.058  11.654  67.998  1.00  0.00    -0.177 C  
BRANCH   7   8
HETATM    8  O   UNL     1      -7.909  12.301  68.545  1.00  0.00    -0.131 OA 
BRANCH   8   9
HETATM    9  C   UNL     1      -7.131  13.000  67.698  1.00  0.00    -0.156 C  
HETATM   10  O   UNL     1      -6.499  12.512  66.776  1.00  0.00    -0.074 OA 
BRANCH   9  11
HETATM   11  C   UNL     1      -7.000  14.425  68.151  1.00  0.00    -0.126 C  
HETATM   12  C   UNL     1      -6.141  14.849  69.115  1.00  0.00    -0.103 C  
HETATM   13  N   UNL     1      -5.979  16.205  69.335  1.00  0.00    -0.142 NA 
HETATM   14  C   UNL     1      -5.272  14.017  70.038  1.00  0.00    -0.091 C  
HETATM   15  C   UNL     1      -6.739  17.209  68.776  1.00  0.00    -0.200 C  
HETATM   16  C   UNL     1      -7.654  16.914  67.824  1.00  0.00    -0.180 C  
HETATM   17  C   UNL     1      -6.460  18.592  69.313  1.00  0.00    -0.272 C  
HETATM   18  C   UNL     1      -7.815  15.464  67.320  1.00  0.00    -0.237 C  
BRANCH  16  19
HETATM   19  C   UNL     1      -8.535  18.003  67.318  1.00  0.00    -0.234 C  
HETATM   20  O   UNL     1      -9.447  18.504  67.958  1.00  0.00    -0.286 OA 
BRANCH  19  21
HETATM   21  O   UNL     1      -8.222  18.346  66.043  1.00  0.00    -0.473 OA 
HETATM   22  C   UNL     1      -7.893  19.729  65.887  1.00  0.00    -0.301 C  
ENDBRANCH  19  21
ENDBRANCH  16  19
BRANCH  18  23
HETATM   23  C   UNL     1      -9.296  15.080  67.178  1.00  0.00    -0.225 A  
HETATM   24  C   UNL     1      -9.789  14.763  65.898  1.00  0.00    -0.363 A  
HETATM   25  C   UNL     1     -11.116  14.387  65.715  1.00  0.00    -0.316 A  
HETATM   26  C   UNL     1     -11.980  14.308  66.812  1.00  0.00    -0.462 A  
HETATM   27  C   UNL     1     -11.516  14.631  68.091  1.00  0.00    -0.323 A  
HETATM   28 CL   UNL     1     -12.655  14.504  69.391  1.00  0.00    -0.104 Cl 
HETATM   29  C   UNL     1     -10.181  15.018  68.285  1.00  0.00    -0.222 A  
HETATM   30 CL   UNL     1      -9.632  15.407  69.892  1.00  0.00    -0.212 Cl 
ENDBRANCH  18  23
ENDBRANCH   9  11
ENDBRANCH   8   9
ENDBRANCH   7   8
ENDBRANCH   6   7
ENDBRANCH   4   6
ENDBRANCH   3   4
ENDBRANCH   2   3
TORSDOF 10
ENDMDL
MODEL      109
REMARK 921   NORMALIZED FREE ENERGY PREDICTED BY IDOCK:   -4.31 KCAL/MOL
REMARK 922        TOTAL FREE ENERGY PREDICTED BY IDOCK:   -8.23 KCAL/MOL
REMARK 923 INTER-LIGAND FREE ENERGY PREDICTED BY IDOCK:   -5.86 KCAL/MOL
REMARK 924 INTRA-LIGAND FREE ENERGY PREDICTED BY IDOCK:   -2.38 KCAL/MOL
REMARK 927      BINDING AFFINITY PREDICTED BY RF-SCORE:    0.00 PKD
ROOT
HETATM    1  C   UNL     1     -14.200   8.062  71.671  1.00  0.00    -0.549 C  
HETATM    2  C   UNL     1     -13.251   7.091  70.988  1.00  0.00    -0.124 C  
ENDROOT
BRANCH   2   3
HETATM    3  C   UNL     1     -12.160   6.624  71.942  1.00  0.00    -0.385 C  
BRANCH   3   4
HETATM    4  C   UNL     1     -10.981   6.050  71.196  1.00  0.00    -0.278 C  
HETATM    5  O   UNL     1     -10.024   5.487  71.708  1.00  0.00    -0.170 OA 
BRANCH   4   6
HETATM    6  O   UNL     1     -11.185   6.207  69.867  1.00  0.00    -0.375 OA 
BRANCH   6   7
HETATM    7  C   UNL     1     -10.541   5.250  69.039  1.00  0.00    -0.079 C  
BRANCH   7   8
HETATM    8  O   UNL     1      -9.653   5.752  68.041  1.00  0.00    -0.115 OA 
BRANCH   8   9
HETATM    9  C   UNL     1     -10.200   6.382  66.985  1.00  0.00    -0.205 C  
HETATM   10  O   UNL     1     -11.279   6.098  66.492  1.00  0.00    -0.147 OA 
BRANCH   9  11
HETATM   11  C   UNL     1      -9.228   7.356  66.386  1.00  0.00    -0.203 C  
HETATM   12  C   UNL     1      -8.281   7.029  65.467  1.00  0.00    -0.135 C  
HETATM   13  N   UNL     1      -7.552   8.032  64.855  1.00  0.00    -0.099 NA 
HETATM   14  C   UNL     1      -7.882   5.653  64.972  1.00  0.00    -0.101 C  
HETATM   15  C   UNL     1      -7.565   9.365  65.201  1.00  0.00    -0.108 C  
HETATM   16  C   UNL     1      -8.441   9.815  66.128  1.00  0.00    -0.130 C  
HETATM   17  C   UNL     1      -6.550  10.219  64.480  1.00  0.00    -0.084 C  
HETATM   18  C   UNL     1      -9.468   8.851  66.763  1.00  0.00    -0.243 C  
BRANCH  16  19
HETATM   19  C   UNL     1      -8.358  11.238  66.560  1.00  0.00    -0.168 C  
HETATM   20  O   UNL     1      -7.521  11.673  67.336  1.00  0.00    -0.118 OA 
BRANCH  19  21
HETATM   21  O   UNL     1      -9.350  11.984  66.013  1.00  0.00    -0.233 OA 
HETATM   22  C   UNL     1     -10.077  12.760  66.969  1.00  0.00    -0.240 C  
ENDBRANCH  19  21
ENDBRANCH  16  19
BRANCH  18  23
HETATM   23  C   UNL     1      -9.580   9.071  68.279  1.00  0.00    -0.158 A  
HETATM   24  C   UNL     1     -10.775   9.608  68.794  1.00  0.00    -0.234 A  
HETATM   25  C   UNL     1     -10.940   9.807  70.161  1.00  0.00    -0.339 A  
HETATM   26  C   UNL     1      -9.916   9.462  71.048  1.00  0.00    -0.334 A  
HETATM   27  C   UNL     1      -8.714   8.939  70.559  1.00  0.00    -0.186 A  
HETATM   28 CL   UNL     1      -7.501   8.538  71.730  1.00  0.00    -0.123 Cl 
HETATM   29  C   UNL     1      -8.535   8.741  69.180  1.00  0.00    -0.123 A  
HETATM   30 CL   UNL     1      -7.031   8.081  68.603  1.00  0.00    -0.069 Cl 
ENDBRANCH  18  23
ENDBRANCH   9  11
ENDBRANCH   8   9
ENDBRANCH   7   8
ENDBRANCH   6   7
ENDBRANCH   4   6
ENDBRANCH   3   4
ENDBRANCH   2   3
TORSDOF 10
ENDMDL
MODEL      110
REMARK 921   NORMALIZED FREE ENERGY PREDICTED BY IDOCK:   -4.29 KCAL/MOL
REMARK 922        TOTAL FREE ENERGY PREDICTED BY IDOCK:   -8.19 KCAL/MOL
REMARK 923 INTER-LIGAND FREE ENERGY PREDICTED BY IDOCK:   -6.55 KCAL/MOL
REMARK 924 INTRA-LIGAND FREE ENERGY PREDICTED BY IDOCK:   -1.64 KCAL/MOL
REMARK 927      BINDING AFFINITY PREDICTED BY RF-SCORE:    0.00 PKD
ROOT
HETATM    1  C   UNL     1      -9.876  10.958  63.146  1.00  0.00    -0.392 C  
HETATM    2  C   UNL     1      -8.477  10.637  62.648  1.00  0.00    -0.233 C  
ENDROOT
BRANCH   2   3
HETATM    3  C   UNL     1      -7.785   9.632  63.559  1.00  0.00    -0.130 C  
BRANCH   3   4
HETATM    4  C   UNL     1      -6.516  10.197  64.145  1.00  0.00    -0.119 C  
HETATM    5  O   UNL     1      -5.503  10.471  63.516  1.00  0.00    -0.144 OA 
BRANCH   4   6
HETATM    6  O   UNL     1      -6.702  10.409  65.470  1.00  0.00    -0.122 OA 
BRANCH   6   7
HETATM    7  C   UNL     1      -7.665   9.569  66.088  1.00  0.00    -0.101 C  
BRANCH   7   8
HETATM    8  O   UNL     1      -8.586  10.192  66.984  1.00  0.00    -0.128 OA 
BRANCH   8   9
HETATM    9  C   UNL     1      -9.858   9.751  66.969  1.00  0.00    -0.193 C  
HETATM   10  O   UNL     1     -10.383   9.182  66.026  1.00  0.00    -0.179 OA 
BRANCH   9  11
HETATM   11  C   UNL     1     -10.594  10.213  68.193  1.00  0.00    -0.262 C  
HETATM   12  C   UNL     1     -11.056  11.477  68.380  1.00  0.00    -0.235 C  
HETATM   13  N   UNL     1     -11.867  11.752  69.465  1.00  0.00    -0.324 NA 
HETATM   14  C   UNL     1     -10.814  12.706  67.527  1.00  0.00    -0.267 C  
HETATM   15  C   UNL     1     -12.139  10.893  70.507  1.00  0.00    -0.371 C  
HETATM   16  C   UNL     1     -11.707   9.612  70.457  1.00  0.00    -0.312 C  
HETATM   17  C   UNL     1     -12.921  11.502  71.646  1.00  0.00    -0.499 C  
HETATM   18  C   UNL     1     -10.956   9.089  69.214  1.00  0.00    -0.052 C  
BRANCH  16  19
HETATM   19  C   UNL     1     -11.921   8.738  71.645  1.00  0.00    -0.332 C  
HETATM   20  O   UNL     1     -12.909   8.040  71.816  1.00  0.00    -0.318 OA 
BRANCH  19  21
HETATM   21  O   UNL     1     -10.898   8.840  72.530  1.00  0.00    -0.257 OA 
HETATM   22  C   UNL     1     -10.542   7.595  73.139  1.00  0.00    -0.379 C  
ENDBRANCH  19  21
ENDBRANCH  16  19
BRANCH  18  23
HETATM   23  C   UNL     1      -9.745   8.231  69.608  1.00  0.00    -0.173 A  
HETATM   24  C   UNL     1      -8.589   8.878  70.084  1.00  0.00    -0.161 A  
HETATM   25  C   UNL     1      -7.471   8.149  70.477  1.00  0.00    -0.063 A  
HETATM   26  C   UNL     1      -7.487   6.752  70.413  1.00  0.00    -0.087 A  
HETATM   27  C   UNL     1      -8.619   6.088  69.931  1.00  0.00    -0.131 A  
HETATM   28 CL   UNL     1      -8.552   4.356  69.888  1.00  0.00    -0.091 Cl 
HETATM   29  C   UNL     1      -9.750   6.815  69.526  1.00  0.00    -0.150 A  
HETATM   30 CL   UNL     1     -11.147   5.958  68.937  1.00  0.00    -0.346 Cl 
ENDBRANCH  18  23
ENDBRANCH   9  11
ENDBRANCH   8   9
ENDBRANCH   7   8
ENDBRANCH   6   7
ENDBRANCH   4   6
ENDBRANCH   3   4
ENDBRANCH   2   3
TORSDOF 10
ENDMDL
MODEL      111
REMARK 921   NORMALIZED FREE ENERGY PREDICTED BY IDOCK:   -4.28 KCAL/MOL
REMARK 922        TOTAL FREE ENERGY PREDICTED BY IDOCK:   -8.18 KCAL/MOL
REMARK 923 INTER-LIGAND FREE ENERGY PREDICTED BY IDOCK:   -6.79 KCAL/MOL
REMARK 924 INTRA-LIGAND FREE ENERGY PREDICTED BY IDOCK:   -1.39 KCAL/MOL
REMARK 927      BINDING AFFINITY PREDICTED BY RF-SCORE:    0.00 PKD
ROOT
HETATM    1  C   UNL     1      -8.231  19.932  65.974  1.00  0.00    -0.310 C  
HETATM    2  C   UNL     1      -7.099  18.920  66.023  1.00  0.00    -0.297 C  
ENDROOT
BRANCH   2   3
HETATM    3  C   UNL     1      -7.634  17.497  66.091  1.00  0.00    -0.320 C  
BRANCH   3   4
HETATM    4  C   UNL     1      -8.306  17.220  67.413  1.00  0.00    -0.199 C  
HETATM    5  O   UNL     1      -7.805  17.398  68.515  1.00  0.00    -0.249 OA 
BRANCH   4   6
HETATM    6  O   UNL     1      -9.573  16.802  67.181  1.00  0.00    -0.229 OA 
BRANCH   6   7
HETATM    7  C   UNL     1      -9.748  16.021  66.009  1.00  0.00    -0.344 C  
BRANCH   7   8
HETATM    8  O   UNL     1      -9.486  14.622  66.119  1.00  0.00    -0.296 OA 
BRANCH   8   9
HETATM    9  C   UNL     1     -10.488  13.779  65.809  1.00  0.00    -0.299 C  
HETATM   10  O   UNL     1     -11.135  13.823  64.776  1.00  0.00    -0.342 OA 
BRANCH   9  11
HETATM   11  C   UNL     1     -10.820  12.897  66.977  1.00  0.00    -0.282 C  
HETATM   12  C   UNL     1     -11.501  13.306  68.079  1.00  0.00    -0.309 C  
HETATM   13  N   UNL     1     -11.902  12.373  69.018  1.00  0.00    -0.310 NA 
HETATM   14  C   UNL     1     -11.926  14.711  68.459  1.00  0.00    -0.298 C  
HETATM   15  C   UNL     1     -11.534  11.045  69.043  1.00  0.00    -0.299 C  
HETATM   16  C   UNL     1     -10.825  10.521  68.018  1.00  0.00    -0.312 C  
HETATM   17  C   UNL     1     -11.978  10.286  70.270  1.00  0.00    -0.348 C  
HETATM   18  C   UNL     1     -10.470  11.387  66.790  1.00  0.00    -0.284 C  
BRANCH  16  19
HETATM   19  C   UNL     1     -10.348   9.113  68.124  1.00  0.00    -0.216 C  
HETATM   20  O   UNL     1     -10.830   8.175  67.506  1.00  0.00    -0.194 OA 
BRANCH  19  21
HETATM   21  O   UNL     1      -9.335   8.996  69.018  1.00  0.00    -0.139 OA 
HETATM   22  C   UNL     1      -8.185   8.324  68.495  1.00  0.00    -0.131 C  
ENDBRANCH  19  21
ENDBRANCH  16  19
BRANCH  18  23
HETATM   23  C   UNL     1      -9.017  11.165  66.346  1.00  0.00    -0.190 A  
HETATM   24  C   UNL     1      -8.779  10.612  65.074  1.00  0.00    -0.186 A  
HETATM   25  C   UNL     1      -7.482  10.410  64.612  1.00  0.00    -0.037 A  
HETATM   26  C   UNL     1      -6.390  10.767  65.410  1.00  0.00     0.015 A  
HETATM   27  C   UNL     1      -6.601  11.305  66.683  1.00  0.00    -0.135 A  
HETATM   28 CL   UNL     1      -5.192  11.719  67.602  1.00  0.00    -0.057 Cl 
HETATM   29  C   UNL     1      -7.906  11.507  67.161  1.00  0.00    -0.160 A  
HETATM   30 CL   UNL     1      -8.137  12.186  68.748  1.00  0.00    -0.033 Cl 
ENDBRANCH  18  23
ENDBRANCH   9  11
ENDBRANCH   8   9
ENDBRANCH   7   8
ENDBRANCH   6   7
ENDBRANCH   4   6
ENDBRANCH   3   4
ENDBRANCH   2   3
TORSDOF 10
ENDMDL
MODEL      112
REMARK 921   NORMALIZED FREE ENERGY PREDICTED BY IDOCK:   -4.25 KCAL/MOL
REMARK 922        TOTAL FREE ENERGY PREDICTED BY IDOCK:   -8.13 KCAL/MOL
REMARK 923 INTER-LIGAND FREE ENERGY PREDICTED BY IDOCK:   -5.83 KCAL/MOL
REMARK 924 INTRA-LIGAND FREE ENERGY PREDICTED BY IDOCK:   -2.30 KCAL/MOL
REMARK 927      BINDING AFFINITY PREDICTED BY RF-SCORE:    0.00 PKD
ROOT
HETATM    1  C   UNL     1      -9.251  13.541  67.301  1.00  0.00    -0.233 C  
HETATM    2  C   UNL     1      -8.350  12.464  66.720  1.00  0.00    -0.060 C  
ENDROOT
BRANCH   2   3
HETATM    3  C   UNL     1      -7.503  11.811  67.802  1.00  0.00    -0.117 C  
BRANCH   3   4
HETATM    4  C   UNL     1      -6.144  11.417  67.280  1.00  0.00    -0.085 C  
HETATM    5  O   UNL     1      -5.504  12.026  66.434  1.00  0.00    -0.291 OA 
BRANCH   4   6
HETATM    6  O   UNL     1      -5.721  10.316  67.946  1.00  0.00    -0.041 OA 
BRANCH   6   7
HETATM    7  C   UNL     1      -6.748   9.422  68.351  1.00  0.00    -0.058 C  
BRANCH   7   8
HETATM    8  O   UNL     1      -6.592   8.793  69.622  1.00  0.00    -0.038 OA 
BRANCH   8   9
HETATM    9  C   UNL     1      -7.115   9.421  70.692  1.00  0.00    -0.124 C  
HETATM   10  O   UNL     1      -6.797  10.539  71.062  1.00  0.00    -0.203 OA 
BRANCH   9  11
HETATM   11  C   UNL     1      -8.004   8.495  71.469  1.00  0.00    -0.169 C  
HETATM   12  C   UNL     1      -7.560   7.593  72.384  1.00  0.00    -0.083 C  
HETATM   13  N   UNL     1      -8.474   6.909  73.165  1.00  0.00    -0.117 NA 
HETATM   14  C   UNL     1      -6.132   7.202  72.709  1.00  0.00    -0.051 C  
HETATM   15  C   UNL     1      -9.842   6.922  73.003  1.00  0.00    -0.179 C  
HETATM   16  C   UNL     1     -10.409   7.755  72.101  1.00  0.00    -0.279 C  
HETATM   17  C   UNL     1     -10.596   5.958  73.888  1.00  0.00    -0.248 C  
HETATM   18  C   UNL     1      -9.535   8.734  71.287  1.00  0.00    -0.320 C  
BRANCH  16  19
HETATM   19  C   UNL     1     -11.878   7.668  71.871  1.00  0.00    -0.294 C  
HETATM   20  O   UNL     1     -12.416   6.823  71.171  1.00  0.00    -0.367 OA 
BRANCH  19  21
HETATM   21  O   UNL     1     -12.542   8.666  72.507  1.00  0.00    -0.392 OA 
HETATM   22  C   UNL     1     -13.371   9.445  71.640  1.00  0.00    -0.404 C  
ENDBRANCH  19  21
ENDBRANCH  16  19
BRANCH  18  23
HETATM   23  C   UNL     1      -9.959   8.770  69.811  1.00  0.00    -0.193 A  
HETATM   24  C   UNL     1     -10.469   9.972  69.286  1.00  0.00    -0.245 A  
HETATM   25  C   UNL     1     -10.847  10.068  67.951  1.00  0.00    -0.323 A  
HETATM   26  C   UNL     1     -10.712   8.964  67.104  1.00  0.00    -0.203 A  
HETATM   27  C   UNL     1     -10.220   7.754  67.605  1.00  0.00    -0.219 A  
HETATM   28 CL   UNL     1     -10.086   6.439  66.484  1.00  0.00    -0.193 Cl 
HETATM   29  C   UNL     1      -9.843   7.646  68.953  1.00  0.00    -0.164 A  
HETATM   30 CL   UNL     1      -9.226   6.128  69.545  1.00  0.00    -0.139 Cl 
ENDBRANCH  18  23
ENDBRANCH   9  11
ENDBRANCH   8   9
ENDBRANCH   7   8
ENDBRANCH   6   7
ENDBRANCH   4   6
ENDBRANCH   3   4
ENDBRANCH   2   3
TORSDOF 10
ENDMDL
MODEL      113
REMARK 921   NORMALIZED FREE ENERGY PREDICTED BY IDOCK:   -4.23 KCAL/MOL
REMARK 922        TOTAL FREE ENERGY PREDICTED BY IDOCK:   -8.10 KCAL/MOL
REMARK 923 INTER-LIGAND FREE ENERGY PREDICTED BY IDOCK:   -6.57 KCAL/MOL
REMARK 924 INTRA-LIGAND FREE ENERGY PREDICTED BY IDOCK:   -1.54 KCAL/MOL
REMARK 927      BINDING AFFINITY PREDICTED BY RF-SCORE:    0.00 PKD
ROOT
HETATM    1  C   UNL     1      -5.623  15.171  70.295  1.00  0.00    -0.136 C  
HETATM    2  C   UNL     1      -6.946  14.603  69.812  1.00  0.00    -0.130 C  
ENDROOT
BRANCH   2   3
HETATM    3  C   UNL     1      -7.700  15.611  68.956  1.00  0.00    -0.199 C  
BRANCH   3   4
HETATM    4  C   UNL     1      -9.194  15.448  69.093  1.00  0.00    -0.242 C  
HETATM    5  O   UNL     1      -9.831  15.580  70.128  1.00  0.00    -0.239 OA 
BRANCH   4   6
HETATM    6  O   UNL     1      -9.719  15.191  67.872  1.00  0.00    -0.207 OA 
BRANCH   6   7
HETATM    7  C   UNL     1      -9.900  13.816  67.566  1.00  0.00    -0.230 C  
BRANCH   7   8
HETATM    8  O   UNL     1     -10.954  13.488  66.661  1.00  0.00    -0.285 OA 
BRANCH   8   9
HETATM    9  C   UNL     1     -11.294  12.191  66.552  1.00  0.00    -0.350 C  
HETATM   10  O   UNL     1     -12.036  11.602  67.319  1.00  0.00    -0.595 OA 
BRANCH   9  11
HETATM   11  C   UNL     1     -10.496  11.523  65.470  1.00  0.00    -0.327 C  
HETATM   12  C   UNL     1     -10.678  11.734  64.140  1.00  0.00    -0.357 C  
HETATM   13  N   UNL     1      -9.778  11.200  63.236  1.00  0.00    -0.333 NA 
HETATM   14  C   UNL     1     -11.774  12.522  63.450  1.00  0.00    -0.567 C  
HETATM   15  C   UNL     1      -8.771  10.307  63.532  1.00  0.00    -0.206 C  
HETATM   16  C   UNL     1      -8.509   9.988  64.820  1.00  0.00    -0.180 C  
HETATM   17  C   UNL     1      -8.039   9.754  62.334  1.00  0.00    -0.141 C  
HETATM   18  C   UNL     1      -9.296  10.659  65.967  1.00  0.00    -0.219 C  
BRANCH  16  19
HETATM   19  C   UNL     1      -7.489   8.939  65.103  1.00  0.00    -0.097 C  
HETATM   20  O   UNL     1      -7.703   7.738  65.045  1.00  0.00    -0.093 OA 
BRANCH  19  21
HETATM   21  O   UNL     1      -6.301   9.485  65.467  1.00  0.00    -0.064 OA 
HETATM   22  C   UNL     1      -5.757   8.924  66.666  1.00  0.00    -0.047 C  
ENDBRANCH  19  21
ENDBRANCH  16  19
BRANCH  18  23
HETATM   23  C   UNL     1      -9.702   9.638  67.041  1.00  0.00    -0.232 A  
HETATM   24  C   UNL     1     -10.648   8.651  66.707  1.00  0.00    -0.223 A  
HETATM   25  C   UNL     1     -11.036   7.688  67.633  1.00  0.00    -0.059 A  
HETATM   26  C   UNL     1     -10.477   7.684  68.915  1.00  0.00    -0.211 A  
HETATM   27  C   UNL     1      -9.545   8.664  69.275  1.00  0.00    -0.166 A  
HETATM   28 CL   UNL     1      -8.904   8.582  70.883  1.00  0.00    -0.181 Cl 
HETATM   29  C   UNL     1      -9.153   9.644  68.349  1.00  0.00    -0.123 A  
HETATM   30 CL   UNL     1      -7.985  10.845  68.824  1.00  0.00    -0.132 Cl 
ENDBRANCH  18  23
ENDBRANCH   9  11
ENDBRANCH   8   9
ENDBRANCH   7   8
ENDBRANCH   6   7
ENDBRANCH   4   6
ENDBRANCH   3   4
ENDBRANCH   2   3
TORSDOF 10
ENDMDL
MODEL      114
REMARK 921   NORMALIZED FREE ENERGY PREDICTED BY IDOCK:   -4.23 KCAL/MOL
REMARK 922        TOTAL FREE ENERGY PREDICTED BY IDOCK:   -8.10 KCAL/MOL
REMARK 923 INTER-LIGAND FREE ENERGY PREDICTED BY IDOCK:   -6.19 KCAL/MOL
REMARK 924 INTRA-LIGAND FREE ENERGY PREDICTED BY IDOCK:   -1.91 KCAL/MOL
REMARK 927      BINDING AFFINITY PREDICTED BY RF-SCORE:    0.00 PKD
ROOT
HETATM    1  C   UNL     1      -9.480   4.613  65.064  1.00  0.00    -0.128 C  
HETATM    2  C   UNL     1      -8.379   4.088  65.970  1.00  0.00    -0.109 C  
ENDROOT
BRANCH   2   3
HETATM    3  C   UNL     1      -8.475   4.694  67.362  1.00  0.00    -0.104 C  
BRANCH   3   4
HETATM    4  C   UNL     1      -9.288   3.825  68.290  1.00  0.00    -0.167 C  
HETATM    5  O   UNL     1      -9.351   2.605  68.246  1.00  0.00    -0.187 OA 
BRANCH   4   6
HETATM    6  O   UNL     1      -9.885   4.613  69.216  1.00  0.00    -0.189 OA 
BRANCH   6   7
HETATM    7  C   UNL     1      -9.145   5.761  69.603  1.00  0.00    -0.135 C  
BRANCH   7   8
HETATM    8  O   UNL     1      -9.656   6.521  70.698  1.00  0.00    -0.171 OA 
BRANCH   8   9
HETATM    9  C   UNL     1      -9.078   7.710  70.949  1.00  0.00    -0.149 C  
HETATM   10  O   UNL     1      -7.938   7.853  71.356  1.00  0.00    -0.086 OA 
BRANCH   9  11
HETATM   11  C   UNL     1     -10.081   8.821  70.839  1.00  0.00    -0.276 C  
HETATM   12  C   UNL     1     -11.153   8.974  71.661  1.00  0.00    -0.363 C  
HETATM   13  N   UNL     1     -11.915  10.124  71.579  1.00  0.00    -0.359 NA 
HETATM   14  C   UNL     1     -11.668   8.026  72.725  1.00  0.00    -0.352 C  
HETATM   15  C   UNL     1     -11.804  11.099  70.611  1.00  0.00    -0.302 C  
HETATM   16  C   UNL     1     -10.796  11.045  69.711  1.00  0.00    -0.205 C  
HETATM   17  C   UNL     1     -12.869  12.167  70.659  1.00  0.00    -0.031 C  
HETATM   18  C   UNL     1      -9.735   9.927  69.793  1.00  0.00    -0.266 C  
BRANCH  16  19
HETATM   19  C   UNL     1     -10.764  12.050  68.612  1.00  0.00    -0.236 C  
HETATM   20  O   UNL     1      -9.978  12.983  68.555  1.00  0.00    -0.227 OA 
BRANCH  19  21
HETATM   21  O   UNL     1     -11.741  11.820  67.698  1.00  0.00    -0.487 OA 
HETATM   22  C   UNL     1     -11.767  12.778  66.635  1.00  0.00    -0.393 C  
ENDBRANCH  19  21
ENDBRANCH  16  19
BRANCH  18  23
HETATM   23  C   UNL     1      -9.415   9.352  68.405  1.00  0.00    -0.148 A  
HETATM   24  C   UNL     1     -10.366   8.518  67.787  1.00  0.00    -0.298 A  
HETATM   25  C   UNL     1     -10.138   7.988  66.521  1.00  0.00    -0.270 A  
HETATM   26  C   UNL     1      -8.957   8.291  65.836  1.00  0.00    -0.208 A  
HETATM   27  C   UNL     1      -7.992   9.107  66.435  1.00  0.00    -0.100 A  
HETATM   28 CL   UNL     1      -6.560   9.431  65.514  1.00  0.00    -0.069 Cl 
HETATM   29  C   UNL     1      -8.209   9.641  67.715  1.00  0.00    -0.114 A  
HETATM   30 CL   UNL     1      -6.992  10.660  68.431  1.00  0.00    -0.064 Cl 
ENDBRANCH  18  23
ENDBRANCH   9  11
ENDBRANCH   8   9
ENDBRANCH   7   8
ENDBRANCH   6   7
ENDBRANCH   4   6
ENDBRANCH   3   4
ENDBRANCH   2   3
TORSDOF 10
ENDMDL
MODEL      115
REMARK 921   NORMALIZED FREE ENERGY PREDICTED BY IDOCK:   -4.22 KCAL/MOL
REMARK 922        TOTAL FREE ENERGY PREDICTED BY IDOCK:   -8.09 KCAL/MOL
REMARK 923 INTER-LIGAND FREE ENERGY PREDICTED BY IDOCK:   -6.57 KCAL/MOL
REMARK 924 INTRA-LIGAND FREE ENERGY PREDICTED BY IDOCK:   -1.52 KCAL/MOL
REMARK 927      BINDING AFFINITY PREDICTED BY RF-SCORE:    0.00 PKD
ROOT
HETATM    1  C   UNL     1     -10.795   8.377  72.336  1.00  0.00    -0.416 C  
HETATM    2  C   UNL     1      -9.396   7.785  72.383  1.00  0.00    -0.224 C  
ENDROOT
BRANCH   2   3
HETATM    3  C   UNL     1      -9.007   7.183  71.040  1.00  0.00    -0.150 C  
BRANCH   3   4
HETATM    4  C   UNL     1      -8.214   8.158  70.206  1.00  0.00    -0.122 C  
HETATM    5  O   UNL     1      -8.023   8.070  69.001  1.00  0.00    -0.110 OA 
BRANCH   4   6
HETATM    6  O   UNL     1      -7.801   9.177  70.996  1.00  0.00    -0.162 OA 
BRANCH   6   7
HETATM    7  C   UNL     1      -7.035  10.179  70.344  1.00  0.00    -0.111 C  
BRANCH   7   8
HETATM    8  O   UNL     1      -7.758  11.221  69.689  1.00  0.00     0.082 OA 
BRANCH   8   9
HETATM    9  C   UNL     1      -7.120  11.902  68.719  1.00  0.00    -0.111 C  
HETATM   10  O   UNL     1      -6.283  12.766  68.916  1.00  0.00    -0.073 OA 
BRANCH   9  11
HETATM   11  C   UNL     1      -7.706  11.585  67.374  1.00  0.00    -0.143 C  
HETATM   12  C   UNL     1      -7.086  10.839  66.422  1.00  0.00    -0.134 C  
HETATM   13  N   UNL     1      -7.783  10.466  65.288  1.00  0.00    -0.143 NA 
HETATM   14  C   UNL     1      -5.665  10.312  66.414  1.00  0.00    -0.064 C  
HETATM   15  C   UNL     1      -9.034  10.918  64.925  1.00  0.00    -0.152 C  
HETATM   16  C   UNL     1      -9.744  11.696  65.773  1.00  0.00    -0.262 C  
HETATM   17  C   UNL     1      -9.495  10.479  63.556  1.00  0.00    -0.352 C  
HETATM   18  C   UNL     1      -9.186  12.038  67.172  1.00  0.00    -0.190 C  
BRANCH  16  19
HETATM   19  C   UNL     1     -11.043  12.257  65.310  1.00  0.00    -0.316 C  
HETATM   20  O   UNL     1     -12.122  12.019  65.832  1.00  0.00    -0.546 OA 
BRANCH  19  21
HETATM   21  O   UNL     1     -10.885  13.041  64.214  1.00  0.00    -0.363 OA 
HETATM   22  C   UNL     1     -12.040  13.087  63.371  1.00  0.00    -0.515 C  
ENDBRANCH  19  21
ENDBRANCH  16  19
BRANCH  18  23
HETATM   23  C   UNL     1      -9.407  13.518  67.518  1.00  0.00    -0.220 A  
HETATM   24  C   UNL     1      -8.648  14.489  66.838  1.00  0.00    -0.207 A  
HETATM   25  C   UNL     1      -8.823  15.844  67.096  1.00  0.00    -0.228 A  
HETATM   26  C   UNL     1      -9.773  16.262  68.034  1.00  0.00    -0.230 A  
HETATM   27  C   UNL     1     -10.530  15.316  68.731  1.00  0.00    -0.237 A  
HETATM   28 CL   UNL     1     -11.684  15.923  69.873  1.00  0.00    -0.336 Cl 
HETATM   29  C   UNL     1     -10.355  13.945  68.483  1.00  0.00    -0.244 A  
HETATM   30 CL   UNL     1     -11.319  12.791  69.363  1.00  0.00    -0.295 Cl 
ENDBRANCH  18  23
ENDBRANCH   9  11
ENDBRANCH   8   9
ENDBRANCH   7   8
ENDBRANCH   6   7
ENDBRANCH   4   6
ENDBRANCH   3   4
ENDBRANCH   2   3
TORSDOF 10
ENDMDL
MODEL      116
REMARK 921   NORMALIZED FREE ENERGY PREDICTED BY IDOCK:   -4.22 KCAL/MOL
REMARK 922        TOTAL FREE ENERGY PREDICTED BY IDOCK:   -8.08 KCAL/MOL
REMARK 923 INTER-LIGAND FREE ENERGY PREDICTED BY IDOCK:   -6.60 KCAL/MOL
REMARK 924 INTRA-LIGAND FREE ENERGY PREDICTED BY IDOCK:   -1.49 KCAL/MOL
REMARK 927      BINDING AFFINITY PREDICTED BY RF-SCORE:    0.00 PKD
ROOT
HETATM    1  C   UNL     1      -9.819   5.815  67.483  1.00  0.00    -0.145 C  
HETATM    2  C   UNL     1      -9.607   7.286  67.167  1.00  0.00    -0.203 C  
ENDROOT
BRANCH   2   3
HETATM    3  C   UNL     1      -8.149   7.684  67.346  1.00  0.00    -0.119 C  
BRANCH   3   4
HETATM    4  C   UNL     1      -7.945   8.486  68.608  1.00  0.00    -0.116 C  
HETATM    5  O   UNL     1      -8.352   8.178  69.719  1.00  0.00    -0.120 OA 
BRANCH   4   6
HETATM    6  O   UNL     1      -7.186   9.569  68.319  1.00  0.00    -0.075 OA 
BRANCH   6   7
HETATM    7  C   UNL     1      -7.505  10.744  69.050  1.00  0.00    -0.118 C  
BRANCH   7   8
HETATM    8  O   UNL     1      -8.051  11.836  68.311  1.00  0.00    -0.140 OA 
BRANCH   8   9
HETATM    9  C   UNL     1      -9.260  11.657  67.746  1.00  0.00    -0.178 C  
HETATM   10  O   UNL     1      -9.440  11.355  66.578  1.00  0.00    -0.190 OA 
BRANCH   9  11
HETATM   11  C   UNL     1     -10.353  12.057  68.693  1.00  0.00    -0.211 C  
HETATM   12  C   UNL     1     -11.181  11.183  69.324  1.00  0.00    -0.267 C  
HETATM   13  N   UNL     1     -12.040  11.644  70.304  1.00  0.00    -0.358 NA 
HETATM   14  C   UNL     1     -11.310   9.687  69.114  1.00  0.00     0.029 C  
HETATM   15  C   UNL     1     -12.275  12.966  70.613  1.00  0.00    -0.302 C  
HETATM   16  C   UNL     1     -11.538  13.938  70.029  1.00  0.00    -0.282 C  
HETATM   17  C   UNL     1     -13.384  13.198  71.612  1.00  0.00    -0.393 C  
HETATM   18  C   UNL     1     -10.396  13.574  69.057  1.00  0.00    -0.025 C  
BRANCH  16  19
HETATM   19  C   UNL     1     -11.888  15.361  70.299  1.00  0.00    -0.338 C  
HETATM   20  O   UNL     1     -12.772  15.974  69.720  1.00  0.00    -0.101 OA 
BRANCH  19  21
HETATM   21  O   UNL     1     -11.080  15.902  71.245  1.00  0.00    -0.295 OA 
HETATM   22  C   UNL     1     -11.779  16.332  72.417  1.00  0.00    -0.413 C  
ENDBRANCH  19  21
ENDBRANCH  16  19
BRANCH  18  23
HETATM   23  C   UNL     1     -10.401  14.482  67.818  1.00  0.00    -0.237 A  
HETATM   24  C   UNL     1      -9.461  15.527  67.745  1.00  0.00    -0.204 A  
HETATM   25  C   UNL     1      -9.407  16.366  66.637  1.00  0.00    -0.282 A  
HETATM   26  C   UNL     1     -10.286  16.171  65.567  1.00  0.00    -0.360 A  
HETATM   27  C   UNL     1     -11.237  15.148  65.621  1.00  0.00    -0.296 A  
HETATM   28 CL   UNL     1     -12.285  14.978  64.251  1.00  0.00    -0.433 Cl 
HETATM   29  C   UNL     1     -11.305  14.300  66.739  1.00  0.00    -0.348 A  
HETATM   30 CL   UNL     1     -12.496  13.030  66.774  1.00  0.00    -0.075 Cl 
ENDBRANCH  18  23
ENDBRANCH   9  11
ENDBRANCH   8   9
ENDBRANCH   7   8
ENDBRANCH   6   7
ENDBRANCH   4   6
ENDBRANCH   3   4
ENDBRANCH   2   3
TORSDOF 10
ENDMDL
MODEL      117
REMARK 921   NORMALIZED FREE ENERGY PREDICTED BY IDOCK:   -4.20 KCAL/MOL
REMARK 922        TOTAL FREE ENERGY PREDICTED BY IDOCK:   -8.05 KCAL/MOL
REMARK 923 INTER-LIGAND FREE ENERGY PREDICTED BY IDOCK:   -6.81 KCAL/MOL
REMARK 924 INTRA-LIGAND FREE ENERGY PREDICTED BY IDOCK:   -1.24 KCAL/MOL
REMARK 927      BINDING AFFINITY PREDICTED BY RF-SCORE:    0.00 PKD
ROOT
HETATM    1  C   UNL     1      -6.494  15.183  69.928  1.00  0.00    -0.171 C  
HETATM    2  C   UNL     1      -6.719  15.350  68.435  1.00  0.00    -0.116 C  
ENDROOT
BRANCH   2   3
HETATM    3  C   UNL     1      -8.043  16.045  68.152  1.00  0.00    -0.147 C  
BRANCH   3   4
HETATM    4  C   UNL     1      -8.478  15.846  66.721  1.00  0.00    -0.262 C  
HETATM    5  O   UNL     1      -8.640  16.736  65.898  1.00  0.00    -0.500 OA 
BRANCH   4   6
HETATM    6  O   UNL     1      -8.601  14.519  66.482  1.00  0.00    -0.136 OA 
BRANCH   6   7
HETATM    7  C   UNL     1      -9.758  14.139  65.751  1.00  0.00    -0.217 C  
BRANCH   7   8
HETATM    8  O   UNL     1     -10.123  12.760  65.790  1.00  0.00    -0.281 OA 
BRANCH   8   9
HETATM    9  C   UNL     1     -11.395  12.465  66.113  1.00  0.00    -0.352 C  
HETATM   10  O   UNL     1     -12.307  12.362  65.310  1.00  0.00    -0.563 OA 
BRANCH   9  11
HETATM   11  C   UNL     1     -11.577  12.461  67.603  1.00  0.00    -0.421 C  
HETATM   12  C   UNL     1     -11.825  13.569  68.349  1.00  0.00    -0.373 C  
HETATM   13  N   UNL     1     -12.145  13.432  69.688  1.00  0.00    -0.310 NA 
HETATM   14  C   UNL     1     -11.814  15.022  67.915  1.00  0.00    -0.243 C  
HETATM   15  C   UNL     1     -12.080  12.264  70.416  1.00  0.00    -0.300 C  
HETATM   16  C   UNL     1     -11.811  11.093  69.794  1.00  0.00    -0.422 C  
HETATM   17  C   UNL     1     -12.324  12.425  71.898  1.00  0.00     0.457 C  
HETATM   18  C   UNL     1     -11.628  11.048  68.262  1.00  0.00    -0.354 C  
BRANCH  16  19
HETATM   19  C   UNL     1     -11.640   9.867  70.622  1.00  0.00    -0.335 C  
HETATM   20  O   UNL     1     -12.527   9.056  70.843  1.00  0.00    -0.216 OA 
BRANCH  19  21
HETATM   21  O   UNL     1     -10.385   9.779  71.130  1.00  0.00    -0.248 OA 
HETATM   22  C   UNL     1     -10.017   8.453  71.521  1.00  0.00    -0.217 C  
ENDBRANCH  19  21
ENDBRANCH  16  19
BRANCH  18  23
HETATM   23  C   UNL     1     -10.436  10.164  67.865  1.00  0.00    -0.265 A  
HETATM   24  C   UNL     1     -10.691   8.937  67.224  1.00  0.00    -0.219 A  
HETATM   25  C   UNL     1      -9.649   8.108  66.823  1.00  0.00    -0.281 A  
HETATM   26  C   UNL     1      -8.323   8.493  67.043  1.00  0.00    -0.110 A  
HETATM   27  C   UNL     1      -8.044   9.701  67.690  1.00  0.00    -0.113 A  
HETATM   28 CL   UNL     1      -6.373  10.098  67.920  1.00  0.00    -0.060 Cl 
HETATM   29  C   UNL     1      -9.089  10.542  68.105  1.00  0.00    -0.141 A  
HETATM   30 CL   UNL     1      -8.709  12.043  68.901  1.00  0.00     0.106 Cl 
ENDBRANCH  18  23
ENDBRANCH   9  11
ENDBRANCH   8   9
ENDBRANCH   7   8
ENDBRANCH   6   7
ENDBRANCH   4   6
ENDBRANCH   3   4
ENDBRANCH   2   3
TORSDOF 10
ENDMDL
MODEL      118
REMARK 921   NORMALIZED FREE ENERGY PREDICTED BY IDOCK:   -4.20 KCAL/MOL
REMARK 922        TOTAL FREE ENERGY PREDICTED BY IDOCK:   -8.05 KCAL/MOL
REMARK 923 INTER-LIGAND FREE ENERGY PREDICTED BY IDOCK:   -6.54 KCAL/MOL
REMARK 924 INTRA-LIGAND FREE ENERGY PREDICTED BY IDOCK:   -1.51 KCAL/MOL
REMARK 927      BINDING AFFINITY PREDICTED BY RF-SCORE:    0.00 PKD
ROOT
HETATM    1  C   UNL     1      -9.808  16.081  66.792  1.00  0.00    -0.260 C  
HETATM    2  C   UNL     1     -10.358  14.796  66.195  1.00  0.00    -0.314 C  
ENDROOT
BRANCH   2   3
HETATM    3  C   UNL     1     -11.707  14.441  66.802  1.00  0.00    -0.415 C  
BRANCH   3   4
HETATM    4  C   UNL     1     -11.797  12.971  67.132  1.00  0.00    -0.373 C  
HETATM    5  O   UNL     1     -12.169  12.093  66.366  1.00  0.00    -0.592 OA 
BRANCH   4   6
HETATM    6  O   UNL     1     -11.340  12.776  68.391  1.00  0.00    -0.253 OA 
BRANCH   6   7
HETATM    7  C   UNL     1     -10.218  11.913  68.502  1.00  0.00    -0.215 C  
BRANCH   7   8
HETATM    8  O   UNL     1     -10.341  10.805  69.393  1.00  0.00    -0.218 OA 
BRANCH   8   9
HETATM    9  C   UNL     1     -10.769   9.639  68.875  1.00  0.00    -0.206 C  
HETATM   10  O   UNL     1     -11.153   9.491  67.727  1.00  0.00    -0.186 OA 
BRANCH   9  11
HETATM   11  C   UNL     1     -10.882   8.592  69.944  1.00  0.00    -0.210 C  
HETATM   12  C   UNL     1     -11.715   8.675  71.015  1.00  0.00    -0.278 C  
HETATM   13  N   UNL     1     -11.865   7.582  71.848  1.00  0.00    -0.286 NA 
HETATM   14  C   UNL     1     -12.565   9.849  71.461  1.00  0.00    -0.513 C  
HETATM   15  C   UNL     1     -11.114   6.427  71.806  1.00  0.00    -0.265 C  
HETATM   16  C   UNL     1     -10.225   6.235  70.806  1.00  0.00    -0.238 C  
HETATM   17  C   UNL     1     -11.374   5.458  72.935  1.00  0.00    -0.365 C  
HETATM   18  C   UNL     1     -10.082   7.279  69.677  1.00  0.00    -0.195 C  
BRANCH  16  19
HETATM   19  C   UNL     1      -9.351   5.029  70.847  1.00  0.00    -0.151 C  
HETATM   20  O   UNL     1      -8.374   4.912  71.571  1.00  0.00    -0.109 OA 
BRANCH  19  21
HETATM   21  O   UNL     1      -9.755   4.090  69.955  1.00  0.00    -0.203 OA 
HETATM   22  C   UNL     1      -8.681   3.509  69.210  1.00  0.00    -0.084 C  
ENDBRANCH  19  21
ENDBRANCH  16  19
BRANCH  18  23
HETATM   23  C   UNL     1      -8.607   7.541  69.337  1.00  0.00    -0.133 A  
HETATM   24  C   UNL     1      -7.817   8.245  70.265  1.00  0.00    -0.092 A  
HETATM   25  C   UNL     1      -6.470   8.490  70.019  1.00  0.00    -0.038 A  
HETATM   26  C   UNL     1      -5.878   8.026  68.840  1.00  0.00    -0.035 A  
HETATM   27  C   UNL     1      -6.645   7.336  67.897  1.00  0.00    -0.050 A  
HETATM   28 CL   UNL     1      -5.828   6.797  66.467  1.00  0.00    -0.024 Cl 
HETATM   29  C   UNL     1      -8.007   7.089  68.133  1.00  0.00    -0.119 A  
HETATM   30 CL   UNL     1      -8.934   6.220  66.942  1.00  0.00    -0.117 Cl 
ENDBRANCH  18  23
ENDBRANCH   9  11
ENDBRANCH   8   9
ENDBRANCH   7   8
ENDBRANCH   6   7
ENDBRANCH   4   6
ENDBRANCH   3   4
ENDBRANCH   2   3
TORSDOF 10
ENDMDL
MODEL      119
REMARK 921   NORMALIZED FREE ENERGY PREDICTED BY IDOCK:   -4.17 KCAL/MOL
REMARK 922        TOTAL FREE ENERGY PREDICTED BY IDOCK:   -8.01 KCAL/MOL
REMARK 923 INTER-LIGAND FREE ENERGY PREDICTED BY IDOCK:   -5.89 KCAL/MOL
REMARK 924 INTRA-LIGAND FREE ENERGY PREDICTED BY IDOCK:   -2.12 KCAL/MOL
REMARK 927      BINDING AFFINITY PREDICTED BY RF-SCORE:    0.00 PKD
ROOT
HETATM    1  C   UNL     1      -8.253  12.738  67.853  1.00  0.00    -0.168 C  
HETATM    2  C   UNL     1      -8.899  11.776  68.835  1.00  0.00     0.123 C  
ENDROOT
BRANCH   2   3
HETATM    3  C   UNL     1     -10.413  11.758  68.675  1.00  0.00    -0.242 C  
BRANCH   3   4
HETATM    4  C   UNL     1     -11.045  10.666  69.502  1.00  0.00    -0.274 C  
HETATM    5  O   UNL     1     -12.148  10.721  70.027  1.00  0.00    -0.302 OA 
BRANCH   4   6
HETATM    6  O   UNL     1     -10.219   9.594  69.515  1.00  0.00    -0.193 OA 
BRANCH   6   7
HETATM    7  C   UNL     1     -10.117   8.923  70.763  1.00  0.00    -0.226 C  
BRANCH   7   8
HETATM    8  O   UNL     1      -9.883   7.515  70.722  1.00  0.00    -0.179 OA 
BRANCH   8   9
HETATM    9  C   UNL     1     -10.869   6.737  70.239  1.00  0.00    -0.270 C  
HETATM   10  O   UNL     1     -12.056   6.905  70.464  1.00  0.00    -0.353 OA 
BRANCH   9  11
HETATM   11  C   UNL     1     -10.303   5.535  69.541  1.00  0.00    -0.357 C  
HETATM   12  C   UNL     1      -9.932   4.387  70.166  1.00  0.00    -0.179 C  
HETATM   13  N   UNL     1      -9.584   3.282  69.412  1.00  0.00    -0.125 NA 
HETATM   14  C   UNL     1      -9.844   4.109  71.654  1.00  0.00    -0.254 C  
HETATM   15  C   UNL     1      -9.409   3.262  68.045  1.00  0.00    -0.191 C  
HETATM   16  C   UNL     1      -9.713   4.354  67.308  1.00  0.00    -0.222 C  
HETATM   17  C   UNL     1      -8.867   1.965  67.493  1.00  0.00    -0.149 C  
HETATM   18  C   UNL     1     -10.308   5.609  67.982  1.00  0.00    -0.258 C  
BRANCH  16  19
HETATM   19  C   UNL     1      -9.411   4.340  65.849  1.00  0.00    -0.163 C  
HETATM   20  O   UNL     1      -8.287   4.436  65.379  1.00  0.00    -0.109 OA 
BRANCH  19  21
HETATM   21  O   UNL     1     -10.542   4.241  65.107  1.00  0.00    -0.253 OA 
HETATM   22  C   UNL     1     -10.400   3.402  63.957  1.00  0.00    -0.220 C  
ENDBRANCH  19  21
ENDBRANCH  16  19
BRANCH  18  23
HETATM   23  C   UNL     1      -9.661   6.895  67.446  1.00  0.00    -0.172 A  
HETATM   24  C   UNL     1     -10.456   7.791  66.707  1.00  0.00    -0.318 A  
HETATM   25  C   UNL     1      -9.927   8.981  66.217  1.00  0.00    -0.352 A  
HETATM   26  C   UNL     1      -8.590   9.308  66.465  1.00  0.00    -0.139 A  
HETATM   27  C   UNL     1      -7.777   8.428  67.185  1.00  0.00    -0.097 A  
HETATM   28 CL   UNL     1      -6.135   8.915  67.446  1.00  0.00    -0.051 Cl 
HETATM   29  C   UNL     1      -8.300   7.221  67.678  1.00  0.00    -0.117 A  
HETATM   30 CL   UNL     1      -7.264   6.149  68.578  1.00  0.00    -0.082 Cl 
ENDBRANCH  18  23
ENDBRANCH   9  11
ENDBRANCH   8   9
ENDBRANCH   7   8
ENDBRANCH   6   7
ENDBRANCH   4   6
ENDBRANCH   3   4
ENDBRANCH   2   3
TORSDOF 10
ENDMDL
MODEL      120
REMARK 921   NORMALIZED FREE ENERGY PREDICTED BY IDOCK:   -4.17 KCAL/MOL
REMARK 922        TOTAL FREE ENERGY PREDICTED BY IDOCK:   -8.01 KCAL/MOL
REMARK 923 INTER-LIGAND FREE ENERGY PREDICTED BY IDOCK:   -6.86 KCAL/MOL
REMARK 924 INTRA-LIGAND FREE ENERGY PREDICTED BY IDOCK:   -1.14 KCAL/MOL
REMARK 927      BINDING AFFINITY PREDICTED BY RF-SCORE:    0.00 PKD
ROOT
HETATM    1  C   UNL     1      -6.064  11.319  67.920  1.00  0.00    -0.050 C  
HETATM    2  C   UNL     1      -5.214  11.045  69.149  1.00  0.00    -0.041 C  
ENDROOT
BRANCH   2   3
HETATM    3  C   UNL     1      -5.356   9.599  69.606  1.00  0.00    -0.034 C  
BRANCH   3   4
HETATM    4  C   UNL     1      -5.821   9.514  71.038  1.00  0.00    -0.069 C  
HETATM    5  O   UNL     1      -5.198   9.001  71.957  1.00  0.00    -0.042 OA 
BRANCH   4   6
HETATM    6  O   UNL     1      -7.010  10.151  71.152  1.00  0.00    -0.279 OA 
BRANCH   6   7
HETATM    7  C   UNL     1      -8.094   9.537  70.470  1.00  0.00    -0.166 C  
BRANCH   7   8
HETATM    8  O   UNL     1      -8.688  10.276  69.403  1.00  0.00    -0.163 OA 
BRANCH   8   9
HETATM    9  C   UNL     1      -9.741   9.719  68.776  1.00  0.00    -0.161 C  
HETATM   10  O   UNL     1     -10.462   8.863  69.261  1.00  0.00    -0.221 OA 
BRANCH   9  11
HETATM   11  C   UNL     1      -9.797  10.157  67.342  1.00  0.00    -0.225 C  
HETATM   12  C   UNL     1      -9.053   9.613  66.343  1.00  0.00    -0.156 C  
HETATM   13  N   UNL     1      -9.306   9.973  65.032  1.00  0.00    -0.235 NA 
HETATM   14  C   UNL     1      -7.928   8.602  66.447  1.00  0.00    -0.099 C  
HETATM   15  C   UNL     1     -10.150  10.982  64.621  1.00  0.00    -0.311 C  
HETATM   16  C   UNL     1     -10.923  11.626  65.525  1.00  0.00    -0.327 C  
HETATM   17  C   UNL     1     -10.116  11.276  63.141  1.00  0.00    -0.385 C  
HETATM   18  C   UNL     1     -10.907  11.202  67.009  1.00  0.00    -0.338 C  
BRANCH  16  19
HETATM   19  C   UNL     1     -11.743  12.784  65.069  1.00  0.00    -0.354 C  
HETATM   20  O   UNL     1     -12.942  12.730  64.840  1.00  0.00    -0.805 OA 
BRANCH  19  21
HETATM   21  O   UNL     1     -10.986  13.898  64.905  1.00  0.00    -0.345 OA 
HETATM   22  C   UNL     1     -11.701  14.997  64.335  1.00  0.00    -0.312 C  
ENDBRANCH  19  21
ENDBRANCH  16  19
BRANCH  18  23
HETATM   23  C   UNL     1     -10.873  12.422  67.942  1.00  0.00    -0.253 A  
HETATM   24  C   UNL     1      -9.966  13.460  67.659  1.00  0.00    -0.229 A  
HETATM   25  C   UNL     1      -9.908  14.598  68.457  1.00  0.00    -0.228 A  
HETATM   26  C   UNL     1     -10.768  14.730  69.553  1.00  0.00    -0.229 A  
HETATM   27  C   UNL     1     -11.668  13.706  69.862  1.00  0.00    -0.276 A  
HETATM   28 CL   UNL     1     -12.695  13.955  71.235  1.00  0.00    -0.425 Cl 
HETATM   29  C   UNL     1     -11.729  12.550  69.066  1.00  0.00    -0.318 A  
HETATM   30 CL   UNL     1     -12.867  11.296  69.472  1.00  0.00     0.213 Cl 
ENDBRANCH  18  23
ENDBRANCH   9  11
ENDBRANCH   8   9
ENDBRANCH   7   8
ENDBRANCH   6   7
ENDBRANCH   4   6
ENDBRANCH   3   4
ENDBRANCH   2   3
TORSDOF 10
ENDMDL
MODEL      121
REMARK 921   NORMALIZED FREE ENERGY PREDICTED BY IDOCK:   -4.16 KCAL/MOL
REMARK 922        TOTAL FREE ENERGY PREDICTED BY IDOCK:   -7.99 KCAL/MOL
REMARK 923 INTER-LIGAND FREE ENERGY PREDICTED BY IDOCK:   -6.52 KCAL/MOL
REMARK 924 INTRA-LIGAND FREE ENERGY PREDICTED BY IDOCK:   -1.47 KCAL/MOL
REMARK 927      BINDING AFFINITY PREDICTED BY RF-SCORE:    0.00 PKD
ROOT
HETATM    1  C   UNL     1     -11.010  15.230  65.122  1.00  0.00    -0.428 C  
HETATM    2  C   UNL     1     -12.105  14.178  65.108  1.00  0.00    -0.416 C  
ENDROOT
BRANCH   2   3
HETATM    3  C   UNL     1     -11.520  12.773  65.112  1.00  0.00    -0.356 C  
BRANCH   3   4
HETATM    4  C   UNL     1     -11.947  11.992  63.894  1.00  0.00    -0.443 C  
HETATM    5  O   UNL     1     -13.038  12.068  63.347  1.00  0.00    -0.747 OA 
BRANCH   4   6
HETATM    6  O   UNL     1     -10.904  11.239  63.469  1.00  0.00    -0.382 OA 
BRANCH   6   7
HETATM    7  C   UNL     1      -9.948  10.911  64.467  1.00  0.00    -0.317 C  
BRANCH   7   8
HETATM    8  O   UNL     1     -10.022   9.599  65.025  1.00  0.00    -0.224 OA 
BRANCH   8   9
HETATM    9  C   UNL     1      -8.862   8.943  65.219  1.00  0.00    -0.184 C  
HETATM   10  O   UNL     1      -8.286   8.289  64.367  1.00  0.00    -0.151 OA 
BRANCH   9  11
HETATM   11  C   UNL     1      -8.471   8.974  66.668  1.00  0.00    -0.126 C  
HETATM   12  C   UNL     1      -7.602   9.868  67.210  1.00  0.00    -0.088 C  
HETATM   13  N   UNL     1      -7.443   9.916  68.583  1.00  0.00    -0.074 NA 
HETATM   14  C   UNL     1      -6.734  10.889  66.502  1.00  0.00    -0.133 C  
HETATM   15  C   UNL     1      -7.965   9.018  69.487  1.00  0.00    -0.099 C  
HETATM   16  C   UNL     1      -8.820   8.057  69.069  1.00  0.00    -0.145 C  
HETATM   17  C   UNL     1      -7.501   9.207  70.912  1.00  0.00    -0.136 C  
HETATM   18  C   UNL     1      -9.260   7.994  67.591  1.00  0.00    -0.145 C  
BRANCH  16  19
HETATM   19  C   UNL     1      -9.282   7.035  70.049  1.00  0.00    -0.148 C  
HETATM   20  O   UNL     1      -8.572   6.155  70.512  1.00  0.00    -0.134 OA 
BRANCH  19  21
HETATM   21  O   UNL     1     -10.600   7.180  70.338  1.00  0.00    -0.215 OA 
HETATM   22  C   UNL     1     -10.844   7.687  71.653  1.00  0.00    -0.227 C  
ENDBRANCH  19  21
ENDBRANCH  16  19
BRANCH  18  23
HETATM   23  C   UNL     1      -9.256   6.551  67.065  1.00  0.00    -0.142 A  
HETATM   24  C   UNL     1     -10.483   5.963  66.702  1.00  0.00    -0.310 A  
HETATM   25  C   UNL     1     -10.536   4.668  66.199  1.00  0.00    -0.281 A  
HETATM   26  C   UNL     1      -9.358   3.931  66.036  1.00  0.00    -0.173 A  
HETATM   27  C   UNL     1      -8.129   4.487  66.403  1.00  0.00    -0.103 A  
HETATM   28 CL   UNL     1      -6.722   3.504  66.167  1.00  0.00    -0.044 Cl 
HETATM   29  C   UNL     1      -8.066   5.792  66.918  1.00  0.00    -0.102 A  
HETATM   30 CL   UNL     1      -6.519   6.461  67.358  1.00  0.00    -0.047 Cl 
ENDBRANCH  18  23
ENDBRANCH   9  11
ENDBRANCH   8   9
ENDBRANCH   7   8
ENDBRANCH   6   7
ENDBRANCH   4   6
ENDBRANCH   3   4
ENDBRANCH   2   3
TORSDOF 10
ENDMDL
MODEL      122
REMARK 921   NORMALIZED FREE ENERGY PREDICTED BY IDOCK:   -4.15 KCAL/MOL
REMARK 922        TOTAL FREE ENERGY PREDICTED BY IDOCK:   -7.98 KCAL/MOL
REMARK 923 INTER-LIGAND FREE ENERGY PREDICTED BY IDOCK:   -6.26 KCAL/MOL
REMARK 924 INTRA-LIGAND FREE ENERGY PREDICTED BY IDOCK:   -1.72 KCAL/MOL
REMARK 927      BINDING AFFINITY PREDICTED BY RF-SCORE:    0.00 PKD
ROOT
HETATM    1  C   UNL     1      -7.564   3.572  69.449  1.00  0.00    -0.051 C  
HETATM    2  C   UNL     1      -9.018   3.979  69.614  1.00  0.00    -0.163 C  
ENDROOT
BRANCH   2   3
HETATM    3  C   UNL     1      -9.543   3.606  70.993  1.00  0.00    -0.246 C  
BRANCH   3   4
HETATM    4  C   UNL     1     -10.117   4.803  71.710  1.00  0.00    -0.193 C  
HETATM    5  O   UNL     1     -10.621   4.789  72.824  1.00  0.00    -0.196 OA 
BRANCH   4   6
HETATM    6  O   UNL     1      -9.927   5.904  70.945  1.00  0.00    -0.177 OA 
BRANCH   6   7
HETATM    7  C   UNL     1     -11.030   6.797  70.884  1.00  0.00    -0.260 C  
BRANCH   7   8
HETATM    8  O   UNL     1     -10.998   7.924  71.758  1.00  0.00    -0.231 OA 
BRANCH   8   9
HETATM    9  C   UNL     1     -10.060   8.862  71.524  1.00  0.00    -0.324 C  
HETATM   10  O   UNL     1      -9.042   9.001  72.181  1.00  0.00    -0.372 OA 
BRANCH   9  11
HETATM   11  C   UNL     1     -10.521   9.822  70.468  1.00  0.00    -0.366 C  
HETATM   12  C   UNL     1     -11.741  10.422  70.454  1.00  0.00    -0.331 C  
HETATM   13  N   UNL     1     -12.000  11.418  69.530  1.00  0.00    -0.332 NA 
HETATM   14  C   UNL     1     -12.931  10.160  71.355  1.00  0.00    -0.528 C  
HETATM   15  C   UNL     1     -11.185  11.773  68.477  1.00  0.00    -0.252 C  
HETATM   16  C   UNL     1      -9.955  11.223  68.359  1.00  0.00    -0.201 C  
HETATM   17  C   UNL     1     -11.782  12.779  67.523  1.00  0.00    -0.422 C  
HETATM   18  C   UNL     1      -9.434  10.239  69.429  1.00  0.00    -0.225 C  
BRANCH  16  19
HETATM   19  C   UNL     1      -9.142  11.543  67.153  1.00  0.00    -0.167 C  
HETATM   20  O   UNL     1      -8.199  12.320  67.145  1.00  0.00    -0.173 OA 
BRANCH  19  21
HETATM   21  O   UNL     1      -9.600  10.890  66.055  1.00  0.00    -0.193 OA 
HETATM   22  C   UNL     1      -8.559  10.396  65.208  1.00  0.00    -0.176 C  
ENDBRANCH  19  21
ENDBRANCH  16  19
BRANCH  18  23
HETATM   23  C   UNL     1      -8.732   9.033  68.787  1.00  0.00    -0.136 A  
HETATM   24  C   UNL     1      -7.359   8.844  69.034  1.00  0.00    -0.073 A  
HETATM   25  C   UNL     1      -6.678   7.756  68.497  1.00  0.00    -0.058 A  
HETATM   26  C   UNL     1      -7.359   6.823  67.708  1.00  0.00    -0.096 A  
HETATM   27  C   UNL     1      -8.719   6.997  67.437  1.00  0.00    -0.120 A  
HETATM   28 CL   UNL     1      -9.482   5.793  66.451  1.00  0.00    -0.167 Cl 
HETATM   29  C   UNL     1      -9.414   8.095  67.969  1.00  0.00    -0.143 A  
HETATM   30 CL   UNL     1     -11.110   8.280  67.620  1.00  0.00     0.120 Cl 
ENDBRANCH  18  23
ENDBRANCH   9  11
ENDBRANCH   8   9
ENDBRANCH   7   8
ENDBRANCH   6   7
ENDBRANCH   4   6
ENDBRANCH   3   4
ENDBRANCH   2   3
TORSDOF 10
ENDMDL
MODEL      123
REMARK 921   NORMALIZED FREE ENERGY PREDICTED BY IDOCK:   -4.14 KCAL/MOL
REMARK 922        TOTAL FREE ENERGY PREDICTED BY IDOCK:   -7.96 KCAL/MOL
REMARK 923 INTER-LIGAND FREE ENERGY PREDICTED BY IDOCK:   -6.87 KCAL/MOL
REMARK 924 INTRA-LIGAND FREE ENERGY PREDICTED BY IDOCK:   -1.09 KCAL/MOL
REMARK 927      BINDING AFFINITY PREDICTED BY RF-SCORE:    0.00 PKD
ROOT
HETATM    1  C   UNL     1      -6.543  21.147  67.126  1.00  0.00    -0.424 C  
HETATM    2  C   UNL     1      -5.906  20.404  65.964  1.00  0.00    -0.215 C  
ENDROOT
BRANCH   2   3
HETATM    3  C   UNL     1      -6.656  19.116  65.657  1.00  0.00    -0.296 C  
BRANCH   3   4
HETATM    4  C   UNL     1      -6.565  18.136  66.800  1.00  0.00    -0.185 C  
HETATM    5  O   UNL     1      -5.550  17.866  67.425  1.00  0.00    -0.131 OA 
BRANCH   4   6
HETATM    6  O   UNL     1      -7.802  17.651  67.060  1.00  0.00    -0.201 OA 
BRANCH   6   7
HETATM    7  C   UNL     1      -8.419  16.956  65.985  1.00  0.00    -0.151 C  
BRANCH   7   8
HETATM    8  O   UNL     1      -8.627  15.555  66.156  1.00  0.00    -0.265 OA 
BRANCH   8   9
HETATM    9  C   UNL     1      -9.447  15.168  67.152  1.00  0.00    -0.216 C  
HETATM   10  O   UNL     1     -10.337  15.856  67.622  1.00  0.00    -0.267 OA 
BRANCH   9  11
HETATM   11  C   UNL     1      -9.001  13.854  67.726  1.00  0.00    -0.188 C  
HETATM   12  C   UNL     1      -7.816  13.656  68.360  1.00  0.00    -0.140 C  
HETATM   13  N   UNL     1      -7.579  12.453  69.000  1.00  0.00     0.043 NA 
HETATM   14  C   UNL     1      -6.645  14.609  68.494  1.00  0.00    -0.095 C  
HETATM   15  C   UNL     1      -8.375  11.330  68.926  1.00  0.00    -0.071 C  
HETATM   16  C   UNL     1      -9.568  11.388  68.293  1.00  0.00    -0.192 C  
HETATM   17  C   UNL     1      -7.800  10.099  69.586  1.00  0.00    -0.181 C  
HETATM   18  C   UNL     1     -10.073  12.720  67.697  1.00  0.00    -0.220 C  
BRANCH  16  19
HETATM   19  C   UNL     1     -10.355  10.133  68.135  1.00  0.00    -0.185 C  
HETATM   20  O   UNL     1      -9.998   9.176  67.463  1.00  0.00    -0.180 OA 
BRANCH  19  21
HETATM   21  O   UNL     1     -11.535  10.196  68.802  1.00  0.00    -0.167 OA 
HETATM   22  C   UNL     1     -11.386  10.263  70.223  1.00  0.00    -0.323 C  
ENDBRANCH  19  21
ENDBRANCH  16  19
BRANCH  18  23
HETATM   23  C   UNL     1     -10.686  12.516  66.304  1.00  0.00    -0.288 A  
HETATM   24  C   UNL     1     -12.019  12.914  66.090  1.00  0.00    -0.491 A  
HETATM   25  C   UNL     1     -12.617  12.773  64.843  1.00  0.00    -0.541 A  
HETATM   26  C   UNL     1     -11.890  12.240  63.773  1.00  0.00    -0.587 A  
HETATM   27  C   UNL     1     -10.569  11.825  63.964  1.00  0.00    -0.375 A  
HETATM   28 CL   UNL     1      -9.744  11.178  62.584  1.00  0.00    -0.277 Cl 
HETATM   29  C   UNL     1      -9.958  11.957  65.222  1.00  0.00    -0.251 A  
HETATM   30 CL   UNL     1      -8.308  11.438  65.426  1.00  0.00     0.190 Cl 
ENDBRANCH  18  23
ENDBRANCH   9  11
ENDBRANCH   8   9
ENDBRANCH   7   8
ENDBRANCH   6   7
ENDBRANCH   4   6
ENDBRANCH   3   4
ENDBRANCH   2   3
TORSDOF 10
ENDMDL
MODEL      124
REMARK 921   NORMALIZED FREE ENERGY PREDICTED BY IDOCK:   -4.13 KCAL/MOL
REMARK 922        TOTAL FREE ENERGY PREDICTED BY IDOCK:   -7.95 KCAL/MOL
REMARK 923 INTER-LIGAND FREE ENERGY PREDICTED BY IDOCK:   -7.18 KCAL/MOL
REMARK 924 INTRA-LIGAND FREE ENERGY PREDICTED BY IDOCK:   -0.76 KCAL/MOL
REMARK 927      BINDING AFFINITY PREDICTED BY RF-SCORE:    0.00 PKD
ROOT
HETATM    1  C   UNL     1      -6.289  20.252  67.182  1.00  0.00    -0.239 C  
HETATM    2  C   UNL     1      -7.490  20.497  68.080  1.00  0.00    -0.166 C  
ENDROOT
BRANCH   2   3
HETATM    3  C   UNL     1      -7.840  19.253  68.883  1.00  0.00    -0.367 C  
BRANCH   3   4
HETATM    4  C   UNL     1      -9.305  18.913  68.767  1.00  0.00    -0.336 C  
HETATM    5  O   UNL     1     -10.191  19.690  68.440  1.00  0.00    -0.423 OA 
BRANCH   4   6
HETATM    6  O   UNL     1      -9.469  17.593  69.022  1.00  0.00    -0.212 OA 
BRANCH   6   7
HETATM    7  C   UNL     1      -8.286  16.893  69.379  1.00  0.00     0.245 C  
BRANCH   7   8
HETATM    8  O   UNL     1      -7.647  16.139  68.349  1.00  0.00    -0.147 OA 
BRANCH   8   9
HETATM    9  C   UNL     1      -8.205  14.963  68.006  1.00  0.00    -0.139 C  
HETATM   10  O   UNL     1      -7.835  13.876  68.416  1.00  0.00    -0.126 OA 
BRANCH   9  11
HETATM   11  C   UNL     1      -9.218  15.155  66.916  1.00  0.00    -0.259 C  
HETATM   12  C   UNL     1      -9.156  16.131  65.972  1.00  0.00    -0.318 C  
HETATM   13  N   UNL     1     -10.047  16.113  64.915  1.00  0.00    -0.311 NA 
HETATM   14  C   UNL     1      -8.198  17.302  65.887  1.00  0.00    -0.027 C  
HETATM   15  C   UNL     1     -11.136  15.278  64.791  1.00  0.00    -0.394 C  
HETATM   16  C   UNL     1     -11.329  14.282  65.686  1.00  0.00    -0.317 C  
HETATM   17  C   UNL     1     -12.039  15.580  63.619  1.00  0.00     0.703 C  
HETATM   18  C   UNL     1     -10.306  14.041  66.817  1.00  0.00    -0.271 C  
BRANCH  16  19
HETATM   19  C   UNL     1     -12.571  13.466  65.590  1.00  0.00    -0.438 C  
HETATM   20  O   UNL     1     -13.694  13.891  65.819  1.00  0.00    -0.106 OA 
BRANCH  19  21
HETATM   21  O   UNL     1     -12.298  12.181  65.250  1.00  0.00    -0.513 OA 
HETATM   22  C   UNL     1     -12.327  11.944  63.840  1.00  0.00    -0.383 C  
ENDBRANCH  19  21
ENDBRANCH  16  19
BRANCH  18  23
HETATM   23  C   UNL     1     -11.006  13.772  68.158  1.00  0.00    -0.265 A  
HETATM   24  C   UNL     1     -11.574  14.859  68.850  1.00  0.00    -0.339 A  
HETATM   25  C   UNL     1     -12.239  14.670  70.057  1.00  0.00    -0.385 A  
HETATM   26  C   UNL     1     -12.361  13.386  70.597  1.00  0.00    -0.423 A  
HETATM   27  C   UNL     1     -11.792  12.293  69.936  1.00  0.00    -0.311 A  
HETATM   28 CL   UNL     1     -11.993  10.739  70.676  1.00  0.00    -0.435 Cl 
HETATM   29  C   UNL     1     -11.114  12.474  68.720  1.00  0.00    -0.270 A  
HETATM   30 CL   UNL     1     -10.423  11.092  67.916  1.00  0.00    -0.210 Cl 
ENDBRANCH  18  23
ENDBRANCH   9  11
ENDBRANCH   8   9
ENDBRANCH   7   8
ENDBRANCH   6   7
ENDBRANCH   4   6
ENDBRANCH   3   4
ENDBRANCH   2   3
TORSDOF 10
ENDMDL
MODEL      125
REMARK 921   NORMALIZED FREE ENERGY PREDICTED BY IDOCK:   -4.13 KCAL/MOL
REMARK 922        TOTAL FREE ENERGY PREDICTED BY IDOCK:   -7.94 KCAL/MOL
REMARK 923 INTER-LIGAND FREE ENERGY PREDICTED BY IDOCK:   -6.29 KCAL/MOL
REMARK 924 INTRA-LIGAND FREE ENERGY PREDICTED BY IDOCK:   -1.65 KCAL/MOL
REMARK 927      BINDING AFFINITY PREDICTED BY RF-SCORE:    0.00 PKD
ROOT
HETATM    1  C   UNL     1     -11.154   6.347  67.271  1.00  0.00    -0.416 C  
HETATM    2  C   UNL     1     -11.201   6.281  68.789  1.00  0.00    -0.357 C  
ENDROOT
BRANCH   2   3
HETATM    3  C   UNL     1     -10.066   5.429  69.339  1.00  0.00    -0.304 C  
BRANCH   3   4
HETATM    4  C   UNL     1      -9.798   5.734  70.791  1.00  0.00    -0.183 C  
HETATM    5  O   UNL     1      -9.964   4.958  71.722  1.00  0.00    -0.175 OA 
BRANCH   4   6
HETATM    6  O   UNL     1      -9.285   6.983  70.889  1.00  0.00    -0.156 OA 
BRANCH   6   7
HETATM    7  C   UNL     1      -8.250   7.287  69.965  1.00  0.00    -0.132 C  
BRANCH   7   8
HETATM    8  O   UNL     1      -8.430   8.447  69.152  1.00  0.00    -0.120 OA 
BRANCH   8   9
HETATM    9  C   UNL     1      -8.262   9.646  69.740  1.00  0.00    -0.161 C  
HETATM   10  O   UNL     1      -7.515   9.858  70.680  1.00  0.00    -0.284 OA 
BRANCH   9  11
HETATM   11  C   UNL     1      -9.247  10.643  69.203  1.00  0.00    -0.162 C  
HETATM   12  C   UNL     1     -10.568  10.665  69.522  1.00  0.00    -0.230 C  
HETATM   13  N   UNL     1     -11.351  11.726  69.106  1.00  0.00    -0.258 NA 
HETATM   14  C   UNL     1     -11.364   9.651  70.320  1.00  0.00    -0.311 C  
HETATM   15  C   UNL     1     -10.965  12.721  68.235  1.00  0.00    -0.252 C  
HETATM   16  C   UNL     1      -9.681  12.791  67.815  1.00  0.00    -0.207 C  
HETATM   17  C   UNL     1     -12.067  13.666  67.819  1.00  0.00    -0.325 C  
HETATM   18  C   UNL     1      -8.630  11.794  68.350  1.00  0.00    -0.156 C  
BRANCH  16  19
HETATM   19  C   UNL     1      -9.318  13.809  66.790  1.00  0.00    -0.266 C  
HETATM   20  O   UNL     1      -9.695  13.781  65.629  1.00  0.00    -0.221 OA 
BRANCH  19  21
HETATM   21  O   UNL     1      -8.488  14.755  67.299  1.00  0.00    -0.187 OA 
HETATM   22  C   UNL     1      -9.029  16.078  67.249  1.00  0.00    -0.197 C  
ENDBRANCH  19  21
ENDBRANCH  16  19
BRANCH  18  23
HETATM   23  C   UNL     1      -7.722  11.279  67.224  1.00  0.00    -0.138 A  
HETATM   24  C   UNL     1      -6.366  11.659  67.225  1.00  0.00    -0.118 A  
HETATM   25  C   UNL     1      -5.494  11.203  66.242  1.00  0.00    -0.142 A  
HETATM   26  C   UNL     1      -5.955  10.345  65.239  1.00  0.00    -0.135 A  
HETATM   27  C   UNL     1      -7.300   9.964  65.209  1.00  0.00    -0.131 A  
HETATM   28 CL   UNL     1      -7.784   8.898  63.931  1.00  0.00    -0.122 Cl 
HETATM   29  C   UNL     1      -8.190  10.424  66.192  1.00  0.00    -0.144 A  
HETATM   30 CL   UNL     1      -9.858   9.926  66.132  1.00  0.00    -0.303 Cl 
ENDBRANCH  18  23
ENDBRANCH   9  11
ENDBRANCH   8   9
ENDBRANCH   7   8
ENDBRANCH   6   7
ENDBRANCH   4   6
ENDBRANCH   3   4
ENDBRANCH   2   3
TORSDOF 10
ENDMDL
MODEL      126
REMARK 921   NORMALIZED FREE ENERGY PREDICTED BY IDOCK:   -4.10 KCAL/MOL
REMARK 922        TOTAL FREE ENERGY PREDICTED BY IDOCK:   -7.90 KCAL/MOL
REMARK 923 INTER-LIGAND FREE ENERGY PREDICTED BY IDOCK:   -7.39 KCAL/MOL
REMARK 924 INTRA-LIGAND FREE ENERGY PREDICTED BY IDOCK:   -0.51 KCAL/MOL
REMARK 927      BINDING AFFINITY PREDICTED BY RF-SCORE:    0.00 PKD
ROOT
HETATM    1  C   UNL     1      -9.655  18.866  66.428  1.00  0.00    -0.377 C  
HETATM    2  C   UNL     1      -8.428  18.065  66.830  1.00  0.00    -0.274 C  
ENDROOT
BRANCH   2   3
HETATM    3  C   UNL     1      -8.579  16.599  66.450  1.00  0.00    -0.345 C  
BRANCH   3   4
HETATM    4  C   UNL     1      -9.742  15.958  67.165  1.00  0.00    -0.224 C  
HETATM    5  O   UNL     1     -10.081  16.187  68.318  1.00  0.00    -0.225 OA 
BRANCH   4   6
HETATM    6  O   UNL     1     -10.386  15.134  66.304  1.00  0.00    -0.273 OA 
BRANCH   6   7
HETATM    7  C   UNL     1      -9.843  13.826  66.197  1.00  0.00    -0.297 C  
BRANCH   7   8
HETATM    8  O   UNL     1      -9.983  12.974  67.333  1.00  0.00    -0.223 OA 
BRANCH   8   9
HETATM    9  C   UNL     1     -10.712  11.853  67.179  1.00  0.00    -0.240 C  
HETATM   10  O   UNL     1     -11.061  11.395  66.104  1.00  0.00    -0.278 OA 
BRANCH   9  11
HETATM   11  C   UNL     1     -11.192  11.346  68.508  1.00  0.00    -0.309 C  
HETATM   12  C   UNL     1     -11.849  12.101  69.427  1.00  0.00    -0.309 C  
HETATM   13  N   UNL     1     -12.396  11.494  70.543  1.00  0.00    -0.354 NA 
HETATM   14  C   UNL     1     -12.102  13.596  69.414  1.00  0.00    -0.364 C  
HETATM   15  C   UNL     1     -12.202  10.184  70.924  1.00  0.00    -0.356 C  
HETATM   16  C   UNL     1     -11.534   9.335  70.111  1.00  0.00    -0.138 C  
HETATM   17  C   UNL     1     -12.778   9.823  72.272  1.00  0.00    -0.333 C  
HETATM   18  C   UNL     1     -11.033   9.809  68.730  1.00  0.00    -0.185 C  
BRANCH  16  19
HETATM   19  C   UNL     1     -11.246   7.957  70.597  1.00  0.00    -0.263 C  
HETATM   20  O   UNL     1     -12.087   7.078  70.715  1.00  0.00    -0.355 OA 
BRANCH  19  21
HETATM   21  O   UNL     1      -9.938   7.808  70.927  1.00  0.00    -0.183 OA 
HETATM   22  C   UNL     1      -9.609   8.333  72.216  1.00  0.00    -0.285 C  
ENDBRANCH  19  21
ENDBRANCH  16  19
BRANCH  18  23
HETATM   23  C   UNL     1      -9.607   9.313  68.449  1.00  0.00    -0.158 A  
HETATM   24  C   UNL     1      -8.527  10.001  69.035  1.00  0.00    -0.147 A  
HETATM   25  C   UNL     1      -7.216   9.582  68.833  1.00  0.00    -0.072 A  
HETATM   26  C   UNL     1      -6.954   8.454  68.047  1.00  0.00    -0.081 A  
HETATM   27  C   UNL     1      -8.009   7.762  67.444  1.00  0.00    -0.119 A  
HETATM   28 CL   UNL     1      -7.592   6.377  66.489  1.00  0.00    -0.093 Cl 
HETATM   29  C   UNL     1      -9.335   8.182  67.636  1.00  0.00    -0.140 A  
HETATM   30 CL   UNL     1     -10.627   7.295  66.877  1.00  0.00    -0.394 Cl 
ENDBRANCH  18  23
ENDBRANCH   9  11
ENDBRANCH   8   9
ENDBRANCH   7   8
ENDBRANCH   6   7
ENDBRANCH   4   6
ENDBRANCH   3   4
ENDBRANCH   2   3
TORSDOF 10
ENDMDL
MODEL      127
REMARK 921   NORMALIZED FREE ENERGY PREDICTED BY IDOCK:   -4.07 KCAL/MOL
REMARK 922        TOTAL FREE ENERGY PREDICTED BY IDOCK:   -7.85 KCAL/MOL
REMARK 923 INTER-LIGAND FREE ENERGY PREDICTED BY IDOCK:   -6.33 KCAL/MOL
REMARK 924 INTRA-LIGAND FREE ENERGY PREDICTED BY IDOCK:   -1.52 KCAL/MOL
REMARK 927      BINDING AFFINITY PREDICTED BY RF-SCORE:    0.00 PKD
ROOT
HETATM    1  C   UNL     1     -12.538  13.127  65.258  1.00  0.00    -0.531 C  
HETATM    2  C   UNL     1     -11.483  12.396  66.071  1.00  0.00    -0.431 C  
ENDROOT
BRANCH   2   3
HETATM    3  C   UNL     1     -11.828  12.401  67.553  1.00  0.00    -0.354 C  
BRANCH   3   4
HETATM    4  C   UNL     1     -10.666  12.871  68.392  1.00  0.00    -0.255 C  
HETATM    5  O   UNL     1     -10.635  13.901  69.050  1.00  0.00    -0.233 OA 
BRANCH   4   6
HETATM    6  O   UNL     1      -9.688  11.935  68.348  1.00  0.00    -0.203 OA 
BRANCH   6   7
HETATM    7  C   UNL     1     -10.001  10.701  68.977  1.00  0.00    -0.213 C  
BRANCH   7   8
HETATM    8  O   UNL     1      -9.609   9.510  68.295  1.00  0.00    -0.137 OA 
BRANCH   8   9
HETATM    9  C   UNL     1      -8.415   8.978  68.614  1.00  0.00    -0.128 C  
HETATM   10  O   UNL     1      -7.415   9.627  68.872  1.00  0.00    -0.072 OA 
BRANCH   9  11
HETATM   11  C   UNL     1      -8.431   7.489  68.431  1.00  0.00    -0.125 C  
HETATM   12  C   UNL     1      -8.385   6.862  67.226  1.00  0.00    -0.121 C  
HETATM   13  N   UNL     1      -8.233   5.488  67.178  1.00  0.00    -0.102 NA 
HETATM   14  C   UNL     1      -8.470   7.472  65.841  1.00  0.00    -0.153 C  
HETATM   15  C   UNL     1      -8.287   4.633  68.257  1.00  0.00    -0.090 C  
HETATM   16  C   UNL     1      -8.366   5.132  69.512  1.00  0.00    -0.093 C  
HETATM   17  C   UNL     1      -8.256   3.165  67.907  1.00  0.00    -0.087 C  
HETATM   18  C   UNL     1      -8.340   6.657  69.749  1.00  0.00    -0.132 C  
BRANCH  16  19
HETATM   19  C   UNL     1      -8.533   4.184  70.649  1.00  0.00    -0.070 C  
HETATM   20  O   UNL     1      -9.561   3.569  70.887  1.00  0.00    -0.156 OA 
BRANCH  19  21
HETATM   21  O   UNL     1      -7.411   4.114  71.409  1.00  0.00    -0.048 OA 
HETATM   22  C   UNL     1      -7.661   4.238  72.812  1.00  0.00    -0.081 C  
ENDBRANCH  19  21
ENDBRANCH  16  19
BRANCH  18  23
HETATM   23  C   UNL     1      -9.385   7.081  70.792  1.00  0.00    -0.161 A  
HETATM   24  C   UNL     1      -8.938   7.661  71.994  1.00  0.00    -0.158 A  
HETATM   25  C   UNL     1      -9.841   8.084  72.964  1.00  0.00    -0.352 A  
HETATM   26  C   UNL     1     -11.217   7.946  72.749  1.00  0.00    -0.466 A  
HETATM   27  C   UNL     1     -11.684   7.360  71.568  1.00  0.00    -0.284 A  
HETATM   28 CL   UNL     1     -13.403   7.231  71.386  1.00  0.00    -0.433 Cl 
HETATM   29  C   UNL     1     -10.780   6.924  70.586  1.00  0.00    -0.236 A  
HETATM   30 CL   UNL     1     -11.394   6.206  69.123  1.00  0.00    -0.425 Cl 
ENDBRANCH  18  23
ENDBRANCH   9  11
ENDBRANCH   8   9
ENDBRANCH   7   8
ENDBRANCH   6   7
ENDBRANCH   4   6
ENDBRANCH   3   4
ENDBRANCH   2   3
TORSDOF 10
ENDMDL
MODEL      128
REMARK 921   NORMALIZED FREE ENERGY PREDICTED BY IDOCK:   -4.06 KCAL/MOL
REMARK 922        TOTAL FREE ENERGY PREDICTED BY IDOCK:   -7.83 KCAL/MOL
REMARK 923 INTER-LIGAND FREE ENERGY PREDICTED BY IDOCK:   -6.44 KCAL/MOL
REMARK 924 INTRA-LIGAND FREE ENERGY PREDICTED BY IDOCK:   -1.39 KCAL/MOL
REMARK 927      BINDING AFFINITY PREDICTED BY RF-SCORE:    0.00 PKD
ROOT
HETATM    1  C   UNL     1      -9.817  20.671  67.357  1.00  0.00    -0.527 C  
HETATM    2  C   UNL     1      -9.386  19.217  67.271  1.00  0.00    -0.351 C  
ENDROOT
BRANCH   2   3
HETATM    3  C   UNL     1      -8.435  18.855  68.403  1.00  0.00    -0.385 C  
BRANCH   3   4
HETATM    4  C   UNL     1      -7.493  17.747  68.003  1.00  0.00    -0.226 C  
HETATM    5  O   UNL     1      -7.243  17.407  66.855  1.00  0.00    -0.166 OA 
BRANCH   4   6
HETATM    6  O   UNL     1      -6.923  17.233  69.118  1.00  0.00    -0.233 OA 
BRANCH   6   7
HETATM    7  C   UNL     1      -7.351  15.925  69.470  1.00  0.00    -0.170 C  
BRANCH   7   8
HETATM    8  O   UNL     1      -6.897  14.853  68.644  1.00  0.00    -0.099 OA 
BRANCH   8   9
HETATM    9  C   UNL     1      -7.127  13.599  69.076  1.00  0.00    -0.077 C  
HETATM   10  O   UNL     1      -6.807  13.176  70.174  1.00  0.00     0.269 OA 
BRANCH   9  11
HETATM   11  C   UNL     1      -7.663  12.745  67.965  1.00  0.00    -0.137 C  
HETATM   12  C   UNL     1      -6.891  12.089  67.059  1.00  0.00    -0.097 C  
HETATM   13  N   UNL     1      -7.479  11.195  66.183  1.00  0.00    -0.078 NA 
HETATM   14  C   UNL     1      -5.392  12.182  66.853  1.00  0.00     0.007 C  
HETATM   15  C   UNL     1      -8.833  11.007  66.011  1.00  0.00    -0.191 C  
HETATM   16  C   UNL     1      -9.712  11.630  66.829  1.00  0.00    -0.220 C  
HETATM   17  C   UNL     1      -9.208  10.089  64.872  1.00  0.00    -0.291 C  
HETATM   18  C   UNL     1      -9.206  12.509  67.993  1.00  0.00    -0.204 C  
BRANCH  16  19
HETATM   19  C   UNL     1     -11.169  11.495  66.550  1.00  0.00    -0.259 C  
HETATM   20  O   UNL     1     -11.971  10.979  67.314  1.00  0.00    -0.351 OA 
BRANCH  19  21
HETATM   21  O   UNL     1     -11.490  11.985  65.326  1.00  0.00    -0.338 OA 
HETATM   22  C   UNL     1     -12.509  12.989  65.361  1.00  0.00    -0.476 C  
ENDBRANCH  19  21
ENDBRANCH  16  19
BRANCH  18  23
HETATM   23  C   UNL     1     -10.005  13.816  68.098  1.00  0.00    -0.242 A  
HETATM   24  C   UNL     1      -9.720  14.854  67.192  1.00  0.00    -0.229 A  
HETATM   25  C   UNL     1     -10.428  16.051  67.227  1.00  0.00    -0.308 A  
HETATM   26  C   UNL     1     -11.449  16.233  68.166  1.00  0.00    -0.173 A  
HETATM   27  C   UNL     1     -11.742  15.222  69.086  1.00  0.00    -0.335 A  
HETATM   28 CL   UNL     1     -13.022  15.533  70.211  1.00  0.00    -0.269 Cl 
HETATM   29  C   UNL     1     -11.028  14.013  69.062  1.00  0.00    -0.259 A  
HETATM   30 CL   UNL     1     -11.421  12.769  70.216  1.00  0.00    -0.029 Cl 
ENDBRANCH  18  23
ENDBRANCH   9  11
ENDBRANCH   8   9
ENDBRANCH   7   8
ENDBRANCH   6   7
ENDBRANCH   4   6
ENDBRANCH   3   4
ENDBRANCH   2   3
TORSDOF 10
ENDMDL
MODEL      129
REMARK 921   NORMALIZED FREE ENERGY PREDICTED BY IDOCK:   -4.05 KCAL/MOL
REMARK 922        TOTAL FREE ENERGY PREDICTED BY IDOCK:   -7.82 KCAL/MOL
REMARK 923 INTER-LIGAND FREE ENERGY PREDICTED BY IDOCK:   -6.21 KCAL/MOL
REMARK 924 INTRA-LIGAND FREE ENERGY PREDICTED BY IDOCK:   -1.60 KCAL/MOL
REMARK 927      BINDING AFFINITY PREDICTED BY RF-SCORE:    0.00 PKD
ROOT
HETATM    1  C   UNL     1      -9.428  17.518  67.496  1.00  0.00    -0.255 C  
HETATM    2  C   UNL     1     -10.512  17.205  66.479  1.00  0.00    -0.255 C  
ENDROOT
BRANCH   2   3
HETATM    3  C   UNL     1     -10.204  15.921  65.722  1.00  0.00    -0.389 C  
BRANCH   3   4
HETATM    4  C   UNL     1     -11.466  15.202  65.314  1.00  0.00    -0.266 C  
HETATM    5  O   UNL     1     -12.111  15.419  64.299  1.00  0.00    -0.502 OA 
BRANCH   4   6
HETATM    6  O   UNL     1     -11.733  14.235  66.225  1.00  0.00    -0.367 OA 
BRANCH   6   7
HETATM    7  C   UNL     1     -10.677  13.314  66.457  1.00  0.00    -0.285 C  
BRANCH   7   8
HETATM    8  O   UNL     1     -10.706  12.596  67.690  1.00  0.00    -0.213 OA 
BRANCH   8   9
HETATM    9  C   UNL     1     -11.109  11.312  67.650  1.00  0.00    -0.277 C  
HETATM   10  O   UNL     1     -11.855  10.847  66.804  1.00  0.00    -0.040 OA 
BRANCH   9  11
HETATM   11  C   UNL     1     -10.668  10.578  68.882  1.00  0.00    -0.253 C  
HETATM   12  C   UNL     1     -11.290  10.658  70.088  1.00  0.00    -0.323 C  
HETATM   13  N   UNL     1     -10.904   9.811  71.111  1.00  0.00    -0.319 NA 
HETATM   14  C   UNL     1     -12.416  11.581  70.509  1.00  0.00    -0.367 C  
HETATM   15  C   UNL     1      -9.810   8.974  71.095  1.00  0.00    -0.300 C  
HETATM   16  C   UNL     1      -9.086   8.829  69.962  1.00  0.00    -0.164 C  
HETATM   17  C   UNL     1      -9.522   8.280  72.405  1.00  0.00    -0.357 C  
HETATM   18  C   UNL     1      -9.509   9.556  68.667  1.00  0.00    -0.143 C  
BRANCH  16  19
HETATM   19  C   UNL     1      -7.847   8.004  70.006  1.00  0.00    -0.104 C  
HETATM   20  O   UNL     1      -7.764   6.863  69.575  1.00  0.00    -0.099 OA 
BRANCH  19  21
HETATM   21  O   UNL     1      -6.829   8.663  70.616  1.00  0.00    -0.038 OA 
HETATM   22  C   UNL     1      -5.580   8.549  69.928  1.00  0.00    -0.028 C  
ENDBRANCH  19  21
ENDBRANCH  16  19
BRANCH  18  23
HETATM   23  C   UNL     1      -8.299  10.171  67.948  1.00  0.00    -0.117 A  
HETATM   24  C   UNL     1      -7.703  11.322  68.497  1.00  0.00    -0.131 A  
HETATM   25  C   UNL     1      -6.592  11.908  67.900  1.00  0.00    -0.075 A  
HETATM   26  C   UNL     1      -6.042  11.348  66.742  1.00  0.00    -0.145 A  
HETATM   27  C   UNL     1      -6.625  10.213  66.170  1.00  0.00    -0.098 A  
HETATM   28 CL   UNL     1      -5.877   9.587  64.737  1.00  0.00    -0.069 Cl 
HETATM   29  C   UNL     1      -7.751   9.618  66.761  1.00  0.00    -0.098 A  
HETATM   30 CL   UNL     1      -8.449   8.201  66.029  1.00  0.00    -0.135 Cl 
ENDBRANCH  18  23
ENDBRANCH   9  11
ENDBRANCH   8   9
ENDBRANCH   7   8
ENDBRANCH   6   7
ENDBRANCH   4   6
ENDBRANCH   3   4
ENDBRANCH   2   3
TORSDOF 10
ENDMDL
MODEL      130
REMARK 921   NORMALIZED FREE ENERGY PREDICTED BY IDOCK:   -4.02 KCAL/MOL
REMARK 922        TOTAL FREE ENERGY PREDICTED BY IDOCK:   -7.78 KCAL/MOL
REMARK 923 INTER-LIGAND FREE ENERGY PREDICTED BY IDOCK:   -5.87 KCAL/MOL
REMARK 924 INTRA-LIGAND FREE ENERGY PREDICTED BY IDOCK:   -1.91 KCAL/MOL
REMARK 927      BINDING AFFINITY PREDICTED BY RF-SCORE:    0.00 PKD
ROOT
HETATM    1  C   UNL     1     -11.900  13.415  66.787  1.00  0.00    -0.452 C  
HETATM    2  C   UNL     1     -11.764  12.319  67.831  1.00  0.00    -0.410 C  
ENDROOT
BRANCH   2   3
HETATM    3  C   UNL     1     -10.322  12.176  68.296  1.00  0.00    -0.218 C  
BRANCH   3   4
HETATM    4  C   UNL     1      -9.689  10.917  67.757  1.00  0.00    -0.168 C  
HETATM    5  O   UNL     1      -8.519  10.593  67.901  1.00  0.00    -0.118 OA 
BRANCH   4   6
HETATM    6  O   UNL     1     -10.642  10.176  67.144  1.00  0.00    -0.244 OA 
BRANCH   6   7
HETATM    7  C   UNL     1     -10.157   9.191  66.243  1.00  0.00    -0.249 C  
BRANCH   7   8
HETATM    8  O   UNL     1     -10.168   7.838  66.698  1.00  0.00    -0.269 OA 
BRANCH   8   9
HETATM    9  C   UNL     1      -9.004   7.163  66.660  1.00  0.00    -0.146 C  
HETATM   10  O   UNL     1      -8.036   7.489  65.993  1.00  0.00    -0.102 OA 
BRANCH   9  11
HETATM   11  C   UNL     1      -9.120   5.863  67.401  1.00  0.00    -0.110 C  
HETATM   12  C   UNL     1      -9.645   4.725  66.878  1.00  0.00    -0.172 C  
HETATM   13  N   UNL     1      -9.549   3.541  67.587  1.00  0.00    -0.182 NA 
HETATM   14  C   UNL     1     -10.357   4.536  65.553  1.00  0.00    -0.254 C  
HETATM   15  C   UNL     1      -9.105   3.413  68.885  1.00  0.00    -0.144 C  
HETATM   16  C   UNL     1      -8.586   4.482  69.531  1.00  0.00    -0.105 C  
HETATM   17  C   UNL     1      -9.257   2.031  69.475  1.00  0.00    -0.176 C  
HETATM   18  C   UNL     1      -8.437   5.836  68.804  1.00  0.00    -0.107 C  
BRANCH  16  19
HETATM   19  C   UNL     1      -8.217   4.340  70.967  1.00  0.00    -0.076 C  
HETATM   20  O   UNL     1      -9.019   4.359  71.889  1.00  0.00    -0.120 OA 
BRANCH  19  21
HETATM   21  O   UNL     1      -6.875   4.220  71.127  1.00  0.00    -0.033 OA 
HETATM   22  C   UNL     1      -6.341   5.076  72.141  1.00  0.00    -0.035 C  
ENDBRANCH  19  21
ENDBRANCH  16  19
BRANCH  18  23
HETATM   23  C   UNL     1      -8.873   7.005  69.700  1.00  0.00    -0.141 A  
HETATM   24  C   UNL     1      -7.891   7.902  70.162  1.00  0.00    -0.097 A  
HETATM   25  C   UNL     1      -8.233   8.991  70.957  1.00  0.00    -0.220 A  
HETATM   26  C   UNL     1      -9.570   9.215  71.301  1.00  0.00    -0.331 A  
HETATM   27  C   UNL     1     -10.562   8.331  70.866  1.00  0.00    -0.207 A  
HETATM   28 CL   UNL     1     -12.190   8.687  71.338  1.00  0.00    -0.336 Cl 
HETATM   29  C   UNL     1     -10.226   7.225  70.068  1.00  0.00    -0.201 A  
HETATM   30 CL   UNL     1     -11.484   6.146  69.536  1.00  0.00    -0.451 Cl 
ENDBRANCH  18  23
ENDBRANCH   9  11
ENDBRANCH   8   9
ENDBRANCH   7   8
ENDBRANCH   6   7
ENDBRANCH   4   6
ENDBRANCH   3   4
ENDBRANCH   2   3
TORSDOF 10
ENDMDL
MODEL      131
REMARK 921   NORMALIZED FREE ENERGY PREDICTED BY IDOCK:   -4.02 KCAL/MOL
REMARK 922        TOTAL FREE ENERGY PREDICTED BY IDOCK:   -7.77 KCAL/MOL
REMARK 923 INTER-LIGAND FREE ENERGY PREDICTED BY IDOCK:   -5.80 KCAL/MOL
REMARK 924 INTRA-LIGAND FREE ENERGY PREDICTED BY IDOCK:   -1.98 KCAL/MOL
REMARK 927      BINDING AFFINITY PREDICTED BY RF-SCORE:    0.00 PKD
ROOT
HETATM    1  C   UNL     1      -7.230   9.338  64.953  1.00  0.00    -0.102 C  
HETATM    2  C   UNL     1      -8.689   8.957  65.136  1.00  0.00    -0.213 C  
ENDROOT
BRANCH   2   3
HETATM    3  C   UNL     1      -8.866   7.998  66.304  1.00  0.00    -0.191 C  
BRANCH   3   4
HETATM    4  C   UNL     1      -8.380   6.611  65.961  1.00  0.00    -0.134 C  
HETATM    5  O   UNL     1      -8.438   6.092  64.856  1.00  0.00    -0.132 OA 
BRANCH   4   6
HETATM    6  O   UNL     1      -7.813   6.062  67.061  1.00  0.00    -0.100 OA 
BRANCH   6   7
HETATM    7  C   UNL     1      -7.090   6.964  67.886  1.00  0.00    -0.086 C  
BRANCH   7   8
HETATM    8  O   UNL     1      -7.282   6.847  69.295  1.00  0.00    -0.084 OA 
BRANCH   8   9
HETATM    9  C   UNL     1      -7.194   7.973  70.027  1.00  0.00    -0.061 C  
HETATM   10  O   UNL     1      -6.230   8.284  70.706  1.00  0.00    -0.032 OA 
BRANCH   9  11
HETATM   11  C   UNL     1      -8.506   8.702  70.041  1.00  0.00    -0.130 C  
HETATM   12  C   UNL     1      -8.700   9.944  69.523  1.00  0.00    -0.190 C  
HETATM   13  N   UNL     1      -9.983  10.451  69.435  1.00  0.00    -0.224 NA 
HETATM   14  C   UNL     1      -7.668  10.914  68.984  1.00  0.00    -0.135 C  
HETATM   15  C   UNL     1     -11.114   9.885  69.982  1.00  0.00    -0.285 C  
HETATM   16  C   UNL     1     -11.048   8.663  70.557  1.00  0.00    -0.268 C  
HETATM   17  C   UNL     1     -12.361  10.731  69.880  1.00  0.00    -0.340 C  
HETATM   18  C   UNL     1      -9.722   7.871  70.556  1.00  0.00    -0.174 C  
BRANCH  16  19
HETATM   19  C   UNL     1     -12.260   8.125  71.235  1.00  0.00    -0.279 C  
HETATM   20  O   UNL     1     -12.906   7.169  70.834  1.00  0.00    -0.294 OA 
BRANCH  19  21
HETATM   21  O   UNL     1     -12.577   8.850  72.337  1.00  0.00    -0.382 OA 
HETATM   22  C   UNL     1     -13.985   9.022  72.523  1.00  0.00    -0.401 C  
ENDBRANCH  19  21
ENDBRANCH  16  19
BRANCH  18  23
HETATM   23  C   UNL     1      -9.459   7.216  71.920  1.00  0.00    -0.157 A  
HETATM   24  C   UNL     1      -9.118   8.042  73.009  1.00  0.00    -0.331 A  
HETATM   25  C   UNL     1      -8.891   7.504  74.271  1.00  0.00    -0.247 A  
HETATM   26  C   UNL     1      -9.010   6.126  74.478  1.00  0.00    -0.146 A  
HETATM   27  C   UNL     1      -9.334   5.284  73.410  1.00  0.00    -0.134 A  
HETATM   28 CL   UNL     1      -9.462   3.591  73.757  1.00  0.00    -0.112 Cl 
HETATM   29  C   UNL     1      -9.559   5.816  72.130  1.00  0.00    -0.149 A  
HETATM   30 CL   UNL     1      -9.967   4.743  70.821  1.00  0.00    -0.285 Cl 
ENDBRANCH  18  23
ENDBRANCH   9  11
ENDBRANCH   8   9
ENDBRANCH   7   8
ENDBRANCH   6   7
ENDBRANCH   4   6
ENDBRANCH   3   4
ENDBRANCH   2   3
TORSDOF 10
ENDMDL
MODEL      132
REMARK 921   NORMALIZED FREE ENERGY PREDICTED BY IDOCK:   -4.02 KCAL/MOL
REMARK 922        TOTAL FREE ENERGY PREDICTED BY IDOCK:   -7.77 KCAL/MOL
REMARK 923 INTER-LIGAND FREE ENERGY PREDICTED BY IDOCK:   -6.04 KCAL/MOL
REMARK 924 INTRA-LIGAND FREE ENERGY PREDICTED BY IDOCK:   -1.73 KCAL/MOL
REMARK 927      BINDING AFFINITY PREDICTED BY RF-SCORE:    0.00 PKD
ROOT
HETATM    1  C   UNL     1     -11.960  14.281  64.081  1.00  0.00    -0.401 C  
HETATM    2  C   UNL     1     -10.740  14.364  64.983  1.00  0.00    -0.440 C  
ENDROOT
BRANCH   2   3
HETATM    3  C   UNL     1     -10.956  15.360  66.113  1.00  0.00    -0.279 C  
BRANCH   3   4
HETATM    4  C   UNL     1     -11.444  14.679  67.367  1.00  0.00    -0.369 C  
HETATM    5  O   UNL     1     -12.307  13.814  67.415  1.00  0.00    -0.312 OA 
BRANCH   4   6
HETATM    6  O   UNL     1     -10.727  15.136  68.421  1.00  0.00    -0.238 OA 
BRANCH   6   7
HETATM    7  C   UNL     1      -9.425  14.583  68.554  1.00  0.00    -0.211 C  
BRANCH   7   8
HETATM    8  O   UNL     1      -9.308  13.167  68.423  1.00  0.00    -0.207 OA 
BRANCH   8   9
HETATM    9  C   UNL     1      -8.123  12.679  68.010  1.00  0.00    -0.161 C  
HETATM   10  O   UNL     1      -7.357  13.264  67.263  1.00  0.00    -0.140 OA 
BRANCH   9  11
HETATM   11  C   UNL     1      -7.957  11.252  68.444  1.00  0.00    -0.140 C  
HETATM   12  C   UNL     1      -7.064  10.833  69.379  1.00  0.00    -0.122 C  
HETATM   13  N   UNL     1      -7.110   9.526  69.827  1.00  0.00    -0.066 NA 
HETATM   14  C   UNL     1      -5.964  11.627  70.057  1.00  0.00    -0.152 C  
HETATM   15  C   UNL     1      -7.884   8.518  69.295  1.00  0.00    -0.099 C  
HETATM   16  C   UNL     1      -8.792   8.799  68.332  1.00  0.00    -0.138 C  
HETATM   17  C   UNL     1      -7.620   7.145  69.865  1.00  0.00    -0.098 C  
HETATM   18  C   UNL     1      -9.006  10.254  67.863  1.00  0.00    -0.131 C  
BRANCH  16  19
HETATM   19  C   UNL     1      -9.535   7.674  67.700  1.00  0.00    -0.142 C  
HETATM   20  O   UNL     1     -10.744   7.514  67.784  1.00  0.00    -0.220 OA 
BRANCH  19  21
HETATM   21  O   UNL     1      -8.699   6.829  67.046  1.00  0.00    -0.112 OA 
HETATM   22  C   UNL     1      -9.375   5.763  66.372  1.00  0.00    -0.156 C  
ENDBRANCH  19  21
ENDBRANCH  16  19
BRANCH  18  23
HETATM   23  C   UNL     1      -9.124  10.340  66.334  1.00  0.00    -0.174 A  
HETATM   24  C   UNL     1     -10.337  10.785  65.776  1.00  0.00    -0.295 A  
HETATM   25  C   UNL     1     -10.491  10.903  64.399  1.00  0.00    -0.403 A  
HETATM   26  C   UNL     1      -9.429  10.588  63.545  1.00  0.00    -0.352 A  
HETATM   27  C   UNL     1      -8.219  10.130  64.075  1.00  0.00    -0.164 A  
HETATM   28 CL   UNL     1      -6.958   9.764  62.944  1.00  0.00    -0.111 Cl 
HETATM   29  C   UNL     1      -8.055  10.001  65.464  1.00  0.00    -0.137 A  
HETATM   30 CL   UNL     1      -6.533   9.436  66.093  1.00  0.00    -0.068 Cl 
ENDBRANCH  18  23
ENDBRANCH   9  11
ENDBRANCH   8   9
ENDBRANCH   7   8
ENDBRANCH   6   7
ENDBRANCH   4   6
ENDBRANCH   3   4
ENDBRANCH   2   3
TORSDOF 10
ENDMDL
MODEL      133
REMARK 921   NORMALIZED FREE ENERGY PREDICTED BY IDOCK:   -4.01 KCAL/MOL
REMARK 922        TOTAL FREE ENERGY PREDICTED BY IDOCK:   -7.75 KCAL/MOL
REMARK 923 INTER-LIGAND FREE ENERGY PREDICTED BY IDOCK:   -6.12 KCAL/MOL
REMARK 924 INTRA-LIGAND FREE ENERGY PREDICTED BY IDOCK:   -1.63 KCAL/MOL
REMARK 927      BINDING AFFINITY PREDICTED BY RF-SCORE:    0.00 PKD
ROOT
HETATM    1  C   UNL     1     -11.802   7.365  72.299  1.00  0.00    -0.307 C  
HETATM    2  C   UNL     1     -11.637   7.140  70.806  1.00  0.00    -0.358 C  
ENDROOT
BRANCH   2   3
HETATM    3  C   UNL     1     -10.408   6.293  70.509  1.00  0.00    -0.255 C  
BRANCH   3   4
HETATM    4  C   UNL     1     -10.421   5.773  69.093  1.00  0.00    -0.276 C  
HETATM    5  O   UNL     1      -9.749   4.843  68.671  1.00  0.00    -0.145 OA 
BRANCH   4   6
HETATM    6  O   UNL     1     -11.343   6.465  68.382  1.00  0.00    -0.280 OA 
BRANCH   6   7
HETATM    7  C   UNL     1     -10.835   7.186  67.270  1.00  0.00    -0.312 C  
BRANCH   7   8
HETATM    8  O   UNL     1     -10.423   8.532  67.506  1.00  0.00    -0.249 OA 
BRANCH   8   9
HETATM    9  C   UNL     1      -9.556   9.077  66.632  1.00  0.00    -0.213 C  
HETATM   10  O   UNL     1      -9.569   8.878  65.429  1.00  0.00    -0.135 OA 
BRANCH   9  11
HETATM   11  C   UNL     1      -8.465   9.813  67.354  1.00  0.00    -0.121 C  
HETATM   12  C   UNL     1      -7.470   9.213  68.058  1.00  0.00    -0.084 C  
HETATM   13  N   UNL     1      -6.422   9.975  68.541  1.00  0.00    -0.049 NA 
HETATM   14  C   UNL     1      -7.314   7.746  68.411  1.00  0.00    -0.095 C  
HETATM   15  C   UNL     1      -6.352  11.351  68.527  1.00  0.00    -0.047 C  
HETATM   16  C   UNL     1      -7.301  12.069  67.885  1.00  0.00    -0.104 C  
HETATM   17  C   UNL     1      -5.173  11.935  69.268  1.00  0.00    -0.052 C  
HETATM   18  C   UNL     1      -8.436  11.355  67.119  1.00  0.00    -0.153 C  
BRANCH  16  19
HETATM   19  C   UNL     1      -7.259  13.555  67.979  1.00  0.00    -0.125 C  
HETATM   20  O   UNL     1      -6.872  14.291  67.084  1.00  0.00    -0.177 OA 
BRANCH  19  21
HETATM   21  O   UNL     1      -7.673  13.989  69.196  1.00  0.00    -0.060 OA 
HETATM   22  C   UNL     1      -8.359  15.244  69.154  1.00  0.00    -0.233 C  
ENDBRANCH  19  21
ENDBRANCH  16  19
BRANCH  18  23
HETATM   23  C   UNL     1      -9.795  12.022  67.378  1.00  0.00    -0.191 A  
HETATM   24  C   UNL     1     -10.267  12.094  68.702  1.00  0.00    -0.186 A  
HETATM   25  C   UNL     1     -11.481  12.707  68.996  1.00  0.00    -0.354 A  
HETATM   26  C   UNL     1     -12.247  13.274  67.972  1.00  0.00    -0.118 A  
HETATM   27  C   UNL     1     -11.805  13.202  66.648  1.00  0.00    -0.391 A  
HETATM   28 CL   UNL     1     -12.817  13.931  65.444  1.00  0.00    -0.523 Cl 
HETATM   29  C   UNL     1     -10.585  12.580  66.339  1.00  0.00    -0.247 A  
HETATM   30 CL   UNL     1     -10.058  12.514  64.681  1.00  0.00    -0.283 Cl 
ENDBRANCH  18  23
ENDBRANCH   9  11
ENDBRANCH   8   9
ENDBRANCH   7   8
ENDBRANCH   6   7
ENDBRANCH   4   6
ENDBRANCH   3   4
ENDBRANCH   2   3
TORSDOF 10
ENDMDL
MODEL      134
REMARK 921   NORMALIZED FREE ENERGY PREDICTED BY IDOCK:   -3.98 KCAL/MOL
REMARK 922        TOTAL FREE ENERGY PREDICTED BY IDOCK:   -7.72 KCAL/MOL
REMARK 923 INTER-LIGAND FREE ENERGY PREDICTED BY IDOCK:   -6.75 KCAL/MOL
REMARK 924 INTRA-LIGAND FREE ENERGY PREDICTED BY IDOCK:   -0.97 KCAL/MOL
REMARK 927      BINDING AFFINITY PREDICTED BY RF-SCORE:    0.00 PKD
ROOT
HETATM    1  C   UNL     1      -7.055   5.549  73.010  1.00  0.00    -0.085 C  
HETATM    2  C   UNL     1      -8.296   4.810  72.537  1.00  0.00    -0.115 C  
ENDROOT
BRANCH   2   3
HETATM    3  C   UNL     1      -9.408   4.879  73.574  1.00  0.00    -0.129 C  
BRANCH   3   4
HETATM    4  C   UNL     1     -10.156   6.187  73.499  1.00  0.00    -0.210 C  
HETATM    5  O   UNL     1     -10.152   7.058  74.357  1.00  0.00    -0.271 OA 
BRANCH   4   6
HETATM    6  O   UNL     1     -10.781   6.265  72.300  1.00  0.00    -0.213 OA 
BRANCH   6   7
HETATM    7  C   UNL     1     -11.641   7.383  72.137  1.00  0.00    -0.293 C  
BRANCH   7   8
HETATM    8  O   UNL     1     -11.616   8.038  70.869  1.00  0.00    -0.283 OA 
BRANCH   8   9
HETATM    9  C   UNL     1     -10.594   8.881  70.628  1.00  0.00    -0.229 C  
HETATM   10  O   UNL     1      -9.634   9.033  71.364  1.00  0.00    -0.273 OA 
BRANCH   9  11
HETATM   11  C   UNL     1     -10.883   9.737  69.430  1.00  0.00    -0.256 C  
HETATM   12  C   UNL     1     -11.808  10.733  69.403  1.00  0.00    -0.298 C  
HETATM   13  N   UNL     1     -11.874  11.570  68.304  1.00  0.00    -0.542 NA 
HETATM   14  C   UNL     1     -12.833  11.098  70.457  1.00  0.00    -0.213 C  
HETATM   15  C   UNL     1     -11.191  11.402  67.120  1.00  0.00    -0.296 C  
HETATM   16  C   UNL     1     -10.264  10.424  67.007  1.00  0.00    -0.277 C  
HETATM   17  C   UNL     1     -11.572  12.369  66.024  1.00  0.00    -0.455 C  
HETATM   18  C   UNL     1      -9.925   9.527  68.216  1.00  0.00    -0.184 C  
BRANCH  16  19
HETATM   19  C   UNL     1      -9.621  10.197  65.682  1.00  0.00    -0.243 C  
HETATM   20  O   UNL     1     -10.212  10.246  64.613  1.00  0.00    -0.322 OA 
BRANCH  19  21
HETATM   21  O   UNL     1      -8.305   9.895  65.811  1.00  0.00    -0.122 OA 
HETATM   22  C   UNL     1      -7.490  11.022  66.148  1.00  0.00    -0.076 C  
ENDBRANCH  19  21
ENDBRANCH  16  19
BRANCH  18  23
HETATM   23  C   UNL     1      -9.802   8.052  67.805  1.00  0.00    -0.207 A  
HETATM   24  C   UNL     1     -10.957   7.377  67.366  1.00  0.00    -0.214 A  
HETATM   25  C   UNL     1     -10.900   6.048  66.960  1.00  0.00    -0.413 A  
HETATM   26  C   UNL     1      -9.680   5.364  66.972  1.00  0.00    -0.162 A  
HETATM   27  C   UNL     1      -8.521   6.009  67.417  1.00  0.00    -0.104 A  
HETATM   28 CL   UNL     1      -7.055   5.085  67.397  1.00  0.00    -0.065 Cl 
HETATM   29  C   UNL     1      -8.570   7.348  67.835  1.00  0.00    -0.125 A  
HETATM   30 CL   UNL     1      -7.109   8.126  68.376  1.00  0.00    -0.076 Cl 
ENDBRANCH  18  23
ENDBRANCH   9  11
ENDBRANCH   8   9
ENDBRANCH   7   8
ENDBRANCH   6   7
ENDBRANCH   4   6
ENDBRANCH   3   4
ENDBRANCH   2   3
TORSDOF 10
ENDMDL
MODEL      135
REMARK 921   NORMALIZED FREE ENERGY PREDICTED BY IDOCK:   -3.98 KCAL/MOL
REMARK 922        TOTAL FREE ENERGY PREDICTED BY IDOCK:   -7.71 KCAL/MOL
REMARK 923 INTER-LIGAND FREE ENERGY PREDICTED BY IDOCK:   -6.60 KCAL/MOL
REMARK 924 INTRA-LIGAND FREE ENERGY PREDICTED BY IDOCK:   -1.12 KCAL/MOL
REMARK 927      BINDING AFFINITY PREDICTED BY RF-SCORE:    0.00 PKD
ROOT
HETATM    1  C   UNL     1     -12.368  14.032  66.116  1.00  0.00    -0.491 C  
HETATM    2  C   UNL     1     -11.587  14.486  64.894  1.00  0.00    -0.401 C  
ENDROOT
BRANCH   2   3
HETATM    3  C   UNL     1     -12.117  13.831  63.627  1.00  0.00    -0.330 C  
BRANCH   3   4
HETATM    4  C   UNL     1     -12.236  12.336  63.783  1.00  0.00    -0.546 C  
HETATM    5  O   UNL     1     -13.255  11.733  64.092  1.00  0.00    -0.527 OA 
BRANCH   4   6
HETATM    6  O   UNL     1     -11.049  11.766  63.466  1.00  0.00    -0.407 OA 
BRANCH   6   7
HETATM    7  C   UNL     1     -10.097  11.724  64.519  1.00  0.00    -0.274 C  
BRANCH   7   8
HETATM    8  O   UNL     1     -10.080  10.549  65.328  1.00  0.00    -0.279 OA 
BRANCH   8   9
HETATM    9  C   UNL     1     -10.478  10.673  66.608  1.00  0.00    -0.237 C  
HETATM   10  O   UNL     1     -11.624  10.900  66.958  1.00  0.00    -0.383 OA 
BRANCH   9  11
HETATM   11  C   UNL     1      -9.296  10.676  67.533  1.00  0.00    -0.158 C  
HETATM   12  C   UNL     1      -8.642  11.795  67.941  1.00  0.00    -0.156 C  
HETATM   13  N   UNL     1      -7.676  11.700  68.926  1.00  0.00    -0.104 NA 
HETATM   14  C   UNL     1      -8.824  13.222  67.461  1.00  0.00    -0.206 C  
HETATM   15  C   UNL     1      -7.169  10.529  69.446  1.00  0.00    -0.117 C  
HETATM   16  C   UNL     1      -7.713   9.342  69.096  1.00  0.00    -0.078 C  
HETATM   17  C   UNL     1      -6.005  10.706  70.391  1.00  0.00    -0.119 C  
HETATM   18  C   UNL     1      -8.937   9.291  68.156  1.00  0.00    -0.128 C  
BRANCH  16  19
HETATM   19  C   UNL     1      -7.074   8.089  69.589  1.00  0.00    -0.061 C  
HETATM   20  O   UNL     1      -5.913   7.776  69.370  1.00  0.00    -0.032 OA 
BRANCH  19  21
HETATM   21  O   UNL     1      -7.951   7.322  70.283  1.00  0.00    -0.111 OA 
HETATM   22  C   UNL     1      -8.234   7.820  71.594  1.00  0.00    -0.110 C  
ENDBRANCH  19  21
ENDBRANCH  16  19
BRANCH  18  23
HETATM   23  C   UNL     1      -8.788   8.185  67.100  1.00  0.00    -0.138 A  
HETATM   24  C   UNL     1      -7.781   8.317  66.125  1.00  0.00    -0.097 A  
HETATM   25  C   UNL     1      -7.587   7.335  65.158  1.00  0.00    -0.105 A  
HETATM   26  C   UNL     1      -8.391   6.190  65.152  1.00  0.00    -0.129 A  
HETATM   27  C   UNL     1      -9.406   6.043  66.102  1.00  0.00    -0.118 A  
HETATM   28 CL   UNL     1     -10.351   4.593  66.020  1.00  0.00    -0.314 Cl 
HETATM   29  C   UNL     1      -9.614   7.032  67.077  1.00  0.00    -0.157 A  
HETATM   30 CL   UNL     1     -10.882   6.816  68.252  1.00  0.00    -0.287 Cl 
ENDBRANCH  18  23
ENDBRANCH   9  11
ENDBRANCH   8   9
ENDBRANCH   7   8
ENDBRANCH   6   7
ENDBRANCH   4   6
ENDBRANCH   3   4
ENDBRANCH   2   3
TORSDOF 10
ENDMDL
MODEL      136
REMARK 921   NORMALIZED FREE ENERGY PREDICTED BY IDOCK:   -3.98 KCAL/MOL
REMARK 922        TOTAL FREE ENERGY PREDICTED BY IDOCK:   -7.70 KCAL/MOL
REMARK 923 INTER-LIGAND FREE ENERGY PREDICTED BY IDOCK:   -6.07 KCAL/MOL
REMARK 924 INTRA-LIGAND FREE ENERGY PREDICTED BY IDOCK:   -1.64 KCAL/MOL
REMARK 927      BINDING AFFINITY PREDICTED BY RF-SCORE:    0.00 PKD
ROOT
HETATM    1  C   UNL     1     -11.900  13.139  66.937  1.00  0.00    -0.444 C  
HETATM    2  C   UNL     1     -11.710  12.146  68.072  1.00  0.00    -0.409 C  
ENDROOT
BRANCH   2   3
HETATM    3  C   UNL     1     -10.381  11.414  67.947  1.00  0.00    -0.204 C  
BRANCH   3   4
HETATM    4  C   UNL     1     -10.468  10.269  66.969  1.00  0.00    -0.244 C  
HETATM    5  O   UNL     1     -10.150  10.316  65.789  1.00  0.00    -0.254 OA 
BRANCH   4   6
HETATM    6  O   UNL     1     -10.897   9.165  67.626  1.00  0.00    -0.234 OA 
BRANCH   6   7
HETATM    7  C   UNL     1     -10.496   7.927  67.056  1.00  0.00    -0.349 C  
BRANCH   7   8
HETATM    8  O   UNL     1     -10.143   6.883  67.962  1.00  0.00    -0.152 OA 
BRANCH   8   9
HETATM    9  C   UNL     1      -8.842   6.760  68.288  1.00  0.00    -0.125 C  
HETATM   10  O   UNL     1      -7.917   7.182  67.614  1.00  0.00    -0.111 OA 
BRANCH   9  11
HETATM   11  C   UNL     1      -8.677   5.878  69.491  1.00  0.00    -0.116 C  
HETATM   12  C   UNL     1      -8.416   4.545  69.436  1.00  0.00    -0.077 C  
HETATM   13  N   UNL     1      -8.114   3.862  70.600  1.00  0.00    -0.054 NA 
HETATM   14  C   UNL     1      -8.392   3.637  68.223  1.00  0.00    -0.096 C  
HETATM   15  C   UNL     1      -8.210   4.366  71.879  1.00  0.00    -0.102 C  
HETATM   16  C   UNL     1      -8.496   5.674  72.070  1.00  0.00    -0.126 C  
HETATM   17  C   UNL     1      -7.980   3.358  72.978  1.00  0.00    -0.069 C  
HETATM   18  C   UNL     1      -8.663   6.622  70.862  1.00  0.00    -0.138 C  
BRANCH  16  19
HETATM   19  C   UNL     1      -8.701   6.165  73.462  1.00  0.00    -0.125 C  
HETATM   20  O   UNL     1      -9.739   6.032  74.093  1.00  0.00    -0.162 OA 
BRANCH  19  21
HETATM   21  O   UNL     1      -7.603   6.810  73.930  1.00  0.00    -0.089 OA 
HETATM   22  C   UNL     1      -7.897   8.069  74.542  1.00  0.00    -0.240 C  
ENDBRANCH  19  21
ENDBRANCH  16  19
BRANCH  18  23
HETATM   23  C   UNL     1      -9.868   7.556  71.044  1.00  0.00    -0.182 A  
HETATM   24  C   UNL     1      -9.655   8.947  70.991  1.00  0.00    -0.321 A  
HETATM   25  C   UNL     1     -10.714   9.839  71.127  1.00  0.00    -0.284 A  
HETATM   26  C   UNL     1     -12.015   9.360  71.308  1.00  0.00    -0.430 A  
HETATM   27  C   UNL     1     -12.250   7.983  71.377  1.00  0.00    -0.309 A  
HETATM   28 CL   UNL     1     -13.893   7.479  71.602  1.00  0.00    -0.476 Cl 
HETATM   29  C   UNL     1     -11.187   7.074  71.248  1.00  0.00    -0.264 A  
HETATM   30 CL   UNL     1     -11.513   5.366  71.331  1.00  0.00     0.119 Cl 
ENDBRANCH  18  23
ENDBRANCH   9  11
ENDBRANCH   8   9
ENDBRANCH   7   8
ENDBRANCH   6   7
ENDBRANCH   4   6
ENDBRANCH   3   4
ENDBRANCH   2   3
TORSDOF 10
ENDMDL
MODEL      137
REMARK 921   NORMALIZED FREE ENERGY PREDICTED BY IDOCK:   -3.97 KCAL/MOL
REMARK 922        TOTAL FREE ENERGY PREDICTED BY IDOCK:   -7.70 KCAL/MOL
REMARK 923 INTER-LIGAND FREE ENERGY PREDICTED BY IDOCK:   -6.29 KCAL/MOL
REMARK 924 INTRA-LIGAND FREE ENERGY PREDICTED BY IDOCK:   -1.40 KCAL/MOL
REMARK 927      BINDING AFFINITY PREDICTED BY RF-SCORE:    0.00 PKD
ROOT
HETATM    1  C   UNL     1      -9.794   2.099  72.875  1.00  0.00    -0.165 C  
HETATM    2  C   UNL     1      -9.997   3.560  72.511  1.00  0.00    -0.230 C  
ENDROOT
BRANCH   2   3
HETATM    3  C   UNL     1     -10.903   4.258  73.516  1.00  0.00    -0.351 C  
BRANCH   3   4
HETATM    4  C   UNL     1     -10.914   5.752  73.308  1.00  0.00    -0.253 C  
HETATM    5  O   UNL     1     -10.335   6.571  74.007  1.00  0.00    -0.314 OA 
BRANCH   4   6
HETATM    6  O   UNL     1     -11.618   6.032  72.186  1.00  0.00    -0.300 OA 
BRANCH   6   7
HETATM    7  C   UNL     1     -10.912   6.764  71.195  1.00  0.00    -0.257 C  
BRANCH   7   8
HETATM    8  O   UNL     1     -11.009   8.187  71.251  1.00  0.00    -0.232 OA 
BRANCH   8   9
HETATM    9  C   UNL     1      -9.869   8.890  71.118  1.00  0.00    -0.275 C  
HETATM   10  O   UNL     1      -9.002   8.972  71.972  1.00  0.00    -0.374 OA 
BRANCH   9  11
HETATM   11  C   UNL     1      -9.892   9.705  69.857  1.00  0.00    -0.271 C  
HETATM   12  C   UNL     1     -10.786  10.695  69.599  1.00  0.00    -0.268 C  
HETATM   13  N   UNL     1     -10.613  11.495  68.484  1.00  0.00    -0.201 NA 
HETATM   14  C   UNL     1     -12.014  11.090  70.395  1.00  0.00    -0.459 C  
HETATM   15  C   UNL     1      -9.692  11.291  67.480  1.00  0.00    -0.177 C  
HETATM   16  C   UNL     1      -8.764  10.314  67.602  1.00  0.00    -0.121 C  
HETATM   17  C   UNL     1      -9.826  12.218  66.296  1.00  0.00    -0.254 C  
HETATM   18  C   UNL     1      -8.696   9.459  68.886  1.00  0.00    -0.132 C  
BRANCH  16  19
HETATM   19  C   UNL     1      -7.853  10.046  66.455  1.00  0.00    -0.113 C  
HETATM   20  O   UNL     1      -8.165   9.405  65.462  1.00  0.00    -0.119 OA 
BRANCH  19  21
HETATM   21  O   UNL     1      -6.620  10.573  66.664  1.00  0.00    -0.081 OA 
HETATM   22  C   UNL     1      -5.781  10.543  65.505  1.00  0.00    -0.132 C  
ENDBRANCH  19  21
ENDBRANCH  16  19
BRANCH  18  23
HETATM   23  C   UNL     1      -8.491   7.972  68.560  1.00  0.00    -0.128 A  
HETATM   24  C   UNL     1      -7.341   7.327  69.052  1.00  0.00    -0.091 A  
HETATM   25  C   UNL     1      -7.116   5.977  68.806  1.00  0.00    -0.081 A  
HETATM   26  C   UNL     1      -8.045   5.234  68.070  1.00  0.00    -0.099 A  
HETATM   27  C   UNL     1      -9.189   5.856  67.559  1.00  0.00    -0.108 A  
HETATM   28 CL   UNL     1     -10.286   4.860  66.660  1.00  0.00    -0.276 Cl 
HETATM   29  C   UNL     1      -9.421   7.220  67.796  1.00  0.00    -0.131 A  
HETATM   30 CL   UNL     1     -10.859   7.964  67.153  1.00  0.00    -0.301 Cl 
ENDBRANCH  18  23
ENDBRANCH   9  11
ENDBRANCH   8   9
ENDBRANCH   7   8
ENDBRANCH   6   7
ENDBRANCH   4   6
ENDBRANCH   3   4
ENDBRANCH   2   3
TORSDOF 10
ENDMDL
MODEL      138
REMARK 921   NORMALIZED FREE ENERGY PREDICTED BY IDOCK:   -3.97 KCAL/MOL
REMARK 922        TOTAL FREE ENERGY PREDICTED BY IDOCK:   -7.69 KCAL/MOL
REMARK 923 INTER-LIGAND FREE ENERGY PREDICTED BY IDOCK:   -6.41 KCAL/MOL
REMARK 924 INTRA-LIGAND FREE ENERGY PREDICTED BY IDOCK:   -1.27 KCAL/MOL
REMARK 927      BINDING AFFINITY PREDICTED BY RF-SCORE:    0.00 PKD
ROOT
HETATM    1  C   UNL     1     -13.861   8.737  72.100  1.00  0.00    -0.513 C  
HETATM    2  C   UNL     1     -13.227   7.510  71.467  1.00  0.00    -0.404 C  
ENDROOT
BRANCH   2   3
HETATM    3  C   UNL     1     -11.726   7.691  71.297  1.00  0.00    -0.308 C  
BRANCH   3   4
HETATM    4  C   UNL     1     -11.235   7.071  70.012  1.00  0.00    -0.269 C  
HETATM    5  O   UNL     1     -11.268   5.879  69.741  1.00  0.00    -0.389 OA 
BRANCH   4   6
HETATM    6  O   UNL     1     -10.811   8.055  69.185  1.00  0.00    -0.152 OA 
BRANCH   6   7
HETATM    7  C   UNL     1      -9.771   8.874  69.701  1.00  0.00    -0.174 C  
BRANCH   7   8
HETATM    8  O   UNL     1      -9.617  10.167  69.117  1.00  0.00    -0.189 OA 
BRANCH   8   9
HETATM    9  C   UNL     1      -8.607  10.336  68.244  1.00  0.00    -0.122 C  
HETATM   10  O   UNL     1      -8.297   9.532  67.381  1.00  0.00    -0.123 OA 
BRANCH   9  11
HETATM   11  C   UNL     1      -7.804  11.555  68.590  1.00  0.00    -0.137 C  
HETATM   12  C   UNL     1      -6.785  11.573  69.489  1.00  0.00    -0.106 C  
HETATM   13  N   UNL     1      -6.001  12.707  69.608  1.00  0.00    -0.112 NA 
HETATM   14  C   UNL     1      -6.339  10.475  70.434  1.00  0.00    -0.126 C  
HETATM   15  C   UNL     1      -6.247  13.923  69.009  1.00  0.00    -0.094 C  
HETATM   16  C   UNL     1      -7.255  14.046  68.116  1.00  0.00    -0.129 C  
HETATM   17  C   UNL     1      -5.326  15.040  69.438  1.00  0.00    -0.091 C  
HETATM   18  C   UNL     1      -8.101  12.816  67.720  1.00  0.00    -0.168 C  
BRANCH  16  19
HETATM   19  C   UNL     1      -7.566  15.396  67.569  1.00  0.00    -0.181 C  
HETATM   20  O   UNL     1      -7.161  15.812  66.494  1.00  0.00    -0.112 OA 
BRANCH  19  21
HETATM   21  O   UNL     1      -8.327  16.119  68.428  1.00  0.00    -0.166 OA 
HETATM   22  C   UNL     1      -8.983  17.232  67.813  1.00  0.00    -0.234 C  
ENDBRANCH  19  21
ENDBRANCH  16  19
BRANCH  18  23
HETATM   23  C   UNL     1      -9.597  13.158  67.662  1.00  0.00    -0.210 A  
HETATM   24  C   UNL     1     -10.211  13.692  68.811  1.00  0.00    -0.155 A  
HETATM   25  C   UNL     1     -11.557  14.041  68.808  1.00  0.00    -0.366 A  
HETATM   26  C   UNL     1     -12.321  13.875  67.648  1.00  0.00    -0.069 A  
HETATM   27  C   UNL     1     -11.738  13.334  66.498  1.00  0.00    -0.377 A  
HETATM   28 CL   UNL     1     -12.758  13.165  65.107  1.00  0.00    -0.520 Cl 
HETATM   29  C   UNL     1     -10.381  12.972  66.494  1.00  0.00    -0.274 A  
HETATM   30 CL   UNL     1      -9.681  12.309  65.044  1.00  0.00    -0.143 Cl 
ENDBRANCH  18  23
ENDBRANCH   9  11
ENDBRANCH   8   9
ENDBRANCH   7   8
ENDBRANCH   6   7
ENDBRANCH   4   6
ENDBRANCH   3   4
ENDBRANCH   2   3
TORSDOF 10
ENDMDL
MODEL      139
REMARK 921   NORMALIZED FREE ENERGY PREDICTED BY IDOCK:   -3.97 KCAL/MOL
REMARK 922        TOTAL FREE ENERGY PREDICTED BY IDOCK:   -7.69 KCAL/MOL
REMARK 923 INTER-LIGAND FREE ENERGY PREDICTED BY IDOCK:   -6.45 KCAL/MOL
REMARK 924 INTRA-LIGAND FREE ENERGY PREDICTED BY IDOCK:   -1.24 KCAL/MOL
REMARK 927      BINDING AFFINITY PREDICTED BY RF-SCORE:    0.00 PKD
ROOT
HETATM    1  C   UNL     1      -9.654  17.447  66.963  1.00  0.00    -0.273 C  
HETATM    2  C   UNL     1      -9.132  16.289  66.129  1.00  0.00    -0.377 C  
ENDROOT
BRANCH   2   3
HETATM    3  C   UNL     1     -10.273  15.520  65.479  1.00  0.00    -0.415 C  
BRANCH   3   4
HETATM    4  C   UNL     1     -10.056  14.029  65.566  1.00  0.00    -0.320 C  
HETATM    5  O   UNL     1     -10.036  13.258  64.617  1.00  0.00    -0.319 OA 
BRANCH   4   6
HETATM    6  O   UNL     1      -9.826  13.695  66.858  1.00  0.00    -0.247 OA 
BRANCH   6   7
HETATM    7  C   UNL     1      -9.200  12.435  67.056  1.00  0.00    -0.208 C  
BRANCH   7   8
HETATM    8  O   UNL     1      -9.790  11.566  68.022  1.00  0.00    -0.176 OA 
BRANCH   8   9
HETATM    9  C   UNL     1     -10.796  10.774  67.610  1.00  0.00    -0.279 C  
HETATM   10  O   UNL     1     -11.703  11.132  66.877  1.00  0.00    -0.410 OA 
BRANCH   9  11
HETATM   11  C   UNL     1     -10.753   9.450  68.315  1.00  0.00    -0.220 C  
HETATM   12  C   UNL     1     -11.156   9.249  69.598  1.00  0.00    -0.116 C  
HETATM   13  N   UNL     1     -11.234   7.961  70.094  1.00  0.00    -0.206 NA 
HETATM   14  C   UNL     1     -11.569  10.280  70.629  1.00  0.00    -0.435 C  
HETATM   15  C   UNL     1     -10.778   6.825  69.462  1.00  0.00    -0.257 C  
HETATM   16  C   UNL     1     -10.320   6.895  68.191  1.00  0.00    -0.223 C  
HETATM   17  C   UNL     1     -10.836   5.567  70.296  1.00  0.00    -0.285 C  
HETATM   18  C   UNL     1     -10.356   8.234  67.422  1.00  0.00    -0.350 C  
BRANCH  16  19
HETATM   19  C   UNL     1      -9.732   5.674  67.574  1.00  0.00    -0.124 C  
HETATM   20  O   UNL     1      -8.597   5.273  67.787  1.00  0.00    -0.105 OA 
BRANCH  19  21
HETATM   21  O   UNL     1     -10.601   5.079  66.719  1.00  0.00    -0.252 OA 
HETATM   22  C   UNL     1      -9.964   4.425  65.618  1.00  0.00    -0.236 C  
ENDBRANCH  19  21
ENDBRANCH  16  19
BRANCH  18  23
HETATM   23  C   UNL     1      -9.053   8.469  66.644  1.00  0.00    -0.203 A  
HETATM   24  C   UNL     1      -9.046   8.235  65.256  1.00  0.00     0.081 A  
HETATM   25  C   UNL     1      -7.900   8.453  64.498  1.00  0.00    -0.136 A  
HETATM   26  C   UNL     1      -6.734   8.923  65.111  1.00  0.00    -0.072 A  
HETATM   27  C   UNL     1      -6.712   9.150  66.490  1.00  0.00    -0.075 A  
HETATM   28 CL   UNL     1      -5.225   9.732  67.164  1.00  0.00    -0.038 Cl 
HETATM   29  C   UNL     1      -7.861   8.926  67.265  1.00  0.00    -0.096 A  
HETATM   30 CL   UNL     1      -7.804   9.225  68.979  1.00  0.00    -0.081 Cl 
ENDBRANCH  18  23
ENDBRANCH   9  11
ENDBRANCH   8   9
ENDBRANCH   7   8
ENDBRANCH   6   7
ENDBRANCH   4   6
ENDBRANCH   3   4
ENDBRANCH   2   3
TORSDOF 10
ENDMDL
MODEL      140
REMARK 921   NORMALIZED FREE ENERGY PREDICTED BY IDOCK:   -3.97 KCAL/MOL
REMARK 922        TOTAL FREE ENERGY PREDICTED BY IDOCK:   -7.69 KCAL/MOL
REMARK 923 INTER-LIGAND FREE ENERGY PREDICTED BY IDOCK:   -6.18 KCAL/MOL
REMARK 924 INTRA-LIGAND FREE ENERGY PREDICTED BY IDOCK:   -1.50 KCAL/MOL
REMARK 927      BINDING AFFINITY PREDICTED BY RF-SCORE:    0.00 PKD
ROOT
HETATM    1  C   UNL     1     -13.387   9.697  71.863  1.00  0.00    -0.526 C  
HETATM    2  C   UNL     1     -12.542  10.945  71.669  1.00  0.00    -0.431 C  
ENDROOT
BRANCH   2   3
HETATM    3  C   UNL     1     -12.247  11.187  70.195  1.00  0.00    -0.417 C  
BRANCH   3   4
HETATM    4  C   UNL     1     -12.166  12.661  69.882  1.00  0.00    -0.168 C  
HETATM    5  O   UNL     1     -12.591  13.562  70.591  1.00  0.00    -0.320 OA 
BRANCH   4   6
HETATM    6  O   UNL     1     -11.493  12.824  68.718  1.00  0.00    -0.260 OA 
BRANCH   6   7
HETATM    7  C   UNL     1     -10.711  11.711  68.310  1.00  0.00    -0.213 C  
BRANCH   7   8
HETATM    8  O   UNL     1     -10.332  11.658  66.935  1.00  0.00    -0.210 OA 
BRANCH   8   9
HETATM    9  C   UNL     1      -9.022  11.518  66.659  1.00  0.00    -0.185 C  
HETATM   10  O   UNL     1      -8.179  12.378  66.850  1.00  0.00    -0.164 OA 
BRANCH   9  11
HETATM   11  C   UNL     1      -8.769  10.237  65.919  1.00  0.00    -0.169 C  
HETATM   12  C   UNL     1      -9.105  10.021  64.620  1.00  0.00    -0.237 C  
HETATM   13  N   UNL     1      -8.674   8.869  63.987  1.00  0.00    -0.106 NA 
HETATM   14  C   UNL     1      -9.919  10.905  63.695  1.00  0.00    -0.415 C  
HETATM   15  C   UNL     1      -8.056   7.798  64.595  1.00  0.00    -0.123 C  
HETATM   16  C   UNL     1      -7.698   7.874  65.897  1.00  0.00    -0.093 C  
HETATM   17  C   UNL     1      -7.840   6.599  63.704  1.00  0.00    -0.109 C  
HETATM   18  C   UNL     1      -7.928   9.176  66.695  1.00  0.00    -0.104 C  
BRANCH  16  19
HETATM   19  C   UNL     1      -7.132   6.664  66.556  1.00  0.00    -0.068 C  
HETATM   20  O   UNL     1      -5.950   6.519  66.831  1.00  0.00    -0.023 OA 
BRANCH  19  21
HETATM   21  O   UNL     1      -8.087   5.726  66.781  1.00  0.00    -0.102 OA 
HETATM   22  C   UNL     1      -7.570   4.396  66.881  1.00  0.00    -0.085 C  
ENDBRANCH  19  21
ENDBRANCH  16  19
BRANCH  18  23
HETATM   23  C   UNL     1      -8.486   8.885  68.096  1.00  0.00    -0.129 A  
HETATM   24  C   UNL     1      -7.786   9.376  69.215  1.00  0.00    -0.085 A  
HETATM   25  C   UNL     1      -8.258   9.161  70.506  1.00  0.00    -0.203 A  
HETATM   26  C   UNL     1      -9.450   8.458  70.708  1.00  0.00    -0.199 A  
HETATM   27  C   UNL     1     -10.155   7.948  69.614  1.00  0.00    -0.197 A  
HETATM   28 CL   UNL     1     -11.621   7.091  69.958  1.00  0.00    -0.266 Cl 
HETATM   29  C   UNL     1      -9.684   8.154  68.307  1.00  0.00    -0.161 A  
HETATM   30 CL   UNL     1     -10.589   7.514  66.964  1.00  0.00    -0.413 Cl 
ENDBRANCH  18  23
ENDBRANCH   9  11
ENDBRANCH   8   9
ENDBRANCH   7   8
ENDBRANCH   6   7
ENDBRANCH   4   6
ENDBRANCH   3   4
ENDBRANCH   2   3
TORSDOF 10
ENDMDL
MODEL      141
REMARK 921   NORMALIZED FREE ENERGY PREDICTED BY IDOCK:   -3.95 KCAL/MOL
REMARK 922        TOTAL FREE ENERGY PREDICTED BY IDOCK:   -7.67 KCAL/MOL
REMARK 923 INTER-LIGAND FREE ENERGY PREDICTED BY IDOCK:   -6.55 KCAL/MOL
REMARK 924 INTRA-LIGAND FREE ENERGY PREDICTED BY IDOCK:   -1.12 KCAL/MOL
REMARK 927      BINDING AFFINITY PREDICTED BY RF-SCORE:    0.00 PKD
ROOT
HETATM    1  C   UNL     1      -9.672  19.340  67.084  1.00  0.00    -0.409 C  
HETATM    2  C   UNL     1     -10.317  18.238  67.909  1.00  0.00    -0.417 C  
ENDROOT
BRANCH   2   3
HETATM    3  C   UNL     1     -10.632  17.021  67.052  1.00  0.00    -0.226 C  
BRANCH   3   4
HETATM    4  C   UNL     1     -10.915  15.805  67.899  1.00  0.00    -0.324 C  
HETATM    5  O   UNL     1     -11.813  15.708  68.724  1.00  0.00    -0.370 OA 
BRANCH   4   6
HETATM    6  O   UNL     1     -10.054  14.820  67.552  1.00  0.00    -0.224 OA 
BRANCH   6   7
HETATM    7  C   UNL     1      -9.411  14.167  68.637  1.00  0.00    -0.152 C  
BRANCH   7   8
HETATM    8  O   UNL     1      -9.121  12.779  68.476  1.00  0.00    -0.154 OA 
BRANCH   8   9
HETATM    9  C   UNL     1     -10.166  11.936  68.381  1.00  0.00    -0.204 C  
HETATM   10  O   UNL     1     -11.219  12.068  68.981  1.00  0.00    -0.229 OA 
BRANCH   9  11
HETATM   11  C   UNL     1      -9.795  10.720  67.583  1.00  0.00    -0.193 C  
HETATM   12  C   UNL     1     -10.032  10.573  66.253  1.00  0.00    -0.221 C  
HETATM   13  N   UNL     1      -9.498   9.487  65.582  1.00  0.00    -0.244 NA 
HETATM   14  C   UNL     1     -10.829  11.473  65.330  1.00  0.00    -0.318 C  
HETATM   15  C   UNL     1      -8.865   8.411  66.165  1.00  0.00    -0.165 C  
HETATM   16  C   UNL     1      -8.599   8.420  67.491  1.00  0.00    -0.129 C  
HETATM   17  C   UNL     1      -8.525   7.285  65.218  1.00  0.00    -0.067 C  
HETATM   18  C   UNL     1      -8.951   9.654  68.349  1.00  0.00    -0.123 C  
BRANCH  16  19
HETATM   19  C   UNL     1      -8.013   7.199  68.111  1.00  0.00    -0.119 C  
HETATM   20  O   UNL     1      -6.826   7.058  68.364  1.00  0.00    -0.068 OA 
BRANCH  19  21
HETATM   21  O   UNL     1      -8.956   6.248  68.328  1.00  0.00    -0.117 OA 
HETATM   22  C   UNL     1      -8.480   4.914  68.133  1.00  0.00    -0.102 C  
ENDBRANCH  19  21
ENDBRANCH  16  19
BRANCH  18  23
HETATM   23  C   UNL     1      -9.584   9.245  69.687  1.00  0.00    -0.192 A  
HETATM   24  C   UNL     1     -10.972   9.015  69.733  1.00  0.00    -0.177 A  
HETATM   25  C   UNL     1     -11.595   8.621  70.913  1.00  0.00    -0.307 A  
HETATM   26  C   UNL     1     -10.839   8.435  72.075  1.00  0.00    -0.390 A  
HETATM   27  C   UNL     1      -9.461   8.670  72.059  1.00  0.00    -0.300 A  
HETATM   28 CL   UNL     1      -8.605   8.415  73.543  1.00  0.00    -0.255 Cl 
HETATM   29  C   UNL     1      -8.825   9.076  70.874  1.00  0.00    -0.240 A  
HETATM   30 CL   UNL     1      -7.106   9.353  70.883  1.00  0.00    -0.114 Cl 
ENDBRANCH  18  23
ENDBRANCH   9  11
ENDBRANCH   8   9
ENDBRANCH   7   8
ENDBRANCH   6   7
ENDBRANCH   4   6
ENDBRANCH   3   4
ENDBRANCH   2   3
TORSDOF 10
ENDMDL
MODEL      142
REMARK 921   NORMALIZED FREE ENERGY PREDICTED BY IDOCK:   -3.94 KCAL/MOL
REMARK 922        TOTAL FREE ENERGY PREDICTED BY IDOCK:   -7.64 KCAL/MOL
REMARK 923 INTER-LIGAND FREE ENERGY PREDICTED BY IDOCK:   -5.96 KCAL/MOL
REMARK 924 INTRA-LIGAND FREE ENERGY PREDICTED BY IDOCK:   -1.69 KCAL/MOL
REMARK 927      BINDING AFFINITY PREDICTED BY RF-SCORE:    0.00 PKD
ROOT
HETATM    1  C   UNL     1      -8.063   2.144  70.889  1.00  0.00    -0.059 C  
HETATM    2  C   UNL     1      -9.197   2.995  70.343  1.00  0.00    -0.211 C  
ENDROOT
BRANCH   2   3
HETATM    3  C   UNL     1      -8.865   4.478  70.433  1.00  0.00    -0.129 C  
BRANCH   3   4
HETATM    4  C   UNL     1      -9.676   5.288  69.452  1.00  0.00    -0.174 C  
HETATM    5  O   UNL     1     -10.890   5.436  69.485  1.00  0.00    -0.269 OA 
BRANCH   4   6
HETATM    6  O   UNL     1      -8.835   5.873  68.567  1.00  0.00    -0.112 OA 
BRANCH   6   7
HETATM    7  C   UNL     1      -9.030   5.503  67.210  1.00  0.00    -0.111 C  
BRANCH   7   8
HETATM    8  O   UNL     1      -9.374   6.546  66.298  1.00  0.00    -0.160 OA 
BRANCH   8   9
HETATM    9  C   UNL     1      -8.365   7.258  65.764  1.00  0.00    -0.139 C  
HETATM   10  O   UNL     1      -7.190   6.932  65.803  1.00  0.00    -0.070 OA 
BRANCH   9  11
HETATM   11  C   UNL     1      -8.855   8.590  65.276  1.00  0.00    -0.144 C  
HETATM   12  C   UNL     1      -8.747   9.026  63.994  1.00  0.00    -0.086 C  
HETATM   13  N   UNL     1      -9.383  10.194  63.615  1.00  0.00    -0.283 NA 
HETATM   14  C   UNL     1      -8.001   8.387  62.839  1.00  0.00    -0.160 C  
HETATM   15  C   UNL     1     -10.004  11.085  64.463  1.00  0.00    -0.310 C  
HETATM   16  C   UNL     1     -10.148  10.783  65.774  1.00  0.00    -0.320 C  
HETATM   17  C   UNL     1     -10.474  12.363  63.810  1.00  0.00    -0.475 C  
HETATM   18  C   UNL     1      -9.669   9.420  66.318  1.00  0.00    -0.330 C  
BRANCH  16  19
HETATM   19  C   UNL     1     -10.725  11.811  66.685  1.00  0.00    -0.263 C  
HETATM   20  O   UNL     1     -11.883  11.812  67.076  1.00  0.00    -0.599 OA 
BRANCH  19  21
HETATM   21  O   UNL     1      -9.813  12.765  67.001  1.00  0.00    -0.222 OA 
HETATM   22  C   UNL     1     -10.064  13.401  68.258  1.00  0.00    -0.247 C  
ENDBRANCH  19  21
ENDBRANCH  16  19
BRANCH  18  23
HETATM   23  C   UNL     1      -8.935   9.577  67.657  1.00  0.00    -0.124 A  
HETATM   24  C   UNL     1      -7.647  10.145  67.656  1.00  0.00    -0.090 A  
HETATM   25  C   UNL     1      -6.945  10.331  68.843  1.00  0.00    -0.065 A  
HETATM   26  C   UNL     1      -7.521   9.963  70.063  1.00  0.00    -0.173 A  
HETATM   27  C   UNL     1      -8.794   9.384  70.088  1.00  0.00    -0.223 A  
HETATM   28 CL   UNL     1      -9.430   8.960  71.644  1.00  0.00    -0.359 Cl 
HETATM   29  C   UNL     1      -9.507   9.186  68.895  1.00  0.00    -0.151 A  
HETATM   30 CL   UNL     1     -11.093   8.469  68.961  1.00  0.00     0.103 Cl 
ENDBRANCH  18  23
ENDBRANCH   9  11
ENDBRANCH   8   9
ENDBRANCH   7   8
ENDBRANCH   6   7
ENDBRANCH   4   6
ENDBRANCH   3   4
ENDBRANCH   2   3
TORSDOF 10
ENDMDL
MODEL      143
REMARK 921   NORMALIZED FREE ENERGY PREDICTED BY IDOCK:   -3.93 KCAL/MOL
REMARK 922        TOTAL FREE ENERGY PREDICTED BY IDOCK:   -7.63 KCAL/MOL
REMARK 923 INTER-LIGAND FREE ENERGY PREDICTED BY IDOCK:   -6.48 KCAL/MOL
REMARK 924 INTRA-LIGAND FREE ENERGY PREDICTED BY IDOCK:   -1.15 KCAL/MOL
REMARK 927      BINDING AFFINITY PREDICTED BY RF-SCORE:    0.00 PKD
ROOT
HETATM    1  C   UNL     1      -6.229  20.144  68.529  1.00  0.00    -0.327 C  
HETATM    2  C   UNL     1      -6.082  18.639  68.379  1.00  0.00    -0.216 C  
ENDROOT
BRANCH   2   3
HETATM    3  C   UNL     1      -7.391  17.998  67.941  1.00  0.00    -0.224 C  
BRANCH   3   4
HETATM    4  C   UNL     1      -7.289  17.428  66.548  1.00  0.00    -0.277 C  
HETATM    5  O   UNL     1      -7.993  17.743  65.599  1.00  0.00    -0.532 OA 
BRANCH   4   6
HETATM    6  O   UNL     1      -6.253  16.557  66.506  1.00  0.00    -0.290 OA 
BRANCH   6   7
HETATM    7  C   UNL     1      -6.285  15.530  67.485  1.00  0.00    -0.111 C  
BRANCH   7   8
HETATM    8  O   UNL     1      -7.327  14.561  67.372  1.00  0.00    -0.188 OA 
BRANCH   8   9
HETATM    9  C   UNL     1      -8.041  14.287  68.479  1.00  0.00    -0.147 C  
HETATM   10  O   UNL     1      -8.489  15.128  69.239  1.00  0.00    -0.211 OA 
BRANCH   9  11
HETATM   11  C   UNL     1      -8.054  12.811  68.751  1.00  0.00     0.090 C  
HETATM   12  C   UNL     1      -7.006  12.115  69.267  1.00  0.00    -0.010 C  
HETATM   13  N   UNL     1      -7.182  10.794  69.636  1.00  0.00    -0.144 NA 
HETATM   14  C   UNL     1      -5.592  12.594  69.528  1.00  0.00    -0.089 C  
HETATM   15  C   UNL     1      -8.296  10.026  69.380  1.00  0.00    -0.165 C  
HETATM   16  C   UNL     1      -9.397  10.594  68.837  1.00  0.00    -0.191 C  
HETATM   17  C   UNL     1      -8.161   8.567  69.745  1.00  0.00    -0.121 C  
HETATM   18  C   UNL     1      -9.434  12.111  68.551  1.00  0.00    -0.125 C  
BRANCH  16  19
HETATM   19  C   UNL     1     -10.546   9.718  68.470  1.00  0.00    -0.221 C  
HETATM   20  O   UNL     1     -10.520   8.887  67.575  1.00  0.00    -0.252 OA 
BRANCH  19  21
HETATM   21  O   UNL     1     -11.637   9.983  69.232  1.00  0.00    -0.121 OA 
HETATM   22  C   UNL     1     -11.444   9.707  70.622  1.00  0.00    -0.306 C  
ENDBRANCH  19  21
ENDBRANCH  16  19
BRANCH  18  23
HETATM   23  C   UNL     1     -10.059  12.409  67.180  1.00  0.00    -0.221 A  
HETATM   24  C   UNL     1      -9.486  11.822  66.037  1.00  0.00    -0.245 A  
HETATM   25  C   UNL     1     -10.024  12.040  64.773  1.00  0.00    -0.241 A  
HETATM   26  C   UNL     1     -11.159  12.843  64.624  1.00  0.00    -0.352 A  
HETATM   27  C   UNL     1     -11.739  13.449  65.743  1.00  0.00    -0.349 A  
HETATM   28 CL   UNL     1     -13.142  14.427  65.466  1.00  0.00    -0.215 Cl 
HETATM   29  C   UNL     1     -11.198  13.241  67.023  1.00  0.00    -0.292 A  
HETATM   30 CL   UNL     1     -11.947  14.002  68.398  1.00  0.00    -0.392 Cl 
ENDBRANCH  18  23
ENDBRANCH   9  11
ENDBRANCH   8   9
ENDBRANCH   7   8
ENDBRANCH   6   7
ENDBRANCH   4   6
ENDBRANCH   3   4
ENDBRANCH   2   3
TORSDOF 10
ENDMDL
MODEL      144
REMARK 921   NORMALIZED FREE ENERGY PREDICTED BY IDOCK:   -3.93 KCAL/MOL
REMARK 922        TOTAL FREE ENERGY PREDICTED BY IDOCK:   -7.63 KCAL/MOL
REMARK 923 INTER-LIGAND FREE ENERGY PREDICTED BY IDOCK:   -6.64 KCAL/MOL
REMARK 924 INTRA-LIGAND FREE ENERGY PREDICTED BY IDOCK:   -0.98 KCAL/MOL
REMARK 927      BINDING AFFINITY PREDICTED BY RF-SCORE:    0.00 PKD
ROOT
HETATM    1  C   UNL     1      -6.505  15.184  69.934  1.00  0.00    -0.171 C  
HETATM    2  C   UNL     1      -6.735  15.300  68.437  1.00  0.00    -0.113 C  
ENDROOT
BRANCH   2   3
HETATM    3  C   UNL     1      -8.109  15.882  68.134  1.00  0.00    -0.145 C  
BRANCH   3   4
HETATM    4  C   UNL     1      -8.524  15.609  66.710  1.00  0.00    -0.272 C  
HETATM    5  O   UNL     1      -8.804  16.458  65.876  1.00  0.00    -0.432 OA 
BRANCH   4   6
HETATM    6  O   UNL     1      -8.477  14.274  66.489  1.00  0.00    -0.008 OA 
BRANCH   6   7
HETATM    7  C   UNL     1      -9.554  13.747  65.729  1.00  0.00    -0.070 C  
BRANCH   7   8
HETATM    8  O   UNL     1      -9.747  12.333  65.775  1.00  0.00    -0.247 OA 
BRANCH   8   9
HETATM    9  C   UNL     1     -10.999  11.886  65.986  1.00  0.00    -0.309 C  
HETATM   10  O   UNL     1     -11.792  11.605  65.104  1.00  0.00    -0.130 OA 
BRANCH   9  11
HETATM   11  C   UNL     1     -11.348  11.954  67.445  1.00  0.00    -0.389 C  
HETATM   12  C   UNL     1     -11.910  13.033  68.050  1.00  0.00    -0.347 C  
HETATM   13  N   UNL     1     -12.347  12.928  69.358  1.00  0.00    -0.060 NA 
HETATM   14  C   UNL     1     -12.159  14.414  67.478  1.00  0.00    -0.327 C  
HETATM   15  C   UNL     1     -12.120  11.863  70.202  1.00  0.00    -0.302 C  
HETATM   16  C   UNL     1     -11.537  10.738  69.728  1.00  0.00    -0.393 C  
HETATM   17  C   UNL     1     -12.563  12.076  71.629  1.00  0.00    -0.220 C  
HETATM   18  C   UNL     1     -11.172  10.618  68.233  1.00  0.00    -0.362 C  
BRANCH  16  19
HETATM   19  C   UNL     1     -11.207   9.646  70.686  1.00  0.00    -0.320 C  
HETATM   20  O   UNL     1     -10.089   9.439  71.134  1.00  0.00    -0.296 OA 
BRANCH  19  21
HETATM   21  O   UNL     1     -12.295   8.888  70.973  1.00  0.00    -0.270 OA 
HETATM   22  C   UNL     1     -12.174   8.153  72.195  1.00  0.00    -0.350 C  
ENDBRANCH  19  21
ENDBRANCH  16  19
BRANCH  18  23
HETATM   23  C   UNL     1      -9.781   9.995  68.042  1.00  0.00    -0.158 A  
HETATM   24  C   UNL     1      -8.648  10.769  68.354  1.00  0.00    -0.141 A  
HETATM   25  C   UNL     1      -7.365  10.247  68.222  1.00  0.00    -0.085 A  
HETATM   26  C   UNL     1      -7.186   8.931  67.785  1.00  0.00    -0.084 A  
HETATM   27  C   UNL     1      -8.296   8.146  67.456  1.00  0.00    -0.123 A  
HETATM   28 CL   UNL     1      -7.981   6.527  66.925  1.00  0.00    -0.110 Cl 
HETATM   29  C   UNL     1      -9.595   8.666  67.580  1.00  0.00    -0.157 A  
HETATM   30 CL   UNL     1     -10.957   7.662  67.171  1.00  0.00    -0.251 Cl 
ENDBRANCH  18  23
ENDBRANCH   9  11
ENDBRANCH   8   9
ENDBRANCH   7   8
ENDBRANCH   6   7
ENDBRANCH   4   6
ENDBRANCH   3   4
ENDBRANCH   2   3
TORSDOF 10
ENDMDL
MODEL      145
REMARK 921   NORMALIZED FREE ENERGY PREDICTED BY IDOCK:   -3.91 KCAL/MOL
REMARK 922        TOTAL FREE ENERGY PREDICTED BY IDOCK:   -7.59 KCAL/MOL
REMARK 923 INTER-LIGAND FREE ENERGY PREDICTED BY IDOCK:   -6.03 KCAL/MOL
REMARK 924 INTRA-LIGAND FREE ENERGY PREDICTED BY IDOCK:   -1.56 KCAL/MOL
REMARK 927      BINDING AFFINITY PREDICTED BY RF-SCORE:    0.00 PKD
ROOT
HETATM    1  C   UNL     1     -12.597  14.878  69.968  1.00  0.00    -0.260 C  
HETATM    2  C   UNL     1     -12.027  13.470  69.923  1.00  0.00    -0.416 C  
ENDROOT
BRANCH   2   3
HETATM    3  C   UNL     1     -11.075  13.298  68.748  1.00  0.00    -0.303 C  
BRANCH   3   4
HETATM    4  C   UNL     1     -11.823  13.075  67.457  1.00  0.00    -0.355 C  
HETATM    5  O   UNL     1     -12.209  13.953  66.699  1.00  0.00    -0.437 OA 
BRANCH   4   6
HETATM    6  O   UNL     1     -11.942  11.742  67.246  1.00  0.00    -0.618 OA 
BRANCH   6   7
HETATM    7  C   UNL     1     -10.912  10.945  67.810  1.00  0.00    -0.283 C  
BRANCH   7   8
HETATM    8  O   UNL     1     -11.293   9.674  68.335  1.00  0.00    -0.030 OA 
BRANCH   8   9
HETATM    9  C   UNL     1     -10.906   9.382  69.591  1.00  0.00    -0.228 C  
HETATM   10  O   UNL     1     -10.731  10.208  70.471  1.00  0.00    -0.298 OA 
BRANCH   9  11
HETATM   11  C   UNL     1     -10.544   7.930  69.711  1.00  0.00    -0.242 C  
HETATM   12  C   UNL     1     -11.276   7.010  70.392  1.00  0.00    -0.299 C  
HETATM   13  N   UNL     1     -10.945   5.671  70.297  1.00  0.00    -0.269 NA 
HETATM   14  C   UNL     1     -12.480   7.234  71.286  1.00  0.00    -0.402 C  
HETATM   15  C   UNL     1      -9.815   5.160  69.696  1.00  0.00    -0.216 C  
HETATM   16  C   UNL     1      -8.984   5.979  69.012  1.00  0.00    -0.124 C  
HETATM   17  C   UNL     1      -9.614   3.675  69.879  1.00  0.00    -0.238 C  
HETATM   18  C   UNL     1      -9.322   7.477  68.853  1.00  0.00    -0.142 C  
BRANCH  16  19
HETATM   19  C   UNL     1      -7.716   5.419  68.468  1.00  0.00    -0.084 C  
HETATM   20  O   UNL     1      -6.725   5.177  69.141  1.00  0.00    -0.049 OA 
BRANCH  19  21
HETATM   21  O   UNL     1      -7.785   5.242  67.124  1.00  0.00    -0.094 OA 
HETATM   22  C   UNL     1      -6.636   4.594  66.572  1.00  0.00    -0.046 C  
ENDBRANCH  19  21
ENDBRANCH  16  19
BRANCH  18  23
HETATM   23  C   UNL     1      -8.084   8.359  69.070  1.00  0.00    -0.116 A  
HETATM   24  C   UNL     1      -7.570   9.080  67.976  1.00  0.00    -0.092 A  
HETATM   25  C   UNL     1      -6.464   9.911  68.121  1.00  0.00    -0.055 A  
HETATM   26  C   UNL     1      -5.851  10.049  69.370  1.00  0.00    -0.037 A  
HETATM   27  C   UNL     1      -6.334   9.333  70.470  1.00  0.00    -0.062 A  
HETATM   28 CL   UNL     1      -5.514   9.566  71.978  1.00  0.00    -0.073 Cl 
HETATM   29  C   UNL     1      -7.446   8.486  70.332  1.00  0.00    -0.069 A  
HETATM   30 CL   UNL     1      -8.029   7.613  71.721  1.00  0.00    -0.095 Cl 
ENDBRANCH  18  23
ENDBRANCH   9  11
ENDBRANCH   8   9
ENDBRANCH   7   8
ENDBRANCH   6   7
ENDBRANCH   4   6
ENDBRANCH   3   4
ENDBRANCH   2   3
TORSDOF 10
ENDMDL
MODEL      146
REMARK 921   NORMALIZED FREE ENERGY PREDICTED BY IDOCK:   -3.90 KCAL/MOL
REMARK 922        TOTAL FREE ENERGY PREDICTED BY IDOCK:   -7.58 KCAL/MOL
REMARK 923 INTER-LIGAND FREE ENERGY PREDICTED BY IDOCK:   -6.49 KCAL/MOL
REMARK 924 INTRA-LIGAND FREE ENERGY PREDICTED BY IDOCK:   -1.10 KCAL/MOL
REMARK 927      BINDING AFFINITY PREDICTED BY RF-SCORE:    0.00 PKD
ROOT
HETATM    1  C   UNL     1      -8.622   8.417  72.312  1.00  0.00    -0.263 C  
HETATM    2  C   UNL     1      -9.833   9.016  71.618  1.00  0.00    -0.366 C  
ENDROOT
BRANCH   2   3
HETATM    3  C   UNL     1      -9.493   9.460  70.202  1.00  0.00    -0.276 C  
BRANCH   3   4
HETATM    4  C   UNL     1      -9.803   8.381  69.194  1.00  0.00    -0.183 C  
HETATM    5  O   UNL     1     -10.284   7.287  69.450  1.00  0.00    -0.182 OA 
BRANCH   4   6
HETATM    6  O   UNL     1      -9.519   8.846  67.954  1.00  0.00    -0.140 OA 
BRANCH   6   7
HETATM    7  C   UNL     1     -10.646   9.189  67.162  1.00  0.00    -0.216 C  
BRANCH   7   8
HETATM    8  O   UNL     1     -10.636  10.476  66.545  1.00  0.00    -0.231 OA 
BRANCH   8   9
HETATM    9  C   UNL     1     -11.202  11.492  67.222  1.00  0.00    -0.301 C  
HETATM   10  O   UNL     1     -11.763  11.378  68.299  1.00  0.00    -0.408 OA 
BRANCH   9  11
HETATM   11  C   UNL     1     -11.210  12.743  66.393  1.00  0.00    -0.339 C  
HETATM   12  C   UNL     1     -11.874  12.880  65.216  1.00  0.00    -0.392 C  
HETATM   13  N   UNL     1     -11.955  14.125  64.620  1.00  0.00    -0.422 NA 
HETATM   14  C   UNL     1     -12.593  11.818  64.408  1.00  0.00     0.010 C  
HETATM   15  C   UNL     1     -11.275  15.256  65.019  1.00  0.00    -0.403 C  
HETATM   16  C   UNL     1     -10.549  15.240  66.160  1.00  0.00    -0.318 C  
HETATM   17  C   UNL     1     -11.415  16.441  64.094  1.00  0.00     0.307 C  
HETATM   18  C   UNL     1     -10.521  13.979  67.050  1.00  0.00    -0.275 C  
BRANCH  16  19
HETATM   19  C   UNL     1      -9.738  16.441  66.507  1.00  0.00    -0.269 C  
HETATM   20  O   UNL     1     -10.044  17.253  67.367  1.00  0.00    -0.288 OA 
BRANCH  19  21
HETATM   21  O   UNL     1      -8.633  16.539  65.726  1.00  0.00    -0.442 OA 
HETATM   22  C   UNL     1      -7.443  16.854  66.455  1.00  0.00    -0.288 C  
ENDBRANCH  19  21
ENDBRANCH  16  19
BRANCH  18  23
HETATM   23  C   UNL     1      -9.100  13.674  67.547  1.00  0.00    -0.213 A  
HETATM   24  C   UNL     1      -8.287  12.820  66.777  1.00  0.00     0.010 A  
HETATM   25  C   UNL     1      -6.985  12.527  67.168  1.00  0.00    -0.060 A  
HETATM   26  C   UNL     1      -6.459  13.092  68.334  1.00  0.00    -0.086 A  
HETATM   27  C   UNL     1      -7.251  13.933  69.122  1.00  0.00    -0.038 A  
HETATM   28 CL   UNL     1      -6.518  14.589  70.548  1.00  0.00    -0.133 Cl 
HETATM   29  C   UNL     1      -8.569  14.229  68.740  1.00  0.00    -0.101 A  
HETATM   30 CL   UNL     1      -9.528  15.286  69.738  1.00  0.00    -0.182 Cl 
ENDBRANCH  18  23
ENDBRANCH   9  11
ENDBRANCH   8   9
ENDBRANCH   7   8
ENDBRANCH   6   7
ENDBRANCH   4   6
ENDBRANCH   3   4
ENDBRANCH   2   3
TORSDOF 10
ENDMDL
MODEL      147
REMARK 921   NORMALIZED FREE ENERGY PREDICTED BY IDOCK:   -3.90 KCAL/MOL
REMARK 922        TOTAL FREE ENERGY PREDICTED BY IDOCK:   -7.58 KCAL/MOL
REMARK 923 INTER-LIGAND FREE ENERGY PREDICTED BY IDOCK:   -5.96 KCAL/MOL
REMARK 924 INTRA-LIGAND FREE ENERGY PREDICTED BY IDOCK:   -1.62 KCAL/MOL
REMARK 927      BINDING AFFINITY PREDICTED BY RF-SCORE:    0.00 PKD
ROOT
HETATM    1  C   UNL     1     -10.079   6.972  67.441  1.00  0.00    -0.252 C  
HETATM    2  C   UNL     1     -10.824   7.894  68.392  1.00  0.00     0.025 C  
ENDROOT
BRANCH   2   3
HETATM    3  C   UNL     1      -9.991   8.199  69.629  1.00  0.00    -0.193 C  
BRANCH   3   4
HETATM    4  C   UNL     1     -10.776   8.994  70.643  1.00  0.00    -0.239 C  
HETATM    5  O   UNL     1     -10.380   9.314  71.754  1.00  0.00    -0.328 OA 
BRANCH   4   6
HETATM    6  O   UNL     1     -11.964   9.347  70.097  1.00  0.00    -0.046 OA 
BRANCH   6   7
HETATM    7  C   UNL     1     -12.472  10.606  70.516  1.00  0.00    -0.358 C  
BRANCH   7   8
HETATM    8  O   UNL     1     -11.642  11.745  70.289  1.00  0.00    -0.260 OA 
BRANCH   8   9
HETATM    9  C   UNL     1     -11.581  12.227  69.034  1.00  0.00    -0.316 C  
HETATM   10  O   UNL     1     -12.132  11.721  68.071  1.00  0.00    -0.572 OA 
BRANCH   9  11
HETATM   11  C   UNL     1     -10.600  13.359  68.947  1.00  0.00    -0.181 C  
HETATM   12  C   UNL     1     -10.914  14.665  69.152  1.00  0.00    -0.262 C  
HETATM   13  N   UNL     1      -9.903  15.607  69.215  1.00  0.00    -0.250 NA 
HETATM   14  C   UNL     1     -12.283  15.288  69.343  1.00  0.00    -0.247 C  
HETATM   15  C   UNL     1      -8.575  15.386  68.922  1.00  0.00    -0.207 C  
HETATM   16  C   UNL     1      -8.139  14.131  68.668  1.00  0.00    -0.126 C  
HETATM   17  C   UNL     1      -7.712  16.624  68.912  1.00  0.00    -0.239 C  
HETATM   18  C   UNL     1      -9.110  12.934  68.758  1.00  0.00     0.171 C  
BRANCH  16  19
HETATM   19  C   UNL     1      -6.723  13.937  68.248  1.00  0.00    -0.109 C  
HETATM   20  O   UNL     1      -6.362  13.795  67.090  1.00  0.00    -0.205 OA 
BRANCH  19  21
HETATM   21  O   UNL     1      -5.886  13.905  69.316  1.00  0.00    -0.079 OA 
HETATM   22  C   UNL     1      -5.882  12.649  70.001  1.00  0.00    -0.151 C  
ENDBRANCH  19  21
ENDBRANCH  16  19
BRANCH  18  23
HETATM   23  C   UNL     1      -8.914  11.963  67.584  1.00  0.00    -0.169 A  
HETATM   24  C   UNL     1      -8.296  10.723  67.832  1.00  0.00    -0.117 A  
HETATM   25  C   UNL     1      -8.113   9.796  66.811  1.00  0.00    -0.120 A  
HETATM   26  C   UNL     1      -8.556  10.084  65.516  1.00  0.00    -0.162 A  
HETATM   27  C   UNL     1      -9.160  11.315  65.241  1.00  0.00    -0.126 A  
HETATM   28 CL   UNL     1      -9.678  11.587  63.610  1.00  0.00    -0.321 Cl 
HETATM   29  C   UNL     1      -9.343  12.260  66.264  1.00  0.00    -0.206 A  
HETATM   30 CL   UNL     1     -10.106  13.780  65.892  1.00  0.00    -0.316 Cl 
ENDBRANCH  18  23
ENDBRANCH   9  11
ENDBRANCH   8   9
ENDBRANCH   7   8
ENDBRANCH   6   7
ENDBRANCH   4   6
ENDBRANCH   3   4
ENDBRANCH   2   3
TORSDOF 10
ENDMDL
MODEL      148
REMARK 921   NORMALIZED FREE ENERGY PREDICTED BY IDOCK:   -3.88 KCAL/MOL
REMARK 922        TOTAL FREE ENERGY PREDICTED BY IDOCK:   -7.54 KCAL/MOL
REMARK 923 INTER-LIGAND FREE ENERGY PREDICTED BY IDOCK:   -6.40 KCAL/MOL
REMARK 924 INTRA-LIGAND FREE ENERGY PREDICTED BY IDOCK:   -1.14 KCAL/MOL
REMARK 927      BINDING AFFINITY PREDICTED BY RF-SCORE:    0.00 PKD
ROOT
HETATM    1  C   UNL     1     -12.652  13.630  65.236  1.00  0.00    -0.512 C  
HETATM    2  C   UNL     1     -11.692  14.022  66.347  1.00  0.00    -0.407 C  
ENDROOT
BRANCH   2   3
HETATM    3  C   UNL     1     -10.263  14.122  65.831  1.00  0.00    -0.332 C  
BRANCH   3   4
HETATM    4  C   UNL     1      -9.330  13.225  66.607  1.00  0.00    -0.242 C  
HETATM    5  O   UNL     1      -8.253  13.560  67.079  1.00  0.00    -0.142 OA 
BRANCH   4   6
HETATM    6  O   UNL     1      -9.908  12.008  66.746  1.00  0.00    -0.199 OA 
BRANCH   6   7
HETATM    7  C   UNL     1      -9.005  10.923  66.900  1.00  0.00    -0.151 C  
BRANCH   7   8
HETATM    8  O   UNL     1      -8.572  10.627  68.227  1.00  0.00    -0.119 OA 
BRANCH   8   9
HETATM    9  C   UNL     1      -8.009   9.423  68.440  1.00  0.00    -0.094 C  
HETATM   10  O   UNL     1      -7.395   8.787  67.600  1.00  0.00    -0.083 OA 
BRANCH   9  11
HETATM   11  C   UNL     1      -8.392   8.889  69.789  1.00  0.00    -0.125 C  
HETATM   12  C   UNL     1      -7.674   9.085  70.926  1.00  0.00    -0.128 C  
HETATM   13  N   UNL     1      -8.204   8.696  72.143  1.00  0.00    -0.340 NA 
HETATM   14  C   UNL     1      -6.302   9.712  71.079  1.00  0.00    -0.063 C  
HETATM   15  C   UNL     1      -9.352   7.956  72.322  1.00  0.00    -0.180 C  
HETATM   16  C   UNL     1     -10.141   7.665  71.263  1.00  0.00    -0.203 C  
HETATM   17  C   UNL     1      -9.616   7.527  73.746  1.00  0.00    -0.321 C  
HETATM   18  C   UNL     1      -9.792   8.203  69.859  1.00  0.00    -0.186 C  
BRANCH  16  19
HETATM   19  C   UNL     1     -11.316   6.773  71.471  1.00  0.00    -0.275 C  
HETATM   20  O   UNL     1     -11.241   5.610  71.839  1.00  0.00    -0.249 OA 
BRANCH  19  21
HETATM   21  O   UNL     1     -12.480   7.402  71.167  1.00  0.00    -0.336 OA 
HETATM   22  C   UNL     1     -12.860   8.395  72.123  1.00  0.00    -0.346 C  
ENDBRANCH  19  21
ENDBRANCH  16  19
BRANCH  18  23
HETATM   23  C   UNL     1      -9.979   7.124  68.782  1.00  0.00    -0.163 A  
HETATM   24  C   UNL     1     -10.873   7.377  67.724  1.00  0.00    -0.186 A  
HETATM   25  C   UNL     1     -11.064   6.444  66.709  1.00  0.00    -0.241 A  
HETATM   26  C   UNL     1     -10.356   5.238  66.723  1.00  0.00    -0.320 A  
HETATM   27  C   UNL     1      -9.473   4.959  67.771  1.00  0.00    -0.138 A  
HETATM   28 CL   UNL     1      -8.637   3.442  67.707  1.00  0.00    -0.109 Cl 
HETATM   29  C   UNL     1      -9.278   5.891  68.803  1.00  0.00    -0.115 A  
HETATM   30 CL   UNL     1      -8.166   5.516  70.090  1.00  0.00    -0.100 Cl 
ENDBRANCH  18  23
ENDBRANCH   9  11
ENDBRANCH   8   9
ENDBRANCH   7   8
ENDBRANCH   6   7
ENDBRANCH   4   6
ENDBRANCH   3   4
ENDBRANCH   2   3
TORSDOF 10
ENDMDL
MODEL      149
REMARK 921   NORMALIZED FREE ENERGY PREDICTED BY IDOCK:   -3.87 KCAL/MOL
REMARK 922        TOTAL FREE ENERGY PREDICTED BY IDOCK:   -7.54 KCAL/MOL
REMARK 923 INTER-LIGAND FREE ENERGY PREDICTED BY IDOCK:   -6.40 KCAL/MOL
REMARK 924 INTRA-LIGAND FREE ENERGY PREDICTED BY IDOCK:   -1.13 KCAL/MOL
REMARK 927      BINDING AFFINITY PREDICTED BY RF-SCORE:    0.00 PKD
ROOT
HETATM    1  C   UNL     1      -6.038   6.317  65.126  1.00  0.00    -0.030 C  
HETATM    2  C   UNL     1      -5.551   7.744  65.319  1.00  0.00    -0.037 C  
ENDROOT
BRANCH   2   3
HETATM    3  C   UNL     1      -6.714   8.726  65.333  1.00  0.00    -0.068 C  
BRANCH   3   4
HETATM    4  C   UNL     1      -6.465   9.893  64.410  1.00  0.00    -0.125 C  
HETATM    5  O   UNL     1      -5.383  10.201  63.931  1.00  0.00    -0.094 OA 
BRANCH   4   6
HETATM    6  O   UNL     1      -7.644  10.505  64.151  1.00  0.00    -0.061 OA 
BRANCH   6   7
HETATM    7  C   UNL     1      -8.695  10.205  65.058  1.00  0.00    -0.173 C  
BRANCH   7   8
HETATM    8  O   UNL     1      -9.329  11.311  65.701  1.00  0.00    -0.216 OA 
BRANCH   8   9
HETATM    9  C   UNL     1      -8.842  11.693  66.896  1.00  0.00    -0.190 C  
HETATM   10  O   UNL     1      -7.656  11.782  67.165  1.00  0.00    -0.141 OA 
BRANCH   9  11
HETATM   11  C   UNL     1      -9.948  11.817  67.904  1.00  0.00    -0.187 C  
HETATM   12  C   UNL     1     -10.685  10.774  68.368  1.00  0.00    -0.217 C  
HETATM   13  N   UNL     1     -11.562  10.973  69.418  1.00  0.00    -0.283 NA 
HETATM   14  C   UNL     1     -10.690   9.335  67.890  1.00  0.00    -0.248 C  
HETATM   15  C   UNL     1     -11.904  12.192  69.963  1.00  0.00    -0.306 C  
HETATM   16  C   UNL     1     -11.265  13.314  69.563  1.00  0.00    -0.163 C  
HETATM   17  C   UNL     1     -13.009  12.141  70.991  1.00  0.00    -0.160 C  
HETATM   18  C   UNL     1     -10.113  13.233  68.537  1.00  0.00    -0.208 C  
BRANCH  16  19
HETATM   19  C   UNL     1     -11.730  14.628  70.088  1.00  0.00    -0.297 C  
HETATM   20  O   UNL     1     -12.594  15.313  69.561  1.00  0.00    -0.139 OA 
BRANCH  19  21
HETATM   21  O   UNL     1     -11.052  14.987  71.207  1.00  0.00    -0.270 OA 
HETATM   22  C   UNL     1     -11.704  16.006  71.970  1.00  0.00    -0.493 C  
ENDBRANCH  19  21
ENDBRANCH  16  19
BRANCH  18  23
HETATM   23  C   UNL     1     -10.220  14.346  67.484  1.00  0.00    -0.240 A  
HETATM   24  C   UNL     1     -10.965  14.098  66.316  1.00  0.00    -0.303 A  
HETATM   25  C   UNL     1     -11.113  15.077  65.339  1.00  0.00    -0.377 A  
HETATM   26  C   UNL     1     -10.529  16.336  65.515  1.00  0.00    -0.383 A  
HETATM   27  C   UNL     1      -9.774  16.602  66.661  1.00  0.00    -0.266 A  
HETATM   28 CL   UNL     1      -9.087  18.188  66.795  1.00  0.00    -0.276 Cl 
HETATM   29  C   UNL     1      -9.612  15.618  67.649  1.00  0.00    -0.220 A  
HETATM   30 CL   UNL     1      -8.672  15.982  69.069  1.00  0.00    -0.233 Cl 
ENDBRANCH  18  23
ENDBRANCH   9  11
ENDBRANCH   8   9
ENDBRANCH   7   8
ENDBRANCH   6   7
ENDBRANCH   4   6
ENDBRANCH   3   4
ENDBRANCH   2   3
TORSDOF 10
ENDMDL
MODEL      150
REMARK 921   NORMALIZED FREE ENERGY PREDICTED BY IDOCK:   -3.87 KCAL/MOL
REMARK 922        TOTAL FREE ENERGY PREDICTED BY IDOCK:   -7.53 KCAL/MOL
REMARK 923 INTER-LIGAND FREE ENERGY PREDICTED BY IDOCK:   -5.59 KCAL/MOL
REMARK 924 INTRA-LIGAND FREE ENERGY PREDICTED BY IDOCK:   -1.94 KCAL/MOL
REMARK 927      BINDING AFFINITY PREDICTED BY RF-SCORE:    0.00 PKD
ROOT
HETATM    1  C   UNL     1     -10.522  11.694  63.651  1.00  0.00    -0.483 C  
HETATM    2  C   UNL     1     -10.133  10.502  64.510  1.00  0.00    -0.402 C  
ENDROOT
BRANCH   2   3
HETATM    3  C   UNL     1      -8.942  10.828  65.399  1.00  0.00    -0.211 C  
BRANCH   3   4
HETATM    4  C   UNL     1      -7.654  10.303  64.814  1.00  0.00    -0.109 C  
HETATM    5  O   UNL     1      -7.465  10.039  63.635  1.00  0.00    -0.133 OA 
BRANCH   4   6
HETATM    6  O   UNL     1      -6.725  10.230  65.796  1.00  0.00    -0.106 OA 
BRANCH   6   7
HETATM    7  C   UNL     1      -6.925   9.191  66.743  1.00  0.00    -0.081 C  
BRANCH   7   8
HETATM    8  O   UNL     1      -6.551   9.466  68.093  1.00  0.00    -0.058 OA 
BRANCH   8   9
HETATM    9  C   UNL     1      -7.428  10.150  68.851  1.00  0.00    -0.086 C  
HETATM   10  O   UNL     1      -7.823  11.277  68.606  1.00  0.00    -0.126 OA 
BRANCH   9  11
HETATM   11  C   UNL     1      -7.713   9.414  70.128  1.00  0.00    -0.140 C  
HETATM   12  C   UNL     1      -6.893   9.412  71.212  1.00  0.00     0.025 C  
HETATM   13  N   UNL     1      -7.330   8.844  72.395  1.00  0.00    -0.338 NA 
HETATM   14  C   UNL     1      -5.493   9.980  71.338  1.00  0.00    -0.062 C  
HETATM   15  C   UNL     1      -8.483   8.108  72.558  1.00  0.00    -0.185 C  
HETATM   16  C   UNL     1      -9.369   8.005  71.542  1.00  0.00    -0.196 C  
HETATM   17  C   UNL     1      -8.638   7.462  73.914  1.00  0.00    -0.245 C  
HETATM   18  C   UNL     1      -9.124   8.754  70.214  1.00  0.00    -0.185 C  
BRANCH  16  19
HETATM   19  C   UNL     1     -10.552   7.115  71.711  1.00  0.00    -0.206 C  
HETATM   20  O   UNL     1     -10.515   5.897  71.620  1.00  0.00    -0.218 OA 
BRANCH  19  21
HETATM   21  O   UNL     1     -11.682   7.827  71.946  1.00  0.00    -0.270 OA 
HETATM   22  C   UNL     1     -12.851   7.260  71.346  1.00  0.00    -0.382 C  
ENDBRANCH  19  21
ENDBRANCH  16  19
BRANCH  18  23
HETATM   23  C   UNL     1      -9.439   7.865  69.002  1.00  0.00    -0.151 A  
HETATM   24  C   UNL     1     -10.467   8.262  68.126  1.00  0.00    -0.226 A  
HETATM   25  C   UNL     1     -10.780   7.506  67.000  1.00  0.00    -0.367 A  
HETATM   26  C   UNL     1     -10.062   6.340  66.717  1.00  0.00    -0.237 A  
HETATM   27  C   UNL     1      -9.045   5.918  67.580  1.00  0.00    -0.106 A  
HETATM   28 CL   UNL     1      -8.208   4.463  67.152  1.00  0.00    -0.101 Cl 
HETATM   29  C   UNL     1      -8.727   6.670  68.723  1.00  0.00    -0.128 A  
HETATM   30 CL   UNL     1      -7.451   6.123  69.774  1.00  0.00    -0.079 Cl 
ENDBRANCH  18  23
ENDBRANCH   9  11
ENDBRANCH   8   9
ENDBRANCH   7   8
ENDBRANCH   6   7
ENDBRANCH   4   6
ENDBRANCH   3   4
ENDBRANCH   2   3
TORSDOF 10
ENDMDL
MODEL      151
REMARK 921   NORMALIZED FREE ENERGY PREDICTED BY IDOCK:   -3.86 KCAL/MOL
REMARK 922        TOTAL FREE ENERGY PREDICTED BY IDOCK:   -7.53 KCAL/MOL
REMARK 923 INTER-LIGAND FREE ENERGY PREDICTED BY IDOCK:   -5.27 KCAL/MOL
REMARK 924 INTRA-LIGAND FREE ENERGY PREDICTED BY IDOCK:   -2.26 KCAL/MOL
REMARK 927      BINDING AFFINITY PREDICTED BY RF-SCORE:    0.00 PKD
ROOT
HETATM    1  C   UNL     1      -7.905   8.382  63.069  1.00  0.00    -0.150 C  
HETATM    2  C   UNL     1      -7.876   6.887  63.338  1.00  0.00    -0.101 C  
ENDROOT
BRANCH   2   3
HETATM    3  C   UNL     1      -7.451   6.593  64.770  1.00  0.00    -0.095 C  
BRANCH   3   4
HETATM    4  C   UNL     1      -8.640   6.520  65.697  1.00  0.00    -0.126 C  
HETATM    5  O   UNL     1      -9.332   5.531  65.888  1.00  0.00    -0.161 OA 
BRANCH   4   6
HETATM    6  O   UNL     1      -8.776   7.711  66.327  1.00  0.00    -0.138 OA 
BRANCH   6   7
HETATM    7  C   UNL     1     -10.113   8.154  66.502  1.00  0.00    -0.216 C  
BRANCH   7   8
HETATM    8  O   UNL     1     -10.369   9.541  66.280  1.00  0.00    -0.244 OA 
BRANCH   8   9
HETATM    9  C   UNL     1     -10.588  10.311  67.361  1.00  0.00    -0.270 C  
HETATM   10  O   UNL     1     -11.277   9.987  68.314  1.00  0.00    -0.229 OA 
BRANCH   9  11
HETATM   11  C   UNL     1     -10.023  11.687  67.157  1.00  0.00    -0.219 C  
HETATM   12  C   UNL     1     -10.675  12.699  66.528  1.00  0.00    -0.250 C  
HETATM   13  N   UNL     1     -10.134  13.972  66.545  1.00  0.00    -0.278 NA 
HETATM   14  C   UNL     1     -11.989  12.651  65.773  1.00  0.00    -0.503 C  
HETATM   15  C   UNL     1      -8.880  14.309  67.006  1.00  0.00    -0.226 C  
HETATM   16  C   UNL     1      -8.116  13.381  67.625  1.00  0.00    -0.175 C  
HETATM   17  C   UNL     1      -8.475  15.742  66.756  1.00  0.00    -0.304 C  
HETATM   18  C   UNL     1      -8.660  11.957  67.867  1.00  0.00    -0.162 C  
BRANCH  16  19
HETATM   19  C   UNL     1      -6.725  13.745  68.015  1.00  0.00    -0.139 C  
HETATM   20  O   UNL     1      -5.815  13.935  67.221  1.00  0.00    -0.319 OA 
BRANCH  19  21
HETATM   21  O   UNL     1      -6.585  13.807  69.363  1.00  0.00    -0.109 OA 
HETATM   22  C   UNL     1      -6.566  15.142  69.876  1.00  0.00    -0.172 C  
ENDBRANCH  19  21
ENDBRANCH  16  19
BRANCH  18  23
HETATM   23  C   UNL     1      -7.602  10.890  67.549  1.00  0.00    -0.101 A  
HETATM   24  C   UNL     1      -7.066  10.841  66.249  1.00  0.00    -0.134 A  
HETATM   25  C   UNL     1      -6.089   9.909  65.911  1.00  0.00    -0.074 A  
HETATM   26  C   UNL     1      -5.616   9.011  66.873  1.00  0.00    -0.041 A  
HETATM   27  C   UNL     1      -6.143   9.031  68.168  1.00  0.00    -0.050 A  
HETATM   28 CL   UNL     1      -5.497   7.883  69.294  1.00  0.00    -0.026 Cl 
HETATM   29  C   UNL     1      -7.134   9.963  68.516  1.00  0.00    -0.071 A  
HETATM   30 CL   UNL     1      -7.765   9.968  70.139  1.00  0.00    -0.185 Cl 
ENDBRANCH  18  23
ENDBRANCH   9  11
ENDBRANCH   8   9
ENDBRANCH   7   8
ENDBRANCH   6   7
ENDBRANCH   4   6
ENDBRANCH   3   4
ENDBRANCH   2   3
TORSDOF 10
ENDMDL
MODEL      152
REMARK 921   NORMALIZED FREE ENERGY PREDICTED BY IDOCK:   -3.86 KCAL/MOL
REMARK 922        TOTAL FREE ENERGY PREDICTED BY IDOCK:   -7.52 KCAL/MOL
REMARK 923 INTER-LIGAND FREE ENERGY PREDICTED BY IDOCK:   -5.74 KCAL/MOL
REMARK 924 INTRA-LIGAND FREE ENERGY PREDICTED BY IDOCK:   -1.78 KCAL/MOL
REMARK 927      BINDING AFFINITY PREDICTED BY RF-SCORE:    0.00 PKD
ROOT
HETATM    1  C   UNL     1      -6.883   1.857  71.841  1.00  0.00    -0.019 C  
HETATM    2  C   UNL     1      -8.167   2.547  71.412  1.00  0.00    -0.069 C  
ENDROOT
BRANCH   2   3
HETATM    3  C   UNL     1      -7.918   4.007  71.064  1.00  0.00    -0.063 C  
BRANCH   3   4
HETATM    4  C   UNL     1      -9.103   4.619  70.361  1.00  0.00    -0.113 C  
HETATM    5  O   UNL     1     -10.272   4.494  70.699  1.00  0.00    -0.198 OA 
BRANCH   4   6
HETATM    6  O   UNL     1      -8.657   5.379  69.332  1.00  0.00    -0.098 OA 
BRANCH   6   7
HETATM    7  C   UNL     1      -9.385   5.245  68.120  1.00  0.00    -0.118 C  
BRANCH   7   8
HETATM    8  O   UNL     1      -9.924   6.439  67.554  1.00  0.00    -0.123 OA 
BRANCH   8   9
HETATM    9  C   UNL     1      -9.058   7.299  66.985  1.00  0.00    -0.135 C  
HETATM   10  O   UNL     1      -7.899   7.037  66.713  1.00  0.00    -0.103 OA 
BRANCH   9  11
HETATM   11  C   UNL     1      -9.655   8.674  66.900  1.00  0.00    -0.254 C  
HETATM   12  C   UNL     1      -9.587   9.474  65.804  1.00  0.00    -0.270 C  
HETATM   13  N   UNL     1     -10.315  10.649  65.772  1.00  0.00    -0.244 NA 
HETATM   14  C   UNL     1      -8.795   9.263  64.529  1.00  0.00    -0.203 C  
HETATM   15  C   UNL     1     -11.002  11.201  66.832  1.00  0.00    -0.273 C  
HETATM   16  C   UNL     1     -11.118  10.517  67.993  1.00  0.00    -0.361 C  
HETATM   17  C   UNL     1     -11.575  12.574  66.572  1.00  0.00    -0.447 C  
HETATM   18  C   UNL     1     -10.529   9.095  68.122  1.00  0.00    -0.260 C  
BRANCH  16  19
HETATM   19  C   UNL     1     -11.771  11.183  69.154  1.00  0.00    -0.338 C  
HETATM   20  O   UNL     1     -11.290  12.123  69.768  1.00  0.00    -0.209 OA 
BRANCH  19  21
HETATM   21  O   UNL     1     -12.953  10.594  69.466  1.00  0.00    -0.089 OA 
HETATM   22  C   UNL     1     -13.235  10.587  70.868  1.00  0.00    -0.202 C  
ENDBRANCH  19  21
ENDBRANCH  16  19
BRANCH  18  23
HETATM   23  C   UNL     1      -9.805   8.907  69.464  1.00  0.00    -0.180 A  
HETATM   24  C   UNL     1      -8.568   9.551  69.657  1.00  0.00    -0.189 A  
HETATM   25  C   UNL     1      -7.880   9.434  70.860  1.00  0.00    -0.097 A  
HETATM   26  C   UNL     1      -8.419   8.677  71.905  1.00  0.00    -0.210 A  
HETATM   27  C   UNL     1      -9.640   8.018  71.733  1.00  0.00    -0.176 A  
HETATM   28 CL   UNL     1     -10.234   7.104  73.081  1.00  0.00    -0.278 Cl 
HETATM   29  C   UNL     1     -10.339   8.124  70.520  1.00  0.00    -0.202 A  
HETATM   30 CL   UNL     1     -11.861   7.297  70.338  1.00  0.00    -0.223 Cl 
ENDBRANCH  18  23
ENDBRANCH   9  11
ENDBRANCH   8   9
ENDBRANCH   7   8
ENDBRANCH   6   7
ENDBRANCH   4   6
ENDBRANCH   3   4
ENDBRANCH   2   3
TORSDOF 10
ENDMDL
MODEL      153
REMARK 921   NORMALIZED FREE ENERGY PREDICTED BY IDOCK:   -3.84 KCAL/MOL
REMARK 922        TOTAL FREE ENERGY PREDICTED BY IDOCK:   -7.49 KCAL/MOL
REMARK 923 INTER-LIGAND FREE ENERGY PREDICTED BY IDOCK:   -6.03 KCAL/MOL
REMARK 924 INTRA-LIGAND FREE ENERGY PREDICTED BY IDOCK:   -1.45 KCAL/MOL
REMARK 927      BINDING AFFINITY PREDICTED BY RF-SCORE:    0.00 PKD
ROOT
HETATM    1  C   UNL     1      -6.626   5.147  64.137  1.00  0.00    -0.038 C  
HETATM    2  C   UNL     1      -5.796   4.727  65.338  1.00  0.00    -0.018 C  
ENDROOT
BRANCH   2   3
HETATM    3  C   UNL     1      -5.745   5.830  66.386  1.00  0.00    -0.017 C  
BRANCH   3   4
HETATM    4  C   UNL     1      -7.006   5.866  67.214  1.00  0.00    -0.069 C  
HETATM    5  O   UNL     1      -7.684   4.895  67.518  1.00  0.00    -0.089 OA 
BRANCH   4   6
HETATM    6  O   UNL     1      -7.228   7.140  67.617  1.00  0.00    -0.085 OA 
BRANCH   6   7
HETATM    7  C   UNL     1      -7.154   8.121  66.593  1.00  0.00    -0.077 C  
BRANCH   7   8
HETATM    8  O   UNL     1      -8.248   8.184  65.679  1.00  0.00    -0.117 OA 
BRANCH   8   9
HETATM    9  C   UNL     1      -9.490   8.129  66.195  1.00  0.00    -0.147 C  
HETATM   10  O   UNL     1     -10.115   7.099  66.385  1.00  0.00    -0.122 OA 
BRANCH   9  11
HETATM   11  C   UNL     1     -10.069   9.506  66.332  1.00  0.00    -0.328 C  
HETATM   12  C   UNL     1     -10.158  10.407  65.318  1.00  0.00    -0.300 C  
HETATM   13  N   UNL     1     -10.862  11.582  65.510  1.00  0.00    -0.276 NA 
HETATM   14  C   UNL     1      -9.578  10.315  63.921  1.00  0.00    -0.354 C  
HETATM   15  C   UNL     1     -11.367  12.032  66.710  1.00  0.00    -0.339 C  
HETATM   16  C   UNL     1     -11.312  11.241  67.806  1.00  0.00    -0.354 C  
HETATM   17  C   UNL     1     -11.949  13.425  66.672  1.00  0.00    -0.452 C  
HETATM   18  C   UNL     1     -10.735   9.812  67.710  1.00  0.00    -0.329 C  
BRANCH  16  19
HETATM   19  C   UNL     1     -11.766  11.797  69.112  1.00  0.00    -0.325 C  
HETATM   20  O   UNL     1     -11.302  12.801  69.631  1.00  0.00    -0.204 OA 
BRANCH  19  21
HETATM   21  O   UNL     1     -12.735  11.029  69.670  1.00  0.00    -0.218 OA 
HETATM   22  C   UNL     1     -12.628  10.916  71.092  1.00  0.00    -0.428 C  
ENDBRANCH  19  21
ENDBRANCH  16  19
BRANCH  18  23
HETATM   23  C   UNL     1      -9.815   9.497  68.898  1.00  0.00    -0.179 A  
HETATM   24  C   UNL     1     -10.205   8.492  69.803  1.00  0.00    -0.206 A  
HETATM   25  C   UNL     1      -9.399   8.150  70.884  1.00  0.00    -0.173 A  
HETATM   26  C   UNL     1      -8.175   8.799  71.079  1.00  0.00    -0.194 A  
HETATM   27  C   UNL     1      -7.772   9.810  70.201  1.00  0.00    -0.177 A  
HETATM   28 CL   UNL     1      -6.242  10.558  70.518  1.00  0.00    -0.125 Cl 
HETATM   29  C   UNL     1      -8.582  10.167  69.111  1.00  0.00    -0.165 A  
HETATM   30 CL   UNL     1      -8.049  11.425  68.031  1.00  0.00    -0.127 Cl 
ENDBRANCH  18  23
ENDBRANCH   9  11
ENDBRANCH   8   9
ENDBRANCH   7   8
ENDBRANCH   6   7
ENDBRANCH   4   6
ENDBRANCH   3   4
ENDBRANCH   2   3
TORSDOF 10
ENDMDL
MODEL      154
REMARK 921   NORMALIZED FREE ENERGY PREDICTED BY IDOCK:   -3.80 KCAL/MOL
REMARK 922        TOTAL FREE ENERGY PREDICTED BY IDOCK:   -7.42 KCAL/MOL
REMARK 923 INTER-LIGAND FREE ENERGY PREDICTED BY IDOCK:   -6.59 KCAL/MOL
REMARK 924 INTRA-LIGAND FREE ENERGY PREDICTED BY IDOCK:   -0.84 KCAL/MOL
REMARK 927      BINDING AFFINITY PREDICTED BY RF-SCORE:    0.00 PKD
ROOT
HETATM    1  C   UNL     1      -9.747  15.989  65.684  1.00  0.00    -0.273 C  
HETATM    2  C   UNL     1     -10.606  15.093  64.808  1.00  0.00    -0.305 C  
ENDROOT
BRANCH   2   3
HETATM    3  C   UNL     1     -12.057  15.100  65.267  1.00  0.00     0.090 C  
BRANCH   3   4
HETATM    4  C   UNL     1     -12.535  13.712  65.615  1.00  0.00    -0.496 C  
HETATM    5  O   UNL     1     -13.017  12.909  64.829  1.00  0.00    -0.743 OA 
BRANCH   4   6
HETATM    6  O   UNL     1     -12.284  13.479  66.925  1.00  0.00    -0.386 OA 
BRANCH   6   7
HETATM    7  C   UNL     1     -11.030  12.875  67.204  1.00  0.00    -0.262 C  
BRANCH   7   8
HETATM    8  O   UNL     1     -10.973  11.991  68.324  1.00  0.00    -0.208 OA 
BRANCH   8   9
HETATM    9  C   UNL     1     -11.200  10.685  68.093  1.00  0.00    -0.302 C  
HETATM   10  O   UNL     1     -11.647  10.233  67.052  1.00  0.00     0.021 OA 
BRANCH   9  11
HETATM   11  C   UNL     1     -11.005   9.882  69.346  1.00  0.00    -0.263 C  
HETATM   12  C   UNL     1     -11.494  10.230  70.565  1.00  0.00    -0.343 C  
HETATM   13  N   UNL     1     -11.403   9.336  71.616  1.00  0.00    -0.381 NA 
HETATM   14  C   UNL     1     -12.176  11.520  70.975  1.00  0.00    -0.368 C  
HETATM   15  C   UNL     1     -10.700   8.152  71.608  1.00  0.00    -0.241 C  
HETATM   16  C   UNL     1     -10.136   7.708  70.462  1.00  0.00    -0.189 C  
HETATM   17  C   UNL     1     -10.627   7.446  72.941  1.00  0.00    -0.370 C  
HETATM   18  C   UNL     1     -10.320   8.494  69.146  1.00  0.00    -0.227 C  
BRANCH  16  19
HETATM   19  C   UNL     1      -9.291   6.482  70.508  1.00  0.00    -0.162 C  
HETATM   20  O   UNL     1      -8.135   6.457  70.903  1.00  0.00    -0.119 OA 
BRANCH  19  21
HETATM   21  O   UNL     1      -9.954   5.401  70.025  1.00  0.00    -0.193 OA 
HETATM   22  C   UNL     1      -9.981   4.294  70.930  1.00  0.00    -0.155 C  
ENDBRANCH  19  21
ENDBRANCH  16  19
BRANCH  18  23
HETATM   23  C   UNL     1      -9.005   8.589  68.359  1.00  0.00    -0.139 A  
HETATM   24  C   UNL     1      -8.940   7.999  67.083  1.00  0.00    -0.150 A  
HETATM   25  C   UNL     1      -7.781   8.074  66.317  1.00  0.00    -0.091 A  
HETATM   26  C   UNL     1      -6.660   8.752  66.807  1.00  0.00    -0.061 A  
HETATM   27  C   UNL     1      -6.695   9.334  68.078  1.00  0.00    -0.060 A  
HETATM   28 CL   UNL     1      -5.262  10.154  68.603  1.00  0.00    -0.039 Cl 
HETATM   29  C   UNL     1      -7.858   9.258  68.861  1.00  0.00    -0.087 A  
HETATM   30 CL   UNL     1      -7.873   9.999  70.436  1.00  0.00    -0.083 Cl 
ENDBRANCH  18  23
ENDBRANCH   9  11
ENDBRANCH   8   9
ENDBRANCH   7   8
ENDBRANCH   6   7
ENDBRANCH   4   6
ENDBRANCH   3   4
ENDBRANCH   2   3
TORSDOF 10
ENDMDL
MODEL      155
REMARK 921   NORMALIZED FREE ENERGY PREDICTED BY IDOCK:   -3.78 KCAL/MOL
REMARK 922        TOTAL FREE ENERGY PREDICTED BY IDOCK:   -7.39 KCAL/MOL
REMARK 923 INTER-LIGAND FREE ENERGY PREDICTED BY IDOCK:   -7.94 KCAL/MOL
REMARK 924 INTRA-LIGAND FREE ENERGY PREDICTED BY IDOCK:    0.55 KCAL/MOL
REMARK 927      BINDING AFFINITY PREDICTED BY RF-SCORE:    0.00 PKD
ROOT
HETATM    1  C   UNL     1     -14.026   8.652  71.963  1.00  0.00    -0.506 C  
HETATM    2  C   UNL     1     -13.001   9.723  72.295  1.00  0.00    -0.420 C  
ENDROOT
BRANCH   2   3
HETATM    3  C   UNL     1     -13.019  10.842  71.263  1.00  0.00    -0.502 C  
BRANCH   3   4
HETATM    4  C   UNL     1     -11.957  10.641  70.210  1.00  0.00    -0.339 C  
HETATM    5  O   UNL     1     -10.876  10.099  70.386  1.00  0.00    -0.292 OA 
BRANCH   4   6
HETATM    6  O   UNL     1     -12.423  11.104  69.026  1.00  0.00    -0.439 OA 
BRANCH   6   7
HETATM    7  C   UNL     1     -11.426  11.476  68.086  1.00  0.00    -0.315 C  
BRANCH   7   8
HETATM    8  O   UNL     1     -11.871  11.828  66.777  1.00  0.00    -0.586 OA 
BRANCH   8   9
HETATM    9  C   UNL     1     -11.042  12.571  66.020  1.00  0.00    -0.294 C  
HETATM   10  O   UNL     1     -11.374  13.166  65.009  1.00  0.00    -0.291 OA 
BRANCH   9  11
HETATM   11  C   UNL     1      -9.622  12.421  66.484  1.00  0.00    -0.242 C  
HETATM   12  C   UNL     1      -8.948  11.242  66.523  1.00  0.00    -0.184 C  
HETATM   13  N   UNL     1      -7.594  11.242  66.804  1.00  0.00    -0.147 NA 
HETATM   14  C   UNL     1      -9.478   9.843  66.282  1.00  0.00    -0.245 C  
HETATM   15  C   UNL     1      -6.857  12.327  67.224  1.00  0.00    -0.140 C  
HETATM   16  C   UNL     1      -7.423  13.555  67.260  1.00  0.00    -0.056 C  
HETATM   17  C   UNL     1      -5.434  12.015  67.621  1.00  0.00    -0.082 C  
HETATM   18  C   UNL     1      -8.876  13.759  66.782  1.00  0.00    -0.156 C  
BRANCH  16  19
HETATM   19  C   UNL     1      -6.636  14.689  67.821  1.00  0.00    -0.171 C  
HETATM   20  O   UNL     1      -5.790  15.314  67.199  1.00  0.00    -0.288 OA 
BRANCH  19  21
HETATM   21  O   UNL     1      -6.950  14.920  69.121  1.00  0.00    -0.117 OA 
HETATM   22  C   UNL     1      -6.228  14.096  70.040  1.00  0.00    -0.151 C  
ENDBRANCH  19  21
ENDBRANCH  16  19
BRANCH  18  23
HETATM   23  C   UNL     1      -9.658  14.676  67.735  1.00  0.00    -0.213 A  
HETATM   24  C   UNL     1     -10.143  14.136  68.941  1.00  0.00    -0.155 A  
HETATM   25  C   UNL     1     -10.837  14.926  69.851  1.00  0.00    -0.228 A  
HETATM   26  C   UNL     1     -11.054  16.281  69.581  1.00  0.00    -0.333 A  
HETATM   27  C   UNL     1     -10.593  16.837  68.383  1.00  0.00    -0.354 A  
HETATM   28 CL   UNL     1     -10.905  18.523  68.132  1.00  0.00    -0.182 Cl 
HETATM   29  C   UNL     1      -9.897  16.046  67.455  1.00  0.00    -0.236 A  
HETATM   30 CL   UNL     1      -9.330  16.769  65.976  1.00  0.00    -0.280 Cl 
ENDBRANCH  18  23
ENDBRANCH   9  11
ENDBRANCH   8   9
ENDBRANCH   7   8
ENDBRANCH   6   7
ENDBRANCH   4   6
ENDBRANCH   3   4
ENDBRANCH   2   3
TORSDOF 10
ENDMDL
MODEL      156
REMARK 921   NORMALIZED FREE ENERGY PREDICTED BY IDOCK:   -3.76 KCAL/MOL
REMARK 922        TOTAL FREE ENERGY PREDICTED BY IDOCK:   -7.36 KCAL/MOL
REMARK 923 INTER-LIGAND FREE ENERGY PREDICTED BY IDOCK:   -5.87 KCAL/MOL
REMARK 924 INTRA-LIGAND FREE ENERGY PREDICTED BY IDOCK:   -1.48 KCAL/MOL
REMARK 927      BINDING AFFINITY PREDICTED BY RF-SCORE:    0.00 PKD
ROOT
HETATM    1  C   UNL     1      -8.457   4.929  64.728  1.00  0.00    -0.145 C  
HETATM    2  C   UNL     1      -7.682   4.625  66.000  1.00  0.00    -0.094 C  
ENDROOT
BRANCH   2   3
HETATM    3  C   UNL     1      -8.317   5.302  67.207  1.00  0.00    -0.107 C  
BRANCH   3   4
HETATM    4  C   UNL     1      -9.087   4.319  68.052  1.00  0.00    -0.131 C  
HETATM    5  O   UNL     1      -9.428   3.197  67.704  1.00  0.00    -0.207 OA 
BRANCH   4   6
HETATM    6  O   UNL     1      -9.285   4.857  69.279  1.00  0.00    -0.098 OA 
BRANCH   6   7
HETATM    7  C   UNL     1      -8.295   5.785  69.700  1.00  0.00    -0.112 C  
BRANCH   7   8
HETATM    8  O   UNL     1      -8.244   6.087  71.094  1.00  0.00    -0.119 OA 
BRANCH   8   9
HETATM    9  C   UNL     1      -8.344   7.380  71.451  1.00  0.00    -0.112 C  
HETATM   10  O   UNL     1      -7.431   8.045  71.911  1.00  0.00    -0.071 OA 
BRANCH   9  11
HETATM   11  C   UNL     1      -9.771   7.841  71.379  1.00  0.00    -0.194 C  
HETATM   12  C   UNL     1     -10.830   7.138  71.859  1.00  0.00    -0.226 C  
HETATM   13  N   UNL     1     -12.080   7.729  71.895  1.00  0.00    -0.293 NA 
HETATM   14  C   UNL     1     -10.856   5.723  72.403  1.00  0.00    -0.294 C  
HETATM   15  C   UNL     1     -12.417   8.939  71.329  1.00  0.00    -0.272 C  
HETATM   16  C   UNL     1     -11.456   9.722  70.788  1.00  0.00    -0.417 C  
HETATM   17  C   UNL     1     -13.889   9.273  71.371  1.00  0.00    -0.270 C  
HETATM   18  C   UNL     1      -9.974   9.294  70.849  1.00  0.00    -0.367 C  
BRANCH  16  19
HETATM   19  C   UNL     1     -11.864  10.972  70.087  1.00  0.00    -0.357 C  
HETATM   20  O   UNL     1     -11.925  12.071  70.618  1.00  0.00    -0.331 OA 
BRANCH  19  21
HETATM   21  O   UNL     1     -12.192  10.733  68.792  1.00  0.00    -0.460 OA 
HETATM   22  C   UNL     1     -11.873  11.815  67.912  1.00  0.00    -0.219 C  
ENDBRANCH  19  21
ENDBRANCH  16  19
BRANCH  18  23
HETATM   23  C   UNL     1      -9.262   9.543  69.510  1.00  0.00    -0.198 A  
HETATM   24  C   UNL     1      -8.222  10.490  69.467  1.00  0.00    -0.092 A  
HETATM   25  C   UNL     1      -7.528  10.739  68.287  1.00  0.00    -0.092 A  
HETATM   26  C   UNL     1      -7.853  10.036  67.122  1.00  0.00    -0.099 A  
HETATM   27  C   UNL     1      -8.891   9.100  67.137  1.00  0.00    -0.119 A  
HETATM   28 CL   UNL     1      -9.223   8.275  65.649  1.00  0.00    -0.138 Cl 
HETATM   29  C   UNL     1      -9.602   8.847  68.322  1.00  0.00    -0.146 A  
HETATM   30 CL   UNL     1     -10.885   7.669  68.310  1.00  0.00    -0.094 Cl 
ENDBRANCH  18  23
ENDBRANCH   9  11
ENDBRANCH   8   9
ENDBRANCH   7   8
ENDBRANCH   6   7
ENDBRANCH   4   6
ENDBRANCH   3   4
ENDBRANCH   2   3
TORSDOF 10
ENDMDL
MODEL      157
REMARK 921   NORMALIZED FREE ENERGY PREDICTED BY IDOCK:   -3.75 KCAL/MOL
REMARK 922        TOTAL FREE ENERGY PREDICTED BY IDOCK:   -7.34 KCAL/MOL
REMARK 923 INTER-LIGAND FREE ENERGY PREDICTED BY IDOCK:   -5.95 KCAL/MOL
REMARK 924 INTRA-LIGAND FREE ENERGY PREDICTED BY IDOCK:   -1.39 KCAL/MOL
REMARK 927      BINDING AFFINITY PREDICTED BY RF-SCORE:    0.00 PKD
ROOT
HETATM    1  C   UNL     1     -12.477  12.568  64.485  1.00  0.00    -0.539 C  
HETATM    2  C   UNL     1     -11.426  12.209  65.522  1.00  0.00    -0.394 C  
ENDROOT
BRANCH   2   3
HETATM    3  C   UNL     1     -11.644  12.979  66.817  1.00  0.00    -0.420 C  
BRANCH   3   4
HETATM    4  C   UNL     1     -11.560  12.073  68.021  1.00  0.00    -0.342 C  
HETATM    5  O   UNL     1     -12.341  11.171  68.287  1.00  0.00    -0.532 OA 
BRANCH   4   6
HETATM    6  O   UNL     1     -10.444  12.382  68.724  1.00  0.00    -0.218 OA 
BRANCH   6   7
HETATM    7  C   UNL     1      -9.249  11.772  68.261  1.00  0.00    -0.188 C  
BRANCH   7   8
HETATM    8  O   UNL     1      -9.312  10.380  67.950  1.00  0.00    -0.138 OA 
BRANCH   8   9
HETATM    9  C   UNL     1      -8.163   9.681  68.004  1.00  0.00    -0.110 C  
HETATM   10  O   UNL     1      -7.215   9.961  68.719  1.00  0.00    -0.073 OA 
BRANCH   9  11
HETATM   11  C   UNL     1      -8.133   8.624  66.939  1.00  0.00    -0.098 C  
HETATM   12  C   UNL     1      -8.136   8.879  65.604  1.00  0.00    -0.113 C  
HETATM   13  N   UNL     1      -7.935   7.841  64.712  1.00  0.00    -0.138 NA 
HETATM   14  C   UNL     1      -8.325  10.206  64.897  1.00  0.00    -0.166 C  
HETATM   15  C   UNL     1      -7.893   6.501  65.031  1.00  0.00    -0.113 C  
HETATM   16  C   UNL     1      -7.916   6.113  66.326  1.00  0.00    -0.106 C  
HETATM   17  C   UNL     1      -7.828   5.568  63.845  1.00  0.00    -0.100 C  
HETATM   18  C   UNL     1      -7.934   7.165  67.456  1.00  0.00    -0.113 C  
BRANCH  16  19
HETATM   19  C   UNL     1      -7.979   4.657  66.635  1.00  0.00    -0.103 C  
HETATM   20  O   UNL     1      -7.119   4.047  67.252  1.00  0.00    -0.061 OA 
BRANCH  19  21
HETATM   21  O   UNL     1      -9.096   4.086  66.118  1.00  0.00    -0.127 OA 
HETATM   22  C   UNL     1      -9.130   2.663  66.263  1.00  0.00    -0.109 C  
ENDBRANCH  19  21
ENDBRANCH  16  19
BRANCH  18  23
HETATM   23  C   UNL     1      -8.930   6.785  68.561  1.00  0.00    -0.121 A  
HETATM   24  C   UNL     1     -10.305   6.792  68.260  1.00  0.00    -0.215 A  
HETATM   25  C   UNL     1     -11.250   6.434  69.216  1.00  0.00    -0.440 A  
HETATM   26  C   UNL     1     -10.840   6.050  70.497  1.00  0.00    -0.382 A  
HETATM   27  C   UNL     1      -9.480   6.048  70.824  1.00  0.00    -0.168 A  
HETATM   28 CL   UNL     1      -9.063   5.557  72.433  1.00  0.00    -0.143 Cl 
HETATM   29  C   UNL     1      -8.519   6.414  69.868  1.00  0.00    -0.131 A  
HETATM   30 CL   UNL     1      -6.834   6.395  70.304  1.00  0.00    -0.053 Cl 
ENDBRANCH  18  23
ENDBRANCH   9  11
ENDBRANCH   8   9
ENDBRANCH   7   8
ENDBRANCH   6   7
ENDBRANCH   4   6
ENDBRANCH   3   4
ENDBRANCH   2   3
TORSDOF 10
ENDMDL
MODEL      158
REMARK 921   NORMALIZED FREE ENERGY PREDICTED BY IDOCK:   -3.74 KCAL/MOL
REMARK 922        TOTAL FREE ENERGY PREDICTED BY IDOCK:   -7.33 KCAL/MOL
REMARK 923 INTER-LIGAND FREE ENERGY PREDICTED BY IDOCK:   -6.76 KCAL/MOL
REMARK 924 INTRA-LIGAND FREE ENERGY PREDICTED BY IDOCK:   -0.57 KCAL/MOL
REMARK 927      BINDING AFFINITY PREDICTED BY RF-SCORE:    0.00 PKD
ROOT
HETATM    1  C   UNL     1     -13.461  13.274  72.419  1.00  0.00    -0.670 C  
HETATM    2  C   UNL     1     -12.743  14.355  73.210  1.00  0.00    -0.386 C  
ENDROOT
BRANCH   2   3
HETATM    3  C   UNL     1     -11.780  15.136  72.327  1.00  0.00    -0.496 C  
BRANCH   3   4
HETATM    4  C   UNL     1     -12.406  15.488  71.000  1.00  0.00    -0.416 C  
HETATM    5  O   UNL     1     -13.579  15.787  70.825  1.00  0.00    -0.477 OA 
BRANCH   4   6
HETATM    6  O   UNL     1     -11.444  15.478  70.047  1.00  0.00    -0.276 OA 
BRANCH   6   7
HETATM    7  C   UNL     1     -11.918  15.430  68.709  1.00  0.00    -0.253 C  
BRANCH   7   8
HETATM    8  O   UNL     1     -11.687  14.222  67.985  1.00  0.00    -0.315 OA 
BRANCH   8   9
HETATM    9  C   UNL     1     -10.816  14.272  66.960  1.00  0.00    -0.297 C  
HETATM   10  O   UNL     1     -11.129  14.236  65.782  1.00  0.00    -0.300 OA 
BRANCH   9  11
HETATM   11  C   UNL     1      -9.403  14.194  67.460  1.00  0.00    -0.204 C  
HETATM   12  C   UNL     1      -8.864  13.108  68.074  1.00  0.00    -0.191 C  
HETATM   13  N   UNL     1      -7.508  13.079  68.342  1.00  0.00    -0.121 NA 
HETATM   14  C   UNL     1      -9.560  11.840  68.530  1.00  0.00    -0.173 C  
HETATM   15  C   UNL     1      -6.635  14.135  68.197  1.00  0.00    -0.124 C  
HETATM   16  C   UNL     1      -7.056  15.287  67.627  1.00  0.00    -0.206 C  
HETATM   17  C   UNL     1      -5.240  13.883  68.717  1.00  0.00    -0.083 C  
HETATM   18  C   UNL     1      -8.498  15.409  67.087  1.00  0.00    -0.241 C  
BRANCH  16  19
HETATM   19  C   UNL     1      -6.122  16.447  67.583  1.00  0.00    -0.143 C  
HETATM   20  O   UNL     1      -5.615  16.883  66.561  1.00  0.00    -0.314 OA 
BRANCH  19  21
HETATM   21  O   UNL     1      -5.878  16.937  68.824  1.00  0.00    -0.137 OA 
HETATM   22  C   UNL     1      -5.629  18.346  68.844  1.00  0.00    -0.196 C  
ENDBRANCH  19  21
ENDBRANCH  16  19
BRANCH  18  23
HETATM   23  C   UNL     1      -9.127  16.758  67.467  1.00  0.00    -0.211 A  
HETATM   24  C   UNL     1      -9.040  17.189  68.805  1.00  0.00    -0.244 A  
HETATM   25  C   UNL     1      -9.572  18.411  69.200  1.00  0.00    -0.099 A  
HETATM   26  C   UNL     1     -10.197  19.239  68.262  1.00  0.00    -0.513 A  
HETATM   27  C   UNL     1     -10.308  18.828  66.930  1.00  0.00    -0.404 A  
HETATM   28 CL   UNL     1     -11.096  19.917  65.837  1.00  0.00    -0.196 Cl 
HETATM   29  C   UNL     1      -9.780  17.592  66.523  1.00  0.00    -0.295 A  
HETATM   30 CL   UNL     1      -9.928  17.110  64.856  1.00  0.00     1.217 Cl 
ENDBRANCH  18  23
ENDBRANCH   9  11
ENDBRANCH   8   9
ENDBRANCH   7   8
ENDBRANCH   6   7
ENDBRANCH   4   6
ENDBRANCH   3   4
ENDBRANCH   2   3
TORSDOF 10
ENDMDL
MODEL      159
REMARK 921   NORMALIZED FREE ENERGY PREDICTED BY IDOCK:   -3.74 KCAL/MOL
REMARK 922        TOTAL FREE ENERGY PREDICTED BY IDOCK:   -7.33 KCAL/MOL
REMARK 923 INTER-LIGAND FREE ENERGY PREDICTED BY IDOCK:   -5.65 KCAL/MOL
REMARK 924 INTRA-LIGAND FREE ENERGY PREDICTED BY IDOCK:   -1.67 KCAL/MOL
REMARK 927      BINDING AFFINITY PREDICTED BY RF-SCORE:    0.00 PKD
ROOT
HETATM    1  C   UNL     1     -12.342  14.339  69.803  1.00  0.00    -0.342 C  
HETATM    2  C   UNL     1     -11.522  13.163  69.298  1.00  0.00    -0.348 C  
ENDROOT
BRANCH   2   3
HETATM    3  C   UNL     1     -11.896  12.805  67.867  1.00  0.00    -0.392 C  
BRANCH   3   4
HETATM    4  C   UNL     1     -10.928  13.400  66.875  1.00  0.00    -0.284 C  
HETATM    5  O   UNL     1     -10.860  14.582  66.570  1.00  0.00    -0.303 OA 
BRANCH   4   6
HETATM    6  O   UNL     1     -10.107  12.422  66.424  1.00  0.00    -0.227 OA 
BRANCH   6   7
HETATM    7  C   UNL     1     -10.655  11.112  66.449  1.00  0.00    -0.261 C  
BRANCH   7   8
HETATM    8  O   UNL     1      -9.837  10.059  65.939  1.00  0.00    -0.227 OA 
BRANCH   8   9
HETATM    9  C   UNL     1      -8.582   9.963  66.418  1.00  0.00    -0.128 C  
HETATM   10  O   UNL     1      -7.574  10.031  65.736  1.00  0.00    -0.109 OA 
BRANCH   9  11
HETATM   11  C   UNL     1      -8.596   9.581  67.869  1.00  0.00    -0.119 C  
HETATM   12  C   UNL     1      -8.192  10.393  68.881  1.00  0.00    -0.132 C  
HETATM   13  N   UNL     1      -8.406  10.006  70.192  1.00  0.00    -0.128 NA 
HETATM   14  C   UNL     1      -7.512  11.744  68.793  1.00  0.00    -0.109 C  
HETATM   15  C   UNL     1      -8.853   8.770  70.605  1.00  0.00    -0.182 C  
HETATM   16  C   UNL     1      -9.256   7.857  69.692  1.00  0.00    -0.153 C  
HETATM   17  C   UNL     1      -8.840   8.556  72.099  1.00  0.00    -0.286 C  
HETATM   18  C   UNL     1      -9.270   8.210  68.189  1.00  0.00    -0.136 C  
BRANCH  16  19
HETATM   19  C   UNL     1      -9.630   6.493  70.161  1.00  0.00    -0.160 C  
HETATM   20  O   UNL     1     -10.775   6.069  70.199  1.00  0.00    -0.255 OA 
BRANCH  19  21
HETATM   21  O   UNL     1      -8.544   5.792  70.573  1.00  0.00    -0.133 OA 
HETATM   22  C   UNL     1      -8.870   4.634  71.347  1.00  0.00    -0.123 C  
ENDBRANCH  19  21
ENDBRANCH  16  19
BRANCH  18  23
HETATM   23  C   UNL     1      -8.711   7.061  67.337  1.00  0.00    -0.120 A  
HETATM   24  C   UNL     1      -7.315   6.917  67.232  1.00  0.00    -0.091 A  
HETATM   25  C   UNL     1      -6.755   5.881  66.492  1.00  0.00    -0.057 A  
HETATM   26  C   UNL     1      -7.581   4.955  65.847  1.00  0.00    -0.090 A  
HETATM   27  C   UNL     1      -8.971   5.084  65.925  1.00  0.00    -0.141 A  
HETATM   28 CL   UNL     1      -9.916   3.891  65.096  1.00  0.00    -0.188 Cl 
HETATM   29  C   UNL     1      -9.546   6.131  66.664  1.00  0.00    -0.152 A  
HETATM   30 CL   UNL     1     -11.280   6.260  66.748  1.00  0.00    -0.278 Cl 
ENDBRANCH  18  23
ENDBRANCH   9  11
ENDBRANCH   8   9
ENDBRANCH   7   8
ENDBRANCH   6   7
ENDBRANCH   4   6
ENDBRANCH   3   4
ENDBRANCH   2   3
TORSDOF 10
ENDMDL
MODEL      160
REMARK 921   NORMALIZED FREE ENERGY PREDICTED BY IDOCK:   -3.68 KCAL/MOL
REMARK 922        TOTAL FREE ENERGY PREDICTED BY IDOCK:   -7.24 KCAL/MOL
REMARK 923 INTER-LIGAND FREE ENERGY PREDICTED BY IDOCK:   -5.66 KCAL/MOL
REMARK 924 INTRA-LIGAND FREE ENERGY PREDICTED BY IDOCK:   -1.58 KCAL/MOL
REMARK 927      BINDING AFFINITY PREDICTED BY RF-SCORE:    0.00 PKD
ROOT
HETATM    1  C   UNL     1     -10.768   7.203  73.482  1.00  0.00    -0.375 C  
HETATM    2  C   UNL     1     -10.531   5.916  72.710  1.00  0.00    -0.239 C  
ENDROOT
BRANCH   2   3
HETATM    3  C   UNL     1      -9.049   5.577  72.644  1.00  0.00    -0.140 C  
BRANCH   3   4
HETATM    4  C   UNL     1      -8.657   5.067  71.279  1.00  0.00    -0.125 C  
HETATM    5  O   UNL     1      -9.131   4.085  70.725  1.00  0.00    -0.093 OA 
BRANCH   4   6
HETATM    6  O   UNL     1      -7.742   5.909  70.744  1.00  0.00    -0.093 OA 
BRANCH   6   7
HETATM    7  C   UNL     1      -8.237   6.785  69.742  1.00  0.00    -0.127 C  
BRANCH   7   8
HETATM    8  O   UNL     1      -9.358   7.598  70.091  1.00  0.00    -0.157 OA 
BRANCH   8   9
HETATM    9  C   UNL     1      -9.105   8.845  70.530  1.00  0.00    -0.200 C  
HETATM   10  O   UNL     1      -8.437   9.109  71.516  1.00  0.00    -0.333 OA 
BRANCH   9  11
HETATM   11  C   UNL     1      -9.902   9.853  69.755  1.00  0.00    -0.268 C  
HETATM   12  C   UNL     1     -11.193  10.181  70.023  1.00  0.00    -0.299 C  
HETATM   13  N   UNL     1     -11.778  11.242  69.357  1.00  0.00    -0.308 NA 
HETATM   14  C   UNL     1     -12.148   9.532  71.005  1.00  0.00    -0.398 C  
HETATM   15  C   UNL     1     -11.231  11.929  68.296  1.00  0.00    -0.261 C  
HETATM   16  C   UNL     1      -9.960  11.673  67.908  1.00  0.00    -0.190 C  
HETATM   17  C   UNL     1     -12.150  12.936  67.647  1.00  0.00    -0.239 C  
HETATM   18  C   UNL     1      -9.099  10.653  68.683  1.00  0.00    -0.170 C  
BRANCH  16  19
HETATM   19  C   UNL     1      -9.433  12.352  66.691  1.00  0.00    -0.232 C  
HETATM   20  O   UNL     1      -9.452  11.866  65.570  1.00  0.00    -0.220 OA 
BRANCH  19  21
HETATM   21  O   UNL     1      -8.899  13.563  66.988  1.00  0.00    -0.219 OA 
HETATM   22  C   UNL     1      -7.578  13.488  67.532  1.00  0.00    -0.167 C  
ENDBRANCH  19  21
ENDBRANCH  16  19
BRANCH  18  23
HETATM   23  C   UNL     1      -8.312   9.743  67.728  1.00  0.00    -0.114 A  
HETATM   24  C   UNL     1      -6.915   9.897  67.649  1.00  0.00    -0.086 A  
HETATM   25  C   UNL     1      -6.150   9.085  66.818  1.00  0.00    -0.061 A  
HETATM   26  C   UNL     1      -6.765   8.089  66.053  1.00  0.00    -0.053 A  
HETATM   27  C   UNL     1      -8.153   7.924  66.105  1.00  0.00    -0.109 A  
HETATM   28 CL   UNL     1      -8.829   6.665  65.125  1.00  0.00     0.107 Cl 
HETATM   29  C   UNL     1      -8.934   8.744  66.935  1.00  0.00    -0.132 A  
HETATM   30 CL   UNL     1     -10.659   8.509  66.984  1.00  0.00    -0.360 Cl 
ENDBRANCH  18  23
ENDBRANCH   9  11
ENDBRANCH   8   9
ENDBRANCH   7   8
ENDBRANCH   6   7
ENDBRANCH   4   6
ENDBRANCH   3   4
ENDBRANCH   2   3
TORSDOF 10
ENDMDL
MODEL      161
REMARK 921   NORMALIZED FREE ENERGY PREDICTED BY IDOCK:   -3.68 KCAL/MOL
REMARK 922        TOTAL FREE ENERGY PREDICTED BY IDOCK:   -7.24 KCAL/MOL
REMARK 923 INTER-LIGAND FREE ENERGY PREDICTED BY IDOCK:   -5.63 KCAL/MOL
REMARK 924 INTRA-LIGAND FREE ENERGY PREDICTED BY IDOCK:   -1.60 KCAL/MOL
REMARK 927      BINDING AFFINITY PREDICTED BY RF-SCORE:    0.00 PKD
ROOT
HETATM    1  C   UNL     1      -9.316   5.898  66.273  1.00  0.00    -0.168 C  
HETATM    2  C   UNL     1      -8.843   7.336  66.139  1.00  0.00    -0.181 C  
ENDROOT
BRANCH   2   3
HETATM    3  C   UNL     1      -7.698   7.632  67.097  1.00  0.00    -0.112 C  
BRANCH   3   4
HETATM    4  C   UNL     1      -8.084   8.674  68.118  1.00  0.00    -0.115 C  
HETATM    5  O   UNL     1      -9.143   8.712  68.727  1.00  0.00    -0.141 OA 
BRANCH   4   6
HETATM    6  O   UNL     1      -7.043   9.522  68.293  1.00  0.00    -0.073 OA 
BRANCH   6   7
HETATM    7  C   UNL     1      -7.251  10.546  69.254  1.00  0.00    -0.103 C  
BRANCH   7   8
HETATM    8  O   UNL     1      -6.774  11.850  68.922  1.00  0.00    -0.081 OA 
BRANCH   8   9
HETATM    9  C   UNL     1      -6.960  12.274  67.658  1.00  0.00    -0.128 C  
HETATM   10  O   UNL     1      -6.069  12.420  66.839  1.00  0.00    -0.244 OA 
BRANCH   9  11
HETATM   11  C   UNL     1      -8.379  12.716  67.451  1.00  0.00    -0.184 C  
HETATM   12  C   UNL     1      -9.244  12.135  66.578  1.00  0.00    -0.216 C  
HETATM   13  N   UNL     1     -10.576  12.509  66.589  1.00  0.00    -0.235 NA 
HETATM   14  C   UNL     1      -8.963  11.068  65.539  1.00  0.00    -0.208 C  
HETATM   15  C   UNL     1     -11.112  13.560  67.299  1.00  0.00    -0.286 C  
HETATM   16  C   UNL     1     -10.345  14.243  68.180  1.00  0.00    -0.233 C  
HETATM   17  C   UNL     1     -12.563  13.854  67.002  1.00  0.00     0.050 C  
HETATM   18  C   UNL     1      -8.883  13.817  68.435  1.00  0.00    -0.165 C  
BRANCH  16  19
HETATM   19  C   UNL     1     -10.921  15.441  68.852  1.00  0.00    -0.261 C  
HETATM   20  O   UNL     1     -11.197  16.485  68.280  1.00  0.00    -0.356 OA 
BRANCH  19  21
HETATM   21  O   UNL     1     -11.070  15.242  70.186  1.00  0.00    -0.256 OA 
HETATM   22  C   UNL     1     -12.351  15.636  70.684  1.00  0.00    -0.413 C  
ENDBRANCH  19  21
ENDBRANCH  16  19
BRANCH  18  23
HETATM   23  C   UNL     1      -7.947  15.033  68.497  1.00  0.00    -0.144 A  
HETATM   24  C   UNL     1      -7.178  15.232  69.659  1.00  0.00    -0.187 A  
HETATM   25  C   UNL     1      -6.297  16.304  69.760  1.00  0.00    -0.181 A  
HETATM   26  C   UNL     1      -6.155  17.197  68.693  1.00  0.00    -0.153 A  
HETATM   27  C   UNL     1      -6.918  17.028  67.533  1.00  0.00    -0.146 A  
HETATM   28 CL   UNL     1      -6.676  18.181  66.262  1.00  0.00    -0.252 Cl 
HETATM   29  C   UNL     1      -7.815  15.953  67.424  1.00  0.00    -0.168 A  
HETATM   30 CL   UNL     1      -8.744  15.764  65.964  1.00  0.00    -0.292 Cl 
ENDBRANCH  18  23
ENDBRANCH   9  11
ENDBRANCH   8   9
ENDBRANCH   7   8
ENDBRANCH   6   7
ENDBRANCH   4   6
ENDBRANCH   3   4
ENDBRANCH   2   3
TORSDOF 10
ENDMDL
MODEL      162
REMARK 921   NORMALIZED FREE ENERGY PREDICTED BY IDOCK:   -3.65 KCAL/MOL
REMARK 922        TOTAL FREE ENERGY PREDICTED BY IDOCK:   -7.19 KCAL/MOL
REMARK 923 INTER-LIGAND FREE ENERGY PREDICTED BY IDOCK:   -5.50 KCAL/MOL
REMARK 924 INTRA-LIGAND FREE ENERGY PREDICTED BY IDOCK:   -1.69 KCAL/MOL
REMARK 927      BINDING AFFINITY PREDICTED BY RF-SCORE:    0.00 PKD
ROOT
HETATM    1  C   UNL     1      -6.379   2.776  64.896  1.00  0.00    -0.023 C  
HETATM    2  C   UNL     1      -5.870   2.519  66.304  1.00  0.00    -0.022 C  
ENDROOT
BRANCH   2   3
HETATM    3  C   UNL     1      -6.428   3.539  67.286  1.00  0.00    -0.037 C  
BRANCH   3   4
HETATM    4  C   UNL     1      -7.858   3.231  67.653  1.00  0.00    -0.076 C  
HETATM    5  O   UNL     1      -8.269   2.156  68.066  1.00  0.00    -0.058 OA 
BRANCH   4   6
HETATM    6  O   UNL     1      -8.599   4.355  67.509  1.00  0.00    -0.103 OA 
BRANCH   6   7
HETATM    7  C   UNL     1      -7.932   5.444  66.887  1.00  0.00    -0.101 C  
BRANCH   7   8
HETATM    8  O   UNL     1      -8.751   6.497  66.379  1.00  0.00    -0.129 OA 
BRANCH   8   9
HETATM    9  C   UNL     1     -10.044   6.511  66.751  1.00  0.00    -0.176 C  
HETATM   10  O   UNL     1     -10.890   5.733  66.343  1.00  0.00    -0.233 OA 
BRANCH   9  11
HETATM   11  C   UNL     1     -10.342   7.719  67.590  1.00  0.00    -0.305 C  
HETATM   12  C   UNL     1     -10.340   8.996  67.126  1.00  0.00    -0.272 C  
HETATM   13  N   UNL     1     -10.794  10.017  67.940  1.00  0.00    -0.270 NA 
HETATM   14  C   UNL     1      -9.901   9.506  65.768  1.00  0.00    -0.363 C  
HETATM   15  C   UNL     1     -11.109   9.904  69.277  1.00  0.00    -0.181 C  
HETATM   16  C   UNL     1     -11.116   8.688  69.869  1.00  0.00    -0.119 C  
HETATM   17  C   UNL     1     -11.421  11.209  69.970  1.00  0.00    -0.376 C  
HETATM   18  C   UNL     1     -10.827   7.416  69.042  1.00  0.00    -0.108 C  
BRANCH  16  19
HETATM   19  C   UNL     1     -11.352   8.608  71.337  1.00  0.00    -0.284 C  
HETATM   20  O   UNL     1     -10.584   9.044  72.182  1.00  0.00    -0.324 OA 
BRANCH  19  21
HETATM   21  O   UNL     1     -12.511   7.962  71.622  1.00  0.00    -0.301 OA 
HETATM   22  C   UNL     1     -13.663   8.808  71.582  1.00  0.00    -0.394 C  
ENDBRANCH  19  21
ENDBRANCH  16  19
BRANCH  18  23
HETATM   23  C   UNL     1      -9.890   6.459  69.794  1.00  0.00    -0.189 A  
HETATM   24  C   UNL     1     -10.393   5.209  70.205  1.00  0.00    -0.340 A  
HETATM   25  C   UNL     1      -9.583   4.295  70.869  1.00  0.00    -0.253 A  
HETATM   26  C   UNL     1      -8.244   4.604  71.129  1.00  0.00    -0.092 A  
HETATM   27  C   UNL     1      -7.725   5.844  70.743  1.00  0.00    -0.097 A  
HETATM   28 CL   UNL     1      -6.057   6.142  71.105  1.00  0.00    -0.034 Cl 
HETATM   29  C   UNL     1      -8.537   6.777  70.078  1.00  0.00    -0.141 A  
HETATM   30 CL   UNL     1      -7.860   8.309  69.603  1.00  0.00    -0.100 Cl 
ENDBRANCH  18  23
ENDBRANCH   9  11
ENDBRANCH   8   9
ENDBRANCH   7   8
ENDBRANCH   6   7
ENDBRANCH   4   6
ENDBRANCH   3   4
ENDBRANCH   2   3
TORSDOF 10
ENDMDL
MODEL      163
REMARK 921   NORMALIZED FREE ENERGY PREDICTED BY IDOCK:   -3.65 KCAL/MOL
REMARK 922        TOTAL FREE ENERGY PREDICTED BY IDOCK:   -7.18 KCAL/MOL
REMARK 923 INTER-LIGAND FREE ENERGY PREDICTED BY IDOCK:   -5.41 KCAL/MOL
REMARK 924 INTRA-LIGAND FREE ENERGY PREDICTED BY IDOCK:   -1.77 KCAL/MOL
REMARK 927      BINDING AFFINITY PREDICTED BY RF-SCORE:    0.00 PKD
ROOT
HETATM    1  C   UNL     1      -9.422   7.680  66.175  1.00  0.00    -0.117 C  
HETATM    2  C   UNL     1     -10.728   7.135  66.728  1.00  0.00    -0.259 C  
ENDROOT
BRANCH   2   3
HETATM    3  C   UNL     1     -10.490   5.901  67.587  1.00  0.00    -0.301 C  
BRANCH   3   4
HETATM    4  C   UNL     1      -9.852   4.788  66.794  1.00  0.00    -0.208 C  
HETATM    5  O   UNL     1     -10.172   4.447  65.664  1.00  0.00    -0.237 OA 
BRANCH   4   6
HETATM    6  O   UNL     1      -8.827   4.271  67.512  1.00  0.00    -0.104 OA 
BRANCH   6   7
HETATM    7  C   UNL     1      -7.893   5.220  68.006  1.00  0.00    -0.091 C  
BRANCH   7   8
HETATM    8  O   UNL     1      -7.763   5.323  69.423  1.00  0.00    -0.077 OA 
BRANCH   8   9
HETATM    9  C   UNL     1      -7.056   6.362  69.906  1.00  0.00    -0.072 C  
HETATM   10  O   UNL     1      -6.051   6.257  70.589  1.00  0.00    -0.032 OA 
BRANCH   9  11
HETATM   11  C   UNL     1      -7.770   7.656  69.647  1.00  0.00    -0.099 C  
HETATM   12  C   UNL     1      -7.314   8.631  68.817  1.00  0.00    -0.083 C  
HETATM   13  N   UNL     1      -8.130   9.707  68.517  1.00  0.00    -0.103 NA 
HETATM   14  C   UNL     1      -5.973   8.724  68.117  1.00  0.00    -0.046 C  
HETATM   15  C   UNL     1      -9.337   9.995  69.116  1.00  0.00    -0.193 C  
HETATM   16  C   UNL     1      -9.885   9.118  69.988  1.00  0.00    -0.217 C  
HETATM   17  C   UNL     1      -9.943  11.320  68.720  1.00  0.00    -0.203 C  
HETATM   18  C   UNL     1      -9.193   7.768  70.277  1.00  0.00    -0.156 C  
BRANCH  16  19
HETATM   19  C   UNL     1     -11.135   9.505  70.700  1.00  0.00    -0.300 C  
HETATM   20  O   UNL     1     -11.338  10.608  71.184  1.00  0.00    -0.101 OA 
BRANCH  19  21
HETATM   21  O   UNL     1     -12.007   8.468  70.776  1.00  0.00    -0.236 OA 
HETATM   22  C   UNL     1     -13.051   8.668  71.733  1.00  0.00    -0.361 C  
ENDBRANCH  19  21
ENDBRANCH  16  19
BRANCH  18  23
HETATM   23  C   UNL     1      -9.206   7.441  71.777  1.00  0.00    -0.155 A  
HETATM   24  C   UNL     1      -8.514   8.294  72.658  1.00  0.00    -0.248 A  
HETATM   25  C   UNL     1      -8.511   8.057  74.029  1.00  0.00    -0.312 A  
HETATM   26  C   UNL     1      -9.211   6.966  74.553  1.00  0.00    -0.224 A  
HETATM   27  C   UNL     1      -9.895   6.097  73.697  1.00  0.00    -0.184 A  
HETATM   28 CL   UNL     1     -10.735   4.772  74.433  1.00  0.00    -0.284 Cl 
HETATM   29  C   UNL     1      -9.898   6.323  72.311  1.00  0.00    -0.161 A  
HETATM   30 CL   UNL     1     -10.764   5.227  71.271  1.00  0.00    -0.247 Cl 
ENDBRANCH  18  23
ENDBRANCH   9  11
ENDBRANCH   8   9
ENDBRANCH   7   8
ENDBRANCH   6   7
ENDBRANCH   4   6
ENDBRANCH   3   4
ENDBRANCH   2   3
TORSDOF 10
ENDMDL
MODEL      164
REMARK 921   NORMALIZED FREE ENERGY PREDICTED BY IDOCK:   -3.64 KCAL/MOL
REMARK 922        TOTAL FREE ENERGY PREDICTED BY IDOCK:   -7.16 KCAL/MOL
REMARK 923 INTER-LIGAND FREE ENERGY PREDICTED BY IDOCK:   -5.53 KCAL/MOL
REMARK 924 INTRA-LIGAND FREE ENERGY PREDICTED BY IDOCK:   -1.63 KCAL/MOL
REMARK 927      BINDING AFFINITY PREDICTED BY RF-SCORE:    0.00 PKD
ROOT
HETATM    1  C   UNL     1     -11.976  12.375  64.582  1.00  0.00    -0.462 C  
HETATM    2  C   UNL     1     -10.860  13.339  64.945  1.00  0.00    -0.358 C  
ENDROOT
BRANCH   2   3
HETATM    3  C   UNL     1     -10.237  12.982  66.287  1.00  0.00    -0.291 C  
BRANCH   3   4
HETATM    4  C   UNL     1     -10.973  13.634  67.431  1.00  0.00    -0.276 C  
HETATM    5  O   UNL     1     -11.910  14.412  67.321  1.00  0.00    -0.384 OA 
BRANCH   4   6
HETATM    6  O   UNL     1     -10.468  13.169  68.598  1.00  0.00    -0.253 OA 
BRANCH   6   7
HETATM    7  C   UNL     1     -11.283  12.225  69.278  1.00  0.00    -0.213 C  
BRANCH   7   8
HETATM    8  O   UNL     1     -10.742  10.917  69.459  1.00  0.00    -0.234 OA 
BRANCH   8   9
HETATM    9  C   UNL     1     -10.983  10.009  68.495  1.00  0.00    -0.209 C  
HETATM   10  O   UNL     1     -11.584  10.242  67.459  1.00  0.00    -0.255 OA 
BRANCH   9  11
HETATM   11  C   UNL     1     -10.577   8.636  68.944  1.00  0.00    -0.166 C  
HETATM   12  C   UNL     1     -11.150   7.965  69.978  1.00  0.00    -0.162 C  
HETATM   13  N   UNL     1     -10.817   6.642  70.200  1.00  0.00    -0.257 NA 
HETATM   14  C   UNL     1     -12.168   8.470  70.982  1.00  0.00    -0.190 C  
HETATM   15  C   UNL     1      -9.810   5.947  69.566  1.00  0.00    -0.169 C  
HETATM   16  C   UNL     1      -9.139   6.515  68.538  1.00  0.00    -0.127 C  
HETATM   17  C   UNL     1      -9.550   4.564  70.114  1.00  0.00    -0.264 C  
HETATM   18  C   UNL     1      -9.530   7.921  68.034  1.00  0.00    -0.159 C  
BRANCH  16  19
HETATM   19  C   UNL     1      -7.985   5.783  67.945  1.00  0.00    -0.098 C  
HETATM   20  O   UNL     1      -6.913   5.618  68.507  1.00  0.00    -0.061 OA 
BRANCH  19  21
HETATM   21  O   UNL     1      -8.261   5.352  66.689  1.00  0.00    -0.108 OA 
HETATM   22  C   UNL     1      -7.279   4.454  66.163  1.00  0.00    -0.076 C  
ENDBRANCH  19  21
ENDBRANCH  16  19
BRANCH  18  23
HETATM   23  C   UNL     1      -8.290   8.786  67.763  1.00  0.00    -0.118 A  
HETATM   24  C   UNL     1      -7.472   9.149  68.850  1.00  0.00    -0.075 A  
HETATM   25  C   UNL     1      -6.325   9.912  68.660  1.00  0.00    -0.045 A  
HETATM   26  C   UNL     1      -5.961  10.321  67.373  1.00  0.00    -0.053 A  
HETATM   27  C   UNL     1      -6.764   9.984  66.279  1.00  0.00    -0.094 A  
HETATM   28 CL   UNL     1      -6.237  10.532  64.722  1.00  0.00    -0.082 Cl 
HETATM   29  C   UNL     1      -7.928   9.220  66.462  1.00  0.00    -0.104 A  
HETATM   30 CL   UNL     1      -8.904   8.811  65.079  1.00  0.00    -0.190 Cl 
ENDBRANCH  18  23
ENDBRANCH   9  11
ENDBRANCH   8   9
ENDBRANCH   7   8
ENDBRANCH   6   7
ENDBRANCH   4   6
ENDBRANCH   3   4
ENDBRANCH   2   3
TORSDOF 10
ENDMDL
MODEL      165
REMARK 921   NORMALIZED FREE ENERGY PREDICTED BY IDOCK:   -3.62 KCAL/MOL
REMARK 922        TOTAL FREE ENERGY PREDICTED BY IDOCK:   -7.14 KCAL/MOL
REMARK 923 INTER-LIGAND FREE ENERGY PREDICTED BY IDOCK:   -6.00 KCAL/MOL
REMARK 924 INTRA-LIGAND FREE ENERGY PREDICTED BY IDOCK:   -1.14 KCAL/MOL
REMARK 927      BINDING AFFINITY PREDICTED BY RF-SCORE:    0.00 PKD
ROOT
HETATM    1  C   UNL     1      -8.250   9.874  62.743  1.00  0.00    -0.148 C  
HETATM    2  C   UNL     1      -9.222  11.037  62.646  1.00  0.00    -0.363 C  
ENDROOT
BRANCH   2   3
HETATM    3  C   UNL     1     -10.301  10.944  63.715  1.00  0.00    -0.384 C  
BRANCH   3   4
HETATM    4  C   UNL     1     -10.265  12.132  64.644  1.00  0.00    -0.284 C  
HETATM    5  O   UNL     1     -10.512  13.288  64.330  1.00  0.00    -0.424 OA 
BRANCH   4   6
HETATM    6  O   UNL     1      -9.975  11.701  65.895  1.00  0.00    -0.216 OA 
BRANCH   6   7
HETATM    7  C   UNL     1      -9.929  10.291  66.054  1.00  0.00    -0.245 C  
BRANCH   7   8
HETATM    8  O   UNL     1      -9.849   9.794  67.389  1.00  0.00    -0.160 OA 
BRANCH   8   9
HETATM    9  C   UNL     1     -10.385   8.583  67.632  1.00  0.00    -0.253 C  
HETATM   10  O   UNL     1     -10.900   7.872  66.786  1.00  0.00    -0.234 OA 
BRANCH   9  11
HETATM   11  C   UNL     1     -10.427   8.307  69.107  1.00  0.00    -0.217 C  
HETATM   12  C   UNL     1     -10.914   9.170  70.036  1.00  0.00    -0.220 C  
HETATM   13  N   UNL     1     -11.063   8.749  71.345  1.00  0.00    -0.267 NA 
HETATM   14  C   UNL     1     -11.357  10.608  69.849  1.00  0.00    -0.386 C  
HETATM   15  C   UNL     1     -10.604   7.559  71.866  1.00  0.00    -0.211 C  
HETATM   16  C   UNL     1     -10.067   6.626  71.049  1.00  0.00    -0.207 C  
HETATM   17  C   UNL     1     -10.752   7.422  73.363  1.00  0.00    -0.407 C  
HETATM   18  C   UNL     1     -10.013   6.861  69.524  1.00  0.00    -0.171 C  
BRANCH  16  19
HETATM   19  C   UNL     1      -9.481   5.397  71.654  1.00  0.00    -0.148 C  
HETATM   20  O   UNL     1     -10.038   4.310  71.681  1.00  0.00    -0.186 OA 
BRANCH  19  21
HETATM   21  O   UNL     1      -8.264   5.643  72.202  1.00  0.00    -0.111 OA 
HETATM   22  C   UNL     1      -7.465   4.468  72.372  1.00  0.00    -0.082 C  
ENDBRANCH  19  21
ENDBRANCH  16  19
BRANCH  18  23
HETATM   23  C   UNL     1      -8.658   6.438  68.938  1.00  0.00    -0.123 A  
HETATM   24  C   UNL     1      -7.517   7.194  69.266  1.00  0.00    -0.093 A  
HETATM   25  C   UNL     1      -6.261   6.844  68.782  1.00  0.00    -0.027 A  
HETATM   26  C   UNL     1      -6.115   5.718  67.964  1.00  0.00    -0.021 A  
HETATM   27  C   UNL     1      -7.236   4.959  67.612  1.00  0.00    -0.070 A  
HETATM   28 CL   UNL     1      -6.961   3.582  66.597  1.00  0.00    -0.054 Cl 
HETATM   29  C   UNL     1      -8.509   5.309  68.091  1.00  0.00    -0.096 A  
HETATM   30 CL   UNL     1      -9.883   4.340  67.642  1.00  0.00    -0.190 Cl 
ENDBRANCH  18  23
ENDBRANCH   9  11
ENDBRANCH   8   9
ENDBRANCH   7   8
ENDBRANCH   6   7
ENDBRANCH   4   6
ENDBRANCH   3   4
ENDBRANCH   2   3
TORSDOF 10
ENDMDL
MODEL      166
REMARK 921   NORMALIZED FREE ENERGY PREDICTED BY IDOCK:   -3.62 KCAL/MOL
REMARK 922        TOTAL FREE ENERGY PREDICTED BY IDOCK:   -7.14 KCAL/MOL
REMARK 923 INTER-LIGAND FREE ENERGY PREDICTED BY IDOCK:   -6.10 KCAL/MOL
REMARK 924 INTRA-LIGAND FREE ENERGY PREDICTED BY IDOCK:   -1.04 KCAL/MOL
REMARK 927      BINDING AFFINITY PREDICTED BY RF-SCORE:    0.00 PKD
ROOT
HETATM    1  C   UNL     1      -9.180   2.571  65.725  1.00  0.00    -0.054 C  
HETATM    2  C   UNL     1      -8.716   3.880  65.110  1.00  0.00    -0.116 C  
ENDROOT
BRANCH   2   3
HETATM    3  C   UNL     1      -7.202   4.018  65.185  1.00  0.00    -0.067 C  
BRANCH   3   4
HETATM    4  C   UNL     1      -6.796   5.269  65.925  1.00  0.00    -0.061 C  
HETATM    5  O   UNL     1      -5.684   5.495  66.381  1.00  0.00    -0.016 OA 
BRANCH   4   6
HETATM    6  O   UNL     1      -7.845   6.125  65.946  1.00  0.00    -0.100 OA 
BRANCH   6   7
HETATM    7  C   UNL     1      -7.806   7.155  64.970  1.00  0.00    -0.125 C  
BRANCH   7   8
HETATM    8  O   UNL     1      -8.686   8.262  65.164  1.00  0.00    -0.149 OA 
BRANCH   8   9
HETATM    9  C   UNL     1      -8.173   9.496  65.003  1.00  0.00    -0.136 C  
HETATM   10  O   UNL     1      -6.983   9.744  64.900  1.00  0.00    -0.111 OA 
BRANCH   9  11
HETATM   11  C   UNL     1      -9.243  10.539  65.149  1.00  0.00    -0.243 C  
HETATM   12  C   UNL     1      -9.707  11.311  64.131  1.00  0.00    -0.261 C  
HETATM   13  N   UNL     1     -10.810  12.119  64.338  1.00  0.00    -0.306 NA 
HETATM   14  C   UNL     1      -9.179  11.424  62.715  1.00  0.00    -0.309 C  
HETATM   15  C   UNL     1     -11.417  12.361  65.552  1.00  0.00    -0.361 C  
HETATM   16  C   UNL     1     -11.024  11.678  66.651  1.00  0.00    -0.349 C  
HETATM   17  C   UNL     1     -12.500  13.412  65.522  1.00  0.00    -0.534 C  
HETATM   18  C   UNL     1      -9.936  10.588  66.546  1.00  0.00    -0.266 C  
BRANCH  16  19
HETATM   19  C   UNL     1     -11.622  12.039  67.968  1.00  0.00    -0.342 C  
HETATM   20  O   UNL     1     -11.540  13.144  68.481  1.00  0.00    -0.282 OA 
BRANCH  19  21
HETATM   21  O   UNL     1     -12.240  10.976  68.542  1.00  0.00    -0.582 OA 
HETATM   22  C   UNL     1     -12.055  10.904  69.959  1.00  0.00    -0.355 C  
ENDBRANCH  19  21
ENDBRANCH  16  19
BRANCH  18  23
HETATM   23  C   UNL     1      -8.931  10.685  67.704  1.00  0.00    -0.139 A  
HETATM   24  C   UNL     1      -8.754   9.563  68.536  1.00  0.00    -0.124 A  
HETATM   25  C   UNL     1      -7.842   9.587  69.586  1.00  0.00    -0.116 A  
HETATM   26  C   UNL     1      -7.074  10.733  69.822  1.00  0.00    -0.126 A  
HETATM   27  C   UNL     1      -7.242  11.864  69.017  1.00  0.00    -0.068 A  
HETATM   28 CL   UNL     1      -6.250  13.237  69.381  1.00  0.00    -0.105 Cl 
HETATM   29  C   UNL     1      -8.166  11.852  67.960  1.00  0.00    -0.157 A  
HETATM   30 CL   UNL     1      -8.347  13.274  66.971  1.00  0.00    -0.141 Cl 
ENDBRANCH  18  23
ENDBRANCH   9  11
ENDBRANCH   8   9
ENDBRANCH   7   8
ENDBRANCH   6   7
ENDBRANCH   4   6
ENDBRANCH   3   4
ENDBRANCH   2   3
TORSDOF 10
ENDMDL
MODEL      167
REMARK 921   NORMALIZED FREE ENERGY PREDICTED BY IDOCK:   -3.61 KCAL/MOL
REMARK 922        TOTAL FREE ENERGY PREDICTED BY IDOCK:   -7.12 KCAL/MOL
REMARK 923 INTER-LIGAND FREE ENERGY PREDICTED BY IDOCK:   -7.29 KCAL/MOL
REMARK 924 INTRA-LIGAND FREE ENERGY PREDICTED BY IDOCK:    0.17 KCAL/MOL
REMARK 927      BINDING AFFINITY PREDICTED BY RF-SCORE:    0.00 PKD
ROOT
HETATM    1  C   UNL     1      -5.398  19.444  71.389  1.00  0.00    -0.342 C  
HETATM    2  C   UNL     1      -5.706  20.355  70.213  1.00  0.00    -0.364 C  
ENDROOT
BRANCH   2   3
HETATM    3  C   UNL     1      -6.881  19.829  69.401  1.00  0.00    -0.364 C  
BRANCH   3   4
HETATM    4  C   UNL     1      -6.487  18.636  68.566  1.00  0.00    -0.228 C  
HETATM    5  O   UNL     1      -5.630  18.632  67.694  1.00  0.00    -0.164 OA 
BRANCH   4   6
HETATM    6  O   UNL     1      -7.194  17.559  68.981  1.00  0.00    -0.251 OA 
BRANCH   6   7
HETATM    7  C   UNL     1      -7.426  16.568  67.991  1.00  0.00    -0.156 C  
BRANCH   7   8
HETATM    8  O   UNL     1      -8.675  15.879  68.047  1.00  0.00    -0.167 OA 
BRANCH   8   9
HETATM    9  C   UNL     1      -8.639  14.535  68.102  1.00  0.00    -0.169 C  
HETATM   10  O   UNL     1      -7.996  13.892  68.915  1.00  0.00    -0.101 OA 
BRANCH   9  11
HETATM   11  C   UNL     1      -9.345  13.936  66.921  1.00  0.00    -0.265 C  
HETATM   12  C   UNL     1     -10.181  14.621  66.097  1.00  0.00    -0.301 C  
HETATM   13  N   UNL     1     -10.644  14.019  64.942  1.00  0.00    -0.404 NA 
HETATM   14  C   UNL     1     -10.709  16.034  66.251  1.00  0.00    -0.234 C  
HETATM   15  C   UNL     1     -10.477  12.694  64.601  1.00  0.00    -0.337 C  
HETATM   16  C   UNL     1      -9.692  11.895  65.358  1.00  0.00    -0.228 C  
HETATM   17  C   UNL     1     -11.225  12.257  63.364  1.00  0.00    -0.497 C  
HETATM   18  C   UNL     1      -8.937  12.470  66.576  1.00  0.00    -0.133 C  
BRANCH  16  19
HETATM   19  C   UNL     1      -9.618  10.444  65.027  1.00  0.00    -0.280 C  
HETATM   20  O   UNL     1     -10.404   9.604  65.438  1.00  0.00    -0.073 OA 
BRANCH  19  21
HETATM   21  O   UNL     1      -8.548  10.166  64.241  1.00  0.00    -0.168 OA 
HETATM   22  C   UNL     1      -8.893   9.514  63.015  1.00  0.00    -0.229 C  
ENDBRANCH  19  21
ENDBRANCH  16  19
BRANCH  18  23
HETATM   23  C   UNL     1      -9.023  11.528  67.786  1.00  0.00    -0.160 A  
HETATM   24  C   UNL     1      -7.858  10.853  68.198  1.00  0.00    -0.114 A  
HETATM   25  C   UNL     1      -7.874  10.006  69.301  1.00  0.00    -0.125 A  
HETATM   26  C   UNL     1      -9.055   9.822  70.027  1.00  0.00    -0.258 A  
HETATM   27  C   UNL     1     -10.228  10.472  69.630  1.00  0.00    -0.168 A  
HETATM   28 CL   UNL     1     -11.643  10.188  70.588  1.00  0.00    -0.396 Cl 
HETATM   29  C   UNL     1     -10.224  11.324  68.513  1.00  0.00    -0.205 A  
HETATM   30 CL   UNL     1     -11.699  12.125  68.048  1.00  0.00    -0.409 Cl 
ENDBRANCH  18  23
ENDBRANCH   9  11
ENDBRANCH   8   9
ENDBRANCH   7   8
ENDBRANCH   6   7
ENDBRANCH   4   6
ENDBRANCH   3   4
ENDBRANCH   2   3
TORSDOF 10
ENDMDL
MODEL      168
REMARK 921   NORMALIZED FREE ENERGY PREDICTED BY IDOCK:   -3.61 KCAL/MOL
REMARK 922        TOTAL FREE ENERGY PREDICTED BY IDOCK:   -7.12 KCAL/MOL
REMARK 923 INTER-LIGAND FREE ENERGY PREDICTED BY IDOCK:   -6.11 KCAL/MOL
REMARK 924 INTRA-LIGAND FREE ENERGY PREDICTED BY IDOCK:   -1.00 KCAL/MOL
REMARK 927      BINDING AFFINITY PREDICTED BY RF-SCORE:    0.00 PKD
ROOT
HETATM    1  C   UNL     1      -7.232  20.028  65.782  1.00  0.00    -0.328 C  
HETATM    2  C   UNL     1      -5.999  19.144  65.869  1.00  0.00    -0.209 C  
ENDROOT
BRANCH   2   3
HETATM    3  C   UNL     1      -6.373  17.710  66.220  1.00  0.00    -0.279 C  
BRANCH   3   4
HETATM    4  C   UNL     1      -6.942  17.611  67.613  1.00  0.00    -0.176 C  
HETATM    5  O   UNL     1      -6.448  18.099  68.619  1.00  0.00    -0.205 OA 
BRANCH   4   6
HETATM    6  O   UNL     1      -8.121  16.947  67.557  1.00  0.00    -0.170 OA 
BRANCH   6   7
HETATM    7  C   UNL     1      -8.350  16.218  66.360  1.00  0.00    -0.330 C  
BRANCH   7   8
HETATM    8  O   UNL     1      -8.347  14.794  66.459  1.00  0.00    -0.086 OA 
BRANCH   8   9
HETATM    9  C   UNL     1      -9.194  14.233  67.342  1.00  0.00    -0.200 C  
HETATM   10  O   UNL     1     -10.214  14.760  67.752  1.00  0.00    -0.230 OA 
BRANCH   9  11
HETATM   11  C   UNL     1      -8.622  12.958  67.890  1.00  0.00    -0.185 C  
HETATM   12  C   UNL     1      -7.563  12.894  68.739  1.00  0.00    -0.025 C  
HETATM   13  N   UNL     1      -7.225  11.684  69.316  1.00  0.00    -0.068 NA 
HETATM   14  C   UNL     1      -6.643  14.013  69.188  1.00  0.00    -0.113 C  
HETATM   15  C   UNL     1      -7.762  10.457  68.990  1.00  0.00    -0.116 C  
HETATM   16  C   UNL     1      -8.803  10.382  68.130  1.00  0.00    -0.132 C  
HETATM   17  C   UNL     1      -7.098   9.275  69.655  1.00  0.00    -0.061 C  
HETATM   18  C   UNL     1      -9.431  11.668  67.550  1.00  0.00    -0.173 C  
BRANCH  16  19
HETATM   19  C   UNL     1      -9.290   9.037  67.712  1.00  0.00    -0.140 C  
HETATM   20  O   UNL     1     -10.348   8.546  68.074  1.00  0.00    -0.211 OA 
BRANCH  19  21
HETATM   21  O   UNL     1      -8.396   8.411  66.907  1.00  0.00    -0.105 OA 
HETATM   22  C   UNL     1      -8.391   6.988  67.055  1.00  0.00    -0.121 C  
ENDBRANCH  19  21
ENDBRANCH  16  19
BRANCH  18  23
HETATM   23  C   UNL     1      -9.718  11.525  66.048  1.00  0.00    -0.253 A  
HETATM   24  C   UNL     1      -8.709  11.003  65.217  1.00  0.00    -0.099 A  
HETATM   25  C   UNL     1      -8.923  10.831  63.853  1.00  0.00    -0.166 A  
HETATM   26  C   UNL     1     -10.158  11.167  63.289  1.00  0.00    -0.426 A  
HETATM   27  C   UNL     1     -11.171  11.700  64.092  1.00  0.00    -0.345 A  
HETATM   28 CL   UNL     1     -12.668  12.087  63.310  1.00  0.00    -0.603 Cl 
HETATM   29  C   UNL     1     -10.962  11.884  65.469  1.00  0.00    -0.297 A  
HETATM   30 CL   UNL     1     -12.246  12.543  66.443  1.00  0.00    -0.262 Cl 
ENDBRANCH  18  23
ENDBRANCH   9  11
ENDBRANCH   8   9
ENDBRANCH   7   8
ENDBRANCH   6   7
ENDBRANCH   4   6
ENDBRANCH   3   4
ENDBRANCH   2   3
TORSDOF 10
ENDMDL
MODEL      169
REMARK 921   NORMALIZED FREE ENERGY PREDICTED BY IDOCK:   -3.59 KCAL/MOL
REMARK 922        TOTAL FREE ENERGY PREDICTED BY IDOCK:   -7.09 KCAL/MOL
REMARK 923 INTER-LIGAND FREE ENERGY PREDICTED BY IDOCK:   -5.28 KCAL/MOL
REMARK 924 INTRA-LIGAND FREE ENERGY PREDICTED BY IDOCK:   -1.81 KCAL/MOL
REMARK 927      BINDING AFFINITY PREDICTED BY RF-SCORE:    0.00 PKD
ROOT
HETATM    1  C   UNL     1     -12.818  13.449  65.227  1.00  0.00    -0.398 C  
HETATM    2  C   UNL     1     -11.643  12.859  65.989  1.00  0.00    -0.424 C  
ENDROOT
BRANCH   2   3
HETATM    3  C   UNL     1     -10.340  13.049  65.225  1.00  0.00    -0.318 C  
BRANCH   3   4
HETATM    4  C   UNL     1     -10.085  11.908  64.272  1.00  0.00    -0.295 C  
HETATM    5  O   UNL     1     -10.035  11.998  63.054  1.00  0.00    -0.351 OA 
BRANCH   4   6
HETATM    6  O   UNL     1      -9.859  10.782  64.989  1.00  0.00    -0.242 OA 
BRANCH   6   7
HETATM    7  C   UNL     1      -8.738  10.014  64.574  1.00  0.00    -0.195 C  
BRANCH   7   8
HETATM    8  O   UNL     1      -8.863   8.595  64.649  1.00  0.00    -0.099 OA 
BRANCH   8   9
HETATM    9  C   UNL     1      -7.848   7.913  65.212  1.00  0.00    -0.111 C  
HETATM   10  O   UNL     1      -6.688   7.967  64.841  1.00  0.00    -0.050 OA 
BRANCH   9  11
HETATM   11  C   UNL     1      -8.363   6.944  66.236  1.00  0.00    -0.126 C  
HETATM   12  C   UNL     1      -8.856   5.711  65.947  1.00  0.00    -0.152 C  
HETATM   13  N   UNL     1      -9.144   4.834  66.976  1.00  0.00    -0.115 NA 
HETATM   14  C   UNL     1      -9.148   5.106  64.588  1.00  0.00     0.023 C  
HETATM   15  C   UNL     1      -9.140   5.138  68.320  1.00  0.00    -0.112 C  
HETATM   16  C   UNL     1      -8.701   6.348  68.738  1.00  0.00    -0.122 C  
HETATM   17  C   UNL     1      -9.654   4.042  69.222  1.00  0.00    -0.247 C  
HETATM   18  C   UNL     1      -8.152   7.372  67.722  1.00  0.00    -0.119 C  
BRANCH  16  19
HETATM   19  C   UNL     1      -8.811   6.688  70.184  1.00  0.00    -0.141 C  
HETATM   20  O   UNL     1      -7.856   6.903  70.915  1.00  0.00    -0.095 OA 
BRANCH  19  21
HETATM   21  O   UNL     1     -10.103   6.696  70.598  1.00  0.00    -0.183 OA 
HETATM   22  C   UNL     1     -10.332   7.520  71.744  1.00  0.00    -0.192 C  
ENDBRANCH  19  21
ENDBRANCH  16  19
BRANCH  18  23
HETATM   23  C   UNL     1      -8.675   8.787  68.012  1.00  0.00    -0.141 A  
HETATM   24  C   UNL     1     -10.062   8.974  68.160  1.00  0.00    -0.229 A  
HETATM   25  C   UNL     1     -10.588  10.230  68.446  1.00  0.00    -0.247 A  
HETATM   26  C   UNL     1      -9.736  11.328  68.603  1.00  0.00    -0.200 A  
HETATM   27  C   UNL     1      -8.356  11.169  68.447  1.00  0.00    -0.149 A  
HETATM   28 CL   UNL     1      -7.376  12.583  68.660  1.00  0.00    -0.108 Cl 
HETATM   29  C   UNL     1      -7.815   9.907  68.152  1.00  0.00    -0.085 A  
HETATM   30 CL   UNL     1      -6.091   9.740  67.971  1.00  0.00    -0.054 Cl 
ENDBRANCH  18  23
ENDBRANCH   9  11
ENDBRANCH   8   9
ENDBRANCH   7   8
ENDBRANCH   6   7
ENDBRANCH   4   6
ENDBRANCH   3   4
ENDBRANCH   2   3
TORSDOF 10
ENDMDL
MODEL      170
REMARK 921   NORMALIZED FREE ENERGY PREDICTED BY IDOCK:   -3.58 KCAL/MOL
REMARK 922        TOTAL FREE ENERGY PREDICTED BY IDOCK:   -7.08 KCAL/MOL
REMARK 923 INTER-LIGAND FREE ENERGY PREDICTED BY IDOCK:   -5.66 KCAL/MOL
REMARK 924 INTRA-LIGAND FREE ENERGY PREDICTED BY IDOCK:   -1.42 KCAL/MOL
REMARK 927      BINDING AFFINITY PREDICTED BY RF-SCORE:    0.00 PKD
ROOT
HETATM    1  C   UNL     1     -12.131  11.845  70.403  1.00  0.00    -0.421 C  
HETATM    2  C   UNL     1     -12.700  10.932  71.476  1.00  0.00    -0.533 C  
ENDROOT
BRANCH   2   3
HETATM    3  C   UNL     1     -13.064   9.570  70.903  1.00  0.00    -0.169 C  
BRANCH   3   4
HETATM    4  C   UNL     1     -12.022   8.532  71.236  1.00  0.00    -0.294 C  
HETATM    5  O   UNL     1     -12.045   7.362  70.880  1.00  0.00    -0.307 OA 
BRANCH   4   6
HETATM    6  O   UNL     1     -11.027   9.121  71.941  1.00  0.00    -0.364 OA 
BRANCH   6   7
HETATM    7  C   UNL     1      -9.719   8.922  71.425  1.00  0.00    -0.300 C  
BRANCH   7   8
HETATM    8  O   UNL     1      -9.326   9.744  70.326  1.00  0.00    -0.247 OA 
BRANCH   8   9
HETATM    9  C   UNL     1      -8.041   9.676  69.931  1.00  0.00    -0.171 C  
HETATM   10  O   UNL     1      -7.267  10.618  69.927  1.00  0.00    -0.156 OA 
BRANCH   9  11
HETATM   11  C   UNL     1      -7.742   8.335  69.327  1.00  0.00    -0.103 C  
HETATM   12  C   UNL     1      -6.873   7.432  69.852  1.00  0.00    -0.055 C  
HETATM   13  N   UNL     1      -6.800   6.162  69.310  1.00  0.00    -0.060 NA 
HETATM   14  C   UNL     1      -5.918   7.608  71.016  1.00  0.00    -0.035 C  
HETATM   15  C   UNL     1      -7.416   5.742  68.152  1.00  0.00    -0.078 C  
HETATM   16  C   UNL     1      -8.284   6.561  67.513  1.00  0.00    -0.121 C  
HETATM   17  C   UNL     1      -7.037   4.354  67.696  1.00  0.00    -0.064 C  
HETATM   18  C   UNL     1      -8.630   7.945  68.104  1.00  0.00    -0.123 C  
BRANCH  16  19
HETATM   19  C   UNL     1      -8.850   6.123  66.207  1.00  0.00    -0.146 C  
HETATM   20  O   UNL     1      -8.360   6.389  65.120  1.00  0.00    -0.142 OA 
BRANCH  19  21
HETATM   21  O   UNL     1      -9.999   5.420  66.372  1.00  0.00    -0.166 OA 
HETATM   22  C   UNL     1     -11.032   6.158  67.032  1.00  0.00    -0.330 C  
ENDBRANCH  19  21
ENDBRANCH  16  19
BRANCH  18  23
HETATM   23  C   UNL     1      -8.654   9.029  67.017  1.00  0.00    -0.120 A  
HETATM   24  C   UNL     1      -7.497   9.229  66.240  1.00  0.00    -0.096 A  
HETATM   25  C   UNL     1      -7.470  10.182  65.227  1.00  0.00    -0.145 A  
HETATM   26  C   UNL     1      -8.607  10.952  64.959  1.00  0.00    -0.056 A  
HETATM   27  C   UNL     1      -9.764  10.781  65.726  1.00  0.00    -0.228 A  
HETATM   28 CL   UNL     1     -11.124  11.776  65.323  1.00  0.00    -0.352 Cl 
HETATM   29  C   UNL     1      -9.798   9.826  66.755  1.00  0.00    -0.208 A  
HETATM   30 CL   UNL     1     -11.256   9.632  67.687  1.00  0.00    -0.069 Cl 
ENDBRANCH  18  23
ENDBRANCH   9  11
ENDBRANCH   8   9
ENDBRANCH   7   8
ENDBRANCH   6   7
ENDBRANCH   4   6
ENDBRANCH   3   4
ENDBRANCH   2   3
TORSDOF 10
ENDMDL
MODEL      171
REMARK 921   NORMALIZED FREE ENERGY PREDICTED BY IDOCK:   -3.54 KCAL/MOL
REMARK 922        TOTAL FREE ENERGY PREDICTED BY IDOCK:   -7.01 KCAL/MOL
REMARK 923 INTER-LIGAND FREE ENERGY PREDICTED BY IDOCK:   -5.95 KCAL/MOL
REMARK 924 INTRA-LIGAND FREE ENERGY PREDICTED BY IDOCK:   -1.06 KCAL/MOL
REMARK 927      BINDING AFFINITY PREDICTED BY RF-SCORE:    0.00 PKD
ROOT
HETATM    1  C   UNL     1      -6.656  21.118  66.519  1.00  0.00    -0.285 C  
HETATM    2  C   UNL     1      -7.783  20.142  66.809  1.00  0.00    -0.337 C  
ENDROOT
BRANCH   2   3
HETATM    3  C   UNL     1      -7.464  19.274  68.018  1.00  0.00    -0.312 C  
BRANCH   3   4
HETATM    4  C   UNL     1      -6.522  18.151  67.661  1.00  0.00    -0.189 C  
HETATM    5  O   UNL     1      -5.303  18.232  67.624  1.00  0.00    -0.148 OA 
BRANCH   4   6
HETATM    6  O   UNL     1      -7.244  17.025  67.449  1.00  0.00    -0.144 OA 
BRANCH   6   7
HETATM    7  C   UNL     1      -6.598  15.814  67.813  1.00  0.00    -0.159 C  
BRANCH   7   8
HETATM    8  O   UNL     1      -7.253  14.599  67.452  1.00  0.00    -0.191 OA 
BRANCH   8   9
HETATM    9  C   UNL     1      -8.456  14.357  68.006  1.00  0.00    -0.164 C  
HETATM   10  O   UNL     1      -8.664  14.281  69.205  1.00  0.00    -0.005 OA 
BRANCH   9  11
HETATM   11  C   UNL     1      -9.467  14.013  66.950  1.00  0.00    -0.271 C  
HETATM   12  C   UNL     1     -10.478  14.833  66.560  1.00  0.00    -0.291 C  
HETATM   13  N   UNL     1     -11.247  14.490  65.463  1.00  0.00    -0.325 NA 
HETATM   14  C   UNL     1     -10.916  16.149  67.170  1.00  0.00    -0.144 C  
HETATM   15  C   UNL     1     -11.206  13.286  64.793  1.00  0.00    -0.331 C  
HETATM   16  C   UNL     1     -10.264  12.369  65.109  1.00  0.00    -0.305 C  
HETATM   17  C   UNL     1     -12.268  13.111  63.734  1.00  0.00    -0.528 C  
HETATM   18  C   UNL     1      -9.197  12.683  66.180  1.00  0.00    -0.052 C  
BRANCH  16  19
HETATM   19  C   UNL     1     -10.312  11.036  64.445  1.00  0.00    -0.358 C  
HETATM   20  O   UNL     1     -10.550   9.987  65.024  1.00  0.00     0.066 OA 
BRANCH  19  21
HETATM   21  O   UNL     1     -10.025  11.128  63.122  1.00  0.00    -0.331 OA 
HETATM   22  C   UNL     1      -8.627  11.033  62.832  1.00  0.00    -0.134 C  
ENDBRANCH  19  21
ENDBRANCH  16  19
BRANCH  18  23
HETATM   23  C   UNL     1      -8.975  11.488  67.119  1.00  0.00    -0.166 A  
HETATM   24  C   UNL     1      -9.927  11.235  68.124  1.00  0.00    -0.191 A  
HETATM   25  C   UNL     1      -9.788  10.153  68.987  1.00  0.00    -0.211 A  
HETATM   26  C   UNL     1      -8.695   9.290  68.858  1.00  0.00    -0.131 A  
HETATM   27  C   UNL     1      -7.729   9.528  67.876  1.00  0.00    -0.087 A  
HETATM   28 CL   UNL     1      -6.410   8.407  67.787  1.00  0.00    -0.052 Cl 
HETATM   29  C   UNL     1      -7.857  10.621  67.004  1.00  0.00    -0.117 A  
HETATM   30 CL   UNL     1      -6.640  10.887  65.787  1.00  0.00    -0.061 Cl 
ENDBRANCH  18  23
ENDBRANCH   9  11
ENDBRANCH   8   9
ENDBRANCH   7   8
ENDBRANCH   6   7
ENDBRANCH   4   6
ENDBRANCH   3   4
ENDBRANCH   2   3
TORSDOF 10
ENDMDL
MODEL      172
REMARK 921   NORMALIZED FREE ENERGY PREDICTED BY IDOCK:   -3.54 KCAL/MOL
REMARK 922        TOTAL FREE ENERGY PREDICTED BY IDOCK:   -7.01 KCAL/MOL
REMARK 923 INTER-LIGAND FREE ENERGY PREDICTED BY IDOCK:   -5.58 KCAL/MOL
REMARK 924 INTRA-LIGAND FREE ENERGY PREDICTED BY IDOCK:   -1.42 KCAL/MOL
REMARK 927      BINDING AFFINITY PREDICTED BY RF-SCORE:    0.00 PKD
ROOT
HETATM    1  C   UNL     1     -10.093   6.350  71.661  1.00  0.00    -0.209 C  
HETATM    2  C   UNL     1     -10.715   6.682  70.315  1.00  0.00    -0.294 C  
ENDROOT
BRANCH   2   3
HETATM    3  C   UNL     1      -9.674   6.656  69.206  1.00  0.00    -0.151 C  
BRANCH   3   4
HETATM    4  C   UNL     1     -10.282   6.996  67.867  1.00  0.00    -0.183 C  
HETATM    5  O   UNL     1     -11.133   6.338  67.287  1.00  0.00    -0.353 OA 
BRANCH   4   6
HETATM    6  O   UNL     1      -9.776   8.179  67.445  1.00  0.00    -0.151 OA 
BRANCH   6   7
HETATM    7  C   UNL     1     -10.089   8.528  66.104  1.00  0.00     0.017 C  
BRANCH   7   8
HETATM    8  O   UNL     1     -10.201   9.919  65.808  1.00  0.00    -0.265 OA 
BRANCH   8   9
HETATM    9  C   UNL     1     -10.640  10.728  66.790  1.00  0.00    -0.250 C  
HETATM   10  O   UNL     1     -11.497  10.426  67.604  1.00  0.00    -0.401 OA 
BRANCH   9  11
HETATM   11  C   UNL     1     -10.070  12.108  66.636  1.00  0.00    -0.218 C  
HETATM   12  C   UNL     1     -10.617  13.083  65.864  1.00  0.00    -0.275 C  
HETATM   13  N   UNL     1     -10.108  14.368  65.928  1.00  0.00    -0.310 NA 
HETATM   14  C   UNL     1     -11.776  12.980  64.893  1.00  0.00    -0.381 C  
HETATM   15  C   UNL     1      -8.961  14.749  66.589  1.00  0.00    -0.255 C  
HETATM   16  C   UNL     1      -8.303  13.860  67.368  1.00  0.00    -0.208 C  
HETATM   17  C   UNL     1      -8.541  16.181  66.360  1.00  0.00    -0.365 C  
HETATM   18  C   UNL     1      -8.859  12.433  67.564  1.00  0.00    -0.181 C  
BRANCH  16  19
HETATM   19  C   UNL     1      -7.009  14.269  67.982  1.00  0.00    -0.144 C  
HETATM   20  O   UNL     1      -6.004  14.550  67.347  1.00  0.00    -0.344 OA 
BRANCH  19  21
HETATM   21  O   UNL     1      -7.074  14.256  69.337  1.00  0.00    -0.132 OA 
HETATM   22  C   UNL     1      -7.652  15.441  69.893  1.00  0.00     0.005 C  
ENDBRANCH  19  21
ENDBRANCH  16  19
BRANCH  18  23
HETATM   23  C   UNL     1      -7.744  11.380  67.478  1.00  0.00    -0.125 A  
HETATM   24  C   UNL     1      -6.874  11.410  66.372  1.00  0.00    -0.003 A  
HETATM   25  C   UNL     1      -5.834  10.494  66.253  1.00  0.00    -0.092 A  
HETATM   26  C   UNL     1      -5.632   9.531  67.247  1.00  0.00    -0.040 A  
HETATM   27  C   UNL     1      -6.491   9.472  68.349  1.00  0.00    -0.053 A  
HETATM   28 CL   UNL     1      -6.166   8.248  69.532  1.00  0.00    -0.033 Cl 
HETATM   29  C   UNL     1      -7.549  10.388  68.474  1.00  0.00    -0.095 A  
HETATM   30 CL   UNL     1      -8.597  10.294  69.861  1.00  0.00    -0.091 Cl 
ENDBRANCH  18  23
ENDBRANCH   9  11
ENDBRANCH   8   9
ENDBRANCH   7   8
ENDBRANCH   6   7
ENDBRANCH   4   6
ENDBRANCH   3   4
ENDBRANCH   2   3
TORSDOF 10
ENDMDL
MODEL      173
REMARK 921   NORMALIZED FREE ENERGY PREDICTED BY IDOCK:   -3.53 KCAL/MOL
REMARK 922        TOTAL FREE ENERGY PREDICTED BY IDOCK:   -6.99 KCAL/MOL
REMARK 923 INTER-LIGAND FREE ENERGY PREDICTED BY IDOCK:   -6.81 KCAL/MOL
REMARK 924 INTRA-LIGAND FREE ENERGY PREDICTED BY IDOCK:   -0.18 KCAL/MOL
REMARK 927      BINDING AFFINITY PREDICTED BY RF-SCORE:    0.00 PKD
ROOT
HETATM    1  C   UNL     1      -5.494   7.192  69.278  1.00  0.00    -0.015 C  
HETATM    2  C   UNL     1      -6.874   7.673  69.692  1.00  0.00    -0.044 C  
ENDROOT
BRANCH   2   3
HETATM    3  C   UNL     1      -6.894   9.182  69.892  1.00  0.00    -0.052 C  
BRANCH   3   4
HETATM    4  C   UNL     1      -7.610   9.881  68.763  1.00  0.00    -0.081 C  
HETATM    5  O   UNL     1      -8.021   9.346  67.743  1.00  0.00    -0.095 OA 
BRANCH   4   6
HETATM    6  O   UNL     1      -7.778  11.184  69.091  1.00  0.00    -0.129 OA 
BRANCH   6   7
HETATM    7  C   UNL     1      -9.016  11.755  68.692  1.00  0.00    -0.066 C  
BRANCH   7   8
HETATM    8  O   UNL     1     -10.195  11.000  68.971  1.00  0.00    -0.210 OA 
BRANCH   8   9
HETATM    9  C   UNL     1     -11.379  11.576  68.691  1.00  0.00    -0.269 C  
HETATM   10  O   UNL     1     -12.382  10.969  68.356  1.00  0.00    -0.528 OA 
BRANCH   9  11
HETATM   11  C   UNL     1     -11.250  13.071  68.668  1.00  0.00    -0.316 C  
HETATM   12  C   UNL     1     -11.619  13.889  69.688  1.00  0.00    -0.286 C  
HETATM   13  N   UNL     1     -11.300  15.234  69.633  1.00  0.00    -0.268 NA 
HETATM   14  C   UNL     1     -12.363  13.535  70.961  1.00  0.00    -0.422 C  
HETATM   15  C   UNL     1     -10.772  15.893  68.544  1.00  0.00    -0.274 C  
HETATM   16  C   UNL     1     -10.392  15.194  67.450  1.00  0.00    -0.244 C  
HETATM   17  C   UNL     1     -10.674  17.392  68.695  1.00  0.00    -0.249 C  
HETATM   18  C   UNL     1     -10.496  13.654  67.433  1.00  0.00    -0.251 C  
BRANCH  16  19
HETATM   19  C   UNL     1      -9.927  15.944  66.249  1.00  0.00    -0.298 C  
HETATM   20  O   UNL     1      -8.800  15.867  65.785  1.00  0.00    -0.252 OA 
BRANCH  19  21
HETATM   21  O   UNL     1     -10.901  16.748  65.755  1.00  0.00    -0.226 OA 
HETATM   22  C   UNL     1     -11.179  16.526  64.369  1.00  0.00     0.097 C  
ENDBRANCH  19  21
ENDBRANCH  16  19
BRANCH  18  23
HETATM   23  C   UNL     1     -11.059  13.144  66.098  1.00  0.00    -0.301 A  
HETATM   24  C   UNL     1     -12.374  13.499  65.743  1.00  0.00    -0.516 A  
HETATM   25  C   UNL     1     -12.928  13.084  64.536  1.00  0.00    -0.107 A  
HETATM   26  C   UNL     1     -12.172  12.312  63.648  1.00  0.00    -0.665 A  
HETATM   27  C   UNL     1     -10.868  11.935  63.984  1.00  0.00    -0.379 A  
HETATM   28 CL   UNL     1     -10.005  10.980  62.824  1.00  0.00    -0.248 Cl 
HETATM   29  C   UNL     1     -10.303  12.344  65.203  1.00  0.00    -0.287 A  
HETATM   30 CL   UNL     1      -8.674  11.865  65.589  1.00  0.00     0.174 Cl 
ENDBRANCH  18  23
ENDBRANCH   9  11
ENDBRANCH   8   9
ENDBRANCH   7   8
ENDBRANCH   6   7
ENDBRANCH   4   6
ENDBRANCH   3   4
ENDBRANCH   2   3
TORSDOF 10
ENDMDL
MODEL      174
REMARK 921   NORMALIZED FREE ENERGY PREDICTED BY IDOCK:   -3.47 KCAL/MOL
REMARK 922        TOTAL FREE ENERGY PREDICTED BY IDOCK:   -6.90 KCAL/MOL
REMARK 923 INTER-LIGAND FREE ENERGY PREDICTED BY IDOCK:   -6.00 KCAL/MOL
REMARK 924 INTRA-LIGAND FREE ENERGY PREDICTED BY IDOCK:   -0.90 KCAL/MOL
REMARK 927      BINDING AFFINITY PREDICTED BY RF-SCORE:    0.00 PKD
ROOT
HETATM    1  C   UNL     1     -10.763  19.406  67.458  1.00  0.00    -0.570 C  
HETATM    2  C   UNL     1      -9.576  20.223  66.975  1.00  0.00    -0.572 C  
ENDROOT
BRANCH   2   3
HETATM    3  C   UNL     1      -8.267  19.480  67.203  1.00  0.00    -0.308 C  
BRANCH   3   4
HETATM    4  C   UNL     1      -7.513  19.276  65.913  1.00  0.00    -0.260 C  
HETATM    5  O   UNL     1      -6.833  20.120  65.347  1.00  0.00    -0.289 OA 
BRANCH   4   6
HETATM    6  O   UNL     1      -7.663  17.990  65.517  1.00  0.00    -0.510 OA 
BRANCH   6   7
HETATM    7  C   UNL     1      -7.550  17.022  66.549  1.00  0.00    -0.291 C  
BRANCH   7   8
HETATM    8  O   UNL     1      -7.539  15.651  66.151  1.00  0.00     0.338 OA 
BRANCH   8   9
HETATM    9  C   UNL     1      -7.327  14.730  67.110  1.00  0.00     0.015 C  
HETATM   10  O   UNL     1      -6.287  14.112  67.259  1.00  0.00    -0.295 OA 
BRANCH   9  11
HETATM   11  C   UNL     1      -8.599  14.434  67.851  1.00  0.00    -0.165 C  
HETATM   12  C   UNL     1      -8.949  15.006  69.033  1.00  0.00    -0.205 C  
HETATM   13  N   UNL     1     -10.216  14.792  69.543  1.00  0.00    -0.132 NA 
HETATM   14  C   UNL     1      -8.121  15.905  69.929  1.00  0.00     0.434 C  
HETATM   15  C   UNL     1     -11.144  13.900  69.051  1.00  0.00    -0.268 C  
HETATM   16  C   UNL     1     -10.901  13.241  67.896  1.00  0.00    -0.260 C  
HETATM   17  C   UNL     1     -12.386  13.744  69.895  1.00  0.00    -0.334 C  
HETATM   18  C   UNL     1      -9.612  13.521  67.093  1.00  0.00    -0.241 C  
BRANCH  16  19
HETATM   19  C   UNL     1     -11.872  12.204  67.446  1.00  0.00    -0.227 C  
HETATM   20  O   UNL     1     -12.262  11.278  68.142  1.00  0.00    -0.622 OA 
BRANCH  19  21
HETATM   21  O   UNL     1     -12.244  12.395  66.155  1.00  0.00    -0.635 OA 
HETATM   22  C   UNL     1     -12.881  13.654  65.924  1.00  0.00    -0.269 C  
ENDBRANCH  19  21
ENDBRANCH  16  19
BRANCH  18  23
HETATM   23  C   UNL     1      -8.974  12.221  66.583  1.00  0.00    -0.189 A  
HETATM   24  C   UNL     1      -9.038  11.935  65.206  1.00  0.00     0.188 A  
HETATM   25  C   UNL     1      -8.458  10.783  64.686  1.00  0.00    -0.020 A  
HETATM   26  C   UNL     1      -7.788   9.892  65.531  1.00  0.00    -0.126 A  
HETATM   27  C   UNL     1      -7.723  10.148  66.905  1.00  0.00    -0.103 A  
HETATM   28 CL   UNL     1      -6.873   8.992  67.876  1.00  0.00    -0.069 Cl 
HETATM   29  C   UNL     1      -8.312  11.305  67.440  1.00  0.00    -0.137 A  
HETATM   30 CL   UNL     1      -8.207  11.598  69.153  1.00  0.00     0.119 Cl 
ENDBRANCH  18  23
ENDBRANCH   9  11
ENDBRANCH   8   9
ENDBRANCH   7   8
ENDBRANCH   6   7
ENDBRANCH   4   6
ENDBRANCH   3   4
ENDBRANCH   2   3
TORSDOF 10
ENDMDL
MODEL      175
REMARK 921   NORMALIZED FREE ENERGY PREDICTED BY IDOCK:   -3.47 KCAL/MOL
REMARK 922        TOTAL FREE ENERGY PREDICTED BY IDOCK:   -6.90 KCAL/MOL
REMARK 923 INTER-LIGAND FREE ENERGY PREDICTED BY IDOCK:   -6.36 KCAL/MOL
REMARK 924 INTRA-LIGAND FREE ENERGY PREDICTED BY IDOCK:   -0.54 KCAL/MOL
REMARK 927      BINDING AFFINITY PREDICTED BY RF-SCORE:    0.00 PKD
ROOT
HETATM    1  C   UNL     1      -5.538  19.205  71.666  1.00  0.00    -0.201 C  
HETATM    2  C   UNL     1      -5.200  18.966  70.204  1.00  0.00    -0.209 C  
ENDROOT
BRANCH   2   3
HETATM    3  C   UNL     1      -6.458  18.741  69.377  1.00  0.00    -0.285 C  
BRANCH   3   4
HETATM    4  C   UNL     1      -6.687  17.276  69.103  1.00  0.00    -0.243 C  
HETATM    5  O   UNL     1      -5.812  16.448  68.891  1.00  0.00    -0.126 OA 
BRANCH   4   6
HETATM    6  O   UNL     1      -8.013  17.015  69.193  1.00  0.00    -0.192 OA 
BRANCH   6   7
HETATM    7  C   UNL     1      -8.458  15.879  68.467  1.00  0.00    -0.184 C  
BRANCH   7   8
HETATM    8  O   UNL     1      -9.767  15.945  67.902  1.00  0.00    -0.215 OA 
BRANCH   8   9
HETATM    9  C   UNL     1     -10.541  14.848  68.003  1.00  0.00    -0.248 C  
HETATM   10  O   UNL     1     -11.119  14.500  69.018  1.00  0.00    -0.241 OA 
BRANCH   9  11
HETATM   11  C   UNL     1     -10.449  14.018  66.756  1.00  0.00    -0.277 C  
HETATM   12  C   UNL     1     -10.750  14.467  65.510  1.00  0.00    -0.341 C  
HETATM   13  N   UNL     1     -10.469  13.674  64.413  1.00  0.00    -0.398 NA 
HETATM   14  C   UNL     1     -11.377  15.788  65.109  1.00  0.00    -0.155 C  
HETATM   15  C   UNL     1     -10.049  12.362  64.453  1.00  0.00    -0.267 C  
HETATM   16  C   UNL     1      -9.746  11.785  65.638  1.00  0.00    -0.256 C  
HETATM   17  C   UNL     1      -9.974  11.677  63.109  1.00  0.00    -0.400 C  
HETATM   18  C   UNL     1      -9.815  12.604  66.945  1.00  0.00    -0.234 C  
BRANCH  16  19
HETATM   19  C   UNL     1      -9.401  10.336  65.661  1.00  0.00    -0.192 C  
HETATM   20  O   UNL     1     -10.203   9.441  65.878  1.00  0.00    -0.259 OA 
BRANCH  19  21
HETATM   21  O   UNL     1      -8.076  10.136  65.444  1.00  0.00    -0.137 OA 
HETATM   22  C   UNL     1      -7.657   8.787  65.670  1.00  0.00    -0.086 C  
ENDBRANCH  19  21
ENDBRANCH  16  19
BRANCH  18  23
HETATM   23  C   UNL     1     -10.476  11.803  68.076  1.00  0.00    -0.221 A  
HETATM   24  C   UNL     1     -11.881  11.726  68.114  1.00  0.00    -0.324 A  
HETATM   25  C   UNL     1     -12.532  10.996  69.103  1.00  0.00     0.103 A  
HETATM   26  C   UNL     1     -11.790  10.313  70.072  1.00  0.00    -0.305 A  
HETATM   27  C   UNL     1     -10.394  10.385  70.063  1.00  0.00    -0.128 A  
HETATM   28 CL   UNL     1      -9.557   9.507  71.301  1.00  0.00    -0.149 Cl 
HETATM   29  C   UNL     1      -9.728  11.125  69.074  1.00  0.00    -0.096 A  
HETATM   30 CL   UNL     1      -7.988  11.189  69.084  1.00  0.00    -0.093 Cl 
ENDBRANCH  18  23
ENDBRANCH   9  11
ENDBRANCH   8   9
ENDBRANCH   7   8
ENDBRANCH   6   7
ENDBRANCH   4   6
ENDBRANCH   3   4
ENDBRANCH   2   3
TORSDOF 10
ENDMDL
MODEL      176
REMARK 921   NORMALIZED FREE ENERGY PREDICTED BY IDOCK:   -3.44 KCAL/MOL
REMARK 922        TOTAL FREE ENERGY PREDICTED BY IDOCK:   -6.85 KCAL/MOL
REMARK 923 INTER-LIGAND FREE ENERGY PREDICTED BY IDOCK:   -5.97 KCAL/MOL
REMARK 924 INTRA-LIGAND FREE ENERGY PREDICTED BY IDOCK:   -0.88 KCAL/MOL
REMARK 927      BINDING AFFINITY PREDICTED BY RF-SCORE:    0.00 PKD
ROOT
HETATM    1  C   UNL     1     -10.851   7.460  73.234  1.00  0.00    -0.417 C  
HETATM    2  C   UNL     1     -10.447   7.745  71.798  1.00  0.00    -0.259 C  
ENDROOT
BRANCH   2   3
HETATM    3  C   UNL     1     -11.111   9.014  71.280  1.00  0.00    -0.382 C  
BRANCH   3   4
HETATM    4  C   UNL     1     -10.667   9.337  69.875  1.00  0.00    -0.234 C  
HETATM    5  O   UNL     1     -10.269   8.526  69.051  1.00  0.00    -0.199 OA 
BRANCH   4   6
HETATM    6  O   UNL     1     -10.842  10.662  69.655  1.00  0.00    -0.246 OA 
BRANCH   6   7
HETATM    7  C   UNL     1     -12.064  11.200  70.138  1.00  0.00    -0.362 C  
BRANCH   7   8
HETATM    8  O   UNL     1     -12.164  12.623  70.202  1.00  0.00    -0.305 OA 
BRANCH   8   9
HETATM    9  C   UNL     1     -12.015  13.306  69.052  1.00  0.00    -0.293 C  
HETATM   10  O   UNL     1     -12.674  13.115  68.043  1.00  0.00     0.453 OA 
BRANCH   9  11
HETATM   11  C   UNL     1     -10.814  14.203  69.118  1.00  0.00    -0.254 C  
HETATM   12  C   UNL     1     -10.589  15.114  70.101  1.00  0.00    -0.202 C  
HETATM   13  N   UNL     1      -9.372  15.767  70.160  1.00  0.00     0.265 NA 
HETATM   14  C   UNL     1     -11.518  15.545  71.219  1.00  0.00    -0.462 C  
HETATM   15  C   UNL     1      -8.382  15.715  69.202  1.00  0.00    -0.251 C  
HETATM   16  C   UNL     1      -8.500  14.869  68.153  1.00  0.00    -0.146 C  
HETATM   17  C   UNL     1      -7.222  16.653  69.435  1.00  0.00    -0.132 C  
HETATM   18  C   UNL     1      -9.713  13.919  68.049  1.00  0.00    -0.226 C  
BRANCH  16  19
HETATM   19  C   UNL     1      -7.469  14.913  67.079  1.00  0.00     0.068 C  
HETATM   20  O   UNL     1      -7.325  15.845  66.302  1.00  0.00     0.058 OA 
BRANCH  19  21
HETATM   21  O   UNL     1      -6.730  13.776  67.050  1.00  0.00    -0.026 OA 
HETATM   22  C   UNL     1      -5.514  13.863  67.797  1.00  0.00    -0.030 C  
ENDBRANCH  19  21
ENDBRANCH  16  19
BRANCH  18  23
HETATM   23  C   UNL     1     -10.271  13.876  66.619  1.00  0.00    -0.276 A  
HETATM   24  C   UNL     1     -11.033  14.967  66.161  1.00  0.00    -0.334 A  
HETATM   25  C   UNL     1     -11.544  14.991  64.867  1.00  0.00    -0.374 A  
HETATM   26  C   UNL     1     -11.294  13.927  63.995  1.00  0.00    -0.109 A  
HETATM   27  C   UNL     1     -10.551  12.826  64.431  1.00  0.00    -0.379 A  
HETATM   28 CL   UNL     1     -10.289  11.553  63.284  1.00  0.00    -0.428 Cl 
HETATM   29  C   UNL     1     -10.037  12.789  65.738  1.00  0.00    -0.286 A  
HETATM   30 CL   UNL     1      -9.108  11.407  66.249  1.00  0.00    -0.204 Cl 
ENDBRANCH  18  23
ENDBRANCH   9  11
ENDBRANCH   8   9
ENDBRANCH   7   8
ENDBRANCH   6   7
ENDBRANCH   4   6
ENDBRANCH   3   4
ENDBRANCH   2   3
TORSDOF 10
ENDMDL
MODEL      177
REMARK 921   NORMALIZED FREE ENERGY PREDICTED BY IDOCK:   -3.43 KCAL/MOL
REMARK 922        TOTAL FREE ENERGY PREDICTED BY IDOCK:   -6.83 KCAL/MOL
REMARK 923 INTER-LIGAND FREE ENERGY PREDICTED BY IDOCK:   -5.92 KCAL/MOL
REMARK 924 INTRA-LIGAND FREE ENERGY PREDICTED BY IDOCK:   -0.91 KCAL/MOL
REMARK 927      BINDING AFFINITY PREDICTED BY RF-SCORE:    0.00 PKD
ROOT
HETATM    1  C   UNL     1     -10.785   6.416  73.111  1.00  0.00    -0.294 C  
HETATM    2  C   UNL     1     -10.814   7.910  72.836  1.00  0.00    -0.451 C  
ENDROOT
BRANCH   2   3
HETATM    3  C   UNL     1      -9.684   8.321  71.902  1.00  0.00    -0.299 C  
BRANCH   3   4
HETATM    4  C   UNL     1     -10.187   8.576  70.503  1.00  0.00    -0.194 C  
HETATM    5  O   UNL     1     -10.891   7.818  69.851  1.00  0.00    -0.247 OA 
BRANCH   4   6
HETATM    6  O   UNL     1      -9.782   9.808  70.111  1.00  0.00    -0.242 OA 
BRANCH   6   7
HETATM    7  C   UNL     1     -10.585  10.419  69.112  1.00  0.00    -0.228 C  
BRANCH   7   8
HETATM    8  O   UNL     1     -10.131  11.670  68.595  1.00  0.00    -0.211 OA 
BRANCH   8   9
HETATM    9  C   UNL     1     -10.857  12.763  68.893  1.00  0.00    -0.196 C  
HETATM   10  O   UNL     1     -11.512  12.902  69.913  1.00  0.00    -0.200 OA 
BRANCH   9  11
HETATM   11  C   UNL     1     -10.901  13.707  67.727  1.00  0.00    -0.266 C  
HETATM   12  C   UNL     1     -11.626  13.498  66.597  1.00  0.00    -0.363 C  
HETATM   13  N   UNL     1     -11.730  14.508  65.658  1.00  0.00    -0.347 NA 
HETATM   14  C   UNL     1     -12.394  12.258  66.183  1.00  0.00     0.266 C  
HETATM   15  C   UNL     1     -11.022  15.690  65.663  1.00  0.00    -0.272 C  
HETATM   16  C   UNL     1     -10.237  16.003  66.719  1.00  0.00    -0.275 C  
HETATM   17  C   UNL     1     -11.203  16.545  64.432  1.00  0.00     0.087 C  
HETATM   18  C   UNL     1     -10.170  15.068  67.946  1.00  0.00    -0.228 C  
BRANCH  16  19
HETATM   19  C   UNL     1      -9.400  17.233  66.648  1.00  0.00    -0.260 C  
HETATM   20  O   UNL     1      -8.450  17.377  65.894  1.00  0.00    -0.530 OA 
BRANCH  19  21
HETATM   21  O   UNL     1      -9.803  18.163  67.551  1.00  0.00    -0.295 OA 
HETATM   22  C   UNL     1     -10.625  19.189  66.987  1.00  0.00    -0.457 C  
ENDBRANCH  19  21
ENDBRANCH  16  19
BRANCH  18  23
HETATM   23  C   UNL     1      -8.727  14.894  68.442  1.00  0.00    -0.172 A  
HETATM   24  C   UNL     1      -8.308  15.631  69.566  1.00  0.00    -0.176 A  
HETATM   25  C   UNL     1      -7.019  15.496  70.071  1.00  0.00     0.011 A  
HETATM   26  C   UNL     1      -6.120  14.610  69.469  1.00  0.00    -0.113 A  
HETATM   27  C   UNL     1      -6.508  13.877  68.343  1.00  0.00    -0.103 A  
HETATM   28 CL   UNL     1      -5.330  12.803  67.664  1.00  0.00    -0.119 Cl 
HETATM   29  C   UNL     1      -7.805  14.011  67.822  1.00  0.00    -0.171 A  
HETATM   30 CL   UNL     1      -8.261  13.079  66.423  1.00  0.00     0.422 Cl 
ENDBRANCH  18  23
ENDBRANCH   9  11
ENDBRANCH   8   9
ENDBRANCH   7   8
ENDBRANCH   6   7
ENDBRANCH   4   6
ENDBRANCH   3   4
ENDBRANCH   2   3
TORSDOF 10
ENDMDL
MODEL      178
REMARK 921   NORMALIZED FREE ENERGY PREDICTED BY IDOCK:   -3.40 KCAL/MOL
REMARK 922        TOTAL FREE ENERGY PREDICTED BY IDOCK:   -6.79 KCAL/MOL
REMARK 923 INTER-LIGAND FREE ENERGY PREDICTED BY IDOCK:   -6.94 KCAL/MOL
REMARK 924 INTRA-LIGAND FREE ENERGY PREDICTED BY IDOCK:    0.15 KCAL/MOL
REMARK 927      BINDING AFFINITY PREDICTED BY RF-SCORE:    0.00 PKD
ROOT
HETATM    1  C   UNL     1      -9.878   4.367  69.876  1.00  0.00    -0.290 C  
HETATM    2  C   UNL     1      -9.440   4.914  71.224  1.00  0.00    -0.214 C  
ENDROOT
BRANCH   2   3
HETATM    3  C   UNL     1     -10.637   5.333  72.064  1.00  0.00    -0.279 C  
BRANCH   3   4
HETATM    4  C   UNL     1     -10.334   6.560  72.888  1.00  0.00    -0.210 C  
HETATM    5  O   UNL     1     -10.926   6.899  73.902  1.00  0.00    -0.112 OA 
BRANCH   4   6
HETATM    6  O   UNL     1      -9.260   7.190  72.355  1.00  0.00    -0.134 OA 
BRANCH   6   7
HETATM    7  C   UNL     1      -9.308   8.609  72.395  1.00  0.00    -0.214 C  
BRANCH   7   8
HETATM    8  O   UNL     1      -9.475   9.285  71.149  1.00  0.00    -0.267 OA 
BRANCH   8   9
HETATM    9  C   UNL     1     -10.666   9.165  70.534  1.00  0.00    -0.238 C  
HETATM   10  O   UNL     1     -11.006   8.204  69.865  1.00  0.00    -0.240 OA 
BRANCH   9  11
HETATM   11  C   UNL     1     -11.444  10.445  70.630  1.00  0.00    -0.438 C  
HETATM   12  C   UNL     1     -12.550  10.616  71.402  1.00  0.00    -0.421 C  
HETATM   13  N   UNL     1     -13.089  11.880  71.549  1.00  0.00    -0.363 NA 
HETATM   14  C   UNL     1     -13.325   9.574  72.184  1.00  0.00    -0.545 C  
HETATM   15  C   UNL     1     -12.714  13.004  70.845  1.00  0.00    -0.217 C  
HETATM   16  C   UNL     1     -11.646  12.957  70.017  1.00  0.00    -0.189 C  
HETATM   17  C   UNL     1     -13.578  14.220  71.082  1.00  0.00    -0.300 C  
HETATM   18  C   UNL     1     -10.809  11.666  69.895  1.00  0.00     0.249 C  
BRANCH  16  19
HETATM   19  C   UNL     1     -11.332  14.154  69.187  1.00  0.00    -0.279 C  
HETATM   20  O   UNL     1     -10.733  14.116  68.123  1.00  0.00    -0.237 OA 
BRANCH  19  21
HETATM   21  O   UNL     1     -11.764  15.297  69.777  1.00  0.00    -0.280 OA 
HETATM   22  C   UNL     1     -10.823  16.372  69.698  1.00  0.00    -0.346 C  
ENDBRANCH  19  21
ENDBRANCH  16  19
BRANCH  18  23
HETATM   23  C   UNL     1     -10.458  11.360  68.431  1.00  0.00    -0.221 A  
HETATM   24  C   UNL     1     -11.506  11.225  67.501  1.00  0.00    -0.324 A  
HETATM   25  C   UNL     1     -11.245  10.971  66.159  1.00  0.00     0.024 A  
HETATM   26  C   UNL     1      -9.925  10.857  65.711  1.00  0.00    -0.299 A  
HETATM   27  C   UNL     1      -8.867  10.974  66.618  1.00  0.00    -0.164 A  
HETATM   28 CL   UNL     1      -7.264  10.820  65.976  1.00  0.00    -0.129 Cl 
HETATM   29  C   UNL     1      -9.120  11.224  67.977  1.00  0.00    -0.156 A  
HETATM   30 CL   UNL     1      -7.781  11.372  69.080  1.00  0.00    -0.103 Cl 
ENDBRANCH  18  23
ENDBRANCH   9  11
ENDBRANCH   8   9
ENDBRANCH   7   8
ENDBRANCH   6   7
ENDBRANCH   4   6
ENDBRANCH   3   4
ENDBRANCH   2   3
TORSDOF 10
ENDMDL
MODEL      179
REMARK 921   NORMALIZED FREE ENERGY PREDICTED BY IDOCK:   -3.38 KCAL/MOL
REMARK 922        TOTAL FREE ENERGY PREDICTED BY IDOCK:   -6.76 KCAL/MOL
REMARK 923 INTER-LIGAND FREE ENERGY PREDICTED BY IDOCK:   -5.52 KCAL/MOL
REMARK 924 INTRA-LIGAND FREE ENERGY PREDICTED BY IDOCK:   -1.24 KCAL/MOL
REMARK 927      BINDING AFFINITY PREDICTED BY RF-SCORE:    0.00 PKD
ROOT
HETATM    1  C   UNL     1     -11.487  16.049  64.337  1.00  0.00    -0.246 C  
HETATM    2  C   UNL     1     -10.878  14.967  65.213  1.00  0.00    -0.399 C  
ENDROOT
BRANCH   2   3
HETATM    3  C   UNL     1      -9.738  15.518  66.058  1.00  0.00    -0.378 C  
BRANCH   3   4
HETATM    4  C   UNL     1     -10.116  15.596  67.516  1.00  0.00    -0.253 C  
HETATM    5  O   UNL     1     -11.111  16.149  67.963  1.00  0.00    -0.342 OA 
BRANCH   4   6
HETATM    6  O   UNL     1      -9.208  14.901  68.241  1.00  0.00    -0.177 OA 
BRANCH   6   7
HETATM    7  C   UNL     1      -8.120  14.368  67.500  1.00  0.00    -0.190 C  
BRANCH   7   8
HETATM    8  O   UNL     1      -8.104  12.955  67.302  1.00  0.00    -0.176 OA 
BRANCH   8   9
HETATM    9  C   UNL     1      -6.949  12.309  67.547  1.00  0.00    -0.142 C  
HETATM   10  O   UNL     1      -5.909  12.496  66.939  1.00  0.00    -0.304 OA 
BRANCH   9  11
HETATM   11  C   UNL     1      -7.159  11.204  68.541  1.00  0.00    -0.080 C  
HETATM   12  C   UNL     1      -6.540  11.130  69.749  1.00  0.00    -0.138 C  
HETATM   13  N   UNL     1      -6.933  10.163  70.657  1.00  0.00    -0.329 NA 
HETATM   14  C   UNL     1      -5.425  12.000  70.294  1.00  0.00    -0.133 C  
HETATM   15  C   UNL     1      -7.803   9.125  70.403  1.00  0.00    -0.133 C  
HETATM   16  C   UNL     1      -8.461   9.067  69.223  1.00  0.00    -0.128 C  
HETATM   17  C   UNL     1      -7.931   8.116  71.520  1.00  0.00    -0.135 C  
HETATM   18  C   UNL     1      -8.284  10.187  68.175  1.00  0.00    -0.113 C  
BRANCH  16  19
HETATM   19  C   UNL     1      -9.309   7.877  68.935  1.00  0.00    -0.150 C  
HETATM   20  O   UNL     1      -8.916   6.874  68.358  1.00  0.00    -0.123 OA 
BRANCH  19  21
HETATM   21  O   UNL     1     -10.584   8.058  69.364  1.00  0.00    -0.229 OA 
HETATM   22  C   UNL     1     -11.156   6.894  69.967  1.00  0.00    -0.299 C  
ENDBRANCH  19  21
ENDBRANCH  16  19
BRANCH  18  23
HETATM   23  C   UNL     1      -8.128   9.612  66.759  1.00  0.00    -0.113 A  
HETATM   24  C   UNL     1      -9.123   9.896  65.805  1.00  0.00    -0.208 A  
HETATM   25  C   UNL     1      -9.021   9.420  64.501  1.00  0.00    -0.227 A  
HETATM   26  C   UNL     1      -7.914   8.656  64.119  1.00  0.00    -0.149 A  
HETATM   27  C   UNL     1      -6.920   8.350  65.053  1.00  0.00    -0.074 A  
HETATM   28 CL   UNL     1      -5.584   7.399  64.492  1.00  0.00    -0.033 Cl 
HETATM   29  C   UNL     1      -7.017   8.820  66.373  1.00  0.00    -0.082 A  
HETATM   30 CL   UNL     1      -5.758   8.427  67.511  1.00  0.00    -0.039 Cl 
ENDBRANCH  18  23
ENDBRANCH   9  11
ENDBRANCH   8   9
ENDBRANCH   7   8
ENDBRANCH   6   7
ENDBRANCH   4   6
ENDBRANCH   3   4
ENDBRANCH   2   3
TORSDOF 10
ENDMDL
MODEL      180
REMARK 921   NORMALIZED FREE ENERGY PREDICTED BY IDOCK:   -3.36 KCAL/MOL
REMARK 922        TOTAL FREE ENERGY PREDICTED BY IDOCK:   -6.73 KCAL/MOL
REMARK 923 INTER-LIGAND FREE ENERGY PREDICTED BY IDOCK:   -4.59 KCAL/MOL
REMARK 924 INTRA-LIGAND FREE ENERGY PREDICTED BY IDOCK:   -2.13 KCAL/MOL
REMARK 927      BINDING AFFINITY PREDICTED BY RF-SCORE:    0.00 PKD
ROOT
HETATM    1  C   UNL     1     -11.349   6.740  72.551  1.00  0.00    -0.292 C  
HETATM    2  C   UNL     1     -11.081   6.020  71.240  1.00  0.00    -0.337 C  
ENDROOT
BRANCH   2   3
HETATM    3  C   UNL     1      -9.658   5.483  71.187  1.00  0.00    -0.207 C  
BRANCH   3   4
HETATM    4  C   UNL     1      -9.587   4.174  70.440  1.00  0.00    -0.196 C  
HETATM    5  O   UNL     1      -9.030   3.160  70.836  1.00  0.00    -0.079 OA 
BRANCH   4   6
HETATM    6  O   UNL     1     -10.292   4.288  69.290  1.00  0.00     0.144 OA 
BRANCH   6   7
HETATM    7  C   UNL     1      -9.527   4.184  68.098  1.00  0.00    -0.158 C  
BRANCH   7   8
HETATM    8  O   UNL     1      -8.814   5.349  67.684  1.00  0.00    -0.107 OA 
BRANCH   8   9
HETATM    9  C   UNL     1      -9.483   6.255  66.947  1.00  0.00    -0.138 C  
HETATM   10  O   UNL     1     -10.665   6.173  66.655  1.00  0.00    -0.273 OA 
BRANCH   9  11
HETATM   11  C   UNL     1      -8.543   7.280  66.383  1.00  0.00    -0.141 C  
HETATM   12  C   UNL     1      -7.581   7.014  65.460  1.00  0.00    -0.091 C  
HETATM   13  N   UNL     1      -6.884   8.059  64.882  1.00  0.00    -0.058 NA 
HETATM   14  C   UNL     1      -7.133   5.669  64.925  1.00  0.00    -0.060 C  
HETATM   15  C   UNL     1      -6.945   9.380  65.269  1.00  0.00    -0.091 C  
HETATM   16  C   UNL     1      -7.840   9.770  66.204  1.00  0.00    -0.107 C  
HETATM   17  C   UNL     1      -5.957  10.291  64.580  1.00  0.00    -0.132 C  
HETATM   18  C   UNL     1      -8.835   8.753  66.804  1.00  0.00    -0.147 C  
BRANCH  16  19
HETATM   19  C   UNL     1      -7.808  11.182  66.681  1.00  0.00    -0.155 C  
HETATM   20  O   UNL     1      -8.640  12.027  66.386  1.00  0.00    -0.145 OA 
BRANCH  19  21
HETATM   21  O   UNL     1      -6.721  11.421  67.456  1.00  0.00    -0.067 OA 
HETATM   22  C   UNL     1      -6.479  12.812  67.688  1.00  0.00    -0.152 C  
ENDBRANCH  19  21
ENDBRANCH  16  19
BRANCH  18  23
HETATM   23  C   UNL     1      -8.962   8.922  68.326  1.00  0.00    -0.137 A  
HETATM   24  C   UNL     1      -7.918   8.452  69.144  1.00  0.00    -0.110 A  
HETATM   25  C   UNL     1      -7.970   8.599  70.527  1.00  0.00    -0.107 A  
HETATM   26  C   UNL     1      -9.065   9.232  71.123  1.00  0.00    -0.197 A  
HETATM   27  C   UNL     1     -10.121   9.695  70.332  1.00  0.00    -0.276 A  
HETATM   28 CL   UNL     1     -11.436  10.467  71.156  1.00  0.00    -0.331 Cl 
HETATM   29  C   UNL     1     -10.081   9.545  68.937  1.00  0.00    -0.188 A  
HETATM   30 CL   UNL     1     -11.408  10.139  67.978  1.00  0.00    -0.259 Cl 
ENDBRANCH  18  23
ENDBRANCH   9  11
ENDBRANCH   8   9
ENDBRANCH   7   8
ENDBRANCH   6   7
ENDBRANCH   4   6
ENDBRANCH   3   4
ENDBRANCH   2   3
TORSDOF 10
ENDMDL
MODEL      181
REMARK 921   NORMALIZED FREE ENERGY PREDICTED BY IDOCK:   -3.35 KCAL/MOL
REMARK 922        TOTAL FREE ENERGY PREDICTED BY IDOCK:   -6.72 KCAL/MOL
REMARK 923 INTER-LIGAND FREE ENERGY PREDICTED BY IDOCK:   -5.78 KCAL/MOL
REMARK 924 INTRA-LIGAND FREE ENERGY PREDICTED BY IDOCK:   -0.93 KCAL/MOL
REMARK 927      BINDING AFFINITY PREDICTED BY RF-SCORE:    0.00 PKD
ROOT
HETATM    1  C   UNL     1     -13.512  12.746  71.965  1.00  0.00    -0.540 C  
HETATM    2  C   UNL     1     -12.419  12.397  70.969  1.00  0.00    -0.353 C  
ENDROOT
BRANCH   2   3
HETATM    3  C   UNL     1     -12.644  11.019  70.364  1.00  0.00    -0.349 C  
BRANCH   3   4
HETATM    4  C   UNL     1     -12.824   9.968  71.432  1.00  0.00    -0.417 C  
HETATM    5  O   UNL     1     -13.897   9.537  71.831  1.00  0.00    -0.340 OA 
BRANCH   4   6
HETATM    6  O   UNL     1     -11.604   9.535  71.830  1.00  0.00    -0.385 OA 
BRANCH   6   7
HETATM    7  C   UNL     1     -10.646   9.387  70.792  1.00  0.00    -0.303 C  
BRANCH   7   8
HETATM    8  O   UNL     1     -10.723   8.198  70.006  1.00  0.00    -0.240 OA 
BRANCH   8   9
HETATM    9  C   UNL     1     -11.037   7.054  70.643  1.00  0.00    -0.272 C  
HETATM   10  O   UNL     1     -12.167   6.609  70.750  1.00  0.00    -0.378 OA 
BRANCH   9  11
HETATM   11  C   UNL     1      -9.839   6.499  71.357  1.00  0.00    -0.191 C  
HETATM   12  C   UNL     1      -9.677   6.510  72.707  1.00  0.00    -0.157 C  
HETATM   13  N   UNL     1      -8.618   5.821  73.270  1.00  0.00    -0.119 NA 
HETATM   14  C   UNL     1     -10.532   7.193  73.755  1.00  0.00    -0.371 C  
HETATM   15  C   UNL     1      -7.578   5.237  72.582  1.00  0.00    -0.097 C  
HETATM   16  C   UNL     1      -7.605   5.189  71.230  1.00  0.00    -0.095 C  
HETATM   17  C   UNL     1      -6.468   4.692  73.448  1.00  0.00    -0.051 C  
HETATM   18  C   UNL     1      -8.821   5.737  70.454  1.00  0.00    -0.146 C  
BRANCH  16  19
HETATM   19  C   UNL     1      -6.417   4.649  70.510  1.00  0.00    -0.030 C  
HETATM   20  O   UNL     1      -5.370   5.260  70.356  1.00  0.00    -0.004 OA 
BRANCH  19  21
HETATM   21  O   UNL     1      -6.654   3.408  70.017  1.00  0.00    -0.032 OA 
HETATM   22  C   UNL     1      -5.592   2.482  70.263  1.00  0.00    -0.017 C  
ENDBRANCH  19  21
ENDBRANCH  16  19
BRANCH  18  23
HETATM   23  C   UNL     1      -8.384   6.556  69.230  1.00  0.00    -0.123 A  
HETATM   24  C   UNL     1      -7.688   7.762  69.441  1.00  0.00    -0.106 A  
HETATM   25  C   UNL     1      -7.249   8.532  68.369  1.00  0.00    -0.085 A  
HETATM   26  C   UNL     1      -7.485   8.107  67.058  1.00  0.00    -0.088 A  
HETATM   27  C   UNL     1      -8.185   6.920  66.823  1.00  0.00    -0.114 A  
HETATM   28 CL   UNL     1      -8.431   6.470  65.167  1.00  0.00    -0.098 Cl 
HETATM   29  C   UNL     1      -8.639   6.139  67.898  1.00  0.00    -0.114 A  
HETATM   30 CL   UNL     1      -9.502   4.661  67.573  1.00  0.00    -0.165 Cl 
ENDBRANCH  18  23
ENDBRANCH   9  11
ENDBRANCH   8   9
ENDBRANCH   7   8
ENDBRANCH   6   7
ENDBRANCH   4   6
ENDBRANCH   3   4
ENDBRANCH   2   3
TORSDOF 10
ENDMDL
MODEL      182
REMARK 921   NORMALIZED FREE ENERGY PREDICTED BY IDOCK:   -3.35 KCAL/MOL
REMARK 922        TOTAL FREE ENERGY PREDICTED BY IDOCK:   -6.70 KCAL/MOL
REMARK 923 INTER-LIGAND FREE ENERGY PREDICTED BY IDOCK:   -5.65 KCAL/MOL
REMARK 924 INTRA-LIGAND FREE ENERGY PREDICTED BY IDOCK:   -1.06 KCAL/MOL
REMARK 927      BINDING AFFINITY PREDICTED BY RF-SCORE:    0.00 PKD
ROOT
HETATM    1  C   UNL     1      -5.489  15.835  70.218  1.00  0.00    -0.156 C  
HETATM    2  C   UNL     1      -5.344  16.195  68.750  1.00  0.00    -0.111 C  
ENDROOT
BRANCH   2   3
HETATM    3  C   UNL     1      -6.588  16.902  68.230  1.00  0.00    -0.147 C  
BRANCH   3   4
HETATM    4  C   UNL     1      -6.476  17.210  66.757  1.00  0.00    -0.219 C  
HETATM    5  O   UNL     1      -5.850  18.142  66.272  1.00  0.00    -0.152 OA 
BRANCH   4   6
HETATM    6  O   UNL     1      -7.128  16.251  66.059  1.00  0.00     0.239 OA 
BRANCH   6   7
HETATM    7  C   UNL     1      -8.543  16.367  66.046  1.00  0.00    -0.211 C  
BRANCH   7   8
HETATM    8  O   UNL     1      -9.272  15.329  65.392  1.00  0.00    -0.024 OA 
BRANCH   8   9
HETATM    9  C   UNL     1     -10.604  15.295  65.578  1.00  0.00    -0.373 C  
HETATM   10  O   UNL     1     -11.427  15.674  64.762  1.00  0.00    -0.366 OA 
BRANCH   9  11
HETATM   11  C   UNL     1     -10.933  14.902  66.989  1.00  0.00    -0.327 C  
HETATM   12  C   UNL     1     -11.115  15.782  68.009  1.00  0.00    -0.337 C  
HETATM   13  N   UNL     1     -11.582  15.324  69.228  1.00  0.00    -0.311 NA 
HETATM   14  C   UNL     1     -10.882  17.280  68.017  1.00  0.00    -0.297 C  
HETATM   15  C   UNL     1     -11.735  14.003  69.588  1.00  0.00    -0.311 C  
HETATM   16  C   UNL     1     -11.552  13.027  68.671  1.00  0.00    -0.354 C  
HETATM   17  C   UNL     1     -12.104  13.778  71.035  1.00  0.00    -0.324 C  
HETATM   18  C   UNL     1     -11.223  13.384  67.205  1.00  0.00    -0.325 C  
BRANCH  16  19
HETATM   19  C   UNL     1     -11.617  11.606  69.115  1.00  0.00    -0.314 C  
HETATM   20  O   UNL     1     -10.651  10.955  69.483  1.00  0.00    -0.229 OA 
BRANCH  19  21
HETATM   21  O   UNL     1     -12.879  11.115  69.028  1.00  0.00    -0.055 OA 
HETATM   22  C   UNL     1     -13.156  10.079  69.976  1.00  0.00     0.503 C  
ENDBRANCH  19  21
ENDBRANCH  16  19
BRANCH  18  23
HETATM   23  C   UNL     1     -10.116  12.481  66.641  1.00  0.00    -0.241 A  
HETATM   24  C   UNL     1     -10.414  11.662  65.536  1.00  0.00    -0.321 A  
HETATM   25  C   UNL     1      -9.443  10.841  64.971  1.00  0.00    -0.286 A  
HETATM   26  C   UNL     1      -8.145  10.830  65.492  1.00  0.00    -0.084 A  
HETATM   27  C   UNL     1      -7.829  11.625  66.598  1.00  0.00    -0.083 A  
HETATM   28 CL   UNL     1      -6.197  11.549  67.176  1.00  0.00    -0.106 Cl 
HETATM   29  C   UNL     1      -8.804  12.452  67.180  1.00  0.00    -0.197 A  
HETATM   30 CL   UNL     1      -8.377  13.436  68.551  1.00  0.00    -0.127 Cl 
ENDBRANCH  18  23
ENDBRANCH   9  11
ENDBRANCH   8   9
ENDBRANCH   7   8
ENDBRANCH   6   7
ENDBRANCH   4   6
ENDBRANCH   3   4
ENDBRANCH   2   3
TORSDOF 10
ENDMDL
MODEL      183
REMARK 921   NORMALIZED FREE ENERGY PREDICTED BY IDOCK:   -3.32 KCAL/MOL
REMARK 922        TOTAL FREE ENERGY PREDICTED BY IDOCK:   -6.66 KCAL/MOL
REMARK 923 INTER-LIGAND FREE ENERGY PREDICTED BY IDOCK:   -5.24 KCAL/MOL
REMARK 924 INTRA-LIGAND FREE ENERGY PREDICTED BY IDOCK:   -1.42 KCAL/MOL
REMARK 927      BINDING AFFINITY PREDICTED BY RF-SCORE:    0.00 PKD
ROOT
HETATM    1  C   UNL     1     -11.918  13.095  63.440  1.00  0.00    -0.552 C  
HETATM    2  C   UNL     1     -11.197  12.362  64.559  1.00  0.00    -0.371 C  
ENDROOT
BRANCH   2   3
HETATM    3  C   UNL     1     -11.966  12.465  65.869  1.00  0.00    -0.434 C  
BRANCH   3   4
HETATM    4  C   UNL     1     -11.445  13.589  66.730  1.00  0.00    -0.346 C  
HETATM    5  O   UNL     1     -11.526  14.780  66.468  1.00  0.00    -0.352 OA 
BRANCH   4   6
HETATM    6  O   UNL     1     -10.932  13.066  67.869  1.00  0.00    -0.229 OA 
BRANCH   6   7
HETATM    7  C   UNL     1      -9.582  12.633  67.782  1.00  0.00    -0.197 C  
BRANCH   7   8
HETATM    8  O   UNL     1      -9.315  11.276  68.135  1.00  0.00    -0.167 OA 
BRANCH   8   9
HETATM    9  C   UNL     1      -8.031  10.935  68.355  1.00  0.00    -0.127 C  
HETATM   10  O   UNL     1      -7.186  11.683  68.817  1.00  0.00    -0.103 OA 
BRANCH   9  11
HETATM   11  C   UNL     1      -7.738   9.577  67.789  1.00  0.00    -0.088 C  
HETATM   12  C   UNL     1      -7.746   9.280  66.463  1.00  0.00    -0.093 C  
HETATM   13  N   UNL     1      -7.296   8.043  66.039  1.00  0.00    -0.072 NA 
HETATM   14  C   UNL     1      -8.190  10.149  65.303  1.00  0.00    -0.157 C  
HETATM   15  C   UNL     1      -6.979   6.978  66.854  1.00  0.00    -0.070 C  
HETATM   16  C   UNL     1      -6.965   7.135  68.197  1.00  0.00    -0.076 C  
HETATM   17  C   UNL     1      -6.672   5.690  66.127  1.00  0.00    -0.057 C  
HETATM   18  C   UNL     1      -7.249   8.517  68.824  1.00  0.00    -0.078 C  
BRANCH  16  19
HETATM   19  C   UNL     1      -6.726   5.940  69.055  1.00  0.00    -0.060 C  
HETATM   20  O   UNL     1      -7.554   5.067  69.264  1.00  0.00    -0.063 OA 
BRANCH  19  21
HETATM   21  O   UNL     1      -5.485   5.960  69.603  1.00  0.00    -0.008 OA 
HETATM   22  C   UNL     1      -5.481   5.751  71.018  1.00  0.00    -0.013 C  
ENDBRANCH  19  21
ENDBRANCH  16  19
BRANCH  18  23
HETATM   23  C   UNL     1      -8.180   8.401  70.040  1.00  0.00    -0.121 A  
HETATM   24  C   UNL     1      -7.718   8.862  71.288  1.00  0.00    -0.145 A  
HETATM   25  C   UNL     1      -8.527   8.802  72.418  1.00  0.00     0.006 A  
HETATM   26  C   UNL     1      -9.824   8.289  72.324  1.00  0.00    -0.364 A  
HETATM   27  C   UNL     1     -10.301   7.812  71.099  1.00  0.00    -0.200 A  
HETATM   28 CL   UNL     1     -11.920   7.194  71.075  1.00  0.00    -0.372 Cl 
HETATM   29  C   UNL     1      -9.489   7.862  69.954  1.00  0.00    -0.160 A  
HETATM   30 CL   UNL     1     -10.114   7.268  68.441  1.00  0.00    -0.175 Cl 
ENDBRANCH  18  23
ENDBRANCH   9  11
ENDBRANCH   8   9
ENDBRANCH   7   8
ENDBRANCH   6   7
ENDBRANCH   4   6
ENDBRANCH   3   4
ENDBRANCH   2   3
TORSDOF 10
ENDMDL
MODEL      184
REMARK 921   NORMALIZED FREE ENERGY PREDICTED BY IDOCK:   -3.30 KCAL/MOL
REMARK 922        TOTAL FREE ENERGY PREDICTED BY IDOCK:   -6.63 KCAL/MOL
REMARK 923 INTER-LIGAND FREE ENERGY PREDICTED BY IDOCK:   -5.23 KCAL/MOL
REMARK 924 INTRA-LIGAND FREE ENERGY PREDICTED BY IDOCK:   -1.40 KCAL/MOL
REMARK 927      BINDING AFFINITY PREDICTED BY RF-SCORE:    0.00 PKD
ROOT
HETATM    1  C   UNL     1     -12.210  14.086  66.603  1.00  0.00    -0.463 C  
HETATM    2  C   UNL     1     -11.843  12.885  65.748  1.00  0.00    -0.469 C  
ENDROOT
BRANCH   2   3
HETATM    3  C   UNL     1     -11.221  11.778  66.588  1.00  0.00    -0.383 C  
BRANCH   3   4
HETATM    4  C   UNL     1      -9.875  12.186  67.132  1.00  0.00    -0.197 C  
HETATM    5  O   UNL     1      -9.656  12.571  68.272  1.00  0.00    -0.213 OA 
BRANCH   4   6
HETATM    6  O   UNL     1      -8.939  11.997  66.172  1.00  0.00    -0.178 OA 
BRANCH   6   7
HETATM    7  C   UNL     1      -8.952  10.716  65.558  1.00  0.00    -0.191 C  
BRANCH   7   8
HETATM    8  O   UNL     1      -7.710  10.230  65.051  1.00  0.00    -0.140 OA 
BRANCH   8   9
HETATM    9  C   UNL     1      -7.007   9.391  65.834  1.00  0.00    -0.090 C  
HETATM   10  O   UNL     1      -5.953   9.671  66.378  1.00  0.00    -0.057 OA 
BRANCH   9  11
HETATM   11  C   UNL     1      -7.600   8.012  65.800  1.00  0.00    -0.083 C  
HETATM   12  C   UNL     1      -8.010   7.380  64.669  1.00  0.00    -0.127 C  
HETATM   13  N   UNL     1      -8.381   6.049  64.729  1.00  0.00    -0.120 NA 
HETATM   14  C   UNL     1      -8.120   7.937  63.263  1.00  0.00    -0.089 C  
HETATM   15  C   UNL     1      -8.543   5.308  65.879  1.00  0.00    -0.128 C  
HETATM   16  C   UNL     1      -8.201   5.835  67.076  1.00  0.00    -0.101 C  
HETATM   17  C   UNL     1      -9.115   3.927  65.670  1.00  0.00    -0.144 C  
HETATM   18  C   UNL     1      -7.577   7.245  67.159  1.00  0.00    -0.103 C  
BRANCH  16  19
HETATM   19  C   UNL     1      -8.488   5.053  68.311  1.00  0.00    -0.098 C  
HETATM   20  O   UNL     1      -7.631   4.585  69.045  1.00  0.00    -0.056 OA 
BRANCH  19  21
HETATM   21  O   UNL     1      -9.822   4.894  68.501  1.00  0.00    -0.152 OA 
HETATM   22  C   UNL     1     -10.229   5.054  69.863  1.00  0.00    -0.270 C  
ENDBRANCH  19  21
ENDBRANCH  16  19
BRANCH  18  23
HETATM   23  C   UNL     1      -8.182   8.061  68.311  1.00  0.00    -0.123 A  
HETATM   24  C   UNL     1      -7.353   8.421  69.390  1.00  0.00    -0.070 A  
HETATM   25  C   UNL     1      -7.843   9.177  70.449  1.00  0.00    -0.140 A  
HETATM   26  C   UNL     1      -9.175   9.603  70.449  1.00  0.00    -0.258 A  
HETATM   27  C   UNL     1     -10.023   9.246  69.396  1.00  0.00    -0.181 A  
HETATM   28 CL   UNL     1     -11.657   9.817  69.478  1.00  0.00    -0.059 Cl 
HETATM   29  C   UNL     1      -9.539   8.477  68.325  1.00  0.00    -0.144 A  
HETATM   30 CL   UNL     1     -10.617   8.055  67.024  1.00  0.00    -0.405 Cl 
ENDBRANCH  18  23
ENDBRANCH   9  11
ENDBRANCH   8   9
ENDBRANCH   7   8
ENDBRANCH   6   7
ENDBRANCH   4   6
ENDBRANCH   3   4
ENDBRANCH   2   3
TORSDOF 10
ENDMDL
MODEL      185
REMARK 921   NORMALIZED FREE ENERGY PREDICTED BY IDOCK:   -3.30 KCAL/MOL
REMARK 922        TOTAL FREE ENERGY PREDICTED BY IDOCK:   -6.63 KCAL/MOL
REMARK 923 INTER-LIGAND FREE ENERGY PREDICTED BY IDOCK:   -5.42 KCAL/MOL
REMARK 924 INTRA-LIGAND FREE ENERGY PREDICTED BY IDOCK:   -1.21 KCAL/MOL
REMARK 927      BINDING AFFINITY PREDICTED BY RF-SCORE:    0.00 PKD
ROOT
HETATM    1  C   UNL     1     -13.070  13.995  64.957  1.00  0.00    -0.008 C  
HETATM    2  C   UNL     1     -11.592  13.745  64.711  1.00  0.00    -0.377 C  
ENDROOT
BRANCH   2   3
HETATM    3  C   UNL     1     -11.300  12.257  64.571  1.00  0.00    -0.385 C  
BRANCH   3   4
HETATM    4  C   UNL     1     -11.096  11.603  65.915  1.00  0.00    -0.264 C  
HETATM    5  O   UNL     1     -11.694  11.890  66.942  1.00  0.00    -0.541 OA 
BRANCH   4   6
HETATM    6  O   UNL     1     -10.187  10.608  65.783  1.00  0.00    -0.253 OA 
BRANCH   6   7
HETATM    7  C   UNL     1      -9.033  10.729  66.601  1.00  0.00    -0.153 C  
BRANCH   7   8
HETATM    8  O   UNL     1      -8.971   9.899  67.760  1.00  0.00    -0.131 OA 
BRANCH   8   9
HETATM    9  C   UNL     1      -8.989  10.508  68.960  1.00  0.00    -0.176 C  
HETATM   10  O   UNL     1      -9.600  11.534  69.206  1.00  0.00     0.090 OA 
BRANCH   9  11
HETATM   11  C   UNL     1      -8.012   9.861  69.898  1.00  0.00    -0.193 C  
HETATM   12  C   UNL     1      -6.668  10.056  69.862  1.00  0.00    -0.099 C  
HETATM   13  N   UNL     1      -5.878   9.547  70.877  1.00  0.00    -0.058 NA 
HETATM   14  C   UNL     1      -5.849  10.799  68.825  1.00  0.00    -0.040 C  
HETATM   15  C   UNL     1      -6.298   8.693  71.874  1.00  0.00    -0.073 C  
HETATM   16  C   UNL     1      -7.611   8.393  71.998  1.00  0.00    -0.152 C  
HETATM   17  C   UNL     1      -5.197   8.157  72.757  1.00  0.00    -0.037 C  
HETATM   18  C   UNL     1      -8.653   9.044  71.063  1.00  0.00    -0.264 C  
BRANCH  16  19
HETATM   19  C   UNL     1      -8.020   7.384  73.015  1.00  0.00    -0.104 C  
HETATM   20  O   UNL     1      -8.280   7.646  74.180  1.00  0.00    -0.169 OA 
BRANCH  19  21
HETATM   21  O   UNL     1      -8.036   6.130  72.495  1.00  0.00    -0.104 OA 
HETATM   22  C   UNL     1      -7.625   5.121  73.422  1.00  0.00    -0.096 C  
ENDBRANCH  19  21
ENDBRANCH  16  19
BRANCH  18  23
HETATM   23  C   UNL     1      -9.685   8.018  70.572  1.00  0.00    -0.179 A  
HETATM   24  C   UNL     1      -9.279   7.051  69.633  1.00  0.00    -0.146 A  
HETATM   25  C   UNL     1     -10.166   6.085  69.171  1.00  0.00    -0.258 A  
HETATM   26  C   UNL     1     -11.481   6.055  69.648  1.00  0.00    -0.179 A  
HETATM   27  C   UNL     1     -11.912   7.013  70.571  1.00  0.00    -0.266 A  
HETATM   28 CL   UNL     1     -13.555   6.901  71.107  1.00  0.00    -0.195 Cl 
HETATM   29  C   UNL     1     -11.025   7.997  71.038  1.00  0.00    -0.241 A  
HETATM   30 CL   UNL     1     -11.589   9.172  72.193  1.00  0.00    -0.366 Cl 
ENDBRANCH  18  23
ENDBRANCH   9  11
ENDBRANCH   8   9
ENDBRANCH   7   8
ENDBRANCH   6   7
ENDBRANCH   4   6
ENDBRANCH   3   4
ENDBRANCH   2   3
TORSDOF 10
ENDMDL
MODEL      186
REMARK 921   NORMALIZED FREE ENERGY PREDICTED BY IDOCK:   -3.29 KCAL/MOL
REMARK 922        TOTAL FREE ENERGY PREDICTED BY IDOCK:   -6.61 KCAL/MOL
REMARK 923 INTER-LIGAND FREE ENERGY PREDICTED BY IDOCK:   -4.96 KCAL/MOL
REMARK 924 INTRA-LIGAND FREE ENERGY PREDICTED BY IDOCK:   -1.66 KCAL/MOL
REMARK 927      BINDING AFFINITY PREDICTED BY RF-SCORE:    0.00 PKD
ROOT
HETATM    1  C   UNL     1      -9.221   4.133  69.857  1.00  0.00    -0.211 C  
HETATM    2  C   UNL     1      -8.978   3.308  68.605  1.00  0.00    -0.185 C  
ENDROOT
BRANCH   2   3
HETATM    3  C   UNL     1      -7.533   3.423  68.141  1.00  0.00    -0.054 C  
BRANCH   3   4
HETATM    4  C   UNL     1      -7.417   4.261  66.892  1.00  0.00    -0.081 C  
HETATM    5  O   UNL     1      -7.951   4.014  65.819  1.00  0.00    -0.096 OA 
BRANCH   4   6
HETATM    6  O   UNL     1      -6.677   5.360  67.169  1.00  0.00    -0.055 OA 
BRANCH   6   7
HETATM    7  C   UNL     1      -7.347   6.600  66.994  1.00  0.00    -0.082 C  
BRANCH   7   8
HETATM    8  O   UNL     1      -8.338   6.942  67.963  1.00  0.00    -0.120 OA 
BRANCH   8   9
HETATM    9  C   UNL     1      -7.990   7.823  68.919  1.00  0.00    -0.124 C  
HETATM   10  O   UNL     1      -7.057   7.675  69.690  1.00  0.00    -0.060 OA 
BRANCH   9  11
HETATM   11  C   UNL     1      -9.011   8.918  69.029  1.00  0.00    -0.137 C  
HETATM   12  C   UNL     1     -10.219   8.784  69.637  1.00  0.00    -0.210 C  
HETATM   13  N   UNL     1     -11.011   9.901  69.831  1.00  0.00    -0.264 NA 
HETATM   14  C   UNL     1     -10.869   7.526  70.177  1.00  0.00    -0.259 C  
HETATM   15  C   UNL     1     -10.776  11.156  69.314  1.00  0.00    -0.199 C  
HETATM   16  C   UNL     1      -9.621  11.412  68.658  1.00  0.00    -0.179 C  
HETATM   17  C   UNL     1     -11.885  12.155  69.542  1.00  0.00    -0.386 C  
HETATM   18  C   UNL     1      -8.538  10.319  68.531  1.00  0.00    -0.126 C  
BRANCH  16  19
HETATM   19  C   UNL     1      -9.443  12.744  68.017  1.00  0.00    -0.213 C  
HETATM   20  O   UNL     1      -8.672  13.603  68.417  1.00  0.00    -0.176 OA 
BRANCH  19  21
HETATM   21  O   UNL     1     -10.270  12.900  66.952  1.00  0.00    -0.237 OA 
HETATM   22  C   UNL     1     -10.948  14.159  66.933  1.00  0.00    -0.300 C  
ENDBRANCH  19  21
ENDBRANCH  16  19
BRANCH  18  23
HETATM   23  C   UNL     1      -7.946  10.278  67.114  1.00  0.00    -0.114 A  
HETATM   24  C   UNL     1      -6.583  10.588  66.945  1.00  0.00    -0.081 A  
HETATM   25  C   UNL     1      -5.990  10.544  65.687  1.00  0.00    -0.130 A  
HETATM   26  C   UNL     1      -6.745  10.177  64.569  1.00  0.00    -0.117 A  
HETATM   27  C   UNL     1      -8.103   9.878  64.710  1.00  0.00    -0.151 A  
HETATM   28 CL   UNL     1      -8.961   9.432  63.271  1.00  0.00    -0.216 Cl 
HETATM   29  C   UNL     1      -8.713   9.926  65.974  1.00  0.00    -0.137 A  
HETATM   30 CL   UNL     1     -10.405   9.540  66.118  1.00  0.00    -0.257 Cl 
ENDBRANCH  18  23
ENDBRANCH   9  11
ENDBRANCH   8   9
ENDBRANCH   7   8
ENDBRANCH   6   7
ENDBRANCH   4   6
ENDBRANCH   3   4
ENDBRANCH   2   3
TORSDOF 10
ENDMDL
MODEL      187
REMARK 921   NORMALIZED FREE ENERGY PREDICTED BY IDOCK:   -3.29 KCAL/MOL
REMARK 922        TOTAL FREE ENERGY PREDICTED BY IDOCK:   -6.61 KCAL/MOL
REMARK 923 INTER-LIGAND FREE ENERGY PREDICTED BY IDOCK:   -5.10 KCAL/MOL
REMARK 924 INTRA-LIGAND FREE ENERGY PREDICTED BY IDOCK:   -1.51 KCAL/MOL
REMARK 927      BINDING AFFINITY PREDICTED BY RF-SCORE:    0.00 PKD
ROOT
HETATM    1  C   UNL     1     -10.361  11.445  63.438  1.00  0.00    -0.458 C  
HETATM    2  C   UNL     1      -9.566  10.374  62.711  1.00  0.00    -0.311 C  
ENDROOT
BRANCH   2   3
HETATM    3  C   UNL     1      -8.665   9.610  63.670  1.00  0.00    -0.240 C  
BRANCH   3   4
HETATM    4  C   UNL     1      -7.208   9.909  63.420  1.00  0.00    -0.131 C  
HETATM    5  O   UNL     1      -6.759  10.478  62.435  1.00  0.00    -0.135 OA 
BRANCH   4   6
HETATM    6  O   UNL     1      -6.487   9.502  64.492  1.00  0.00    -0.085 OA 
BRANCH   6   7
HETATM    7  C   UNL     1      -7.204   8.733  65.447  1.00  0.00    -0.084 C  
BRANCH   7   8
HETATM    8  O   UNL     1      -7.037   9.089  66.819  1.00  0.00    -0.080 OA 
BRANCH   8   9
HETATM    9  C   UNL     1      -8.115   9.563  67.471  1.00  0.00    -0.110 C  
HETATM   10  O   UNL     1      -8.940  10.319  66.985  1.00  0.00    -0.136 OA 
BRANCH   9  11
HETATM   11  C   UNL     1      -8.067   9.185  68.922  1.00  0.00    -0.100 C  
HETATM   12  C   UNL     1      -7.415   9.896  69.880  1.00  0.00    -0.154 C  
HETATM   13  N   UNL     1      -7.576   9.554  71.210  1.00  0.00    -0.291 NA 
HETATM   14  C   UNL     1      -6.490  11.085  69.708  1.00  0.00    -0.137 C  
HETATM   15  C   UNL     1      -8.219   8.430  71.681  1.00  0.00    -0.152 C  
HETATM   16  C   UNL     1      -8.880   7.620  70.824  1.00  0.00    -0.144 C  
HETATM   17  C   UNL     1      -8.107   8.212  73.171  1.00  0.00    -0.237 C  
HETATM   18  C   UNL     1      -8.967   7.976  69.324  1.00  0.00    -0.148 C  
BRANCH  16  19
HETATM   19  C   UNL     1      -9.473   6.357  71.346  1.00  0.00    -0.155 C  
HETATM   20  O   UNL     1      -8.892   5.282  71.368  1.00  0.00    -0.131 OA 
BRANCH  19  21
HETATM   21  O   UNL     1     -10.750   6.541  71.764  1.00  0.00    -0.219 OA 
HETATM   22  C   UNL     1     -11.722   6.352  70.731  1.00  0.00    -0.312 C  
ENDBRANCH  19  21
ENDBRANCH  16  19
BRANCH  18  23
HETATM   23  C   UNL     1      -8.732   6.741  68.440  1.00  0.00    -0.123 A  
HETATM   24  C   UNL     1      -7.539   6.013  68.604  1.00  0.00    -0.091 A  
HETATM   25  C   UNL     1      -7.284   4.875  67.846  1.00  0.00    -0.070 A  
HETATM   26  C   UNL     1      -8.226   4.430  66.913  1.00  0.00    -0.102 A  
HETATM   27  C   UNL     1      -9.413   5.144  66.722  1.00  0.00    -0.141 A  
HETATM   28 CL   UNL     1     -10.522   4.520  65.546  1.00  0.00    -0.283 Cl 
HETATM   29  C   UNL     1      -9.676   6.298  67.477  1.00  0.00    -0.117 A  
HETATM   30 CL   UNL     1     -11.166   7.161  67.223  1.00  0.00    -0.221 Cl 
ENDBRANCH  18  23
ENDBRANCH   9  11
ENDBRANCH   8   9
ENDBRANCH   7   8
ENDBRANCH   6   7
ENDBRANCH   4   6
ENDBRANCH   3   4
ENDBRANCH   2   3
TORSDOF 10
ENDMDL
MODEL      188
REMARK 921   NORMALIZED FREE ENERGY PREDICTED BY IDOCK:   -3.27 KCAL/MOL
REMARK 922        TOTAL FREE ENERGY PREDICTED BY IDOCK:   -6.58 KCAL/MOL
REMARK 923 INTER-LIGAND FREE ENERGY PREDICTED BY IDOCK:   -5.90 KCAL/MOL
REMARK 924 INTRA-LIGAND FREE ENERGY PREDICTED BY IDOCK:   -0.68 KCAL/MOL
REMARK 927      BINDING AFFINITY PREDICTED BY RF-SCORE:    0.00 PKD
ROOT
HETATM    1  C   UNL     1     -14.398   8.203  71.680  1.00  0.00    -0.570 C  
HETATM    2  C   UNL     1     -13.001   8.768  71.873  1.00  0.00    -0.421 C  
ENDROOT
BRANCH   2   3
HETATM    3  C   UNL     1     -12.997  10.284  71.745  1.00  0.00    -0.574 C  
BRANCH   3   4
HETATM    4  C   UNL     1     -11.931  10.757  70.788  1.00  0.00    -0.362 C  
HETATM    5  O   UNL     1     -11.960  11.801  70.153  1.00  0.00    -0.322 OA 
BRANCH   4   6
HETATM    6  O   UNL     1     -10.911   9.867  70.795  1.00  0.00    -0.309 OA 
BRANCH   6   7
HETATM    7  C   UNL     1     -11.022   8.810  69.853  1.00  0.00    -0.179 C  
BRANCH   7   8
HETATM    8  O   UNL     1     -10.241   8.919  68.664  1.00  0.00    -0.190 OA 
BRANCH   8   9
HETATM    9  C   UNL     1      -9.022   8.348  68.669  1.00  0.00    -0.140 C  
HETATM   10  O   UNL     1      -7.974   8.952  68.514  1.00  0.00    -0.101 OA 
BRANCH   9  11
HETATM   11  C   UNL     1      -9.137   6.852  68.708  1.00  0.00    -0.133 C  
HETATM   12  C   UNL     1      -9.790   6.108  67.777  1.00  0.00    -0.123 C  
HETATM   13  N   UNL     1      -9.690   4.729  67.815  1.00  0.00    -0.157 NA 
HETATM   14  C   UNL     1     -10.655   6.582  66.626  1.00  0.00    -0.241 C  
HETATM   15  C   UNL     1      -9.114   3.990  68.825  1.00  0.00    -0.134 C  
HETATM   16  C   UNL     1      -8.459   4.614  69.831  1.00  0.00    -0.089 C  
HETATM   17  C   UNL     1      -9.287   2.495  68.697  1.00  0.00    -0.242 C  
HETATM   18  C   UNL     1      -8.306   6.151  69.827  1.00  0.00    -0.124 C  
BRANCH  16  19
HETATM   19  C   UNL     1      -7.942   3.797  70.963  1.00  0.00    -0.062 C  
HETATM   20  O   UNL     1      -6.760   3.555  71.154  1.00  0.00    -0.030 OA 
BRANCH  19  21
HETATM   21  O   UNL     1      -8.950   3.325  71.740  1.00  0.00    -0.090 OA 
HETATM   22  C   UNL     1      -8.608   2.140  72.464  1.00  0.00    -0.062 C  
ENDBRANCH  19  21
ENDBRANCH  16  19
BRANCH  18  23
HETATM   23  C   UNL     1      -8.564   6.744  71.219  1.00  0.00    -0.125 A  
HETATM   24  C   UNL     1      -9.826   6.548  71.811  1.00  0.00    -0.178 A  
HETATM   25  C   UNL     1     -10.107   7.045  73.080  1.00  0.00    -0.242 A  
HETATM   26  C   UNL     1      -9.126   7.741  73.793  1.00  0.00    -0.333 A  
HETATM   27  C   UNL     1      -7.869   7.960  73.221  1.00  0.00    -0.148 A  
HETATM   28 CL   UNL     1      -6.715   8.830  74.176  1.00  0.00    -0.097 Cl 
HETATM   29  C   UNL     1      -7.578   7.469  71.938  1.00  0.00    -0.084 A  
HETATM   30 CL   UNL     1      -6.001   7.751  71.256  1.00  0.00    -0.035 Cl 
ENDBRANCH  18  23
ENDBRANCH   9  11
ENDBRANCH   8   9
ENDBRANCH   7   8
ENDBRANCH   6   7
ENDBRANCH   4   6
ENDBRANCH   3   4
ENDBRANCH   2   3
TORSDOF 10
ENDMDL
MODEL      189
REMARK 921   NORMALIZED FREE ENERGY PREDICTED BY IDOCK:   -3.26 KCAL/MOL
REMARK 922        TOTAL FREE ENERGY PREDICTED BY IDOCK:   -6.57 KCAL/MOL
REMARK 923 INTER-LIGAND FREE ENERGY PREDICTED BY IDOCK:   -5.03 KCAL/MOL
REMARK 924 INTRA-LIGAND FREE ENERGY PREDICTED BY IDOCK:   -1.55 KCAL/MOL
REMARK 927      BINDING AFFINITY PREDICTED BY RF-SCORE:    0.00 PKD
ROOT
HETATM    1  C   UNL     1      -9.858   5.279  70.180  1.00  0.00    -0.290 C  
HETATM    2  C   UNL     1     -10.060   6.210  71.363  1.00  0.00    -0.230 C  
ENDROOT
BRANCH   2   3
HETATM    3  C   UNL     1      -9.327   7.529  71.159  1.00  0.00    -0.155 C  
BRANCH   3   4
HETATM    4  C   UNL     1      -9.761   8.212  69.886  1.00  0.00    -0.176 C  
HETATM    5  O   UNL     1     -10.908   8.532  69.607  1.00  0.00    -0.225 OA 
BRANCH   4   6
HETATM    6  O   UNL     1      -8.666   8.470  69.133  1.00  0.00    -0.132 OA 
BRANCH   6   7
HETATM    7  C   UNL     1      -8.929   8.846  67.789  1.00  0.00    -0.135 C  
BRANCH   7   8
HETATM    8  O   UNL     1      -7.800   9.136  66.966  1.00  0.00    -0.100 OA 
BRANCH   8   9
HETATM    9  C   UNL     1      -7.717  10.373  66.442  1.00  0.00    -0.125 C  
HETATM   10  O   UNL     1      -7.922  10.645  65.271  1.00  0.00    -0.139 OA 
BRANCH   9  11
HETATM   11  C   UNL     1      -7.163  11.339  67.449  1.00  0.00    -0.110 C  
HETATM   12  C   UNL     1      -6.070  11.102  68.220  1.00  0.00    -0.045 C  
HETATM   13  N   UNL     1      -5.545  12.124  68.990  1.00  0.00    -0.058 NA 
HETATM   14  C   UNL     1      -5.281   9.817  68.370  1.00  0.00    -0.033 C  
HETATM   15  C   UNL     1      -6.123  13.358  69.195  1.00  0.00    -0.093 C  
HETATM   16  C   UNL     1      -7.236  13.705  68.510  1.00  0.00    -0.109 C  
HETATM   17  C   UNL     1      -5.423  14.227  70.212  1.00  0.00    -0.112 C  
HETATM   18  C   UNL     1      -7.835  12.748  67.456  1.00  0.00    -0.171 C  
BRANCH  16  19
HETATM   19  C   UNL     1      -7.900  14.999  68.833  1.00  0.00    -0.162 C  
HETATM   20  O   UNL     1      -8.551  15.205  69.845  1.00  0.00    -0.071 OA 
BRANCH  19  21
HETATM   21  O   UNL     1      -7.719  15.912  67.845  1.00  0.00    -0.128 OA 
HETATM   22  C   UNL     1      -8.736  16.918  67.803  1.00  0.00    -0.212 C  
ENDBRANCH  19  21
ENDBRANCH  16  19
BRANCH  18  23
HETATM   23  C   UNL     1      -9.365  12.677  67.568  1.00  0.00    -0.188 A  
HETATM   24  C   UNL     1      -9.929  12.021  68.678  1.00  0.00    -0.151 A  
HETATM   25  C   UNL     1     -11.308  11.945  68.841  1.00  0.00    -0.335 A  
HETATM   26  C   UNL     1     -12.158  12.536  67.901  1.00  0.00    -0.120 A  
HETATM   27  C   UNL     1     -11.622  13.182  66.782  1.00  0.00    -0.366 A  
HETATM   28 CL   UNL     1     -12.748  13.887  65.669  1.00  0.00    -0.560 Cl 
HETATM   29  C   UNL     1     -10.231  13.257  66.605  1.00  0.00    -0.265 A  
HETATM   30 CL   UNL     1      -9.593  14.075  65.206  1.00  0.00    -0.032 Cl 
ENDBRANCH  18  23
ENDBRANCH   9  11
ENDBRANCH   8   9
ENDBRANCH   7   8
ENDBRANCH   6   7
ENDBRANCH   4   6
ENDBRANCH   3   4
ENDBRANCH   2   3
TORSDOF 10
ENDMDL
MODEL      190
REMARK 921   NORMALIZED FREE ENERGY PREDICTED BY IDOCK:   -3.26 KCAL/MOL
REMARK 922        TOTAL FREE ENERGY PREDICTED BY IDOCK:   -6.57 KCAL/MOL
REMARK 923 INTER-LIGAND FREE ENERGY PREDICTED BY IDOCK:   -5.52 KCAL/MOL
REMARK 924 INTRA-LIGAND FREE ENERGY PREDICTED BY IDOCK:   -1.05 KCAL/MOL
REMARK 927      BINDING AFFINITY PREDICTED BY RF-SCORE:    0.00 PKD
ROOT
HETATM    1  C   UNL     1     -10.162  16.098  65.684  1.00  0.00    -0.390 C  
HETATM    2  C   UNL     1      -9.859  14.680  66.137  1.00  0.00    -0.334 C  
ENDROOT
BRANCH   2   3
HETATM    3  C   UNL     1      -8.546  14.616  66.905  1.00  0.00    -0.233 C  
BRANCH   3   4
HETATM    4  C   UNL     1      -8.778  14.411  68.382  1.00  0.00    -0.180 C  
HETATM    5  O   UNL     1      -9.749  14.810  69.010  1.00  0.00    -0.218 OA 
BRANCH   4   6
HETATM    6  O   UNL     1      -7.768  13.662  68.884  1.00  0.00    -0.096 OA 
BRANCH   6   7
HETATM    7  C   UNL     1      -7.120  12.814  67.948  1.00  0.00    -0.118 C  
BRANCH   7   8
HETATM    8  O   UNL     1      -6.900  11.461  68.345  1.00  0.00    -0.062 OA 
BRANCH   8   9
HETATM    9  C   UNL     1      -6.963  11.185  69.661  1.00  0.00    -0.088 C  
HETATM   10  O   UNL     1      -6.530  11.909  70.542  1.00  0.00    -0.134 OA 
BRANCH   9  11
HETATM   11  C   UNL     1      -7.470   9.790  69.887  1.00  0.00    -0.142 C  
HETATM   12  C   UNL     1      -6.697   8.748  70.291  1.00  0.00    -0.041 C  
HETATM   13  N   UNL     1      -7.294   7.549  70.633  1.00  0.00    -0.067 NA 
HETATM   14  C   UNL     1      -5.189   8.694  70.444  1.00  0.00    -0.021 C  
HETATM   15  C   UNL     1      -8.622   7.228  70.449  1.00  0.00    -0.144 C  
HETATM   16  C   UNL     1      -9.492   8.171  70.020  1.00  0.00    -0.167 C  
HETATM   17  C   UNL     1      -8.978   5.793  70.757  1.00  0.00    -0.156 C  
HETATM   18  C   UNL     1      -9.018   9.621  69.786  1.00  0.00    -0.226 C  
BRANCH  16  19
HETATM   19  C   UNL     1     -10.896   7.768  69.727  1.00  0.00    -0.209 C  
HETATM   20  O   UNL     1     -11.228   7.069  68.781  1.00  0.00    -0.083 OA 
BRANCH  19  21
HETATM   21  O   UNL     1     -11.765   8.302  70.622  1.00  0.00    -0.254 OA 
HETATM   22  C   UNL     1     -12.311   7.342  71.532  1.00  0.00    -0.353 C  
ENDBRANCH  19  21
ENDBRANCH  16  19
BRANCH  18  23
HETATM   23  C   UNL     1      -9.594  10.197  68.483  1.00  0.00    -0.158 A  
HETATM   24  C   UNL     1     -10.517  11.256  68.566  1.00  0.00    -0.218 A  
HETATM   25  C   UNL     1     -11.054  11.830  67.418  1.00  0.00    -0.338 A  
HETATM   26  C   UNL     1     -10.669  11.364  66.157  1.00  0.00    -0.320 A  
HETATM   27  C   UNL     1      -9.764  10.304  66.049  1.00  0.00    -0.218 A  
HETATM   28 CL   UNL     1      -9.344   9.793  64.447  1.00  0.00    -0.313 Cl 
HETATM   29  C   UNL     1      -9.222   9.713  67.202  1.00  0.00    -0.134 A  
HETATM   30 CL   UNL     1      -8.091   8.400  67.035  1.00  0.00    -0.103 Cl 
ENDBRANCH  18  23
ENDBRANCH   9  11
ENDBRANCH   8   9
ENDBRANCH   7   8
ENDBRANCH   6   7
ENDBRANCH   4   6
ENDBRANCH   3   4
ENDBRANCH   2   3
TORSDOF 10
ENDMDL
MODEL      191
REMARK 921   NORMALIZED FREE ENERGY PREDICTED BY IDOCK:   -3.26 KCAL/MOL
REMARK 922        TOTAL FREE ENERGY PREDICTED BY IDOCK:   -6.56 KCAL/MOL
REMARK 923 INTER-LIGAND FREE ENERGY PREDICTED BY IDOCK:   -5.43 KCAL/MOL
REMARK 924 INTRA-LIGAND FREE ENERGY PREDICTED BY IDOCK:   -1.13 KCAL/MOL
REMARK 927      BINDING AFFINITY PREDICTED BY RF-SCORE:    0.00 PKD
ROOT
HETATM    1  C   UNL     1     -10.370   5.450  67.993  1.00  0.00    -0.215 C  
HETATM    2  C   UNL     1     -11.267   6.610  68.391  1.00  0.00    -0.215 C  
ENDROOT
BRANCH   2   3
HETATM    3  C   UNL     1     -10.621   7.946  68.056  1.00  0.00    -0.194 C  
BRANCH   3   4
HETATM    4  C   UNL     1     -10.427   8.793  69.290  1.00  0.00    -0.219 C  
HETATM    5  O   UNL     1     -11.323   9.247  69.987  1.00  0.00    -0.214 OA 
BRANCH   4   6
HETATM    6  O   UNL     1      -9.101   8.916  69.533  1.00  0.00    -0.142 OA 
BRANCH   6   7
HETATM    7  C   UNL     1      -8.716  10.108  70.202  1.00  0.00     0.135 C  
BRANCH   7   8
HETATM    8  O   UNL     1      -7.331  10.451  70.164  1.00  0.00    -0.158 OA 
BRANCH   8   9
HETATM    9  C   UNL     1      -6.972  11.493  69.390  1.00  0.00    -0.071 C  
HETATM   10  O   UNL     1      -6.462  12.520  69.804  1.00  0.00    -0.106 OA 
BRANCH   9  11
HETATM   11  C   UNL     1      -7.450  11.296  67.981  1.00  0.00    -0.095 C  
HETATM   12  C   UNL     1      -6.948  10.371  67.121  1.00  0.00    -0.088 C  
HETATM   13  N   UNL     1      -7.574  10.159  65.907  1.00  0.00    -0.121 NA 
HETATM   14  C   UNL     1      -5.741   9.472  67.302  1.00  0.00    -0.040 C  
HETATM   15  C   UNL     1      -8.593  10.923  65.381  1.00  0.00    -0.120 C  
HETATM   16  C   UNL     1      -9.159  11.900  66.125  1.00  0.00    -0.162 C  
HETATM   17  C   UNL     1      -8.983  10.574  63.964  1.00  0.00    -0.235 C  
HETATM   18  C   UNL     1      -8.708  12.130  67.583  1.00  0.00    -0.172 C  
BRANCH  16  19
HETATM   19  C   UNL     1     -10.182  12.779  65.493  1.00  0.00    -0.279 C  
HETATM   20  O   UNL     1      -9.921  13.743  64.789  1.00  0.00    -0.295 OA 
BRANCH  19  21
HETATM   21  O   UNL     1     -11.441  12.397  65.823  1.00  0.00    -0.335 OA 
HETATM   22  C   UNL     1     -12.404  13.449  65.719  1.00  0.00    -0.460 C  
ENDBRANCH  19  21
ENDBRANCH  16  19
BRANCH  18  23
HETATM   23  C   UNL     1      -8.550  13.627  67.892  1.00  0.00    -0.181 A  
HETATM   24  C   UNL     1      -7.400  14.292  67.427  1.00  0.00    -0.152 A  
HETATM   25  C   UNL     1      -7.217  15.652  67.658  1.00  0.00    -0.197 A  
HETATM   26  C   UNL     1      -8.187  16.381  68.353  1.00  0.00    -0.190 A  
HETATM   27  C   UNL     1      -9.331  15.740  68.837  1.00  0.00    -0.228 A  
HETATM   28 CL   UNL     1     -10.480  16.721  69.685  1.00  0.00    -0.261 Cl 
HETATM   29  C   UNL     1      -9.522  14.366  68.614  1.00  0.00    -0.193 A  
HETATM   30 CL   UNL     1     -10.961  13.597  69.223  1.00  0.00    -0.231 Cl 
ENDBRANCH  18  23
ENDBRANCH   9  11
ENDBRANCH   8   9
ENDBRANCH   7   8
ENDBRANCH   6   7
ENDBRANCH   4   6
ENDBRANCH   3   4
ENDBRANCH   2   3
TORSDOF 10
ENDMDL
MODEL      192
REMARK 921   NORMALIZED FREE ENERGY PREDICTED BY IDOCK:   -3.24 KCAL/MOL
REMARK 922        TOTAL FREE ENERGY PREDICTED BY IDOCK:   -6.54 KCAL/MOL
REMARK 923 INTER-LIGAND FREE ENERGY PREDICTED BY IDOCK:   -5.15 KCAL/MOL
REMARK 924 INTRA-LIGAND FREE ENERGY PREDICTED BY IDOCK:   -1.39 KCAL/MOL
REMARK 927      BINDING AFFINITY PREDICTED BY RF-SCORE:    0.00 PKD
ROOT
HETATM    1  C   UNL     1      -8.280   5.770  64.770  1.00  0.00    -0.135 C  
HETATM    2  C   UNL     1      -8.353   6.301  66.191  1.00  0.00    -0.130 C  
ENDROOT
BRANCH   2   3
HETATM    3  C   UNL     1      -9.794   6.534  66.620  1.00  0.00    -0.203 C  
BRANCH   3   4
HETATM    4  C   UNL     1     -10.272   5.460  67.566  1.00  0.00    -0.194 C  
HETATM    5  O   UNL     1      -9.840   4.317  67.619  1.00  0.00    -0.165 OA 
BRANCH   4   6
HETATM    6  O   UNL     1     -11.210   5.986  68.388  1.00  0.00    -0.287 OA 
BRANCH   6   7
HETATM    7  C   UNL     1     -10.997   7.339  68.763  1.00  0.00    -0.003 C  
BRANCH   7   8
HETATM    8  O   UNL     1     -11.315   7.694  70.109  1.00  0.00    -0.237 OA 
BRANCH   8   9
HETATM    9  C   UNL     1     -10.961   8.925  70.524  1.00  0.00    -0.241 C  
HETATM   10  O   UNL     1     -11.712   9.885  70.563  1.00  0.00    -0.272 OA 
BRANCH   9  11
HETATM   11  C   UNL     1      -9.481   9.001  70.757  1.00  0.00    -0.308 C  
HETATM   12  C   UNL     1      -8.612   9.682  69.965  1.00  0.00    -0.215 C  
HETATM   13  N   UNL     1      -7.296   9.829  70.364  1.00  0.00    -0.158 NA 
HETATM   14  C   UNL     1      -8.879  10.357  68.634  1.00  0.00    -0.142 C  
HETATM   15  C   UNL     1      -6.705   9.200  71.438  1.00  0.00    -0.045 C  
HETATM   16  C   UNL     1      -7.457   8.464  72.288  1.00  0.00    -0.140 C  
HETATM   17  C   UNL     1      -5.214   9.407  71.554  1.00  0.00    -0.058 C  
HETATM   18  C   UNL     1      -8.985   8.367  72.094  1.00  0.00    -0.293 C  
BRANCH  16  19
HETATM   19  C   UNL     1      -6.774   7.709  73.376  1.00  0.00    -0.074 C  
HETATM   20  O   UNL     1      -6.786   8.035  74.553  1.00  0.00    -0.110 OA 
BRANCH  19  21
HETATM   21  O   UNL     1      -6.107   6.631  72.891  1.00  0.00    -0.052 OA 
HETATM   22  C   UNL     1      -5.830   5.637  73.882  1.00  0.00    -0.052 C  
ENDBRANCH  19  21
ENDBRANCH  16  19
BRANCH  18  23
HETATM   23  C   UNL     1      -9.486   6.928  72.291  1.00  0.00    -0.151 A  
HETATM   24  C   UNL     1     -10.391   6.667  73.337  1.00  0.00    -0.296 A  
HETATM   25  C   UNL     1     -10.893   5.387  73.547  1.00  0.00    -0.342 A  
HETATM   26  C   UNL     1     -10.510   4.337  72.705  1.00  0.00    -0.249 A  
HETATM   27  C   UNL     1      -9.602   4.569  71.668  1.00  0.00    -0.159 A  
HETATM   28 CL   UNL     1      -9.185   3.211  70.675  1.00  0.00    -0.194 Cl 
HETATM   29  C   UNL     1      -9.084   5.856  71.452  1.00  0.00    -0.140 A  
HETATM   30 CL   UNL     1      -7.961   6.114  70.147  1.00  0.00    -0.105 Cl 
ENDBRANCH  18  23
ENDBRANCH   9  11
ENDBRANCH   8   9
ENDBRANCH   7   8
ENDBRANCH   6   7
ENDBRANCH   4   6
ENDBRANCH   3   4
ENDBRANCH   2   3
TORSDOF 10
ENDMDL
MODEL      193
REMARK 921   NORMALIZED FREE ENERGY PREDICTED BY IDOCK:   -3.22 KCAL/MOL
REMARK 922        TOTAL FREE ENERGY PREDICTED BY IDOCK:   -6.51 KCAL/MOL
REMARK 923 INTER-LIGAND FREE ENERGY PREDICTED BY IDOCK:   -4.55 KCAL/MOL
REMARK 924 INTRA-LIGAND FREE ENERGY PREDICTED BY IDOCK:   -1.96 KCAL/MOL
REMARK 927      BINDING AFFINITY PREDICTED BY RF-SCORE:    0.00 PKD
ROOT
HETATM    1  C   UNL     1     -10.430   7.646  72.002  1.00  0.00    -0.258 C  
HETATM    2  C   UNL     1     -10.542   8.361  70.666  1.00  0.00    -0.234 C  
ENDROOT
BRANCH   2   3
HETATM    3  C   UNL     1     -11.111   9.762  70.836  1.00  0.00    -0.428 C  
BRANCH   3   4
HETATM    4  C   UNL     1     -11.465  10.382  69.507  1.00  0.00    -0.246 C  
HETATM    5  O   UNL     1     -12.486  11.011  69.266  1.00  0.00    -0.400 OA 
BRANCH   4   6
HETATM    6  O   UNL     1     -10.442  10.180  68.643  1.00  0.00    -0.183 OA 
BRANCH   6   7
HETATM    7  C   UNL     1      -9.456  11.201  68.623  1.00  0.00    -0.193 C  
BRANCH   7   8
HETATM    8  O   UNL     1      -8.208  10.907  69.250  1.00  0.00    -0.130 OA 
BRANCH   8   9
HETATM    9  C   UNL     1      -7.309  10.202  68.538  1.00  0.00    -0.081 C  
HETATM   10  O   UNL     1      -6.631  10.659  67.632  1.00  0.00    -0.060 OA 
BRANCH   9  11
HETATM   11  C   UNL     1      -7.384   8.743  68.883  1.00  0.00    -0.078 C  
HETATM   12  C   UNL     1      -6.961   8.210  70.059  1.00  0.00    -0.040 C  
HETATM   13  N   UNL     1      -7.232   6.883  70.342  1.00  0.00    -0.074 NA 
HETATM   14  C   UNL     1      -6.200   8.885  71.182  1.00  0.00    -0.057 C  
HETATM   15  C   UNL     1      -7.762   5.964  69.463  1.00  0.00    -0.097 C  
HETATM   16  C   UNL     1      -8.193   6.363  68.245  1.00  0.00    -0.116 C  
HETATM   17  C   UNL     1      -7.802   4.544  69.977  1.00  0.00    -0.057 C  
HETATM   18  C   UNL     1      -8.146   7.855  67.851  1.00  0.00    -0.129 C  
BRANCH  16  19
HETATM   19  C   UNL     1      -8.659   5.330  67.278  1.00  0.00    -0.105 C  
HETATM   20  O   UNL     1      -7.926   4.525  66.724  1.00  0.00    -0.101 OA 
BRANCH  19  21
HETATM   21  O   UNL     1      -9.996   5.417  67.061  1.00  0.00    -0.145 OA 
HETATM   22  C   UNL     1     -10.440   4.675  65.922  1.00  0.00    -0.268 C  
ENDBRANCH  19  21
ENDBRANCH  16  19
BRANCH  18  23
HETATM   23  C   UNL     1      -7.633   8.040  66.415  1.00  0.00    -0.091 A  
HETATM   24  C   UNL     1      -6.335   7.595  66.101  1.00  0.00    -0.042 A  
HETATM   25  C   UNL     1      -5.828   7.718  64.811  1.00  0.00    -0.038 A  
HETATM   26  C   UNL     1      -6.615   8.279  63.800  1.00  0.00    -0.075 A  
HETATM   27  C   UNL     1      -7.903   8.740  64.090  1.00  0.00    -0.139 A  
HETATM   28 CL   UNL     1      -8.806   9.419  62.776  1.00  0.00    -0.236 Cl 
HETATM   29  C   UNL     1      -8.420   8.627  65.390  1.00  0.00    -0.172 A  
HETATM   30 CL   UNL     1     -10.030   9.204  65.719  1.00  0.00    -0.274 Cl 
ENDBRANCH  18  23
ENDBRANCH   9  11
ENDBRANCH   8   9
ENDBRANCH   7   8
ENDBRANCH   6   7
ENDBRANCH   4   6
ENDBRANCH   3   4
ENDBRANCH   2   3
TORSDOF 10
ENDMDL
MODEL      194
REMARK 921   NORMALIZED FREE ENERGY PREDICTED BY IDOCK:   -3.19 KCAL/MOL
REMARK 922        TOTAL FREE ENERGY PREDICTED BY IDOCK:   -6.46 KCAL/MOL
REMARK 923 INTER-LIGAND FREE ENERGY PREDICTED BY IDOCK:   -4.90 KCAL/MOL
REMARK 924 INTRA-LIGAND FREE ENERGY PREDICTED BY IDOCK:   -1.56 KCAL/MOL
REMARK 927      BINDING AFFINITY PREDICTED BY RF-SCORE:    0.00 PKD
ROOT
HETATM    1  C   UNL     1      -6.300   3.623  65.161  1.00  0.00    -0.028 C  
HETATM    2  C   UNL     1      -5.654   3.032  66.403  1.00  0.00    -0.018 C  
ENDROOT
BRANCH   2   3
HETATM    3  C   UNL     1      -5.836   3.945  67.607  1.00  0.00    -0.023 C  
BRANCH   3   4
HETATM    4  C   UNL     1      -7.285   4.043  68.015  1.00  0.00    -0.059 C  
HETATM    5  O   UNL     1      -8.014   3.096  68.275  1.00  0.00    -0.058 OA 
BRANCH   4   6
HETATM    6  O   UNL     1      -7.627   5.350  68.107  1.00  0.00    -0.079 OA 
BRANCH   6   7
HETATM    7  C   UNL     1      -6.568   6.270  67.886  1.00  0.00    -0.062 C  
BRANCH   7   8
HETATM    8  O   UNL     1      -6.698   7.149  66.769  1.00  0.00    -0.056 OA 
BRANCH   8   9
HETATM    9  C   UNL     1      -7.944   7.486  66.389  1.00  0.00    -0.107 C  
HETATM   10  O   UNL     1      -8.645   6.821  65.645  1.00  0.00    -0.152 OA 
BRANCH   9  11
HETATM   11  C   UNL     1      -8.284   8.872  66.854  1.00  0.00    -0.112 C  
HETATM   12  C   UNL     1      -7.521   9.971  66.615  1.00  0.00    -0.104 C  
HETATM   13  N   UNL     1      -8.010  11.223  66.940  1.00  0.00    -0.149 NA 
HETATM   14  C   UNL     1      -6.138  10.045  65.999  1.00  0.00    -0.077 C  
HETATM   15  C   UNL     1      -9.160  11.479  67.655  1.00  0.00    -0.168 C  
HETATM   16  C   UNL     1      -9.991  10.465  67.985  1.00  0.00    -0.178 C  
HETATM   17  C   UNL     1      -9.376  12.930  68.014  1.00  0.00    -0.213 C  
HETATM   18  C   UNL     1      -9.688   9.024  67.518  1.00  0.00    -0.206 C  
BRANCH  16  19
HETATM   19  C   UNL     1     -11.168  10.756  68.850  1.00  0.00    -0.268 C  
HETATM   20  O   UNL     1     -12.292  10.982  68.430  1.00  0.00    -0.528 OA 
BRANCH  19  21
HETATM   21  O   UNL     1     -10.828  10.774  70.164  1.00  0.00    -0.234 OA 
HETATM   22  C   UNL     1     -11.805  10.169  71.016  1.00  0.00    -0.383 C  
ENDBRANCH  19  21
ENDBRANCH  16  19
BRANCH  18  23
HETATM   23  C   UNL     1      -9.927   8.007  68.643  1.00  0.00    -0.200 A  
HETATM   24  C   UNL     1     -10.956   7.060  68.487  1.00  0.00    -0.135 A  
HETATM   25  C   UNL     1     -11.202   6.101  69.464  1.00  0.00    -0.482 A  
HETATM   26  C   UNL     1     -10.415   6.060  70.620  1.00  0.00    -0.305 A  
HETATM   27  C   UNL     1      -9.395   7.000  70.804  1.00  0.00    -0.161 A  
HETATM   28 CL   UNL     1      -8.470   6.874  72.264  1.00  0.00    -0.109 Cl 
HETATM   29  C   UNL     1      -9.144   7.976  69.826  1.00  0.00    -0.149 A  
HETATM   30 CL   UNL     1      -7.862   9.127  70.082  1.00  0.00    -0.097 Cl 
ENDBRANCH  18  23
ENDBRANCH   9  11
ENDBRANCH   8   9
ENDBRANCH   7   8
ENDBRANCH   6   7
ENDBRANCH   4   6
ENDBRANCH   3   4
ENDBRANCH   2   3
TORSDOF 10
ENDMDL
MODEL      195
REMARK 921   NORMALIZED FREE ENERGY PREDICTED BY IDOCK:   -3.19 KCAL/MOL
REMARK 922        TOTAL FREE ENERGY PREDICTED BY IDOCK:   -6.45 KCAL/MOL
REMARK 923 INTER-LIGAND FREE ENERGY PREDICTED BY IDOCK:   -5.63 KCAL/MOL
REMARK 924 INTRA-LIGAND FREE ENERGY PREDICTED BY IDOCK:   -0.82 KCAL/MOL
REMARK 927      BINDING AFFINITY PREDICTED BY RF-SCORE:    0.00 PKD
ROOT
HETATM    1  C   UNL     1     -10.248   4.692  73.452  1.00  0.00    -0.217 C  
HETATM    2  C   UNL     1     -11.020   5.899  72.947  1.00  0.00    -0.303 C  
ENDROOT
BRANCH   2   3
HETATM    3  C   UNL     1     -10.095   6.900  72.268  1.00  0.00    -0.194 C  
BRANCH   3   4
HETATM    4  C   UNL     1     -10.709   7.453  71.005  1.00  0.00    -0.231 C  
HETATM    5  O   UNL     1     -10.781   6.867  69.935  1.00  0.00    -0.224 OA 
BRANCH   4   6
HETATM    6  O   UNL     1     -11.222   8.678  71.269  1.00  0.00    -0.249 OA 
BRANCH   6   7
HETATM    7  C   UNL     1     -10.336   9.766  71.050  1.00  0.00    -0.103 C  
BRANCH   7   8
HETATM    8  O   UNL     1     -10.204  10.231  69.707  1.00  0.00    -0.236 OA 
BRANCH   8   9
HETATM    9  C   UNL     1      -8.990  10.129  69.133  1.00  0.00    -0.175 C  
HETATM   10  O   UNL     1      -7.933  10.148  69.741  1.00  0.00    -0.162 OA 
BRANCH   9  11
HETATM   11  C   UNL     1      -9.105  10.174  67.637  1.00  0.00    -0.144 C  
HETATM   12  C   UNL     1      -8.802   9.137  66.813  1.00  0.00    -0.127 C  
HETATM   13  N   UNL     1      -9.105   9.227  65.466  1.00  0.00    -0.208 NA 
HETATM   14  C   UNL     1      -8.154   7.812  67.161  1.00  0.00    -0.118 C  
HETATM   15  C   UNL     1      -9.549  10.356  64.813  1.00  0.00    -0.293 C  
HETATM   16  C   UNL     1      -9.855  11.469  65.518  1.00  0.00    -0.269 C  
HETATM   17  C   UNL     1      -9.644  10.226  63.312  1.00  0.00    -0.305 C  
HETATM   18  C   UNL     1      -9.763  11.465  67.060  1.00  0.00    -0.210 C  
BRANCH  16  19
HETATM   19  C   UNL     1     -10.226  12.706  64.777  1.00  0.00    -0.283 C  
HETATM   20  O   UNL     1      -9.465  13.329  64.052  1.00  0.00     0.419 OA 
BRANCH  19  21
HETATM   21  O   UNL     1     -11.507  13.075  65.032  1.00  0.00    -0.301 OA 
HETATM   22  C   UNL     1     -11.711  14.490  64.999  1.00  0.00    -0.392 C  
ENDBRANCH  19  21
ENDBRANCH  16  19
BRANCH  18  23
HETATM   23  C   UNL     1      -9.110  12.752  67.586  1.00  0.00    -0.193 A  
HETATM   24  C   UNL     1      -9.942  13.794  68.035  1.00  0.00    -0.246 A  
HETATM   25  C   UNL     1      -9.404  14.973  68.543  1.00  0.00    -0.196 A  
HETATM   26  C   UNL     1      -8.017  15.132  68.623  1.00  0.00    -0.151 A  
HETATM   27  C   UNL     1      -7.169  14.116  68.170  1.00  0.00    -0.128 A  
HETATM   28 CL   UNL     1      -5.465  14.398  68.309  1.00  0.00    -0.106 Cl 
HETATM   29  C   UNL     1      -7.703  12.925  67.650  1.00  0.00    -0.162 A  
HETATM   30 CL   UNL     1      -6.621  11.676  67.102  1.00  0.00    -0.121 Cl 
ENDBRANCH  18  23
ENDBRANCH   9  11
ENDBRANCH   8   9
ENDBRANCH   7   8
ENDBRANCH   6   7
ENDBRANCH   4   6
ENDBRANCH   3   4
ENDBRANCH   2   3
TORSDOF 10
ENDMDL
MODEL      196
REMARK 921   NORMALIZED FREE ENERGY PREDICTED BY IDOCK:   -3.18 KCAL/MOL
REMARK 922        TOTAL FREE ENERGY PREDICTED BY IDOCK:   -6.45 KCAL/MOL
REMARK 923 INTER-LIGAND FREE ENERGY PREDICTED BY IDOCK:   -4.43 KCAL/MOL
REMARK 924 INTRA-LIGAND FREE ENERGY PREDICTED BY IDOCK:   -2.02 KCAL/MOL
REMARK 927      BINDING AFFINITY PREDICTED BY RF-SCORE:    0.00 PKD
ROOT
HETATM    1  C   UNL     1     -10.847   6.194  72.665  1.00  0.00    -0.279 C  
HETATM    2  C   UNL     1     -10.305   5.793  71.303  1.00  0.00    -0.281 C  
ENDROOT
BRANCH   2   3
HETATM    3  C   UNL     1      -8.879   6.288  71.110  1.00  0.00    -0.142 C  
BRANCH   3   4
HETATM    4  C   UNL     1      -7.907   5.141  70.984  1.00  0.00    -0.097 C  
HETATM    5  O   UNL     1      -6.965   4.922  71.733  1.00  0.00    -0.052 OA 
BRANCH   4   6
HETATM    6  O   UNL     1      -8.283   4.361  69.943  1.00  0.00    -0.062 OA 
BRANCH   6   7
HETATM    7  C   UNL     1      -7.440   4.423  68.803  1.00  0.00    -0.060 C  
BRANCH   7   8
HETATM    8  O   UNL     1      -7.468   5.632  68.043  1.00  0.00    -0.072 OA 
BRANCH   8   9
HETATM    9  C   UNL     1      -8.467   5.779  67.153  1.00  0.00    -0.107 C  
HETATM   10  O   UNL     1      -9.444   5.053  67.081  1.00  0.00    -0.123 OA 
BRANCH   9  11
HETATM   11  C   UNL     1      -8.128   6.842  66.148  1.00  0.00    -0.115 C  
HETATM   12  C   UNL     1      -7.199   6.702  65.166  1.00  0.00    -0.074 C  
HETATM   13  N   UNL     1      -7.087   7.676  64.191  1.00  0.00    -0.064 NA 
HETATM   14  C   UNL     1      -6.212   5.571  64.955  1.00  0.00    -0.029 C  
HETATM   15  C   UNL     1      -7.725   8.897  64.193  1.00  0.00    -0.127 C  
HETATM   16  C   UNL     1      -8.653   9.173  65.138  1.00  0.00    -0.200 C  
HETATM   17  C   UNL     1      -7.299   9.839  63.093  1.00  0.00    -0.121 C  
HETATM   18  C   UNL     1      -9.041   8.107  66.185  1.00  0.00    -0.232 C  
BRANCH  16  19
HETATM   19  C   UNL     1      -9.246  10.539  65.181  1.00  0.00    -0.205 C  
HETATM   20  O   UNL     1      -8.730  11.496  65.739  1.00  0.00    -0.133 OA 
BRANCH  19  21
HETATM   21  O   UNL     1     -10.447  10.580  64.551  1.00  0.00    -0.310 OA 
HETATM   22  C   UNL     1     -11.269  11.678  64.959  1.00  0.00    -0.210 C  
ENDBRANCH  19  21
ENDBRANCH  16  19
BRANCH  18  23
HETATM   23  C   UNL     1      -9.155   8.715  67.591  1.00  0.00    -0.145 A  
HETATM   24  C   UNL     1     -10.423   8.773  68.199  1.00  0.00    -0.243 A  
HETATM   25  C   UNL     1     -10.581   9.293  69.479  1.00  0.00    -0.236 A  
HETATM   26  C   UNL     1      -9.470   9.759  70.188  1.00  0.00    -0.277 A  
HETATM   27  C   UNL     1      -8.201   9.725  69.600  1.00  0.00    -0.157 A  
HETATM   28 CL   UNL     1      -6.881  10.322  70.551  1.00  0.00    -0.108 Cl 
HETATM   29  C   UNL     1      -8.032   9.208  68.306  1.00  0.00    -0.103 A  
HETATM   30 CL   UNL     1      -6.439   9.172  67.604  1.00  0.00    -0.063 Cl 
ENDBRANCH  18  23
ENDBRANCH   9  11
ENDBRANCH   8   9
ENDBRANCH   7   8
ENDBRANCH   6   7
ENDBRANCH   4   6
ENDBRANCH   3   4
ENDBRANCH   2   3
TORSDOF 10
ENDMDL
MODEL      197
REMARK 921   NORMALIZED FREE ENERGY PREDICTED BY IDOCK:   -3.15 KCAL/MOL
REMARK 922        TOTAL FREE ENERGY PREDICTED BY IDOCK:   -6.40 KCAL/MOL
REMARK 923 INTER-LIGAND FREE ENERGY PREDICTED BY IDOCK:   -5.61 KCAL/MOL
REMARK 924 INTRA-LIGAND FREE ENERGY PREDICTED BY IDOCK:   -0.79 KCAL/MOL
REMARK 927      BINDING AFFINITY PREDICTED BY RF-SCORE:    0.00 PKD
ROOT
HETATM    1  C   UNL     1      -5.125  14.787  71.269  1.00  0.00    -0.140 C  
HETATM    2  C   UNL     1      -5.936  15.523  70.216  1.00  0.00    -0.109 C  
ENDROOT
BRANCH   2   3
HETATM    3  C   UNL     1      -5.369  16.912  69.955  1.00  0.00    -0.198 C  
BRANCH   3   4
HETATM    4  C   UNL     1      -5.410  17.261  68.488  1.00  0.00    -0.144 C  
HETATM    5  O   UNL     1      -5.311  18.388  68.023  1.00  0.00    -0.163 OA 
BRANCH   4   6
HETATM    6  O   UNL     1      -5.512  16.118  67.769  1.00  0.00    -0.118 OA 
BRANCH   6   7
HETATM    7  C   UNL     1      -6.703  15.985  67.008  1.00  0.00    -0.103 C  
BRANCH   7   8
HETATM    8  O   UNL     1      -7.852  16.690  67.477  1.00  0.00    -0.163 OA 
BRANCH   8   9
HETATM    9  C   UNL     1      -8.909  15.957  67.873  1.00  0.00    -0.179 C  
HETATM   10  O   UNL     1      -9.001  15.403  68.955  1.00  0.00    -0.197 OA 
BRANCH   9  11
HETATM   11  C   UNL     1      -9.874  15.762  66.740  1.00  0.00    -0.256 C  
HETATM   12  C   UNL     1     -10.463  16.773  66.050  1.00  0.00    -0.293 C  
HETATM   13  N   UNL     1     -11.201  16.486  64.917  1.00  0.00    -0.426 NA 
HETATM   14  C   UNL     1     -10.428  18.261  66.341  1.00  0.00    -0.387 C  
HETATM   15  C   UNL     1     -11.554  15.227  64.482  1.00  0.00    -0.312 C  
HETATM   16  C   UNL     1     -11.059  14.133  65.105  1.00  0.00    -0.349 C  
HETATM   17  C   UNL     1     -12.503  15.202  63.308  1.00  0.00     1.666 C  
HETATM   18  C   UNL     1     -10.054  14.285  66.268  1.00  0.00    -0.308 C  
BRANCH  16  19
HETATM   19  C   UNL     1     -11.543  12.789  64.684  1.00  0.00    -0.338 C  
HETATM   20  O   UNL     1     -12.488  12.206  65.195  1.00  0.00    -0.508 OA 
BRANCH  19  21
HETATM   21  O   UNL     1     -10.783  12.276  63.683  1.00  0.00    -0.403 OA 
HETATM   22  C   UNL     1     -10.338  10.939  63.931  1.00  0.00    -0.329 C  
ENDBRANCH  19  21
ENDBRANCH  16  19
BRANCH  18  23
HETATM   23  C   UNL     1     -10.384  13.328  67.423  1.00  0.00    -0.243 A  
HETATM   24  C   UNL     1     -11.627  13.458  68.070  1.00  0.00    -0.369 A  
HETATM   25  C   UNL     1     -11.987  12.604  69.108  1.00  0.00    -0.293 A  
HETATM   26  C   UNL     1     -11.114  11.590  69.516  1.00  0.00    -0.256 A  
HETATM   27  C   UNL     1      -9.867  11.450  68.897  1.00  0.00    -0.112 A  
HETATM   28 CL   UNL     1      -8.851  10.167  69.466  1.00  0.00    -0.205 Cl 
HETATM   29  C   UNL     1      -9.492  12.312  67.854  1.00  0.00    -0.200 A  
HETATM   30 CL   UNL     1      -7.937  12.107  67.098  1.00  0.00    -0.174 Cl 
ENDBRANCH  18  23
ENDBRANCH   9  11
ENDBRANCH   8   9
ENDBRANCH   7   8
ENDBRANCH   6   7
ENDBRANCH   4   6
ENDBRANCH   3   4
ENDBRANCH   2   3
TORSDOF 10
ENDMDL
MODEL      198
REMARK 921   NORMALIZED FREE ENERGY PREDICTED BY IDOCK:   -3.12 KCAL/MOL
REMARK 922        TOTAL FREE ENERGY PREDICTED BY IDOCK:   -6.35 KCAL/MOL
REMARK 923 INTER-LIGAND FREE ENERGY PREDICTED BY IDOCK:   -5.23 KCAL/MOL
REMARK 924 INTRA-LIGAND FREE ENERGY PREDICTED BY IDOCK:   -1.12 KCAL/MOL
REMARK 927      BINDING AFFINITY PREDICTED BY RF-SCORE:    0.00 PKD
ROOT
HETATM    1  C   UNL     1     -11.143  15.993  66.094  1.00  0.00     0.027 C  
HETATM    2  C   UNL     1     -11.646  15.001  65.059  1.00  0.00    -0.332 C  
ENDROOT
BRANCH   2   3
HETATM    3  C   UNL     1     -12.638  14.022  65.671  1.00  0.00    -0.542 C  
BRANCH   3   4
HETATM    4  C   UNL     1     -11.941  12.822  66.261  1.00  0.00    -0.395 C  
HETATM    5  O   UNL     1     -11.476  11.887  65.625  1.00  0.00    -0.322 OA 
BRANCH   4   6
HETATM    6  O   UNL     1     -11.859  12.979  67.603  1.00  0.00    -0.353 OA 
BRANCH   6   7
HETATM    7  C   UNL     1     -10.595  12.673  68.173  1.00  0.00    -0.228 C  
BRANCH   7   8
HETATM    8  O   UNL     1     -10.590  11.804  69.305  1.00  0.00    -0.141 OA 
BRANCH   8   9
HETATM    9  C   UNL     1     -10.495  10.482  69.069  1.00  0.00    -0.217 C  
HETATM   10  O   UNL     1     -10.722   9.952  67.994  1.00  0.00    -0.224 OA 
BRANCH   9  11
HETATM   11  C   UNL     1     -10.253   9.731  70.346  1.00  0.00    -0.343 C  
HETATM   12  C   UNL     1     -11.058   9.795  71.439  1.00  0.00    -0.247 C  
HETATM   13  N   UNL     1     -10.838   8.934  72.499  1.00  0.00    -0.043 NA 
HETATM   14  C   UNL     1     -12.238  10.713  71.690  1.00  0.00    -0.243 C  
HETATM   15  C   UNL     1      -9.754   8.096  72.645  1.00  0.00    -0.290 C  
HETATM   16  C   UNL     1      -8.859   7.966  71.639  1.00  0.00    -0.163 C  
HETATM   17  C   UNL     1      -9.675   7.385  73.974  1.00  0.00    -0.215 C  
HETATM   18  C   UNL     1      -9.073   8.710  70.303  1.00  0.00    -0.172 C  
BRANCH  16  19
HETATM   19  C   UNL     1      -7.641   7.139  71.867  1.00  0.00    -0.087 C  
HETATM   20  O   UNL     1      -6.820   7.352  72.746  1.00  0.00    -0.063 OA 
BRANCH  19  21
HETATM   21  O   UNL     1      -7.539   6.140  70.955  1.00  0.00    -0.092 OA 
HETATM   22  C   UNL     1      -8.366   5.010  71.249  1.00  0.00    -0.117 C  
ENDBRANCH  19  21
ENDBRANCH  16  19
BRANCH  18  23
HETATM   23  C   UNL     1      -7.766   9.335  69.792  1.00  0.00    -0.096 A  
HETATM   24  C   UNL     1      -7.045  10.185  70.651  1.00  0.00     0.096 A  
HETATM   25  C   UNL     1      -5.844  10.759  70.249  1.00  0.00    -0.103 A  
HETATM   26  C   UNL     1      -5.329  10.487  68.977  1.00  0.00    -0.041 A  
HETATM   27  C   UNL     1      -6.034   9.656  68.101  1.00  0.00    -0.047 A  
HETATM   28 CL   UNL     1      -5.320   9.373  66.547  1.00  0.00    -0.044 Cl 
HETATM   29  C   UNL     1      -7.250   9.077  68.495  1.00  0.00    -0.073 A  
HETATM   30 CL   UNL     1      -8.101   8.041  67.384  1.00  0.00    -0.121 Cl 
ENDBRANCH  18  23
ENDBRANCH   9  11
ENDBRANCH   8   9
ENDBRANCH   7   8
ENDBRANCH   6   7
ENDBRANCH   4   6
ENDBRANCH   3   4
ENDBRANCH   2   3
TORSDOF 10
ENDMDL
MODEL      199
REMARK 921   NORMALIZED FREE ENERGY PREDICTED BY IDOCK:   -3.10 KCAL/MOL
REMARK 922        TOTAL FREE ENERGY PREDICTED BY IDOCK:   -6.32 KCAL/MOL
REMARK 923 INTER-LIGAND FREE ENERGY PREDICTED BY IDOCK:   -5.12 KCAL/MOL
REMARK 924 INTRA-LIGAND FREE ENERGY PREDICTED BY IDOCK:   -1.20 KCAL/MOL
REMARK 927      BINDING AFFINITY PREDICTED BY RF-SCORE:    0.00 PKD
ROOT
HETATM    1  C   UNL     1     -13.430   9.623  71.357  1.00  0.00    -0.403 C  
HETATM    2  C   UNL     1     -12.372  10.706  71.234  1.00  0.00    -0.488 C  
ENDROOT
BRANCH   2   3
HETATM    3  C   UNL     1     -12.138  11.086  69.779  1.00  0.00    -0.424 C  
BRANCH   3   4
HETATM    4  C   UNL     1     -11.533  12.462  69.656  1.00  0.00    -0.194 C  
HETATM    5  O   UNL     1     -12.062  13.505  70.016  1.00  0.00    -0.321 OA 
BRANCH   4   6
HETATM    6  O   UNL     1     -10.287  12.348  69.139  1.00  0.00    -0.023 OA 
BRANCH   6   7
HETATM    7  C   UNL     1      -9.814  11.018  68.987  1.00  0.00    -0.149 C  
BRANCH   7   8
HETATM    8  O   UNL     1      -8.907  10.774  67.912  1.00  0.00    -0.129 OA 
BRANCH   8   9
HETATM    9  C   UNL     1      -7.901   9.908  68.136  1.00  0.00    -0.085 C  
HETATM   10  O   UNL     1      -6.764  10.230  68.436  1.00  0.00    -0.057 OA 
BRANCH   9  11
HETATM   11  C   UNL     1      -8.319   8.509  67.789  1.00  0.00    -0.130 C  
HETATM   12  C   UNL     1      -9.093   8.180  66.721  1.00  0.00    -0.157 C  
HETATM   13  N   UNL     1      -9.277   6.849  66.397  1.00  0.00    -0.163 NA 
HETATM   14  C   UNL     1      -9.823   9.103  65.765  1.00  0.00    -0.248 C  
HETATM   15  C   UNL     1      -8.881   5.771  67.159  1.00  0.00    -0.107 C  
HETATM   16  C   UNL     1      -8.131   5.966  68.267  1.00  0.00    -0.109 C  
HETATM   17  C   UNL     1      -9.352   4.428  66.654  1.00  0.00    -0.169 C  
HETATM   18  C   UNL     1      -7.668   7.387  68.656  1.00  0.00    -0.120 C  
BRANCH  16  19
HETATM   19  C   UNL     1      -7.811   4.794  69.129  1.00  0.00    -0.071 C  
HETATM   20  O   UNL     1      -6.725   4.233  69.153  1.00  0.00    -0.043 OA 
BRANCH  19  21
HETATM   21  O   UNL     1      -8.885   4.405  69.861  1.00  0.00    -0.078 OA 
HETATM   22  C   UNL     1      -8.828   3.038  70.279  1.00  0.00    -0.084 C  
ENDBRANCH  19  21
ENDBRANCH  16  19
BRANCH  18  23
HETATM   23  C   UNL     1      -7.824   7.635  70.164  1.00  0.00    -0.097 A  
HETATM   24  C   UNL     1      -6.664   7.836  70.936  1.00  0.00    -0.038 A  
HETATM   25  C   UNL     1      -6.748   8.088  72.302  1.00  0.00    -0.072 A  
HETATM   26  C   UNL     1      -7.998   8.155  72.927  1.00  0.00    -0.211 A  
HETATM   27  C   UNL     1      -9.163   7.945  72.183  1.00  0.00    -0.158 A  
HETATM   28 CL   UNL     1     -10.667   8.047  73.038  1.00  0.00    -0.402 Cl 
HETATM   29  C   UNL     1      -9.089   7.684  70.805  1.00  0.00    -0.153 A  
HETATM   30 CL   UNL     1     -10.558   7.434  69.905  1.00  0.00    -0.237 Cl 
ENDBRANCH  18  23
ENDBRANCH   9  11
ENDBRANCH   8   9
ENDBRANCH   7   8
ENDBRANCH   6   7
ENDBRANCH   4   6
ENDBRANCH   3   4
ENDBRANCH   2   3
TORSDOF 10
ENDMDL
MODEL      200
REMARK 921   NORMALIZED FREE ENERGY PREDICTED BY IDOCK:   -3.09 KCAL/MOL
REMARK 922        TOTAL FREE ENERGY PREDICTED BY IDOCK:   -6.30 KCAL/MOL
REMARK 923 INTER-LIGAND FREE ENERGY PREDICTED BY IDOCK:   -5.22 KCAL/MOL
REMARK 924 INTRA-LIGAND FREE ENERGY PREDICTED BY IDOCK:   -1.09 KCAL/MOL
REMARK 927      BINDING AFFINITY PREDICTED BY RF-SCORE:    0.00 PKD
ROOT
HETATM    1  C   UNL     1     -10.913  13.001  64.306  1.00  0.00    -0.427 C  
HETATM    2  C   UNL     1     -10.679  11.763  65.155  1.00  0.00    -0.343 C  
ENDROOT
BRANCH   2   3
HETATM    3  C   UNL     1     -11.325  11.905  66.526  1.00  0.00    -0.403 C  
BRANCH   3   4
HETATM    4  C   UNL     1     -10.378  12.523  67.524  1.00  0.00    -0.220 C  
HETATM    5  O   UNL     1     -10.025  13.694  67.537  1.00  0.00    -0.225 OA 
BRANCH   4   6
HETATM    6  O   UNL     1     -10.033  11.586  68.439  1.00  0.00    -0.194 OA 
BRANCH   6   7
HETATM    7  C   UNL     1      -9.296  10.485  67.929  1.00  0.00    -0.143 C  
BRANCH   7   8
HETATM    8  O   UNL     1      -9.465   9.232  68.591  1.00  0.00    -0.145 OA 
BRANCH   8   9
HETATM    9  C   UNL     1      -8.361   8.494  68.812  1.00  0.00    -0.122 C  
HETATM   10  O   UNL     1      -7.354   8.904  69.362  1.00  0.00    -0.072 OA 
BRANCH   9  11
HETATM   11  C   UNL     1      -8.469   7.161  68.131  1.00  0.00    -0.123 C  
HETATM   12  C   UNL     1      -8.524   6.989  66.784  1.00  0.00    -0.118 C  
HETATM   13  N   UNL     1      -8.449   5.713  66.256  1.00  0.00    -0.120 NA 
HETATM   14  C   UNL     1      -8.651   8.043  65.702  1.00  0.00    -0.167 C  
HETATM   15  C   UNL     1      -8.490   4.539  66.977  1.00  0.00    -0.104 C  
HETATM   16  C   UNL     1      -8.472   4.575  68.329  1.00  0.00    -0.099 C  
HETATM   17  C   UNL     1      -8.558   3.283  66.142  1.00  0.00    -0.121 C  
HETATM   18  C   UNL     1      -8.351   5.922  69.072  1.00  0.00    -0.106 C  
BRANCH  16  19
HETATM   19  C   UNL     1      -8.627   3.298  69.080  1.00  0.00    -0.076 C  
HETATM   20  O   UNL     1      -9.694   2.733  69.264  1.00  0.00    -0.050 OA 
BRANCH  19  21
HETATM   21  O   UNL     1      -7.438   2.857  69.564  1.00  0.00    -0.044 OA 
HETATM   22  C   UNL     1      -7.570   1.911  70.629  1.00  0.00    -0.035 C  
ENDBRANCH  19  21
ENDBRANCH  16  19
BRANCH  18  23
HETATM   23  C   UNL     1      -9.311   5.992  70.269  1.00  0.00    -0.176 A  
HETATM   24  C   UNL     1     -10.665   6.295  70.028  1.00  0.00    -0.346 A  
HETATM   25  C   UNL     1     -11.583   6.349  71.072  1.00  0.00    -0.386 A  
HETATM   26  C   UNL     1     -11.170   6.089  72.383  1.00  0.00    -0.338 A  
HETATM   27  C   UNL     1      -9.828   5.799  72.648  1.00  0.00    -0.164 A  
HETATM   28 CL   UNL     1      -9.406   5.489  74.300  1.00  0.00    -0.129 Cl 
HETATM   29  C   UNL     1      -8.892   5.749  71.603  1.00  0.00    -0.136 A  
HETATM   30 CL   UNL     1      -7.230   5.377  71.965  1.00  0.00    -0.084 Cl 
ENDBRANCH  18  23
ENDBRANCH   9  11
ENDBRANCH   8   9
ENDBRANCH   7   8
ENDBRANCH   6   7
ENDBRANCH   4   6
ENDBRANCH   3   4
ENDBRANCH   2   3
TORSDOF 10
ENDMDL
MODEL      201
REMARK 921   NORMALIZED FREE ENERGY PREDICTED BY IDOCK:   -3.09 KCAL/MOL
REMARK 922        TOTAL FREE ENERGY PREDICTED BY IDOCK:   -6.29 KCAL/MOL
REMARK 923 INTER-LIGAND FREE ENERGY PREDICTED BY IDOCK:   -5.15 KCAL/MOL
REMARK 924 INTRA-LIGAND FREE ENERGY PREDICTED BY IDOCK:   -1.14 KCAL/MOL
REMARK 927      BINDING AFFINITY PREDICTED BY RF-SCORE:    0.00 PKD
ROOT
HETATM    1  C   UNL     1      -5.144   9.434  67.540  1.00  0.00    -0.037 C  
HETATM    2  C   UNL     1      -5.219   9.302  69.052  1.00  0.00    -0.037 C  
ENDROOT
BRANCH   2   3
HETATM    3  C   UNL     1      -6.499   8.598  69.481  1.00  0.00    -0.040 C  
BRANCH   3   4
HETATM    4  C   UNL     1      -6.941   9.039  70.854  1.00  0.00    -0.093 C  
HETATM    5  O   UNL     1      -6.444   8.677  71.911  1.00  0.00    -0.067 OA 
BRANCH   4   6
HETATM    6  O   UNL     1      -7.935   9.949  70.722  1.00  0.00    -0.243 OA 
BRANCH   6   7
HETATM    7  C   UNL     1      -8.513  10.031  69.427  1.00  0.00    -0.170 C  
BRANCH   7   8
HETATM    8  O   UNL     1      -8.745  11.340  68.906  1.00  0.00    -0.138 OA 
BRANCH   8   9
HETATM    9  C   UNL     1      -8.001  11.727  67.853  1.00  0.00    -0.141 C  
HETATM   10  O   UNL     1      -7.706  11.010  66.912  1.00  0.00    -0.126 OA 
BRANCH   9  11
HETATM   11  C   UNL     1      -7.434  13.098  68.080  1.00  0.00    -0.131 C  
HETATM   12  C   UNL     1      -6.335  13.359  68.836  1.00  0.00    -0.099 C  
HETATM   13  N   UNL     1      -5.798  14.633  68.841  1.00  0.00    -0.084 NA 
HETATM   14  C   UNL     1      -5.552  12.410  69.722  1.00  0.00    -0.102 C  
HETATM   15  C   UNL     1      -6.368  15.750  68.270  1.00  0.00    -0.116 C  
HETATM   16  C   UNL     1      -7.485  15.630  67.518  1.00  0.00    -0.205 C  
HETATM   17  C   UNL     1      -5.654  17.048  68.564  1.00  0.00    -0.135 C  
HETATM   18  C   UNL     1      -8.097  14.238  67.247  1.00  0.00    -0.199 C  
BRANCH  16  19
HETATM   19  C   UNL     1      -8.139  16.866  67.005  1.00  0.00    -0.198 C  
HETATM   20  O   UNL     1      -8.147  17.204  65.831  1.00  0.00    -0.516 OA 
BRANCH  19  21
HETATM   21  O   UNL     1      -8.696  17.589  68.010  1.00  0.00    -0.241 OA 
HETATM   22  C   UNL     1      -9.944  18.191  67.657  1.00  0.00    -0.337 C  
ENDBRANCH  19  21
ENDBRANCH  16  19
BRANCH  18  23
HETATM   23  C   UNL     1      -9.627  14.262  67.385  1.00  0.00    -0.214 A  
HETATM   24  C   UNL     1     -10.408  13.888  66.275  1.00  0.00    -0.293 A  
HETATM   25  C   UNL     1     -11.797  13.869  66.351  1.00  0.00    -0.436 A  
HETATM   26  C   UNL     1     -12.439  14.214  67.545  1.00  0.00     0.100 A  
HETATM   27  C   UNL     1     -11.684  14.603  68.657  1.00  0.00    -0.329 A  
HETATM   28 CL   UNL     1     -12.562  15.012  70.094  1.00  0.00    -0.340 Cl 
HETATM   29  C   UNL     1     -10.282  14.631  68.588  1.00  0.00    -0.244 A  
HETATM   30 CL   UNL     1      -9.371  15.112  69.992  1.00  0.00     0.059 Cl 
ENDBRANCH  18  23
ENDBRANCH   9  11
ENDBRANCH   8   9
ENDBRANCH   7   8
ENDBRANCH   6   7
ENDBRANCH   4   6
ENDBRANCH   3   4
ENDBRANCH   2   3
TORSDOF 10
ENDMDL
MODEL      202
REMARK 921   NORMALIZED FREE ENERGY PREDICTED BY IDOCK:   -3.08 KCAL/MOL
REMARK 922        TOTAL FREE ENERGY PREDICTED BY IDOCK:   -6.29 KCAL/MOL
REMARK 923 INTER-LIGAND FREE ENERGY PREDICTED BY IDOCK:   -6.09 KCAL/MOL
REMARK 924 INTRA-LIGAND FREE ENERGY PREDICTED BY IDOCK:   -0.20 KCAL/MOL
REMARK 927      BINDING AFFINITY PREDICTED BY RF-SCORE:    0.00 PKD
ROOT
HETATM    1  C   UNL     1      -7.255   5.267  64.401  1.00  0.00    -0.055 C  
HETATM    2  C   UNL     1      -6.942   4.208  65.445  1.00  0.00    -0.058 C  
ENDROOT
BRANCH   2   3
HETATM    3  C   UNL     1      -7.056   4.772  66.854  1.00  0.00    -0.075 C  
BRANCH   3   4
HETATM    4  C   UNL     1      -8.493   5.025  67.235  1.00  0.00    -0.105 C  
HETATM    5  O   UNL     1      -9.443   4.314  66.937  1.00  0.00    -0.159 OA 
BRANCH   4   6
HETATM    6  O   UNL     1      -8.551   6.131  68.013  1.00  0.00    -0.116 OA 
BRANCH   6   7
HETATM    7  C   UNL     1      -8.120   7.333  67.391  1.00  0.00    -0.113 C  
BRANCH   7   8
HETATM    8  O   UNL     1      -9.056   7.991  66.538  1.00  0.00    -0.154 OA 
BRANCH   8   9
HETATM    9  C   UNL     1     -10.305   8.168  67.010  1.00  0.00    -0.333 C  
HETATM   10  O   UNL     1     -11.125   7.277  67.149  1.00  0.00    -0.295 OA 
BRANCH   9  11
HETATM   11  C   UNL     1     -10.610   9.629  67.167  1.00  0.00    -0.298 C  
HETATM   12  C   UNL     1     -10.633  10.524  66.144  1.00  0.00    -0.112 C  
HETATM   13  N   UNL     1     -11.092  11.808  66.373  1.00  0.00    -0.299 NA 
HETATM   14  C   UNL     1     -10.217  10.318  64.701  1.00  0.00    -0.204 C  
HETATM   15  C   UNL     1     -11.389  12.351  67.604  1.00  0.00    -0.312 C  
HETATM   16  C   UNL     1     -11.372  11.571  68.709  1.00  0.00    -0.327 C  
HETATM   17  C   UNL     1     -11.712  13.826  67.587  1.00  0.00    -0.402 C  
HETATM   18  C   UNL     1     -11.074  10.061  68.593  1.00  0.00    -0.223 C  
BRANCH  16  19
HETATM   19  C   UNL     1     -11.590  12.209  70.037  1.00  0.00    -0.171 C  
HETATM   20  O   UNL     1     -11.179  13.318  70.344  1.00  0.00     0.253 OA 
BRANCH  19  21
HETATM   21  O   UNL     1     -12.272  11.390  70.877  1.00  0.00    -0.370 OA 
HETATM   22  C   UNL     1     -13.238  12.073  71.682  1.00  0.00    -0.260 C  
ENDBRANCH  19  21
ENDBRANCH  16  19
BRANCH  18  23
HETATM   23  C   UNL     1     -10.115   9.591  69.697  1.00  0.00    -0.228 A  
HETATM   24  C   UNL     1      -8.746   9.896  69.574  1.00  0.00    -0.200 A  
HETATM   25  C   UNL     1      -7.836   9.515  70.555  1.00  0.00    -0.182 A  
HETATM   26  C   UNL     1      -8.277   8.829  71.691  1.00  0.00    -0.171 A  
HETATM   27  C   UNL     1      -9.630   8.503  71.830  1.00  0.00    -0.283 A  
HETATM   28 CL   UNL     1     -10.088   7.654  73.270  1.00  0.00    -0.375 Cl 
HETATM   29  C   UNL     1     -10.555   8.877  70.842  1.00  0.00    -0.233 A  
HETATM   30 CL   UNL     1     -12.234   8.464  71.047  1.00  0.00    -0.233 Cl 
ENDBRANCH  18  23
ENDBRANCH   9  11
ENDBRANCH   8   9
ENDBRANCH   7   8
ENDBRANCH   6   7
ENDBRANCH   4   6
ENDBRANCH   3   4
ENDBRANCH   2   3
TORSDOF 10
ENDMDL
MODEL      203
REMARK 921   NORMALIZED FREE ENERGY PREDICTED BY IDOCK:   -3.08 KCAL/MOL
REMARK 922        TOTAL FREE ENERGY PREDICTED BY IDOCK:   -6.29 KCAL/MOL
REMARK 923 INTER-LIGAND FREE ENERGY PREDICTED BY IDOCK:   -5.42 KCAL/MOL
REMARK 924 INTRA-LIGAND FREE ENERGY PREDICTED BY IDOCK:   -0.87 KCAL/MOL
REMARK 927      BINDING AFFINITY PREDICTED BY RF-SCORE:    0.00 PKD
ROOT
HETATM    1  C   UNL     1      -8.152   8.070  72.059  1.00  0.00    -0.164 C  
HETATM    2  C   UNL     1      -6.873   8.885  72.152  1.00  0.00     0.040 C  
ENDROOT
BRANCH   2   3
HETATM    3  C   UNL     1      -5.979   8.647  70.943  1.00  0.00    -0.036 C  
BRANCH   3   4
HETATM    4  C   UNL     1      -5.879   9.878  70.076  1.00  0.00    -0.046 C  
HETATM    5  O   UNL     1      -5.443   9.908  68.934  1.00  0.00    -0.036 OA 
BRANCH   4   6
HETATM    6  O   UNL     1      -6.407  10.929  70.747  1.00  0.00    -0.346 OA 
BRANCH   6   7
HETATM    7  C   UNL     1      -5.999  12.208  70.286  1.00  0.00    -0.137 C  
BRANCH   7   8
HETATM    8  O   UNL     1      -6.892  12.894  69.409  1.00  0.00    -0.066 OA 
BRANCH   8   9
HETATM    9  C   UNL     1      -6.521  13.018  68.121  1.00  0.00    -0.100 C  
HETATM   10  O   UNL     1      -5.453  13.475  67.749  1.00  0.00    -0.181 OA 
BRANCH   9  11
HETATM   11  C   UNL     1      -7.664  12.692  67.205  1.00  0.00    -0.094 C  
HETATM   12  C   UNL     1      -7.671  11.658  66.323  1.00  0.00     0.146 C  
HETATM   13  N   UNL     1      -8.838  11.343  65.650  1.00  0.00    -0.133 NA 
HETATM   14  C   UNL     1      -6.532  10.732  65.946  1.00  0.00    -0.097 C  
HETATM   15  C   UNL     1      -9.996  12.090  65.653  1.00  0.00    -0.245 C  
HETATM   16  C   UNL     1     -10.105  13.165  66.465  1.00  0.00    -0.280 C  
HETATM   17  C   UNL     1     -11.065  11.607  64.702  1.00  0.00    -0.342 C  
HETATM   18  C   UNL     1      -8.959  13.533  67.432  1.00  0.00    -0.219 C  
BRANCH  16  19
HETATM   19  C   UNL     1     -11.325  14.015  66.366  1.00  0.00    -0.333 C  
HETATM   20  O   UNL     1     -12.321  13.873  67.060  1.00  0.00    -0.391 OA 
BRANCH  19  21
HETATM   21  O   UNL     1     -11.206  14.946  65.387  1.00  0.00    -0.338 OA 
HETATM   22  C   UNL     1     -12.376  15.077  64.576  1.00  0.00    -0.262 C  
ENDBRANCH  19  21
ENDBRANCH  16  19
BRANCH  18  23
HETATM   23  C   UNL     1      -8.692  15.045  67.438  1.00  0.00    -0.208 A  
HETATM   24  C   UNL     1      -7.693  15.555  66.587  1.00  0.00     0.011 A  
HETATM   25  C   UNL     1      -7.424  16.919  66.535  1.00  0.00    -0.328 A  
HETATM   26  C   UNL     1      -8.158  17.808  67.327  1.00  0.00    -0.223 A  
HETATM   27  C   UNL     1      -9.147  17.324  68.189  1.00  0.00    -0.257 A  
HETATM   28 CL   UNL     1     -10.007  18.497  69.131  1.00  0.00    -0.312 Cl 
HETATM   29  C   UNL     1      -9.421  15.949  68.254  1.00  0.00    -0.201 A  
HETATM   30 CL   UNL     1     -10.662  15.378  69.333  1.00  0.00    -0.242 Cl 
ENDBRANCH  18  23
ENDBRANCH   9  11
ENDBRANCH   8   9
ENDBRANCH   7   8
ENDBRANCH   6   7
ENDBRANCH   4   6
ENDBRANCH   3   4
ENDBRANCH   2   3
TORSDOF 10
ENDMDL
MODEL      204
REMARK 921   NORMALIZED FREE ENERGY PREDICTED BY IDOCK:   -3.06 KCAL/MOL
REMARK 922        TOTAL FREE ENERGY PREDICTED BY IDOCK:   -6.26 KCAL/MOL
REMARK 923 INTER-LIGAND FREE ENERGY PREDICTED BY IDOCK:   -5.33 KCAL/MOL
REMARK 924 INTRA-LIGAND FREE ENERGY PREDICTED BY IDOCK:   -0.93 KCAL/MOL
REMARK 927      BINDING AFFINITY PREDICTED BY RF-SCORE:    0.00 PKD
ROOT
HETATM    1  C   UNL     1      -9.547   1.474  71.251  1.00  0.00    -0.200 C  
HETATM    2  C   UNL     1      -8.801   2.158  70.118  1.00  0.00    -0.135 C  
ENDROOT
BRANCH   2   3
HETATM    3  C   UNL     1      -9.612   2.133  68.830  1.00  0.00    -0.100 C  
BRANCH   3   4
HETATM    4  C   UNL     1      -9.025   3.053  67.788  1.00  0.00    -0.157 C  
HETATM    5  O   UNL     1      -9.155   2.929  66.578  1.00  0.00    -0.148 OA 
BRANCH   4   6
HETATM    6  O   UNL     1      -8.385   4.070  68.412  1.00  0.00    -0.089 OA 
BRANCH   6   7
HETATM    7  C   UNL     1      -9.035   5.330  68.338  1.00  0.00    -0.108 C  
BRANCH   7   8
HETATM    8  O   UNL     1      -9.425   5.782  67.041  1.00  0.00    -0.118 OA 
BRANCH   8   9
HETATM    9  C   UNL     1      -9.964   7.011  66.950  1.00  0.00    -0.217 C  
HETATM   10  O   UNL     1     -11.159   7.238  66.852  1.00  0.00    -0.287 OA 
BRANCH   9  11
HETATM   11  C   UNL     1      -8.893   8.052  66.803  1.00  0.00    -0.157 C  
HETATM   12  C   UNL     1      -7.782   7.907  66.033  1.00  0.00    -0.092 C  
HETATM   13  N   UNL     1      -6.945   8.989  65.834  1.00  0.00    -0.086 NA 
HETATM   14  C   UNL     1      -7.293   6.670  65.306  1.00  0.00    -0.080 C  
HETATM   15  C   UNL     1      -7.027  10.202  66.484  1.00  0.00    -0.102 C  
HETATM   16  C   UNL     1      -8.070  10.460  67.305  1.00  0.00    -0.114 C  
HETATM   17  C   UNL     1      -5.889  11.153  66.200  1.00  0.00    -0.120 C  
HETATM   18  C   UNL     1      -9.202   9.424  67.478  1.00  0.00    -0.139 C  
BRANCH  16  19
HETATM   19  C   UNL     1      -8.074  11.734  68.077  1.00  0.00    -0.145 C  
HETATM   20  O   UNL     1      -7.323  11.976  69.010  1.00  0.00    -0.096 OA 
BRANCH  19  21
HETATM   21  O   UNL     1      -9.040  12.580  67.638  1.00  0.00    -0.172 OA 
HETATM   22  C   UNL     1      -8.541  13.861  67.242  1.00  0.00    -0.211 C  
ENDBRANCH  19  21
ENDBRANCH  16  19
BRANCH  18  23
HETATM   23  C   UNL     1      -9.613   9.283  68.951  1.00  0.00    -0.155 A  
HETATM   24  C   UNL     1      -8.766   8.572  69.821  1.00  0.00    -0.132 A  
HETATM   25  C   UNL     1      -9.078   8.432  71.170  1.00  0.00    -0.217 A  
HETATM   26  C   UNL     1     -10.242   9.011  71.683  1.00  0.00    -0.418 A  
HETATM   27  C   UNL     1     -11.107   9.711  70.836  1.00  0.00    -0.352 A  
HETATM   28 CL   UNL     1     -12.526  10.396  71.557  1.00  0.00    -0.498 Cl 
HETATM   29  C   UNL     1     -10.804   9.852  69.472  1.00  0.00    -0.246 A  
HETATM   30 CL   UNL     1     -11.897  10.735  68.444  1.00  0.00    -0.238 Cl 
ENDBRANCH  18  23
ENDBRANCH   9  11
ENDBRANCH   8   9
ENDBRANCH   7   8
ENDBRANCH   6   7
ENDBRANCH   4   6
ENDBRANCH   3   4
ENDBRANCH   2   3
TORSDOF 10
ENDMDL
MODEL      205
REMARK 921   NORMALIZED FREE ENERGY PREDICTED BY IDOCK:   -3.06 KCAL/MOL
REMARK 922        TOTAL FREE ENERGY PREDICTED BY IDOCK:   -6.25 KCAL/MOL
REMARK 923 INTER-LIGAND FREE ENERGY PREDICTED BY IDOCK:   -5.11 KCAL/MOL
REMARK 924 INTRA-LIGAND FREE ENERGY PREDICTED BY IDOCK:   -1.14 KCAL/MOL
REMARK 927      BINDING AFFINITY PREDICTED BY RF-SCORE:    0.00 PKD
ROOT
HETATM    1  C   UNL     1      -7.521   9.307  69.390  1.00  0.00    -0.078 C  
HETATM    2  C   UNL     1      -7.459   9.460  67.880  1.00  0.00    -0.084 C  
ENDROOT
BRANCH   2   3
HETATM    3  C   UNL     1      -8.773   9.991  67.325  1.00  0.00    -0.127 C  
BRANCH   3   4
HETATM    4  C   UNL     1      -8.605  11.364  66.721  1.00  0.00    -0.166 C  
HETATM    5  O   UNL     1      -7.801  12.208  67.089  1.00  0.00    -0.163 OA 
BRANCH   4   6
HETATM    6  O   UNL     1      -9.446  11.484  65.667  1.00  0.00    -0.223 OA 
BRANCH   6   7
HETATM    7  C   UNL     1      -9.599  12.801  65.161  1.00  0.00     0.144 C  
BRANCH   7   8
HETATM    8  O   UNL     1     -10.780  13.507  65.543  1.00  0.00    -0.278 OA 
BRANCH   8   9
HETATM    9  C   UNL     1     -10.728  14.233  66.675  1.00  0.00    -0.290 C  
HETATM   10  O   UNL     1     -10.901  13.783  67.795  1.00  0.00    -0.245 OA 
BRANCH   9  11
HETATM   11  C   UNL     1     -10.609  15.697  66.362  1.00  0.00    -0.308 C  
HETATM   12  C   UNL     1     -11.164  16.297  65.276  1.00  0.00    -0.033 C  
HETATM   13  N   UNL     1     -11.139  17.676  65.173  1.00  0.00    -0.497 NA 
HETATM   14  C   UNL     1     -11.857  15.653  64.092  1.00  0.00    -0.076 C  
HETATM   15  C   UNL     1     -10.446  18.534  66.000  1.00  0.00    -0.400 C  
HETATM   16  C   UNL     1      -9.822  18.055  67.101  1.00  0.00    -0.316 C  
HETATM   17  C   UNL     1     -10.455  19.980  65.566  1.00  0.00    -0.315 C  
HETATM   18  C   UNL     1      -9.926  16.559  67.468  1.00  0.00    -0.255 C  
BRANCH  16  19
HETATM   19  C   UNL     1      -8.992  18.987  67.914  1.00  0.00    -0.300 C  
HETATM   20  O   UNL     1      -9.329  19.443  68.996  1.00  0.00    -0.373 OA 
BRANCH  19  21
HETATM   21  O   UNL     1      -7.828  19.294  67.288  1.00  0.00    -0.249 OA 
HETATM   22  C   UNL     1      -6.917  20.035  68.104  1.00  0.00    -0.295 C  
ENDBRANCH  19  21
ENDBRANCH  16  19
BRANCH  18  23
HETATM   23  C   UNL     1      -8.568  15.994  67.908  1.00  0.00    -0.165 A  
HETATM   24  C   UNL     1      -7.530  15.921  66.960  1.00  0.00    -0.254 A  
HETATM   25  C   UNL     1      -6.273  15.439  67.310  1.00  0.00     0.099 A  
HETATM   26  C   UNL     1      -6.020  15.027  68.622  1.00  0.00    -0.088 A  
HETATM   27  C   UNL     1      -7.039  15.076  69.579  1.00  0.00    -0.192 A  
HETATM   28 CL   UNL     1      -6.638  14.547  71.179  1.00  0.00     0.291 Cl 
HETATM   29  C   UNL     1      -8.314  15.555  69.234  1.00  0.00    -0.257 A  
HETATM   30 CL   UNL     1      -9.560  15.612  70.449  1.00  0.00     0.381 Cl 
ENDBRANCH  18  23
ENDBRANCH   9  11
ENDBRANCH   8   9
ENDBRANCH   7   8
ENDBRANCH   6   7
ENDBRANCH   4   6
ENDBRANCH   3   4
ENDBRANCH   2   3
TORSDOF 10
ENDMDL
MODEL      206
REMARK 921   NORMALIZED FREE ENERGY PREDICTED BY IDOCK:   -3.03 KCAL/MOL
REMARK 922        TOTAL FREE ENERGY PREDICTED BY IDOCK:   -6.21 KCAL/MOL
REMARK 923 INTER-LIGAND FREE ENERGY PREDICTED BY IDOCK:   -5.42 KCAL/MOL
REMARK 924 INTRA-LIGAND FREE ENERGY PREDICTED BY IDOCK:   -0.79 KCAL/MOL
REMARK 927      BINDING AFFINITY PREDICTED BY RF-SCORE:    0.00 PKD
ROOT
HETATM    1  C   UNL     1     -10.258   5.119  67.127  1.00  0.00    -0.254 C  
HETATM    2  C   UNL     1     -10.168   5.370  68.622  1.00  0.00    -0.246 C  
ENDROOT
BRANCH   2   3
HETATM    3  C   UNL     1      -9.094   4.503  69.263  1.00  0.00    -0.167 C  
BRANCH   3   4
HETATM    4  C   UNL     1      -9.257   4.434  70.761  1.00  0.00    -0.138 C  
HETATM    5  O   UNL     1      -9.251   3.410  71.430  1.00  0.00    -0.103 OA 
BRANCH   4   6
HETATM    6  O   UNL     1      -9.349   5.693  71.249  1.00  0.00    -0.145 OA 
BRANCH   6   7
HETATM    7  C   UNL     1      -8.213   6.149  71.969  1.00  0.00    -0.110 C  
BRANCH   7   8
HETATM    8  O   UNL     1      -7.601   7.355  71.514  1.00  0.00    -0.083 OA 
BRANCH   8   9
HETATM    9  C   UNL     1      -8.263   8.507  71.734  1.00  0.00    -0.155 C  
HETATM   10  O   UNL     1      -8.845   8.784  72.769  1.00  0.00    -0.382 OA 
BRANCH   9  11
HETATM   11  C   UNL     1      -8.343   9.321  70.476  1.00  0.00    -0.237 C  
HETATM   12  C   UNL     1      -7.393  10.204  70.070  1.00  0.00    -0.165 C  
HETATM   13  N   UNL     1      -7.485  10.774  68.814  1.00  0.00    -0.100 NA 
HETATM   14  C   UNL     1      -6.167  10.683  70.822  1.00  0.00     0.012 C  
HETATM   15  C   UNL     1      -8.558  10.668  67.957  1.00  0.00    -0.122 C  
HETATM   16  C   UNL     1      -9.587   9.844  68.260  1.00  0.00    -0.151 C  
HETATM   17  C   UNL     1      -8.469  11.525  66.716  1.00  0.00    -0.168 C  
HETATM   18  C   UNL     1      -9.543   8.978  69.538  1.00  0.00    -0.165 C  
BRANCH  16  19
HETATM   19  C   UNL     1     -10.781   9.833  67.370  1.00  0.00    -0.249 C  
HETATM   20  O   UNL     1     -11.574  10.757  67.270  1.00  0.00    -0.439 OA 
BRANCH  19  21
HETATM   21  O   UNL     1     -10.899   8.655  66.708  1.00  0.00    -0.145 OA 
HETATM   22  C   UNL     1      -9.652   8.138  66.233  1.00  0.00    -0.178 C  
ENDBRANCH  19  21
ENDBRANCH  16  19
BRANCH  18  23
HETATM   23  C   UNL     1     -10.892   8.989  70.271  1.00  0.00    -0.269 A  
HETATM   24  C   UNL     1     -11.502   7.758  70.576  1.00  0.00    -0.219 A  
HETATM   25  C   UNL     1     -12.713   7.708  71.258  1.00  0.00    -0.306 A  
HETATM   26  C   UNL     1     -13.339   8.892  71.663  1.00  0.00    -0.414 A  
HETATM   27  C   UNL     1     -12.759  10.128  71.359  1.00  0.00    -0.425 A  
HETATM   28 CL   UNL     1     -13.603  11.542  71.899  1.00  0.00    -0.249 Cl 
HETATM   29  C   UNL     1     -11.540  10.189  70.665  1.00  0.00    -0.343 A  
HETATM   30 CL   UNL     1     -10.840  11.743  70.308  1.00  0.00     0.699 Cl 
ENDBRANCH  18  23
ENDBRANCH   9  11
ENDBRANCH   8   9
ENDBRANCH   7   8
ENDBRANCH   6   7
ENDBRANCH   4   6
ENDBRANCH   3   4
ENDBRANCH   2   3
TORSDOF 10
ENDMDL
MODEL      207
REMARK 921   NORMALIZED FREE ENERGY PREDICTED BY IDOCK:   -3.03 KCAL/MOL
REMARK 922        TOTAL FREE ENERGY PREDICTED BY IDOCK:   -6.20 KCAL/MOL
REMARK 923 INTER-LIGAND FREE ENERGY PREDICTED BY IDOCK:   -4.01 KCAL/MOL
REMARK 924 INTRA-LIGAND FREE ENERGY PREDICTED BY IDOCK:   -2.19 KCAL/MOL
REMARK 927      BINDING AFFINITY PREDICTED BY RF-SCORE:    0.00 PKD
ROOT
HETATM    1  C   UNL     1      -7.061  12.375  68.577  1.00  0.00    -0.100 C  
HETATM    2  C   UNL     1      -6.941  11.153  69.471  1.00  0.00    -0.111 C  
ENDROOT
BRANCH   2   3
HETATM    3  C   UNL     1      -8.223  10.333  69.461  1.00  0.00    -0.165 C  
BRANCH   3   4
HETATM    4  C   UNL     1      -8.150   9.178  70.428  1.00  0.00    -0.152 C  
HETATM    5  O   UNL     1      -8.420   9.231  71.619  1.00  0.00    -0.304 OA 
BRANCH   4   6
HETATM    6  O   UNL     1      -7.798   8.060  69.749  1.00  0.00    -0.101 OA 
BRANCH   6   7
HETATM    7  C   UNL     1      -7.174   7.050  70.528  1.00  0.00    -0.068 C  
BRANCH   7   8
HETATM    8  O   UNL     1      -7.061   5.756  69.936  1.00  0.00    -0.063 OA 
BRANCH   8   9
HETATM    9  C   UNL     1      -8.203   5.091  69.678  1.00  0.00    -0.088 C  
HETATM   10  O   UNL     1      -9.187   5.100  70.398  1.00  0.00    -0.138 OA 
BRANCH   9  11
HETATM   11  C   UNL     1      -8.038   4.197  68.484  1.00  0.00    -0.077 C  
HETATM   12  C   UNL     1      -7.416   2.989  68.509  1.00  0.00    -0.049 C  
HETATM   13  N   UNL     1      -7.469   2.172  67.395  1.00  0.00    -0.059 NA 
HETATM   14  C   UNL     1      -6.633   2.354  69.642  1.00  0.00    -0.033 C  
HETATM   15  C   UNL     1      -7.963   2.525  66.159  1.00  0.00    -0.082 C  
HETATM   16  C   UNL     1      -8.579   3.718  65.993  1.00  0.00    -0.113 C  
HETATM   17  C   UNL     1      -7.750   1.499  65.071  1.00  0.00    -0.063 C  
HETATM   18  C   UNL     1      -8.782   4.665  67.195  1.00  0.00    -0.104 C  
BRANCH  16  19
HETATM   19  C   UNL     1      -9.006   4.118  64.623  1.00  0.00    -0.141 C  
HETATM   20  O   UNL     1      -8.264   4.616  63.789  1.00  0.00    -0.095 OA 
BRANCH  19  21
HETATM   21  O   UNL     1     -10.329   3.893  64.426  1.00  0.00    -0.226 OA 
HETATM   22  C   UNL     1     -10.658   3.554  63.076  1.00  0.00    -0.223 C  
ENDBRANCH  19  21
ENDBRANCH  16  19
BRANCH  18  23
HETATM   23  C   UNL     1      -8.465   6.121  66.822  1.00  0.00    -0.111 A  
HETATM   24  C   UNL     1      -7.139   6.456  66.486  1.00  0.00    -0.068 A  
HETATM   25  C   UNL     1      -6.800   7.754  66.118  1.00  0.00    -0.061 A  
HETATM   26  C   UNL     1      -7.783   8.748  66.067  1.00  0.00    -0.097 A  
HETATM   27  C   UNL     1      -9.104   8.443  66.410  1.00  0.00    -0.187 A  
HETATM   28 CL   UNL     1     -10.256   9.734  66.317  1.00  0.00    -0.308 Cl 
HETATM   29  C   UNL     1      -9.455   7.137  66.789  1.00  0.00    -0.169 A  
HETATM   30 CL   UNL     1     -11.110   6.786  67.202  1.00  0.00    -0.455 Cl 
ENDBRANCH  18  23
ENDBRANCH   9  11
ENDBRANCH   8   9
ENDBRANCH   7   8
ENDBRANCH   6   7
ENDBRANCH   4   6
ENDBRANCH   3   4
ENDBRANCH   2   3
TORSDOF 10
ENDMDL
MODEL      208
REMARK 921   NORMALIZED FREE ENERGY PREDICTED BY IDOCK:   -3.01 KCAL/MOL
REMARK 922        TOTAL FREE ENERGY PREDICTED BY IDOCK:   -6.16 KCAL/MOL
REMARK 923 INTER-LIGAND FREE ENERGY PREDICTED BY IDOCK:   -5.69 KCAL/MOL
REMARK 924 INTRA-LIGAND FREE ENERGY PREDICTED BY IDOCK:   -0.47 KCAL/MOL
REMARK 927      BINDING AFFINITY PREDICTED BY RF-SCORE:    0.00 PKD
ROOT
HETATM    1  C   UNL     1     -10.365   7.753  66.867  1.00  0.00    -0.396 C  
HETATM    2  C   UNL     1     -10.362   9.247  67.144  1.00  0.00    -0.330 C  
ENDROOT
BRANCH   2   3
HETATM    3  C   UNL     1      -9.128   9.915  66.553  1.00  0.00    -0.179 C  
BRANCH   3   4
HETATM    4  C   UNL     1      -9.265  11.417  66.537  1.00  0.00    -0.189 C  
HETATM    5  O   UNL     1      -8.814  12.181  67.379  1.00  0.00    -0.167 OA 
BRANCH   4   6
HETATM    6  O   UNL     1      -9.915  11.785  65.407  1.00  0.00    -0.241 OA 
BRANCH   6   7
HETATM    7  C   UNL     1      -9.452  12.985  64.806  1.00  0.00     0.508 C  
BRANCH   7   8
HETATM    8  O   UNL     1     -10.435  13.829  64.206  1.00  0.00    -0.359 OA 
BRANCH   8   9
HETATM    9  C   UNL     1     -10.739  14.975  64.844  1.00  0.00    -0.397 C  
HETATM   10  O   UNL     1     -10.543  16.090  64.393  1.00  0.00    -0.350 OA 
BRANCH   9  11
HETATM   11  C   UNL     1     -11.181  14.698  66.251  1.00  0.00    -0.340 C  
HETATM   12  C   UNL     1     -12.243  13.917  66.584  1.00  0.00    -0.424 C  
HETATM   13  N   UNL     1     -12.459  13.591  67.910  1.00  0.00     0.095 NA 
HETATM   14  C   UNL     1     -13.285  13.303  65.671  1.00  0.00     0.519 C  
HETATM   15  C   UNL     1     -11.788  14.120  68.991  1.00  0.00    -0.348 C  
HETATM   16  C   UNL     1     -10.730  14.939  68.794  1.00  0.00    -0.252 C  
HETATM   17  C   UNL     1     -12.334  13.715  70.339  1.00  0.00    -0.415 C  
HETATM   18  C   UNL     1     -10.232  15.242  67.364  1.00  0.00    -0.243 C  
BRANCH  16  19
HETATM   19  C   UNL     1     -10.093  15.582  69.978  1.00  0.00    -0.228 C  
HETATM   20  O   UNL     1      -9.083  15.168  70.526  1.00  0.00     0.621 OA 
BRANCH  19  21
HETATM   21  O   UNL     1     -10.795  16.666  70.394  1.00  0.00    -0.218 OA 
HETATM   22  C   UNL     1     -11.546  16.437  71.589  1.00  0.00    -0.265 C  
ENDBRANCH  19  21
ENDBRANCH  16  19
BRANCH  18  23
HETATM   23  C   UNL     1      -9.904  16.732  67.188  1.00  0.00    -0.259 A  
HETATM   24  C   UNL     1     -10.965  17.657  67.160  1.00  0.00     0.017 A  
HETATM   25  C   UNL     1     -10.723  19.020  67.025  1.00  0.00    -0.516 A  
HETATM   26  C   UNL     1      -9.411  19.493  66.928  1.00  0.00    -0.424 A  
HETATM   27  C   UNL     1      -8.341  18.593  66.940  1.00  0.00    -0.264 A  
HETATM   28 CL   UNL     1      -6.749  19.267  66.815  1.00  0.00    -0.197 Cl 
HETATM   29  C   UNL     1      -8.574  17.214  67.069  1.00  0.00    -0.218 A  
HETATM   30 CL   UNL     1      -7.220  16.119  67.089  1.00  0.00    -0.235 Cl 
ENDBRANCH  18  23
ENDBRANCH   9  11
ENDBRANCH   8   9
ENDBRANCH   7   8
ENDBRANCH   6   7
ENDBRANCH   4   6
ENDBRANCH   3   4
ENDBRANCH   2   3
TORSDOF 10
ENDMDL
MODEL      209
REMARK 921   NORMALIZED FREE ENERGY PREDICTED BY IDOCK:   -2.97 KCAL/MOL
REMARK 922        TOTAL FREE ENERGY PREDICTED BY IDOCK:   -6.11 KCAL/MOL
REMARK 923 INTER-LIGAND FREE ENERGY PREDICTED BY IDOCK:   -5.39 KCAL/MOL
REMARK 924 INTRA-LIGAND FREE ENERGY PREDICTED BY IDOCK:   -0.71 KCAL/MOL
REMARK 927      BINDING AFFINITY PREDICTED BY RF-SCORE:    0.00 PKD
ROOT
HETATM    1  C   UNL     1      -9.282   6.618  66.913  1.00  0.00    -0.158 C  
HETATM    2  C   UNL     1      -9.965   6.144  68.185  1.00  0.00    -0.158 C  
ENDROOT
BRANCH   2   3
HETATM    3  C   UNL     1      -9.119   6.452  69.413  1.00  0.00    -0.140 C  
BRANCH   3   4
HETATM    4  C   UNL     1      -9.778   7.484  70.295  1.00  0.00    -0.179 C  
HETATM    5  O   UNL     1     -10.083   7.324  71.468  1.00  0.00    -0.186 OA 
BRANCH   4   6
HETATM    6  O   UNL     1      -9.919   8.633  69.594  1.00  0.00    -0.183 OA 
BRANCH   6   7
HETATM    7  C   UNL     1     -10.468   9.723  70.320  1.00  0.00    -0.288 C  
BRANCH   7   8
HETATM    8  O   UNL     1     -10.424  11.005  69.694  1.00  0.00    -0.161 OA 
BRANCH   8   9
HETATM    9  C   UNL     1      -9.443  11.223  68.799  1.00  0.00    -0.139 C  
HETATM   10  O   UNL     1      -8.274  10.917  68.965  1.00  0.00    -0.151 OA 
BRANCH   9  11
HETATM   11  C   UNL     1      -9.945  12.053  67.654  1.00  0.00    -0.196 C  
HETATM   12  C   UNL     1     -10.675  11.568  66.615  1.00  0.00    -0.268 C  
HETATM   13  N   UNL     1     -11.231  12.447  65.704  1.00  0.00    -0.309 NA 
HETATM   14  C   UNL     1     -11.005  10.125  66.286  1.00  0.00     0.182 C  
HETATM   15  C   UNL     1     -10.983  13.801  65.635  1.00  0.00    -0.288 C  
HETATM   16  C   UNL     1     -10.242  14.402  66.593  1.00  0.00    -0.277 C  
HETATM   17  C   UNL     1     -11.590  14.498  64.441  1.00  0.00    -0.325 C  
HETATM   18  C   UNL     1      -9.715  13.590  67.796  1.00  0.00    -0.226 C  
BRANCH  16  19
HETATM   19  C   UNL     1      -9.900  15.843  66.434  1.00  0.00    -0.282 C  
HETATM   20  O   UNL     1     -10.599  16.764  66.832  1.00  0.00    -0.298 OA 
BRANCH  19  21
HETATM   21  O   UNL     1      -8.733  16.008  65.762  1.00  0.00    -0.269 OA 
HETATM   22  C   UNL     1      -7.962  17.123  66.219  1.00  0.00    -0.304 C  
ENDBRANCH  19  21
ENDBRANCH  16  19
BRANCH  18  23
HETATM   23  C   UNL     1      -8.255  13.945  68.116  1.00  0.00    -0.158 A  
HETATM   24  C   UNL     1      -7.231  13.257  67.438  1.00  0.00    -0.119 A  
HETATM   25  C   UNL     1      -5.892  13.554  67.673  1.00  0.00    -0.075 A  
HETATM   26  C   UNL     1      -5.546  14.555  68.585  1.00  0.00    -0.093 A  
HETATM   27  C   UNL     1      -6.545  15.243  69.281  1.00  0.00    -0.141 A  
HETATM   28 CL   UNL     1      -6.024  16.468  70.391  1.00  0.00    -0.060 Cl 
HETATM   29  C   UNL     1      -7.899  14.946  69.057  1.00  0.00    -0.165 A  
HETATM   30 CL   UNL     1      -9.120  15.825  69.933  1.00  0.00     0.021 Cl 
ENDBRANCH  18  23
ENDBRANCH   9  11
ENDBRANCH   8   9
ENDBRANCH   7   8
ENDBRANCH   6   7
ENDBRANCH   4   6
ENDBRANCH   3   4
ENDBRANCH   2   3
TORSDOF 10
ENDMDL
MODEL      210
REMARK 921   NORMALIZED FREE ENERGY PREDICTED BY IDOCK:   -2.92 KCAL/MOL
REMARK 922        TOTAL FREE ENERGY PREDICTED BY IDOCK:   -6.03 KCAL/MOL
REMARK 923 INTER-LIGAND FREE ENERGY PREDICTED BY IDOCK:   -6.06 KCAL/MOL
REMARK 924 INTRA-LIGAND FREE ENERGY PREDICTED BY IDOCK:    0.03 KCAL/MOL
REMARK 927      BINDING AFFINITY PREDICTED BY RF-SCORE:    0.00 PKD
ROOT
HETATM    1  C   UNL     1     -10.782   7.738  66.993  1.00  0.00    -0.316 C  
HETATM    2  C   UNL     1     -10.320   9.183  67.058  1.00  0.00    -0.333 C  
ENDROOT
BRANCH   2   3
HETATM    3  C   UNL     1      -9.737   9.636  65.726  1.00  0.00    -0.350 C  
BRANCH   3   4
HETATM    4  C   UNL     1      -9.316  11.084  65.769  1.00  0.00    -0.211 C  
HETATM    5  O   UNL     1      -8.237  11.498  66.169  1.00  0.00    -0.107 OA 
BRANCH   4   6
HETATM    6  O   UNL     1     -10.302  11.843  65.235  1.00  0.00    -0.255 OA 
BRANCH   6   7
HETATM    7  C   UNL     1      -9.980  13.213  65.050  1.00  0.00    -0.142 C  
BRANCH   7   8
HETATM    8  O   UNL     1     -11.003  14.164  65.345  1.00  0.00    -0.304 OA 
BRANCH   8   9
HETATM    9  C   UNL     1     -10.642  15.273  66.017  1.00  0.00    -0.319 C  
HETATM   10  O   UNL     1     -10.933  16.409  65.685  1.00  0.00    -0.212 OA 
BRANCH   9  11
HETATM   11  C   UNL     1      -9.684  14.935  67.123  1.00  0.00    -0.229 C  
HETATM   12  C   UNL     1      -9.868  13.929  68.018  1.00  0.00    -0.234 C  
HETATM   13  N   UNL     1      -8.846  13.595  68.887  1.00  0.00     0.093 NA 
HETATM   14  C   UNL     1     -11.090  13.055  68.217  1.00  0.00    -0.293 C  
HETATM   15  C   UNL     1      -7.675  14.301  69.064  1.00  0.00    -0.065 C  
HETATM   16  C   UNL     1      -7.388  15.347  68.256  1.00  0.00    -0.113 C  
HETATM   17  C   UNL     1      -6.803  13.812  70.195  1.00  0.00     0.297 C  
HETATM   18  C   UNL     1      -8.338  15.723  67.099  1.00  0.00    -0.231 C  
BRANCH  16  19
HETATM   19  C   UNL     1      -6.170  16.157  68.541  1.00  0.00    -0.115 C  
HETATM   20  O   UNL     1      -5.157  16.139  67.858  1.00  0.00    -0.107 OA 
BRANCH  19  21
HETATM   21  O   UNL     1      -6.313  16.891  69.672  1.00  0.00    -0.225 OA 
HETATM   22  C   UNL     1      -6.010  18.278  69.496  1.00  0.00    -0.252 C  
ENDBRANCH  19  21
ENDBRANCH  16  19
BRANCH  18  23
HETATM   23  C   UNL     1      -8.541  17.243  67.011  1.00  0.00    -0.246 A  
HETATM   24  C   UNL     1      -7.880  17.952  65.990  1.00  0.00    -0.189 A  
HETATM   25  C   UNL     1      -8.045  19.327  65.850  1.00  0.00    -0.120 A  
HETATM   26  C   UNL     1      -8.887  20.024  66.723  1.00  0.00    -0.427 A  
HETATM   27  C   UNL     1      -9.544  19.343  67.753  1.00  0.00    -0.335 A  
HETATM   28 CL   UNL     1     -10.567  20.286  68.786  1.00  0.00    -0.147 Cl 
HETATM   29  C   UNL     1      -9.378  17.957  67.907  1.00  0.00    -0.271 A  
HETATM   30 CL   UNL     1     -10.215  17.137  69.195  1.00  0.00    -0.307 Cl 
ENDBRANCH  18  23
ENDBRANCH   9  11
ENDBRANCH   8   9
ENDBRANCH   7   8
ENDBRANCH   6   7
ENDBRANCH   4   6
ENDBRANCH   3   4
ENDBRANCH   2   3
TORSDOF 10
ENDMDL
MODEL      211
REMARK 921   NORMALIZED FREE ENERGY PREDICTED BY IDOCK:   -2.90 KCAL/MOL
REMARK 922        TOTAL FREE ENERGY PREDICTED BY IDOCK:   -5.99 KCAL/MOL
REMARK 923 INTER-LIGAND FREE ENERGY PREDICTED BY IDOCK:   -4.74 KCAL/MOL
REMARK 924 INTRA-LIGAND FREE ENERGY PREDICTED BY IDOCK:   -1.26 KCAL/MOL
REMARK 927      BINDING AFFINITY PREDICTED BY RF-SCORE:    0.00 PKD
ROOT
HETATM    1  C   UNL     1     -10.930  15.976  66.944  1.00  0.00    -0.124 C  
HETATM    2  C   UNL     1     -10.530  14.865  65.988  1.00  0.00    -0.326 C  
ENDROOT
BRANCH   2   3
HETATM    3  C   UNL     1     -10.815  13.494  66.584  1.00  0.00    -0.283 C  
BRANCH   3   4
HETATM    4  C   UNL     1     -10.238  13.363  67.972  1.00  0.00    -0.243 C  
HETATM    5  O   UNL     1     -10.876  13.409  69.014  1.00  0.00    -0.245 OA 
BRANCH   4   6
HETATM    6  O   UNL     1      -8.909  13.123  67.872  1.00  0.00    -0.176 OA 
BRANCH   6   7
HETATM    7  C   UNL     1      -8.539  12.160  66.896  1.00  0.00    -0.191 C  
BRANCH   7   8
HETATM    8  O   UNL     1      -7.143  11.908  66.734  1.00  0.00    -0.107 OA 
BRANCH   8   9
HETATM    9  C   UNL     1      -6.643  10.802  67.315  1.00  0.00    -0.075 C  
HETATM   10  O   UNL     1      -5.907  10.804  68.288  1.00  0.00    -0.044 OA 
BRANCH   9  11
HETATM   11  C   UNL     1      -6.962   9.583  66.500  1.00  0.00    -0.085 C  
HETATM   12  C   UNL     1      -6.650   9.435  65.186  1.00  0.00    -0.079 C  
HETATM   13  N   UNL     1      -6.836   8.208  64.576  1.00  0.00    -0.067 NA 
HETATM   14  C   UNL     1      -6.085  10.465  64.228  1.00  0.00    -0.081 C  
HETATM   15  C   UNL     1      -7.478   7.121  65.129  1.00  0.00    -0.094 C  
HETATM   16  C   UNL     1      -7.869   7.154  66.423  1.00  0.00    -0.109 C  
HETATM   17  C   UNL     1      -7.690   5.960  64.187  1.00  0.00    -0.106 C  
HETATM   18  C   UNL     1      -7.552   8.382  67.304  1.00  0.00    -0.097 C  
BRANCH  16  19
HETATM   19  C   UNL     1      -8.656   6.010  66.962  1.00  0.00    -0.107 C  
HETATM   20  O   UNL     1      -8.179   5.091  67.611  1.00  0.00    -0.105 OA 
BRANCH  19  21
HETATM   21  O   UNL     1      -9.964   6.097  66.614  1.00  0.00    -0.161 OA 
HETATM   22  C   UNL     1     -10.524   4.855  66.177  1.00  0.00    -0.302 C  
ENDBRANCH  19  21
ENDBRANCH  16  19
BRANCH  18  23
HETATM   23  C   UNL     1      -8.758   8.781  68.167  1.00  0.00    -0.134 A  
HETATM   24  C   UNL     1      -9.891   9.321  67.532  1.00  0.00    -0.224 A  
HETATM   25  C   UNL     1     -11.020   9.678  68.262  1.00  0.00    -0.172 A  
HETATM   26  C   UNL     1     -11.046   9.492  69.648  1.00  0.00    -0.196 A  
HETATM   27  C   UNL     1      -9.927   8.969  70.304  1.00  0.00    -0.195 A  
HETATM   28 CL   UNL     1     -10.047   8.771  72.021  1.00  0.00    -0.402 Cl 
HETATM   29  C   UNL     1      -8.780   8.612  69.576  1.00  0.00    -0.139 A  
HETATM   30 CL   UNL     1      -7.405   7.956  70.420  1.00  0.00    -0.067 Cl 
ENDBRANCH  18  23
ENDBRANCH   9  11
ENDBRANCH   8   9
ENDBRANCH   7   8
ENDBRANCH   6   7
ENDBRANCH   4   6
ENDBRANCH   3   4
ENDBRANCH   2   3
TORSDOF 10
ENDMDL
MODEL      212
REMARK 921   NORMALIZED FREE ENERGY PREDICTED BY IDOCK:   -2.88 KCAL/MOL
REMARK 922        TOTAL FREE ENERGY PREDICTED BY IDOCK:   -5.97 KCAL/MOL
REMARK 923 INTER-LIGAND FREE ENERGY PREDICTED BY IDOCK:   -4.80 KCAL/MOL
REMARK 924 INTRA-LIGAND FREE ENERGY PREDICTED BY IDOCK:   -1.17 KCAL/MOL
REMARK 927      BINDING AFFINITY PREDICTED BY RF-SCORE:    0.00 PKD
ROOT
HETATM    1  C   UNL     1     -13.023  13.968  64.981  1.00  0.00    -0.172 C  
HETATM    2  C   UNL     1     -11.564  13.755  64.613  1.00  0.00    -0.396 C  
ENDROOT
BRANCH   2   3
HETATM    3  C   UNL     1     -11.322  12.337  64.116  1.00  0.00    -0.442 C  
BRANCH   3   4
HETATM    4  C   UNL     1     -11.068  11.385  65.259  1.00  0.00    -0.129 C  
HETATM    5  O   UNL     1     -11.607  11.432  66.355  1.00  0.00    -0.369 OA 
BRANCH   4   6
HETATM    6  O   UNL     1     -10.194  10.435  64.851  1.00  0.00    -0.338 OA 
BRANCH   6   7
HETATM    7  C   UNL     1      -9.084  10.224  65.711  1.00  0.00    -0.170 C  
BRANCH   7   8
HETATM    8  O   UNL     1      -8.992   8.948  66.345  1.00  0.00    -0.141 OA 
BRANCH   8   9
HETATM    9  C   UNL     1      -7.759   8.449  66.555  1.00  0.00    -0.089 C  
HETATM   10  O   UNL     1      -6.807   9.100  66.951  1.00  0.00    -0.078 OA 
BRANCH   9  11
HETATM   11  C   UNL     1      -7.670   7.033  66.066  1.00  0.00    -0.099 C  
HETATM   12  C   UNL     1      -7.586   6.677  64.757  1.00  0.00    -0.103 C  
HETATM   13  N   UNL     1      -7.336   5.359  64.424  1.00  0.00    -0.058 NA 
HETATM   14  C   UNL     1      -7.722   7.556  63.529  1.00  0.00    -0.126 C  
HETATM   15  C   UNL     1      -7.322   4.295  65.300  1.00  0.00    -0.072 C  
HETATM   16  C   UNL     1      -7.429   4.513  66.630  1.00  0.00    -0.082 C  
HETATM   17  C   UNL     1      -7.187   2.938  64.650  1.00  0.00    -0.062 C  
HETATM   18  C   UNL     1      -7.512   5.953  67.181  1.00  0.00    -0.084 C  
BRANCH  16  19
HETATM   19  C   UNL     1      -7.521   3.339  67.543  1.00  0.00    -0.062 C  
HETATM   20  O   UNL     1      -6.558   2.790  68.057  1.00  0.00    -0.035 OA 
BRANCH  19  21
HETATM   21  O   UNL     1      -8.805   2.933  67.704  1.00  0.00    -0.109 OA 
HETATM   22  C   UNL     1      -8.944   1.515  67.839  1.00  0.00    -0.130 C  
ENDBRANCH  19  21
ENDBRANCH  16  19
BRANCH  18  23
HETATM   23  C   UNL     1      -8.578   6.074  68.279  1.00  0.00    -0.115 A  
HETATM   24  C   UNL     1      -9.935   6.037  67.907  1.00  0.00    -0.151 A  
HETATM   25  C   UNL     1     -10.943   6.119  68.863  1.00  0.00    -0.424 A  
HETATM   26  C   UNL     1     -10.616   6.229  70.218  1.00  0.00    -0.305 A  
HETATM   27  C   UNL     1      -9.275   6.281  70.612  1.00  0.00    -0.158 A  
HETATM   28 CL   UNL     1      -8.962   6.417  72.311  1.00  0.00    -0.139 Cl 
HETATM   29  C   UNL     1      -8.251   6.206  69.654  1.00  0.00    -0.116 A  
HETATM   30 CL   UNL     1      -6.590   6.266  70.176  1.00  0.00    -0.043 Cl 
ENDBRANCH  18  23
ENDBRANCH   9  11
ENDBRANCH   8   9
ENDBRANCH   7   8
ENDBRANCH   6   7
ENDBRANCH   4   6
ENDBRANCH   3   4
ENDBRANCH   2   3
TORSDOF 10
ENDMDL
MODEL      213
REMARK 921   NORMALIZED FREE ENERGY PREDICTED BY IDOCK:   -2.87 KCAL/MOL
REMARK 922        TOTAL FREE ENERGY PREDICTED BY IDOCK:   -5.95 KCAL/MOL
REMARK 923 INTER-LIGAND FREE ENERGY PREDICTED BY IDOCK:   -5.71 KCAL/MOL
REMARK 924 INTRA-LIGAND FREE ENERGY PREDICTED BY IDOCK:   -0.25 KCAL/MOL
REMARK 927      BINDING AFFINITY PREDICTED BY RF-SCORE:    0.00 PKD
ROOT
HETATM    1  C   UNL     1      -9.567  16.453  65.791  1.00  0.00    -0.227 C  
HETATM    2  C   UNL     1     -10.102  15.086  65.398  1.00  0.00    -0.396 C  
ENDROOT
BRANCH   2   3
HETATM    3  C   UNL     1     -11.520  14.881  65.912  1.00  0.00    -0.276 C  
BRANCH   3   4
HETATM    4  C   UNL     1     -11.653  13.582  66.667  1.00  0.00    -0.363 C  
HETATM    5  O   UNL     1     -12.060  12.527  66.200  1.00  0.00    -0.571 OA 
BRANCH   4   6
HETATM    6  O   UNL     1     -11.191  13.759  67.927  1.00  0.00    -0.255 OA 
BRANCH   6   7
HETATM    7  C   UNL     1     -10.030  13.012  68.257  1.00  0.00    -0.235 C  
BRANCH   7   8
HETATM    8  O   UNL     1     -10.194  11.934  69.179  1.00  0.00    -0.055 OA 
BRANCH   8   9
HETATM    9  C   UNL     1     -10.257  10.689  68.671  1.00  0.00    -0.182 C  
HETATM   10  O   UNL     1      -9.820  10.364  67.580  1.00  0.00    -0.166 OA 
BRANCH   9  11
HETATM   11  C   UNL     1     -11.094   9.801  69.544  1.00  0.00    -0.226 C  
HETATM   12  C   UNL     1     -12.253  10.184  70.143  1.00  0.00    -0.116 C  
HETATM   13  N   UNL     1     -13.032   9.239  70.785  1.00  0.00     0.007 NA 
HETATM   14  C   UNL     1     -12.867  11.568  70.212  1.00  0.00     0.045 C  
HETATM   15  C   UNL     1     -12.673   7.933  71.035  1.00  0.00    -0.055 C  
HETATM   16  C   UNL     1     -11.524   7.437  70.521  1.00  0.00    -0.281 C  
HETATM   17  C   UNL     1     -13.641   7.162  71.900  1.00  0.00    -0.279 C  
HETATM   18  C   UNL     1     -10.637   8.311  69.608  1.00  0.00    -0.222 C  
BRANCH  16  19
HETATM   19  C   UNL     1     -11.109   6.057  70.898  1.00  0.00    -0.284 C  
HETATM   20  O   UNL     1     -11.198   5.596  72.026  1.00  0.00    -0.257 OA 
BRANCH  19  21
HETATM   21  O   UNL     1     -10.586   5.387  69.841  1.00  0.00    -0.307 OA 
HETATM   22  C   UNL     1      -9.634   4.386  70.211  1.00  0.00    -0.193 C  
ENDBRANCH  19  21
ENDBRANCH  16  19
BRANCH  18  23
HETATM   23  C   UNL     1      -9.150   8.160  69.959  1.00  0.00    -0.151 A  
HETATM   24  C   UNL     1      -8.258   7.746  68.952  1.00  0.00    -0.127 A  
HETATM   25  C   UNL     1      -6.898   7.614  69.208  1.00  0.00    -0.052 A  
HETATM   26  C   UNL     1      -6.393   7.906  70.480  1.00  0.00    -0.037 A  
HETATM   27  C   UNL     1      -7.260   8.306  71.501  1.00  0.00    -0.084 A  
HETATM   28 CL   UNL     1      -6.549   8.647  73.044  1.00  0.00    -0.078 Cl 
HETATM   29  C   UNL     1      -8.637   8.435  71.254  1.00  0.00    -0.161 A  
HETATM   30 CL   UNL     1      -9.690   8.942  72.544  1.00  0.00    -0.119 Cl 
ENDBRANCH  18  23
ENDBRANCH   9  11
ENDBRANCH   8   9
ENDBRANCH   7   8
ENDBRANCH   6   7
ENDBRANCH   4   6
ENDBRANCH   3   4
ENDBRANCH   2   3
TORSDOF 10
ENDMDL
MODEL      214
REMARK 921   NORMALIZED FREE ENERGY PREDICTED BY IDOCK:   -2.84 KCAL/MOL
REMARK 922        TOTAL FREE ENERGY PREDICTED BY IDOCK:   -5.90 KCAL/MOL
REMARK 923 INTER-LIGAND FREE ENERGY PREDICTED BY IDOCK:   -4.80 KCAL/MOL
REMARK 924 INTRA-LIGAND FREE ENERGY PREDICTED BY IDOCK:   -1.10 KCAL/MOL
REMARK 927      BINDING AFFINITY PREDICTED BY RF-SCORE:    0.00 PKD
ROOT
HETATM    1  C   UNL     1      -6.395  10.919  66.101  1.00  0.00    -0.123 C  
HETATM    2  C   UNL     1      -6.383  11.937  67.229  1.00  0.00    -0.143 C  
ENDROOT
BRANCH   2   3
HETATM    3  C   UNL     1      -7.408  11.586  68.298  1.00  0.00    -0.091 C  
BRANCH   3   4
HETATM    4  C   UNL     1      -6.826  10.669  69.345  1.00  0.00    -0.095 C  
HETATM    5  O   UNL     1      -5.634  10.519  69.574  1.00  0.00    -0.038 OA 
BRANCH   4   6
HETATM    6  O   UNL     1      -7.839  10.088  70.029  1.00  0.00    -0.166 OA 
BRANCH   6   7
HETATM    7  C   UNL     1      -7.457   9.025  70.891  1.00  0.00    -0.116 C  
BRANCH   7   8
HETATM    8  O   UNL     1      -8.454   8.527  71.783  1.00  0.00    -0.153 OA 
BRANCH   8   9
HETATM    9  C   UNL     1      -8.036   8.034  72.964  1.00  0.00    -0.168 C  
HETATM   10  O   UNL     1      -7.758   8.713  73.938  1.00  0.00    -0.399 OA 
BRANCH   9  11
HETATM   11  C   UNL     1      -7.785   6.557  72.864  1.00  0.00    -0.101 C  
HETATM   12  C   UNL     1      -6.552   5.990  72.808  1.00  0.00    -0.065 C  
HETATM   13  N   UNL     1      -6.430   4.615  72.890  1.00  0.00    -0.040 NA 
HETATM   14  C   UNL     1      -5.205   6.671  72.672  1.00  0.00    -0.036 C  
HETATM   15  C   UNL     1      -7.469   3.710  72.857  1.00  0.00    -0.060 C  
HETATM   16  C   UNL     1      -8.748   4.149  72.877  1.00  0.00    -0.102 C  
HETATM   17  C   UNL     1      -7.048   2.261  72.796  1.00  0.00    -0.027 C  
HETATM   18  C   UNL     1      -9.054   5.658  72.991  1.00  0.00    -0.121 C  
BRANCH  16  19
HETATM   19  C   UNL     1      -9.848   3.154  72.731  1.00  0.00    -0.137 C  
HETATM   20  O   UNL     1     -10.101   2.556  71.696  1.00  0.00    -0.144 OA 
BRANCH  19  21
HETATM   21  O   UNL     1     -10.555   3.020  73.881  1.00  0.00    -0.153 OA 
HETATM   22  C   UNL     1     -10.331   1.776  74.549  1.00  0.00    -0.124 C  
ENDBRANCH  19  21
ENDBRANCH  16  19
BRANCH  18  23
HETATM   23  C   UNL     1     -10.178   6.077  72.031  1.00  0.00    -0.228 A  
HETATM   24  C   UNL     1     -11.362   6.612  72.573  1.00  0.00    -0.290 A  
HETATM   25  C   UNL     1     -12.403   7.028  71.750  1.00  0.00    -0.391 A  
HETATM   26  C   UNL     1     -12.279   6.930  70.360  1.00  0.00    -0.175 A  
HETATM   27  C   UNL     1     -11.118   6.389  69.798  1.00  0.00    -0.396 A  
HETATM   28 CL   UNL     1     -11.051   6.306  68.069  1.00  0.00    -0.415 Cl 
HETATM   29  C   UNL     1     -10.065   5.959  70.621  1.00  0.00    -0.197 A  
HETATM   30 CL   UNL     1      -8.629   5.297  69.891  1.00  0.00    -0.101 Cl 
ENDBRANCH  18  23
ENDBRANCH   9  11
ENDBRANCH   8   9
ENDBRANCH   7   8
ENDBRANCH   6   7
ENDBRANCH   4   6
ENDBRANCH   3   4
ENDBRANCH   2   3
TORSDOF 10
ENDMDL
MODEL      215
REMARK 921   NORMALIZED FREE ENERGY PREDICTED BY IDOCK:   -2.81 KCAL/MOL
REMARK 922        TOTAL FREE ENERGY PREDICTED BY IDOCK:   -5.85 KCAL/MOL
REMARK 923 INTER-LIGAND FREE ENERGY PREDICTED BY IDOCK:   -4.24 KCAL/MOL
REMARK 924 INTRA-LIGAND FREE ENERGY PREDICTED BY IDOCK:   -1.61 KCAL/MOL
REMARK 927      BINDING AFFINITY PREDICTED BY RF-SCORE:    0.00 PKD
ROOT
HETATM    1  C   UNL     1     -10.078   8.330  71.678  1.00  0.00    -0.279 C  
HETATM    2  C   UNL     1     -10.149   9.156  70.405  1.00  0.00    -0.264 C  
ENDROOT
BRANCH   2   3
HETATM    3  C   UNL     1     -11.137  10.306  70.548  1.00  0.00    -0.381 C  
BRANCH   3   4
HETATM    4  C   UNL     1     -11.590  10.818  69.203  1.00  0.00    -0.305 C  
HETATM    5  O   UNL     1     -12.739  11.112  68.906  1.00  0.00    -0.202 OA 
BRANCH   4   6
HETATM    6  O   UNL     1     -10.508  10.956  68.401  1.00  0.00    -0.167 OA 
BRANCH   6   7
HETATM    7  C   UNL     1      -9.945  12.259  68.362  1.00  0.00    -0.209 C  
BRANCH   7   8
HETATM    8  O   UNL     1      -8.559  12.373  68.684  1.00  0.00    -0.095 OA 
BRANCH   8   9
HETATM    9  C   UNL     1      -7.675  11.881  67.796  1.00  0.00    -0.136 C  
HETATM   10  O   UNL     1      -7.356  12.434  66.757  1.00  0.00     0.007 OA 
BRANCH   9  11
HETATM   11  C   UNL     1      -7.275  10.482  68.165  1.00  0.00    -0.087 C  
HETATM   12  C   UNL     1      -6.413  10.168  69.167  1.00  0.00    -0.049 C  
HETATM   13  N   UNL     1      -6.246   8.845  69.533  1.00  0.00    -0.042 NA 
HETATM   14  C   UNL     1      -5.560  11.101  70.005  1.00  0.00    -0.087 C  
HETATM   15  C   UNL     1      -6.752   7.753  68.863  1.00  0.00    -0.050 C  
HETATM   16  C   UNL     1      -7.600   7.931  67.824  1.00  0.00    -0.109 C  
HETATM   17  C   UNL     1      -6.282   6.415  69.381  1.00  0.00    -0.034 C  
HETATM   18  C   UNL     1      -8.048   9.351  67.417  1.00  0.00    -0.110 C  
BRANCH  16  19
HETATM   19  C   UNL     1      -8.045   6.737  67.052  1.00  0.00    -0.109 C  
HETATM   20  O   UNL     1      -7.313   6.067  66.339  1.00  0.00    -0.078 OA 
BRANCH  19  21
HETATM   21  O   UNL     1      -9.372   6.507  67.210  1.00  0.00    -0.118 OA 
HETATM   22  C   UNL     1      -9.901   5.548  66.289  1.00  0.00    -0.145 C  
ENDBRANCH  19  21
ENDBRANCH  16  19
BRANCH  18  23
HETATM   23  C   UNL     1      -8.031   9.529  65.891  1.00  0.00    -0.111 A  
HETATM   24  C   UNL     1      -9.247   9.791  65.231  1.00  0.00    -0.294 A  
HETATM   25  C   UNL     1      -9.287   9.983  63.854  1.00  0.00    -0.315 A  
HETATM   26  C   UNL     1      -8.107   9.928  63.104  1.00  0.00    -0.151 A  
HETATM   27  C   UNL     1      -6.890   9.656  63.735  1.00  0.00    -0.112 A  
HETATM   28 CL   UNL     1      -5.479   9.608  62.729  1.00  0.00    -0.083 Cl 
HETATM   29  C   UNL     1      -6.840   9.454  65.124  1.00  0.00    -0.084 A  
HETATM   30 CL   UNL     1      -5.307   9.124  65.882  1.00  0.00    -0.040 Cl 
ENDBRANCH  18  23
ENDBRANCH   9  11
ENDBRANCH   8   9
ENDBRANCH   7   8
ENDBRANCH   6   7
ENDBRANCH   4   6
ENDBRANCH   3   4
ENDBRANCH   2   3
TORSDOF 10
ENDMDL
MODEL      216
REMARK 921   NORMALIZED FREE ENERGY PREDICTED BY IDOCK:   -2.80 KCAL/MOL
REMARK 922        TOTAL FREE ENERGY PREDICTED BY IDOCK:   -5.84 KCAL/MOL
REMARK 923 INTER-LIGAND FREE ENERGY PREDICTED BY IDOCK:   -6.01 KCAL/MOL
REMARK 924 INTRA-LIGAND FREE ENERGY PREDICTED BY IDOCK:    0.17 KCAL/MOL
REMARK 927      BINDING AFFINITY PREDICTED BY RF-SCORE:    0.00 PKD
ROOT
HETATM    1  C   UNL     1      -5.783  15.127  71.981  1.00  0.00     0.470 C  
HETATM    2  C   UNL     1      -5.312  15.217  70.539  1.00  0.00    -0.133 C  
ENDROOT
BRANCH   2   3
HETATM    3  C   UNL     1      -6.466  15.541  69.601  1.00  0.00    -0.173 C  
BRANCH   3   4
HETATM    4  C   UNL     1      -6.117  15.233  68.166  1.00  0.00    -0.132 C  
HETATM    5  O   UNL     1      -5.126  15.637  67.574  1.00  0.00    -0.265 OA 
BRANCH   4   6
HETATM    6  O   UNL     1      -7.047  14.389  67.661  1.00  0.00    -0.160 OA 
BRANCH   6   7
HETATM    7  C   UNL     1      -8.377  14.619  68.101  1.00  0.00    -0.144 C  
BRANCH   7   8
HETATM    8  O   UNL     1      -9.428  14.142  67.261  1.00  0.00    -0.215 OA 
BRANCH   8   9
HETATM    9  C   UNL     1     -10.645  14.694  67.419  1.00  0.00    -0.265 C  
HETATM   10  O   UNL     1     -11.129  15.529  66.673  1.00  0.00    -0.293 OA 
BRANCH   9  11
HETATM   11  C   UNL     1     -11.249  14.281  68.730  1.00  0.00    -0.286 C  
HETATM   12  C   UNL     1     -11.390  15.103  69.803  1.00  0.00    -0.285 C  
HETATM   13  N   UNL     1     -12.113  14.672  70.900  1.00  0.00    -0.307 NA 
HETATM   14  C   UNL     1     -10.855  16.509  69.992  1.00  0.00    -0.258 C  
HETATM   15  C   UNL     1     -12.587  13.394  71.102  1.00  0.00    -0.345 C  
HETATM   16  C   UNL     1     -12.479  12.470  70.121  1.00  0.00    -0.092 C  
HETATM   17  C   UNL     1     -13.200  13.151  72.461  1.00  0.00    -0.437 C  
HETATM   18  C   UNL     1     -11.876  12.852  68.752  1.00  0.00    -0.353 C  
BRANCH  16  19
HETATM   19  C   UNL     1     -12.902  11.071  70.407  1.00  0.00    -0.145 C  
HETATM   20  O   UNL     1     -13.620  10.405  69.675  1.00  0.00     0.483 OA 
BRANCH  19  21
HETATM   21  O   UNL     1     -12.417  10.637  71.598  1.00  0.00    -0.373 OA 
HETATM   22  C   UNL     1     -11.515   9.533  71.481  1.00  0.00    -0.395 C  
ENDBRANCH  19  21
ENDBRANCH  16  19
BRANCH  18  23
HETATM   23  C   UNL     1     -10.910  11.772  68.243  1.00  0.00    -0.259 A  
HETATM   24  C   UNL     1     -10.046  11.152  69.165  1.00  0.00    -0.134 A  
HETATM   25  C   UNL     1      -9.167  10.152  68.764  1.00  0.00    -0.164 A  
HETATM   26  C   UNL     1      -9.139   9.739  67.428  1.00  0.00    -0.148 A  
HETATM   27  C   UNL     1      -9.978  10.349  66.490  1.00  0.00    -0.217 A  
HETATM   28 CL   UNL     1      -9.877   9.774  64.858  1.00  0.00    -0.292 Cl 
HETATM   29  C   UNL     1     -10.864  11.364  66.884  1.00  0.00    -0.285 A  
HETATM   30 CL   UNL     1     -11.902  12.099  65.694  1.00  0.00    -0.408 Cl 
ENDBRANCH  18  23
ENDBRANCH   9  11
ENDBRANCH   8   9
ENDBRANCH   7   8
ENDBRANCH   6   7
ENDBRANCH   4   6
ENDBRANCH   3   4
ENDBRANCH   2   3
TORSDOF 10
ENDMDL
MODEL      217
REMARK 921   NORMALIZED FREE ENERGY PREDICTED BY IDOCK:   -2.79 KCAL/MOL
REMARK 922        TOTAL FREE ENERGY PREDICTED BY IDOCK:   -5.83 KCAL/MOL
REMARK 923 INTER-LIGAND FREE ENERGY PREDICTED BY IDOCK:   -5.55 KCAL/MOL
REMARK 924 INTRA-LIGAND FREE ENERGY PREDICTED BY IDOCK:   -0.28 KCAL/MOL
REMARK 927      BINDING AFFINITY PREDICTED BY RF-SCORE:    0.00 PKD
ROOT
HETATM    1  C   UNL     1     -10.788   6.245  67.319  1.00  0.00    -0.457 C  
HETATM    2  C   UNL     1     -10.943   7.583  68.023  1.00  0.00     0.004 C  
ENDROOT
BRANCH   2   3
HETATM    3  C   UNL     1      -9.878   7.767  69.096  1.00  0.00    -0.173 C  
BRANCH   3   4
HETATM    4  C   UNL     1      -9.729   9.217  69.485  1.00  0.00    -0.173 C  
HETATM    5  O   UNL     1     -10.612   9.922  69.952  1.00  0.00    -0.233 OA 
BRANCH   4   6
HETATM    6  O   UNL     1      -8.442   9.592  69.290  1.00  0.00    -0.123 OA 
BRANCH   6   7
HETATM    7  C   UNL     1      -8.216  10.994  69.273  1.00  0.00     0.021 C  
BRANCH   7   8
HETATM    8  O   UNL     1      -7.224  11.477  68.367  1.00  0.00    -0.077 OA 
BRANCH   8   9
HETATM    9  C   UNL     1      -7.520  12.582  67.658  1.00  0.00    -0.139 C  
HETATM   10  O   UNL     1      -7.047  13.687  67.868  1.00  0.00    -0.113 OA 
BRANCH   9  11
HETATM   11  C   UNL     1      -8.642  12.313  66.699  1.00  0.00    -0.099 C  
HETATM   12  C   UNL     1      -8.628  11.334  65.756  1.00  0.00    -0.067 C  
HETATM   13  N   UNL     1      -9.779  11.062  65.039  1.00  0.00    -0.237 NA 
HETATM   14  C   UNL     1      -7.480  10.431  65.350  1.00  0.00    -0.127 C  
HETATM   15  C   UNL     1     -10.937  11.808  65.060  1.00  0.00    -0.300 C  
HETATM   16  C   UNL     1     -11.065  12.833  65.933  1.00  0.00    -0.318 C  
HETATM   17  C   UNL     1     -11.984  11.385  64.057  1.00  0.00     0.088 C  
HETATM   18  C   UNL     1      -9.942  13.140  66.947  1.00  0.00    -0.245 C  
BRANCH  16  19
HETATM   19  C   UNL     1     -12.282  13.689  65.857  1.00  0.00    -0.461 C  
HETATM   20  O   UNL     1     -12.919  14.067  66.829  1.00  0.00     0.151 OA 
BRANCH  19  21
HETATM   21  O   UNL     1     -12.616  13.969  64.572  1.00  0.00    -0.635 OA 
HETATM   22  C   UNL     1     -12.076  15.205  64.097  1.00  0.00    -0.176 C  
ENDBRANCH  19  21
ENDBRANCH  16  19
BRANCH  18  23
HETATM   23  C   UNL     1      -9.675  14.649  67.049  1.00  0.00    -0.247 A  
HETATM   24  C   UNL     1      -9.034  15.294  65.975  1.00  0.00    -0.151 A  
HETATM   25  C   UNL     1      -8.788  16.663  66.004  1.00  0.00    -0.242 A  
HETATM   26  C   UNL     1      -9.188  17.423  67.108  1.00  0.00    -0.241 A  
HETATM   27  C   UNL     1      -9.814  16.803  68.194  1.00  0.00    -0.264 A  
HETATM   28 CL   UNL     1     -10.276  17.821  69.518  1.00  0.00    -0.046 Cl 
HETATM   29  C   UNL     1     -10.061  15.420  68.176  1.00  0.00    -0.222 A  
HETATM   30 CL   UNL     1     -10.849  14.678  69.540  1.00  0.00    -0.254 Cl 
ENDBRANCH  18  23
ENDBRANCH   9  11
ENDBRANCH   8   9
ENDBRANCH   7   8
ENDBRANCH   6   7
ENDBRANCH   4   6
ENDBRANCH   3   4
ENDBRANCH   2   3
TORSDOF 10
ENDMDL
MODEL      218
REMARK 921   NORMALIZED FREE ENERGY PREDICTED BY IDOCK:   -2.79 KCAL/MOL
REMARK 922        TOTAL FREE ENERGY PREDICTED BY IDOCK:   -5.82 KCAL/MOL
REMARK 923 INTER-LIGAND FREE ENERGY PREDICTED BY IDOCK:   -5.91 KCAL/MOL
REMARK 924 INTRA-LIGAND FREE ENERGY PREDICTED BY IDOCK:    0.09 KCAL/MOL
REMARK 927      BINDING AFFINITY PREDICTED BY RF-SCORE:    0.00 PKD
ROOT
HETATM    1  C   UNL     1      -9.559   5.070  66.742  1.00  0.00    -0.164 C  
HETATM    2  C   UNL     1     -10.756   5.828  67.291  1.00  0.00    -0.345 C  
ENDROOT
BRANCH   2   3
HETATM    3  C   UNL     1     -10.317   7.037  68.106  1.00  0.00    -0.226 C  
BRANCH   3   4
HETATM    4  C   UNL     1     -10.565   6.832  69.579  1.00  0.00    -0.232 C  
HETATM    5  O   UNL     1     -11.338   6.017  70.063  1.00  0.00    -0.384 OA 
BRANCH   4   6
HETATM    6  O   UNL     1      -9.747   7.653  70.279  1.00  0.00    -0.179 OA 
BRANCH   6   7
HETATM    7  C   UNL     1      -9.431   8.881  69.640  1.00  0.00    -0.168 C  
BRANCH   7   8
HETATM    8  O   UNL     1      -8.095   9.036  69.162  1.00  0.00    -0.104 OA 
BRANCH   8   9
HETATM    9  C   UNL     1      -7.750  10.239  68.667  1.00  0.00    -0.094 C  
HETATM   10  O   UNL     1      -7.303  11.159  69.331  1.00  0.00    -0.118 OA 
BRANCH   9  11
HETATM   11  C   UNL     1      -8.158  10.357  67.227  1.00  0.00    -0.114 C  
HETATM   12  C   UNL     1      -7.646   9.604  66.219  1.00  0.00    -0.101 C  
HETATM   13  N   UNL     1      -8.213   9.675  64.960  1.00  0.00    -0.129 NA 
HETATM   14  C   UNL     1      -6.485   8.630  66.264  1.00  0.00    -0.061 C  
HETATM   15  C   UNL     1      -9.173  10.578  64.557  1.00  0.00    -0.240 C  
HETATM   16  C   UNL     1      -9.740  11.409  65.461  1.00  0.00    -0.263 C  
HETATM   17  C   UNL     1      -9.498  10.545  63.083  1.00  0.00    -0.367 C  
HETATM   18  C   UNL     1      -9.360  11.315  66.954  1.00  0.00    -0.190 C  
BRANCH  16  19
HETATM   19  C   UNL     1     -10.693  12.447  64.978  1.00  0.00    -0.294 C  
HETATM   20  O   UNL     1     -10.366  13.443  64.351  1.00  0.00    -0.425 OA 
BRANCH  19  21
HETATM   21  O   UNL     1     -11.967  12.166  65.351  1.00  0.00    -0.410 OA 
HETATM   22  C   UNL     1     -12.769  13.331  65.569  1.00  0.00    -0.367 C  
ENDBRANCH  19  21
ENDBRANCH  16  19
BRANCH  18  23
HETATM   23  C   UNL     1      -9.162  12.707  67.572  1.00  0.00    -0.190 A  
HETATM   24  C   UNL     1     -10.252  13.317  68.221  1.00  0.00    -0.250 A  
HETATM   25  C   UNL     1     -10.123  14.567  68.817  1.00  0.00    -0.239 A  
HETATM   26  C   UNL     1      -8.894  15.234  68.788  1.00  0.00    -0.192 A  
HETATM   27  C   UNL     1      -7.800  14.655  68.137  1.00  0.00    -0.128 A  
HETATM   28 CL   UNL     1      -6.316  15.551  68.151  1.00  0.00    -0.119 Cl 
HETATM   29  C   UNL     1      -7.922  13.396  67.526  1.00  0.00    -0.183 A  
HETATM   30 CL   UNL     1      -6.539  12.698  66.731  1.00  0.00     0.369 Cl 
ENDBRANCH  18  23
ENDBRANCH   9  11
ENDBRANCH   8   9
ENDBRANCH   7   8
ENDBRANCH   6   7
ENDBRANCH   4   6
ENDBRANCH   3   4
ENDBRANCH   2   3
TORSDOF 10
ENDMDL
MODEL      219
REMARK 921   NORMALIZED FREE ENERGY PREDICTED BY IDOCK:   -2.78 KCAL/MOL
REMARK 922        TOTAL FREE ENERGY PREDICTED BY IDOCK:   -5.81 KCAL/MOL
REMARK 923 INTER-LIGAND FREE ENERGY PREDICTED BY IDOCK:   -4.43 KCAL/MOL
REMARK 924 INTRA-LIGAND FREE ENERGY PREDICTED BY IDOCK:   -1.38 KCAL/MOL
REMARK 927      BINDING AFFINITY PREDICTED BY RF-SCORE:    0.00 PKD
ROOT
HETATM    1  C   UNL     1      -9.547   8.740  67.218  1.00  0.00    -0.214 C  
HETATM    2  C   UNL     1      -9.983   7.496  66.464  1.00  0.00    -0.209 C  
ENDROOT
BRANCH   2   3
HETATM    3  C   UNL     1      -9.018   6.342  66.700  1.00  0.00    -0.145 C  
BRANCH   3   4
HETATM    4  C   UNL     1      -7.681   6.596  66.049  1.00  0.00    -0.089 C  
HETATM    5  O   UNL     1      -7.512   7.081  64.939  1.00  0.00    -0.081 OA 
BRANCH   4   6
HETATM    6  O   UNL     1      -6.700   6.257  66.918  1.00  0.00    -0.056 OA 
BRANCH   6   7
HETATM    7  C   UNL     1      -6.582   7.098  68.057  1.00  0.00    -0.049 C  
BRANCH   7   8
HETATM    8  O   UNL     1      -5.751   6.633  69.120  1.00  0.00    -0.016 OA 
BRANCH   8   9
HETATM    9  C   UNL     1      -6.358   6.270  70.266  1.00  0.00    -0.036 C  
HETATM   10  O   UNL     1      -6.071   5.279  70.917  1.00  0.00    -0.020 OA 
BRANCH   9  11
HETATM   11  C   UNL     1      -7.549   7.142  70.535  1.00  0.00    -0.089 C  
HETATM   12  C   UNL     1      -7.477   8.434  70.948  1.00  0.00    -0.066 C  
HETATM   13  N   UNL     1      -8.629   9.197  71.002  1.00  0.00    -0.251 NA 
HETATM   14  C   UNL     1      -6.255   9.222  71.377  1.00  0.00    -0.066 C  
HETATM   15  C   UNL     1      -9.914   8.731  70.832  1.00  0.00    -0.222 C  
HETATM   16  C   UNL     1     -10.124   7.450  70.450  1.00  0.00    -0.193 C  
HETATM   17  C   UNL     1     -11.000   9.744  71.106  1.00  0.00    -0.386 C  
HETATM   18  C   UNL     1      -8.928   6.520  70.151  1.00  0.00    -0.155 C  
BRANCH  16  19
HETATM   19  C   UNL     1     -11.523   6.944  70.380  1.00  0.00    -0.338 C  
HETATM   20  O   UNL     1     -12.131   6.745  69.340  1.00  0.00     0.150 OA 
BRANCH  19  21
HETATM   21  O   UNL     1     -12.051   6.764  71.617  1.00  0.00    -0.326 OA 
HETATM   22  C   UNL     1     -13.369   7.301  71.761  1.00  0.00    -0.304 C  
ENDBRANCH  19  21
ENDBRANCH  16  19
BRANCH  18  23
HETATM   23  C   UNL     1      -9.139   5.123  70.755  1.00  0.00    -0.171 A  
HETATM   24  C   UNL     1      -9.260   4.025  69.883  1.00  0.00    -0.213 A  
HETATM   25  C   UNL     1      -9.430   2.735  70.376  1.00  0.00    -0.193 A  
HETATM   26  C   UNL     1      -9.470   2.512  71.756  1.00  0.00    -0.198 A  
HETATM   27  C   UNL     1      -9.365   3.589  72.642  1.00  0.00    -0.110 A  
HETATM   28 CL   UNL     1      -9.424   3.220  74.334  1.00  0.00    -0.115 Cl 
HETATM   29  C   UNL     1      -9.200   4.895  72.154  1.00  0.00    -0.135 A  
HETATM   30 CL   UNL     1      -9.065   6.214  73.283  1.00  0.00    -0.130 Cl 
ENDBRANCH  18  23
ENDBRANCH   9  11
ENDBRANCH   8   9
ENDBRANCH   7   8
ENDBRANCH   6   7
ENDBRANCH   4   6
ENDBRANCH   3   4
ENDBRANCH   2   3
TORSDOF 10
ENDMDL
MODEL      220
REMARK 921   NORMALIZED FREE ENERGY PREDICTED BY IDOCK:   -2.75 KCAL/MOL
REMARK 922        TOTAL FREE ENERGY PREDICTED BY IDOCK:   -5.76 KCAL/MOL
REMARK 923 INTER-LIGAND FREE ENERGY PREDICTED BY IDOCK:   -6.43 KCAL/MOL
REMARK 924 INTRA-LIGAND FREE ENERGY PREDICTED BY IDOCK:    0.66 KCAL/MOL
REMARK 927      BINDING AFFINITY PREDICTED BY RF-SCORE:    0.00 PKD
ROOT
HETATM    1  C   UNL     1      -7.989   9.867  62.765  1.00  0.00    -0.134 C  
HETATM    2  C   UNL     1      -9.169   9.868  63.722  1.00  0.00    -0.289 C  
ENDROOT
BRANCH   2   3
HETATM    3  C   UNL     1      -8.704   9.833  65.171  1.00  0.00    -0.192 C  
BRANCH   3   4
HETATM    4  C   UNL     1      -9.847   9.551  66.113  1.00  0.00    -0.272 C  
HETATM    5  O   UNL     1      -9.768   8.920  67.158  1.00  0.00    -0.160 OA 
BRANCH   4   6
HETATM    6  O   UNL     1     -10.961  10.163  65.645  1.00  0.00     0.247 OA 
BRANCH   6   7
HETATM    7  C   UNL     1     -11.278  11.400  66.266  1.00  0.00    -0.161 C  
BRANCH   7   8
HETATM    8  O   UNL     1     -12.532  11.991  65.926  1.00  0.00    -0.337 OA 
BRANCH   8   9
HETATM    9  C   UNL     1     -12.609  13.335  65.945  1.00  0.00    -0.281 C  
HETATM   10  O   UNL     1     -13.592  13.976  65.616  1.00  0.00    -0.499 OA 
BRANCH   9  11
HETATM   11  C   UNL     1     -11.270  13.939  66.250  1.00  0.00    -0.310 C  
HETATM   12  C   UNL     1     -10.253  14.045  65.354  1.00  0.00    -0.347 C  
HETATM   13  N   UNL     1      -9.124  14.770  65.688  1.00  0.00     0.219 NA 
HETATM   14  C   UNL     1     -10.162  13.465  63.957  1.00  0.00     0.259 C  
HETATM   15  C   UNL     1      -8.833  15.281  66.934  1.00  0.00    -0.254 C  
HETATM   16  C   UNL     1      -9.751  15.211  67.925  1.00  0.00    -0.208 C  
HETATM   17  C   UNL     1      -7.457  15.889  67.067  1.00  0.00    -0.254 C  
HETATM   18  C   UNL     1     -11.147  14.608  67.654  1.00  0.00    -0.311 C  
BRANCH  16  19
HETATM   19  C   UNL     1      -9.369  15.673  69.288  1.00  0.00    -0.267 C  
HETATM   20  O   UNL     1      -8.489  15.164  69.966  1.00  0.00     0.033 OA 
BRANCH  19  21
HETATM   21  O   UNL     1     -10.143  16.709  69.699  1.00  0.00    -0.190 OA 
HETATM   22  C   UNL     1      -9.950  17.904  68.937  1.00  0.00    -0.334 C  
ENDBRANCH  19  21
ENDBRANCH  16  19
BRANCH  18  23
HETATM   23  C   UNL     1     -11.589  13.681  68.796  1.00  0.00    -0.359 A  
HETATM   24  C   UNL     1     -11.135  12.349  68.794  1.00  0.00    -0.307 A  
HETATM   25  C   UNL     1     -11.486  11.471  69.815  1.00  0.00    -0.362 A  
HETATM   26  C   UNL     1     -12.293  11.911  70.870  1.00  0.00    -0.400 A  
HETATM   27  C   UNL     1     -12.767  13.226  70.887  1.00  0.00    -0.254 A  
HETATM   28 CL   UNL     1     -13.758  13.684  72.232  1.00  0.00    -0.637 Cl 
HETATM   29  C   UNL     1     -12.424  14.117  69.857  1.00  0.00    -0.260 A  
HETATM   30 CL   UNL     1     -13.024  15.751  69.910  1.00  0.00     0.194 Cl 
ENDBRANCH  18  23
ENDBRANCH   9  11
ENDBRANCH   8   9
ENDBRANCH   7   8
ENDBRANCH   6   7
ENDBRANCH   4   6
ENDBRANCH   3   4
ENDBRANCH   2   3
TORSDOF 10
ENDMDL
MODEL      221
REMARK 921   NORMALIZED FREE ENERGY PREDICTED BY IDOCK:   -2.67 KCAL/MOL
REMARK 922        TOTAL FREE ENERGY PREDICTED BY IDOCK:   -5.63 KCAL/MOL
REMARK 923 INTER-LIGAND FREE ENERGY PREDICTED BY IDOCK:   -4.91 KCAL/MOL
REMARK 924 INTRA-LIGAND FREE ENERGY PREDICTED BY IDOCK:   -0.72 KCAL/MOL
REMARK 927      BINDING AFFINITY PREDICTED BY RF-SCORE:    0.00 PKD
ROOT
HETATM    1  C   UNL     1     -12.775  13.955  65.157  1.00  0.00    -0.434 C  
HETATM    2  C   UNL     1     -11.352  13.563  64.796  1.00  0.00    -0.362 C  
ENDROOT
BRANCH   2   3
HETATM    3  C   UNL     1     -11.194  12.050  64.745  1.00  0.00    -0.373 C  
BRANCH   3   4
HETATM    4  C   UNL     1     -10.766  11.492  66.080  1.00  0.00    -0.274 C  
HETATM    5  O   UNL     1     -10.967  12.017  67.166  1.00  0.00    -0.243 OA 
BRANCH   4   6
HETATM    6  O   UNL     1     -10.178  10.289  65.883  1.00  0.00    -0.254 OA 
BRANCH   6   7
HETATM    7  C   UNL     1      -8.978  10.074  66.612  1.00  0.00    -0.139 C  
BRANCH   7   8
HETATM    8  O   UNL     1      -8.697   8.734  67.014  1.00  0.00    -0.121 OA 
BRANCH   8   9
HETATM    9  C   UNL     1      -9.646   8.086  67.714  1.00  0.00    -0.151 C  
HETATM   10  O   UNL     1     -10.711   7.710  67.254  1.00  0.00    -0.306 OA 
BRANCH   9  11
HETATM   11  C   UNL     1      -9.298   8.051  69.174  1.00  0.00    -0.151 C  
HETATM   12  C   UNL     1      -9.368   9.122  70.006  1.00  0.00    -0.199 C  
HETATM   13  N   UNL     1      -9.190   8.942  71.366  1.00  0.00    -0.251 NA 
HETATM   14  C   UNL     1      -9.639  10.573  69.658  1.00  0.00    -0.062 C  
HETATM   15  C   UNL     1      -8.772   7.779  71.977  1.00  0.00    -0.126 C  
HETATM   16  C   UNL     1      -8.632   6.647  71.251  1.00  0.00    -0.126 C  
HETATM   17  C   UNL     1      -8.499   7.902  73.457  1.00  0.00    -0.284 C  
HETATM   18  C   UNL     1      -8.990   6.633  69.749  1.00  0.00    -0.143 C  
BRANCH  16  19
HETATM   19  C   UNL     1      -8.076   5.435  71.916  1.00  0.00    -0.114 C  
HETATM   20  O   UNL     1      -8.733   4.448  72.210  1.00  0.00    -0.110 OA 
BRANCH  19  21
HETATM   21  O   UNL     1      -6.754   5.578  72.186  1.00  0.00    -0.061 OA 
HETATM   22  C   UNL     1      -6.348   4.951  73.406  1.00  0.00    -0.054 C  
ENDBRANCH  19  21
ENDBRANCH  16  19
BRANCH  18  23
HETATM   23  C   UNL     1      -7.936   5.875  68.928  1.00  0.00    -0.102 A  
HETATM   24  C   UNL     1      -6.646   6.426  68.815  1.00  0.00    -0.051 A  
HETATM   25  C   UNL     1      -5.647   5.771  68.102  1.00  0.00    -0.008 A  
HETATM   26  C   UNL     1      -5.912   4.540  67.494  1.00  0.00    -0.023 A  
HETATM   27  C   UNL     1      -7.190   3.979  67.581  1.00  0.00    -0.067 A  
HETATM   28 CL   UNL     1      -7.429   2.451  66.798  1.00  0.00    -0.065 Cl 
HETATM   29  C   UNL     1      -8.207   4.636  68.292  1.00  0.00    -0.090 A  
HETATM   30 CL   UNL     1      -9.786   3.907  68.388  1.00  0.00    -0.166 Cl 
ENDBRANCH  18  23
ENDBRANCH   9  11
ENDBRANCH   8   9
ENDBRANCH   7   8
ENDBRANCH   6   7
ENDBRANCH   4   6
ENDBRANCH   3   4
ENDBRANCH   2   3
TORSDOF 10
ENDMDL
MODEL      222
REMARK 921   NORMALIZED FREE ENERGY PREDICTED BY IDOCK:   -2.66 KCAL/MOL
REMARK 922        TOTAL FREE ENERGY PREDICTED BY IDOCK:   -5.61 KCAL/MOL
REMARK 923 INTER-LIGAND FREE ENERGY PREDICTED BY IDOCK:   -4.28 KCAL/MOL
REMARK 924 INTRA-LIGAND FREE ENERGY PREDICTED BY IDOCK:   -1.33 KCAL/MOL
REMARK 927      BINDING AFFINITY PREDICTED BY RF-SCORE:    0.00 PKD
ROOT
HETATM    1  C   UNL     1      -8.993  10.071  62.608  1.00  0.00    -0.278 C  
HETATM    2  C   UNL     1      -8.208   8.773  62.514  1.00  0.00    -0.192 C  
ENDROOT
BRANCH   2   3
HETATM    3  C   UNL     1      -7.118   8.710  63.574  1.00  0.00    -0.089 C  
BRANCH   3   4
HETATM    4  C   UNL     1      -7.599   8.016  64.824  1.00  0.00    -0.105 C  
HETATM    5  O   UNL     1      -7.508   6.818  65.052  1.00  0.00    -0.080 OA 
BRANCH   4   6
HETATM    6  O   UNL     1      -8.092   8.945  65.677  1.00  0.00    -0.104 OA 
BRANCH   6   7
HETATM    7  C   UNL     1      -9.413   8.704  66.139  1.00  0.00    -0.240 C  
BRANCH   7   8
HETATM    8  O   UNL     1     -10.423   9.618  65.712  1.00  0.00    -0.105 OA 
BRANCH   8   9
HETATM    9  C   UNL     1     -10.918  10.467  66.632  1.00  0.00     0.003 C  
HETATM   10  O   UNL     1     -11.549  10.128  67.619  1.00  0.00    -0.204 OA 
BRANCH   9  11
HETATM   11  C   UNL     1     -10.746  11.890  66.187  1.00  0.00    -0.318 C  
HETATM   12  C   UNL     1     -11.399  12.449  65.134  1.00  0.00    -0.323 C  
HETATM   13  N   UNL     1     -11.298  13.811  64.916  1.00  0.00    -0.334 NA 
HETATM   14  C   UNL     1     -12.284  11.774  64.105  1.00  0.00    -0.289 C  
HETATM   15  C   UNL     1     -10.447  14.672  65.574  1.00  0.00    -0.356 C  
HETATM   16  C   UNL     1      -9.716  14.230  66.622  1.00  0.00    -0.297 C  
HETATM   17  C   UNL     1     -10.419  16.079  65.026  1.00  0.00    -0.250 C  
HETATM   18  C   UNL     1      -9.868  12.777  67.123  1.00  0.00    -0.216 C  
BRANCH  16  19
HETATM   19  C   UNL     1      -8.726  15.154  67.244  1.00  0.00    -0.202 C  
HETATM   20  O   UNL     1      -7.668  15.478  66.726  1.00  0.00    -0.201 OA 
BRANCH  19  21
HETATM   21  O   UNL     1      -9.130  15.565  68.472  1.00  0.00    -0.183 OA 
HETATM   22  C   UNL     1     -10.366  16.286  68.456  1.00  0.00    -0.261 C  
ENDBRANCH  19  21
ENDBRANCH  16  19
BRANCH  18  23
HETATM   23  C   UNL     1      -8.503  12.145  67.432  1.00  0.00    -0.173 A  
HETATM   24  C   UNL     1      -7.463  12.296  66.495  1.00  0.00     0.402 A  
HETATM   25  C   UNL     1      -6.201  11.763  66.734  1.00  0.00    -0.094 A  
HETATM   26  C   UNL     1      -5.945  11.074  67.924  1.00  0.00    -0.046 A  
HETATM   27  C   UNL     1      -6.965  10.899  68.864  1.00  0.00    -0.084 A  
HETATM   28 CL   UNL     1      -6.559  10.034  70.310  1.00  0.00    -0.112 Cl 
HETATM   29  C   UNL     1      -8.245  11.427  68.629  1.00  0.00    -0.142 A  
HETATM   30 CL   UNL     1      -9.493  11.200  69.822  1.00  0.00     0.594 Cl 
ENDBRANCH  18  23
ENDBRANCH   9  11
ENDBRANCH   8   9
ENDBRANCH   7   8
ENDBRANCH   6   7
ENDBRANCH   4   6
ENDBRANCH   3   4
ENDBRANCH   2   3
TORSDOF 10
ENDMDL
MODEL      223
REMARK 921   NORMALIZED FREE ENERGY PREDICTED BY IDOCK:   -2.66 KCAL/MOL
REMARK 922        TOTAL FREE ENERGY PREDICTED BY IDOCK:   -5.61 KCAL/MOL
REMARK 923 INTER-LIGAND FREE ENERGY PREDICTED BY IDOCK:   -3.61 KCAL/MOL
REMARK 924 INTRA-LIGAND FREE ENERGY PREDICTED BY IDOCK:   -2.00 KCAL/MOL
REMARK 927      BINDING AFFINITY PREDICTED BY RF-SCORE:    0.00 PKD
ROOT
HETATM    1  C   UNL     1     -11.599   7.394  72.270  1.00  0.00    -0.333 C  
HETATM    2  C   UNL     1     -10.989   6.472  71.227  1.00  0.00    -0.309 C  
ENDROOT
BRANCH   2   3
HETATM    3  C   UNL     1      -9.530   6.172  71.543  1.00  0.00    -0.161 C  
BRANCH   3   4
HETATM    4  C   UNL     1      -9.188   4.730  71.262  1.00  0.00    -0.142 C  
HETATM    5  O   UNL     1      -8.302   4.090  71.811  1.00  0.00    -0.090 OA 
BRANCH   4   6
HETATM    6  O   UNL     1     -10.060   4.243  70.348  1.00  0.00    -0.194 OA 
BRANCH   6   7
HETATM    7  C   UNL     1      -9.471   3.728  69.162  1.00  0.00    -0.172 C  
BRANCH   7   8
HETATM    8  O   UNL     1      -8.753   4.652  68.344  1.00  0.00    -0.097 OA 
BRANCH   8   9
HETATM    9  C   UNL     1      -9.390   5.152  67.269  1.00  0.00    -0.122 C  
HETATM   10  O   UNL     1     -10.587   5.049  67.065  1.00  0.00    -0.201 OA 
BRANCH   9  11
HETATM   11  C   UNL     1      -8.406   5.690  66.272  1.00  0.00    -0.114 C  
HETATM   12  C   UNL     1      -7.560   4.922  65.535  1.00  0.00    -0.085 C  
HETATM   13  N   UNL     1      -6.817   5.504  64.525  1.00  0.00    -0.047 NA 
HETATM   14  C   UNL     1      -7.297   3.433  65.648  1.00  0.00    -0.075 C  
HETATM   15  C   UNL     1      -6.711   6.855  64.277  1.00  0.00    -0.045 C  
HETATM   16  C   UNL     1      -7.478   7.730  64.967  1.00  0.00    -0.089 C  
HETATM   17  C   UNL     1      -5.703   7.230  63.218  1.00  0.00    -0.041 C  
HETATM   18  C   UNL     1      -8.512   7.222  65.994  1.00  0.00    -0.148 C  
BRANCH  16  19
HETATM   19  C   UNL     1      -7.263   9.189  64.755  1.00  0.00    -0.097 C  
HETATM   20  O   UNL     1      -6.469   9.867  65.389  1.00  0.00    -0.081 OA 
BRANCH  19  21
HETATM   21  O   UNL     1      -8.086   9.680  63.794  1.00  0.00    -0.130 OA 
HETATM   22  C   UNL     1      -8.546  11.008  64.057  1.00  0.00     0.157 C  
ENDBRANCH  19  21
ENDBRANCH  16  19
BRANCH  18  23
HETATM   23  C   UNL     1      -8.486   8.062  67.280  1.00  0.00    -0.125 A  
HETATM   24  C   UNL     1      -7.402   7.906  68.164  1.00  0.00    -0.099 A  
HETATM   25  C   UNL     1      -7.316   8.657  69.332  1.00  0.00    -0.072 A  
HETATM   26  C   UNL     1      -8.310   9.593  69.637  1.00  0.00    -0.173 A  
HETATM   27  C   UNL     1      -9.403   9.756  68.781  1.00  0.00    -0.150 A  
HETATM   28 CL   UNL     1     -10.585  10.938  69.238  1.00  0.00    -0.247 Cl 
HETATM   29  C   UNL     1      -9.502   8.998  67.604  1.00  0.00    -0.140 A  
HETATM   30 CL   UNL     1     -10.872   9.230  66.554  1.00  0.00     0.014 Cl 
ENDBRANCH  18  23
ENDBRANCH   9  11
ENDBRANCH   8   9
ENDBRANCH   7   8
ENDBRANCH   6   7
ENDBRANCH   4   6
ENDBRANCH   3   4
ENDBRANCH   2   3
TORSDOF 10
ENDMDL
MODEL      224
REMARK 921   NORMALIZED FREE ENERGY PREDICTED BY IDOCK:   -2.65 KCAL/MOL
REMARK 922        TOTAL FREE ENERGY PREDICTED BY IDOCK:   -5.60 KCAL/MOL
REMARK 923 INTER-LIGAND FREE ENERGY PREDICTED BY IDOCK:   -5.12 KCAL/MOL
REMARK 924 INTRA-LIGAND FREE ENERGY PREDICTED BY IDOCK:   -0.48 KCAL/MOL
REMARK 927      BINDING AFFINITY PREDICTED BY RF-SCORE:    0.00 PKD
ROOT
HETATM    1  C   UNL     1     -10.253   1.474  72.383  1.00  0.00    -0.217 C  
HETATM    2  C   UNL     1      -8.970   2.030  71.788  1.00  0.00    -0.124 C  
ENDROOT
BRANCH   2   3
HETATM    3  C   UNL     1      -8.885   1.742  70.296  1.00  0.00    -0.124 C  
BRANCH   3   4
HETATM    4  C   UNL     1      -8.006   2.743  69.587  1.00  0.00    -0.041 C  
HETATM    5  O   UNL     1      -7.446   2.563  68.515  1.00  0.00    -0.047 OA 
BRANCH   4   6
HETATM    6  O   UNL     1      -7.990   3.893  70.301  1.00  0.00    -0.050 OA 
BRANCH   6   7
HETATM    7  C   UNL     1      -9.266   4.447  70.588  1.00  0.00    -0.131 C  
BRANCH   7   8
HETATM    8  O   UNL     1     -10.053   4.868  69.473  1.00  0.00    -0.221 OA 
BRANCH   8   9
HETATM    9  C   UNL     1     -10.907   5.890  69.669  1.00  0.00    -0.374 C  
HETATM   10  O   UNL     1     -11.874   5.851  70.411  1.00  0.00     0.057 OA 
BRANCH   9  11
HETATM   11  C   UNL     1     -10.615   7.014  68.719  1.00  0.00    -0.235 C  
HETATM   12  C   UNL     1     -10.636   6.901  67.365  1.00  0.00    -0.303 C  
HETATM   13  N   UNL     1     -10.521   8.036  66.584  1.00  0.00    -0.248 NA 
HETATM   14  C   UNL     1     -10.786   5.648  66.525  1.00  0.00    -0.296 C  
HETATM   15  C   UNL     1     -10.213   9.300  67.039  1.00  0.00    -0.262 C  
HETATM   16  C   UNL     1     -10.131   9.538  68.368  1.00  0.00    -0.199 C  
HETATM   17  C   UNL     1      -9.985  10.328  65.957  1.00  0.00    -0.308 C  
HETATM   18  C   UNL     1     -10.434   8.415  69.383  1.00  0.00    -0.222 C  
BRANCH  16  19
HETATM   19  C   UNL     1      -9.690  10.885  68.827  1.00  0.00    -0.189 C  
HETATM   20  O   UNL     1      -8.527  11.261  68.841  1.00  0.00    -0.139 OA 
BRANCH  19  21
HETATM   21  O   UNL     1     -10.736  11.632  69.261  1.00  0.00    -0.192 OA 
HETATM   22  C   UNL     1     -10.866  12.885  68.583  1.00  0.00    -0.258 C  
ENDBRANCH  19  21
ENDBRANCH  16  19
BRANCH  18  23
HETATM   23  C   UNL     1      -9.410   8.401  70.528  1.00  0.00    -0.177 A  
HETATM   24  C   UNL     1      -9.856   8.685  71.833  1.00  0.00    -0.384 A  
HETATM   25  C   UNL     1      -8.976   8.665  72.910  1.00  0.00    -0.011 A  
HETATM   26  C   UNL     1      -7.629   8.348  72.709  1.00  0.00    -0.119 A  
HETATM   27  C   UNL     1      -7.159   8.076  71.421  1.00  0.00    -0.063 A  
HETATM   28 CL   UNL     1      -5.477   7.693  71.265  1.00  0.00    -0.034 Cl 
HETATM   29  C   UNL     1      -8.038   8.101  70.325  1.00  0.00    -0.109 A  
HETATM   30 CL   UNL     1      -7.425   7.750  68.734  1.00  0.00    -0.094 Cl 
ENDBRANCH  18  23
ENDBRANCH   9  11
ENDBRANCH   8   9
ENDBRANCH   7   8
ENDBRANCH   6   7
ENDBRANCH   4   6
ENDBRANCH   3   4
ENDBRANCH   2   3
TORSDOF 10
ENDMDL
MODEL      225
REMARK 921   NORMALIZED FREE ENERGY PREDICTED BY IDOCK:   -2.65 KCAL/MOL
REMARK 922        TOTAL FREE ENERGY PREDICTED BY IDOCK:   -5.60 KCAL/MOL
REMARK 923 INTER-LIGAND FREE ENERGY PREDICTED BY IDOCK:   -4.75 KCAL/MOL
REMARK 924 INTRA-LIGAND FREE ENERGY PREDICTED BY IDOCK:   -0.85 KCAL/MOL
REMARK 927      BINDING AFFINITY PREDICTED BY RF-SCORE:    0.00 PKD
ROOT
HETATM    1  C   UNL     1     -10.678  13.960  67.236  1.00  0.00    -0.286 C  
HETATM    2  C   UNL     1      -9.425  14.166  68.071  1.00  0.00    -0.213 C  
ENDROOT
BRANCH   2   3
HETATM    3  C   UNL     1      -8.173  13.806  67.285  1.00  0.00    -0.173 C  
BRANCH   3   4
HETATM    4  C   UNL     1      -7.367  12.739  67.984  1.00  0.00    -0.117 C  
HETATM    5  O   UNL     1      -6.239  12.882  68.433  1.00  0.00    -0.068 OA 
BRANCH   4   6
HETATM    6  O   UNL     1      -8.121  11.619  68.088  1.00  0.00    -0.132 OA 
BRANCH   6   7
HETATM    7  C   UNL     1      -7.459  10.410  67.745  1.00  0.00    -0.088 C  
BRANCH   7   8
HETATM    8  O   UNL     1      -6.767   9.732  68.793  1.00  0.00    -0.050 OA 
BRANCH   8   9
HETATM    9  C   UNL     1      -6.949   8.403  68.896  1.00  0.00    -0.062 C  
HETATM   10  O   UNL     1      -6.749   7.604  67.996  1.00  0.00    -0.059 OA 
BRANCH   9  11
HETATM   11  C   UNL     1      -7.603   8.057  70.202  1.00  0.00    -0.081 C  
HETATM   12  C   UNL     1      -7.110   8.397  71.422  1.00  0.00    -0.074 C  
HETATM   13  N   UNL     1      -7.876   8.178  72.552  1.00  0.00    -0.127 NA 
HETATM   14  C   UNL     1      -5.773   9.027  71.757  1.00  0.00    -0.063 C  
HETATM   15  C   UNL     1      -9.063   7.479  72.599  1.00  0.00    -0.150 C  
HETATM   16  C   UNL     1      -9.643   7.055  71.453  1.00  0.00    -0.162 C  
HETATM   17  C   UNL     1      -9.609   7.246  73.987  1.00  0.00    -0.288 C  
HETATM   18  C   UNL     1      -9.013   7.398  70.086  1.00  0.00    -0.148 C  
BRANCH  16  19
HETATM   19  C   UNL     1     -10.866   6.209  71.541  1.00  0.00    -0.261 C  
HETATM   20  O   UNL     1     -10.895   5.090  72.031  1.00  0.00    -0.179 OA 
BRANCH  19  21
HETATM   21  O   UNL     1     -11.938   6.821  70.978  1.00  0.00    -0.352 OA 
HETATM   22  C   UNL     1     -12.535   7.815  71.816  1.00  0.00    -0.320 C  
ENDBRANCH  19  21
ENDBRANCH  16  19
BRANCH  18  23
HETATM   23  C   UNL     1      -9.027   6.186  69.142  1.00  0.00    -0.126 A  
HETATM   24  C   UNL     1      -8.280   5.048  69.498  1.00  0.00    -0.085 A  
HETATM   25  C   UNL     1      -8.274   3.914  68.691  1.00  0.00    -0.083 A  
HETATM   26  C   UNL     1      -9.026   3.889  67.513  1.00  0.00    -0.154 A  
HETATM   27  C   UNL     1      -9.765   5.013  67.131  1.00  0.00    -0.164 A  
HETATM   28 CL   UNL     1     -10.668   4.893  65.657  1.00  0.00    -0.219 Cl 
HETATM   29  C   UNL     1      -9.772   6.164  67.935  1.00  0.00    -0.116 A  
HETATM   30 CL   UNL     1     -10.709   7.545  67.436  1.00  0.00    -0.349 Cl 
ENDBRANCH  18  23
ENDBRANCH   9  11
ENDBRANCH   8   9
ENDBRANCH   7   8
ENDBRANCH   6   7
ENDBRANCH   4   6
ENDBRANCH   3   4
ENDBRANCH   2   3
TORSDOF 10
ENDMDL
MODEL      226
REMARK 921   NORMALIZED FREE ENERGY PREDICTED BY IDOCK:   -2.61 KCAL/MOL
REMARK 922        TOTAL FREE ENERGY PREDICTED BY IDOCK:   -5.53 KCAL/MOL
REMARK 923 INTER-LIGAND FREE ENERGY PREDICTED BY IDOCK:   -4.31 KCAL/MOL
REMARK 924 INTRA-LIGAND FREE ENERGY PREDICTED BY IDOCK:   -1.22 KCAL/MOL
REMARK 927      BINDING AFFINITY PREDICTED BY RF-SCORE:    0.00 PKD
ROOT
HETATM    1  C   UNL     1     -10.395   9.020  68.010  1.00  0.00    -0.275 C  
HETATM    2  C   UNL     1     -10.653   7.908  67.008  1.00  0.00    -0.381 C  
ENDROOT
BRANCH   2   3
HETATM    3  C   UNL     1      -9.359   7.440  66.359  1.00  0.00    -0.206 C  
BRANCH   3   4
HETATM    4  C   UNL     1      -8.582   8.594  65.775  1.00  0.00    -0.163 C  
HETATM    5  O   UNL     1      -9.053   9.496  65.098  1.00  0.00    -0.201 OA 
BRANCH   4   6
HETATM    6  O   UNL     1      -7.292   8.500  66.175  1.00  0.00    -0.079 OA 
BRANCH   6   7
HETATM    7  C   UNL     1      -7.043   8.900  67.515  1.00  0.00    -0.076 C  
BRANCH   7   8
HETATM    8  O   UNL     1      -5.868   8.380  68.136  1.00  0.00    -0.037 OA 
BRANCH   8   9
HETATM    9  C   UNL     1      -6.014   7.309  68.939  1.00  0.00    -0.026 C  
HETATM   10  O   UNL     1      -5.462   6.235  68.769  1.00  0.00    -0.010 OA 
BRANCH   9  11
HETATM   11  C   UNL     1      -7.085   7.556  69.962  1.00  0.00    -0.060 C  
HETATM   12  C   UNL     1      -7.017   8.507  70.930  1.00  0.00    -0.057 C  
HETATM   13  N   UNL     1      -8.129   8.763  71.712  1.00  0.00    -0.310 NA 
HETATM   14  C   UNL     1      -5.846   9.394  71.303  1.00  0.00    -0.074 C  
HETATM   15  C   UNL     1      -9.291   8.022  71.729  1.00  0.00    -0.165 C  
HETATM   16  C   UNL     1      -9.468   7.023  70.835  1.00  0.00    -0.160 C  
HETATM   17  C   UNL     1     -10.283   8.420  72.795  1.00  0.00    -0.254 C  
HETATM   18  C   UNL     1      -8.400   6.741  69.757  1.00  0.00    -0.132 C  
BRANCH  16  19
HETATM   19  C   UNL     1     -10.685   6.170  70.948  1.00  0.00    -0.258 C  
HETATM   20  O   UNL     1     -11.726   6.374  70.342  1.00  0.00    -0.396 OA 
BRANCH  19  21
HETATM   21  O   UNL     1     -10.504   5.159  71.833  1.00  0.00    -0.211 OA 
HETATM   22  C   UNL     1     -11.455   5.157  72.902  1.00  0.00    -0.254 C  
ENDBRANCH  19  21
ENDBRANCH  16  19
BRANCH  18  23
HETATM   23  C   UNL     1      -8.146   5.234  69.598  1.00  0.00    -0.091 A  
HETATM   24  C   UNL     1      -8.555   4.605  68.407  1.00  0.00    -0.106 A  
HETATM   25  C   UNL     1      -8.331   3.248  68.200  1.00  0.00    -0.094 A  
HETATM   26  C   UNL     1      -7.681   2.488  69.178  1.00  0.00    -0.045 A  
HETATM   27  C   UNL     1      -7.277   3.088  70.375  1.00  0.00    -0.037 A  
HETATM   28 CL   UNL     1      -6.478   2.072  71.529  1.00  0.00    -0.018 Cl 
HETATM   29  C   UNL     1      -7.505   4.456  70.596  1.00  0.00    -0.052 A  
HETATM   30 CL   UNL     1      -6.984   5.175  72.094  1.00  0.00    -0.078 Cl 
ENDBRANCH  18  23
ENDBRANCH   9  11
ENDBRANCH   8   9
ENDBRANCH   7   8
ENDBRANCH   6   7
ENDBRANCH   4   6
ENDBRANCH   3   4
ENDBRANCH   2   3
TORSDOF 10
ENDMDL
MODEL      227
REMARK 921   NORMALIZED FREE ENERGY PREDICTED BY IDOCK:   -2.58 KCAL/MOL
REMARK 922        TOTAL FREE ENERGY PREDICTED BY IDOCK:   -5.49 KCAL/MOL
REMARK 923 INTER-LIGAND FREE ENERGY PREDICTED BY IDOCK:   -5.00 KCAL/MOL
REMARK 924 INTRA-LIGAND FREE ENERGY PREDICTED BY IDOCK:   -0.49 KCAL/MOL
REMARK 927      BINDING AFFINITY PREDICTED BY RF-SCORE:    0.00 PKD
ROOT
HETATM    1  C   UNL     1     -11.114   9.755  69.667  1.00  0.00    -0.251 C  
HETATM    2  C   UNL     1     -11.432   9.718  71.152  1.00  0.00    -0.472 C  
ENDROOT
BRANCH   2   3
HETATM    3  C   UNL     1     -12.228   8.472  71.514  1.00  0.00    -0.355 C  
BRANCH   3   4
HETATM    4  C   UNL     1     -11.496   7.213  71.120  1.00  0.00    -0.290 C  
HETATM    5  O   UNL     1     -11.590   6.645  70.040  1.00  0.00    -0.380 OA 
BRANCH   4   6
HETATM    6  O   UNL     1     -10.674   6.850  72.132  1.00  0.00    -0.212 OA 
BRANCH   6   7
HETATM    7  C   UNL     1      -9.373   7.418  72.089  1.00  0.00    -0.135 C  
BRANCH   7   8
HETATM    8  O   UNL     1      -8.336   6.615  71.525  1.00  0.00    -0.119 OA 
BRANCH   8   9
HETATM    9  C   UNL     1      -8.048   6.800  70.223  1.00  0.00    -0.120 C  
HETATM   10  O   UNL     1      -7.866   7.888  69.702  1.00  0.00    -0.101 OA 
BRANCH   9  11
HETATM   11  C   UNL     1      -8.163   5.510  69.465  1.00  0.00    -0.101 C  
HETATM   12  C   UNL     1      -7.779   4.299  69.949  1.00  0.00    -0.053 C  
HETATM   13  N   UNL     1      -8.085   3.153  69.237  1.00  0.00    -0.048 NA 
HETATM   14  C   UNL     1      -7.030   3.988  71.229  1.00  0.00    -0.032 C  
HETATM   15  C   UNL     1      -8.613   3.111  67.965  1.00  0.00    -0.093 C  
HETATM   16  C   UNL     1      -9.007   4.254  67.358  1.00  0.00    -0.134 C  
HETATM   17  C   UNL     1      -8.696   1.732  67.356  1.00  0.00    -0.123 C  
HETATM   18  C   UNL     1      -8.919   5.604  68.104  1.00  0.00    -0.111 C  
BRANCH  16  19
HETATM   19  C   UNL     1      -9.472   4.190  65.945  1.00  0.00    -0.178 C  
HETATM   20  O   UNL     1     -10.646   4.163  65.607  1.00  0.00    -0.129 OA 
BRANCH  19  21
HETATM   21  O   UNL     1      -8.429   4.131  65.079  1.00  0.00    -0.111 OA 
HETATM   22  C   UNL     1      -8.724   4.676  63.789  1.00  0.00    -0.140 C  
ENDBRANCH  19  21
ENDBRANCH  16  19
BRANCH  18  23
HETATM   23  C   UNL     1      -8.368   6.712  67.194  1.00  0.00    -0.113 A  
HETATM   24  C   UNL     1      -6.993   6.717  66.895  1.00  0.00    -0.067 A  
HETATM   25  C   UNL     1      -6.445   7.684  66.059  1.00  0.00    -0.042 A  
HETATM   26  C   UNL     1      -7.264   8.665  65.491  1.00  0.00    -0.084 A  
HETATM   27  C   UNL     1      -8.631   8.690  65.784  1.00  0.00    -0.163 A  
HETATM   28 CL   UNL     1      -9.570   9.940  65.036  1.00  0.00    -0.354 Cl 
HETATM   29  C   UNL     1      -9.193   7.722  66.632  1.00  0.00    -0.177 A  
HETATM   30 CL   UNL     1     -10.900   7.774  66.972  1.00  0.00    -0.316 Cl 
ENDBRANCH  18  23
ENDBRANCH   9  11
ENDBRANCH   8   9
ENDBRANCH   7   8
ENDBRANCH   6   7
ENDBRANCH   4   6
ENDBRANCH   3   4
ENDBRANCH   2   3
TORSDOF 10
ENDMDL
MODEL      228
REMARK 921   NORMALIZED FREE ENERGY PREDICTED BY IDOCK:   -2.57 KCAL/MOL
REMARK 922        TOTAL FREE ENERGY PREDICTED BY IDOCK:   -5.47 KCAL/MOL
REMARK 923 INTER-LIGAND FREE ENERGY PREDICTED BY IDOCK:   -4.90 KCAL/MOL
REMARK 924 INTRA-LIGAND FREE ENERGY PREDICTED BY IDOCK:   -0.58 KCAL/MOL
REMARK 927      BINDING AFFINITY PREDICTED BY RF-SCORE:    0.00 PKD
ROOT
HETATM    1  C   UNL     1     -12.043  14.186  66.574  1.00  0.00    -0.481 C  
HETATM    2  C   UNL     1     -10.762  14.545  65.840  1.00  0.00    -0.308 C  
ENDROOT
BRANCH   2   3
HETATM    3  C   UNL     1     -10.622  13.746  64.553  1.00  0.00    -0.405 C  
BRANCH   3   4
HETATM    4  C   UNL     1     -10.601  12.262  64.821  1.00  0.00    -0.297 C  
HETATM    5  O   UNL     1     -11.477  11.470  64.502  1.00  0.00    -0.248 OA 
BRANCH   4   6
HETATM    6  O   UNL     1      -9.429  11.941  65.417  1.00  0.00    -0.207 OA 
BRANCH   6   7
HETATM    7  C   UNL     1      -9.503  11.714  66.817  1.00  0.00    -0.186 C  
BRANCH   7   8
HETATM    8  O   UNL     1      -8.889  10.524  67.312  1.00  0.00    -0.135 OA 
BRANCH   8   9
HETATM    9  C   UNL     1      -9.554   9.832  68.256  1.00  0.00    -0.143 C  
HETATM   10  O   UNL     1     -10.768   9.744  68.324  1.00  0.00    -0.229 OA 
BRANCH   9  11
HETATM   11  C   UNL     1      -8.611   9.337  69.314  1.00  0.00    -0.139 C  
HETATM   12  C   UNL     1      -7.597  10.071  69.842  1.00  0.00    -0.170 C  
HETATM   13  N   UNL     1      -6.897   9.581  70.930  1.00  0.00    -0.216 NA 
HETATM   14  C   UNL     1      -7.088  11.431  69.406  1.00  0.00    -0.065 C  
HETATM   15  C   UNL     1      -7.009   8.313  71.457  1.00  0.00    -0.068 C  
HETATM   16  C   UNL     1      -7.962   7.471  70.994  1.00  0.00    -0.095 C  
HETATM   17  C   UNL     1      -6.010   7.983  72.539  1.00  0.00    -0.046 C  
HETATM   18  C   UNL     1      -8.961   7.941  69.915  1.00  0.00    -0.146 C  
BRANCH  16  19
HETATM   19  C   UNL     1      -7.989   6.072  71.506  1.00  0.00    -0.113 C  
HETATM   20  O   UNL     1      -8.745   5.674  72.380  1.00  0.00    -0.128 OA 
BRANCH  19  21
HETATM   21  O   UNL     1      -7.047   5.303  70.905  1.00  0.00    -0.056 OA 
HETATM   22  C   UNL     1      -7.475   3.960  70.661  1.00  0.00    -0.041 C  
ENDBRANCH  19  21
ENDBRANCH  16  19
BRANCH  18  23
HETATM   23  C   UNL     1      -9.171   6.866  68.839  1.00  0.00    -0.132 A  
HETATM   24  C   UNL     1     -10.428   6.239  68.749  1.00  0.00    -0.279 A  
HETATM   25  C   UNL     1     -10.680   5.274  67.779  1.00  0.00    -0.023 A  
HETATM   26  C   UNL     1      -9.681   4.922  66.865  1.00  0.00    -0.193 A  
HETATM   27  C   UNL     1      -8.420   5.521  66.943  1.00  0.00    -0.110 A  
HETATM   28 CL   UNL     1      -7.244   5.024  65.770  1.00  0.00    -0.071 Cl 
HETATM   29  C   UNL     1      -8.154   6.490  67.923  1.00  0.00    -0.116 A  
HETATM   30 CL   UNL     1      -6.576   7.223  67.989  1.00  0.00    -0.048 Cl 
ENDBRANCH  18  23
ENDBRANCH   9  11
ENDBRANCH   8   9
ENDBRANCH   7   8
ENDBRANCH   6   7
ENDBRANCH   4   6
ENDBRANCH   3   4
ENDBRANCH   2   3
TORSDOF 10
ENDMDL
MODEL      229
REMARK 921   NORMALIZED FREE ENERGY PREDICTED BY IDOCK:   -2.51 KCAL/MOL
REMARK 922        TOTAL FREE ENERGY PREDICTED BY IDOCK:   -5.38 KCAL/MOL
REMARK 923 INTER-LIGAND FREE ENERGY PREDICTED BY IDOCK:   -4.45 KCAL/MOL
REMARK 924 INTRA-LIGAND FREE ENERGY PREDICTED BY IDOCK:   -0.93 KCAL/MOL
REMARK 927      BINDING AFFINITY PREDICTED BY RF-SCORE:    0.00 PKD
ROOT
HETATM    1  C   UNL     1     -14.198   8.035  71.971  1.00  0.00    -0.465 C  
HETATM    2  C   UNL     1     -13.135   6.979  72.224  1.00  0.00     0.095 C  
ENDROOT
BRANCH   2   3
HETATM    3  C   UNL     1     -11.741   7.589  72.220  1.00  0.00    -0.348 C  
BRANCH   3   4
HETATM    4  C   UNL     1     -10.671   6.526  72.205  1.00  0.00    -0.223 C  
HETATM    5  O   UNL     1     -10.725   5.456  72.795  1.00  0.00    -0.216 OA 
BRANCH   4   6
HETATM    6  O   UNL     1      -9.671   6.923  71.384  1.00  0.00    -0.174 OA 
BRANCH   6   7
HETATM    7  C   UNL     1      -9.717   8.286  70.987  1.00  0.00    -0.163 C  
BRANCH   7   8
HETATM    8  O   UNL     1      -9.177   8.605  69.705  1.00  0.00    -0.150 OA 
BRANCH   8   9
HETATM    9  C   UNL     1      -8.747   9.866  69.511  1.00  0.00    -0.190 C  
HETATM   10  O   UNL     1      -7.756  10.347  70.034  1.00  0.00    -0.136 OA 
BRANCH   9  11
HETATM   11  C   UNL     1      -9.747  10.650  68.713  1.00  0.00    -0.193 C  
HETATM   12  C   UNL     1     -10.940  11.088  69.195  1.00  0.00    -0.237 C  
HETATM   13  N   UNL     1     -11.709  11.947  68.431  1.00  0.00    -0.330 NA 
HETATM   14  C   UNL     1     -11.595  10.772  70.525  1.00  0.00    -0.425 C  
HETATM   15  C   UNL     1     -11.469  12.293  67.119  1.00  0.00    -0.352 C  
HETATM   16  C   UNL     1     -10.329  11.892  66.512  1.00  0.00    -0.249 C  
HETATM   17  C   UNL     1     -12.556  13.116  66.470  1.00  0.00     0.124 C  
HETATM   18  C   UNL     1      -9.266  11.093  67.297  1.00  0.00    -0.166 C  
BRANCH  16  19
HETATM   19  C   UNL     1     -10.148  12.189  65.063  1.00  0.00    -0.263 C  
HETATM   20  O   UNL     1      -9.208  12.818  64.602  1.00  0.00     0.541 OA 
BRANCH  19  21
HETATM   21  O   UNL     1     -11.175  11.702  64.322  1.00  0.00    -0.341 OA 
HETATM   22  C   UNL     1     -11.284  12.305  63.030  1.00  0.00     0.071 C  
ENDBRANCH  19  21
ENDBRANCH  16  19
BRANCH  18  23
HETATM   23  C   UNL     1      -8.714   9.926  66.465  1.00  0.00    -0.139 A  
HETATM   24  C   UNL     1      -9.595   8.898  66.080  1.00  0.00    -0.335 A  
HETATM   25  C   UNL     1      -9.154   7.828  65.308  1.00  0.00     0.277 A  
HETATM   26  C   UNL     1      -7.820   7.768  64.891  1.00  0.00    -0.123 A  
HETATM   27  C   UNL     1      -6.923   8.770  65.272  1.00  0.00    -0.076 A  
HETATM   28 CL   UNL     1      -5.291   8.615  64.710  1.00  0.00    -0.039 Cl 
HETATM   29  C   UNL     1      -7.357   9.851  66.057  1.00  0.00    -0.106 A  
HETATM   30 CL   UNL     1      -6.217  11.087  66.509  1.00  0.00    -0.120 Cl 
ENDBRANCH  18  23
ENDBRANCH   9  11
ENDBRANCH   8   9
ENDBRANCH   7   8
ENDBRANCH   6   7
ENDBRANCH   4   6
ENDBRANCH   3   4
ENDBRANCH   2   3
TORSDOF 10
ENDMDL
MODEL      230
REMARK 921   NORMALIZED FREE ENERGY PREDICTED BY IDOCK:   -2.49 KCAL/MOL
REMARK 922        TOTAL FREE ENERGY PREDICTED BY IDOCK:   -5.36 KCAL/MOL
REMARK 923 INTER-LIGAND FREE ENERGY PREDICTED BY IDOCK:   -5.18 KCAL/MOL
REMARK 924 INTRA-LIGAND FREE ENERGY PREDICTED BY IDOCK:   -0.18 KCAL/MOL
REMARK 927      BINDING AFFINITY PREDICTED BY RF-SCORE:    0.00 PKD
ROOT
HETATM    1  C   UNL     1     -10.897   6.049  67.136  1.00  0.00    -0.414 C  
HETATM    2  C   UNL     1     -10.810   7.129  68.201  1.00  0.00    -0.170 C  
ENDROOT
BRANCH   2   3
HETATM    3  C   UNL     1      -9.385   7.283  68.714  1.00  0.00    -0.143 C  
BRANCH   3   4
HETATM    4  C   UNL     1      -9.232   8.520  69.564  1.00  0.00    -0.150 C  
HETATM    5  O   UNL     1     -10.069   8.954  70.342  1.00  0.00    -0.180 OA 
BRANCH   4   6
HETATM    6  O   UNL     1      -7.994   9.034  69.371  1.00  0.00    -0.094 OA 
BRANCH   6   7
HETATM    7  C   UNL     1      -7.730  10.250  70.055  1.00  0.00    -0.074 C  
BRANCH   7   8
HETATM    8  O   UNL     1      -6.776  11.131  69.462  1.00  0.00    -0.107 OA 
BRANCH   8   9
HETATM    9  C   UNL     1      -7.244  12.261  68.901  1.00  0.00    -0.069 C  
HETATM   10  O   UNL     1      -7.218  13.359  69.432  1.00  0.00     0.040 OA 
BRANCH   9  11
HETATM   11  C   UNL     1      -7.962  11.960  67.619  1.00  0.00    -0.146 C  
HETATM   12  C   UNL     1      -7.382  11.394  66.528  1.00  0.00    -0.063 C  
HETATM   13  N   UNL     1      -8.171  11.003  65.462  1.00  0.00    -0.052 NA 
HETATM   14  C   UNL     1      -5.915  11.097  66.286  1.00  0.00    -0.130 C  
HETATM   15  C   UNL     1      -9.512  11.280  65.307  1.00  0.00    -0.221 C  
HETATM   16  C   UNL     1     -10.200  11.872  66.310  1.00  0.00    -0.247 C  
HETATM   17  C   UNL     1     -10.094  10.880  63.972  1.00  0.00    -0.419 C  
HETATM   18  C   UNL     1      -9.505  12.190  67.652  1.00  0.00    -0.187 C  
BRANCH  16  19
HETATM   19  C   UNL     1     -11.619  12.257  66.073  1.00  0.00    -0.393 C  
HETATM   20  O   UNL     1     -12.494  12.218  66.925  1.00  0.00    -0.221 OA 
BRANCH  19  21
HETATM   21  O   UNL     1     -11.828  12.625  64.784  1.00  0.00    -0.342 OA 
HETATM   22  C   UNL     1     -11.886  14.042  64.595  1.00  0.00    -0.417 C  
ENDBRANCH  19  21
ENDBRANCH  16  19
BRANCH  18  23
HETATM   23  C   UNL     1      -9.887  13.587  68.164  1.00  0.00    -0.237 A  
HETATM   24  C   UNL     1     -10.624  13.687  69.359  1.00  0.00     0.099 A  
HETATM   25  C   UNL     1     -10.977  14.927  69.881  1.00  0.00    -0.257 A  
HETATM   26  C   UNL     1     -10.590  16.100  69.223  1.00  0.00    -0.280 A  
HETATM   27  C   UNL     1      -9.869  16.026  68.027  1.00  0.00    -0.222 A  
HETATM   28 CL   UNL     1      -9.432  17.528  67.282  1.00  0.00    -0.249 Cl 
HETATM   29  C   UNL     1      -9.514  14.778  67.489  1.00  0.00    -0.197 A  
HETATM   30 CL   UNL     1      -8.610  14.719  66.002  1.00  0.00     0.367 Cl 
ENDBRANCH  18  23
ENDBRANCH   9  11
ENDBRANCH   8   9
ENDBRANCH   7   8
ENDBRANCH   6   7
ENDBRANCH   4   6
ENDBRANCH   3   4
ENDBRANCH   2   3
TORSDOF 10
ENDMDL
MODEL      231
REMARK 921   NORMALIZED FREE ENERGY PREDICTED BY IDOCK:   -2.49 KCAL/MOL
REMARK 922        TOTAL FREE ENERGY PREDICTED BY IDOCK:   -5.34 KCAL/MOL
REMARK 923 INTER-LIGAND FREE ENERGY PREDICTED BY IDOCK:   -4.13 KCAL/MOL
REMARK 924 INTRA-LIGAND FREE ENERGY PREDICTED BY IDOCK:   -1.21 KCAL/MOL
REMARK 927      BINDING AFFINITY PREDICTED BY RF-SCORE:    0.00 PKD
ROOT
HETATM    1  C   UNL     1      -5.879  11.579  66.650  1.00  0.00    -0.137 C  
HETATM    2  C   UNL     1      -5.435  12.451  67.812  1.00  0.00    -0.097 C  
ENDROOT
BRANCH   2   3
HETATM    3  C   UNL     1      -6.562  12.648  68.816  1.00  0.00    -0.089 C  
BRANCH   3   4
HETATM    4  C   UNL     1      -6.403  11.743  70.012  1.00  0.00    -0.092 C  
HETATM    5  O   UNL     1      -5.853  12.045  71.062  1.00  0.00    -0.366 OA 
BRANCH   4   6
HETATM    6  O   UNL     1      -7.023  10.567  69.757  1.00  0.00    -0.114 OA 
BRANCH   6   7
HETATM    7  C   UNL     1      -6.931   9.597  70.790  1.00  0.00    -0.079 C  
BRANCH   7   8
HETATM    8  O   UNL     1      -7.805   8.472  70.700  1.00  0.00    -0.076 OA 
BRANCH   8   9
HETATM    9  C   UNL     1      -8.625   8.241  71.742  1.00  0.00    -0.161 C  
HETATM   10  O   UNL     1      -9.414   9.052  72.196  1.00  0.00    -0.340 OA 
BRANCH   9  11
HETATM   11  C   UNL     1      -8.308   6.921  72.384  1.00  0.00    -0.114 C  
HETATM   12  C   UNL     1      -7.532   6.771  73.489  1.00  0.00    -0.082 C  
HETATM   13  N   UNL     1      -7.444   5.531  74.096  1.00  0.00    -0.089 NA 
HETATM   14  C   UNL     1      -6.704   7.816  74.210  1.00  0.00    -0.116 C  
HETATM   15  C   UNL     1      -7.946   4.350  73.594  1.00  0.00    -0.094 C  
HETATM   16  C   UNL     1      -8.710   4.360  72.478  1.00  0.00    -0.116 C  
HETATM   17  C   UNL     1      -7.567   3.115  74.376  1.00  0.00    -0.056 C  
HETATM   18  C   UNL     1      -9.071   5.695  71.792  1.00  0.00    -0.145 C  
BRANCH  16  19
HETATM   19  C   UNL     1      -9.147   3.059  71.899  1.00  0.00    -0.097 C  
HETATM   20  O   UNL     1     -10.283   2.617  71.979  1.00  0.00    -0.150 OA 
BRANCH  19  21
HETATM   21  O   UNL     1      -8.117   2.410  71.300  1.00  0.00    -0.046 OA 
HETATM   22  C   UNL     1      -8.488   1.742  70.090  1.00  0.00    -0.046 C  
ENDBRANCH  19  21
ENDBRANCH  16  19
BRANCH  18  23
HETATM   23  C   UNL     1      -8.940   5.594  70.265  1.00  0.00    -0.152 A  
HETATM   24  C   UNL     1      -7.683   5.275  69.717  1.00  0.00    -0.073 A  
HETATM   25  C   UNL     1      -7.512   5.149  68.342  1.00  0.00    -0.075 A  
HETATM   26  C   UNL     1      -8.600   5.328  67.481  1.00  0.00    -0.104 A  
HETATM   27  C   UNL     1      -9.856   5.660  68.001  1.00  0.00    -0.133 A  
HETATM   28 CL   UNL     1     -11.146   5.862  66.862  1.00  0.00    -0.285 Cl 
HETATM   29  C   UNL     1     -10.037   5.796  69.387  1.00  0.00    -0.213 A  
HETATM   30 CL   UNL     1     -11.614   6.201  70.004  1.00  0.00    -0.391 Cl 
ENDBRANCH  18  23
ENDBRANCH   9  11
ENDBRANCH   8   9
ENDBRANCH   7   8
ENDBRANCH   6   7
ENDBRANCH   4   6
ENDBRANCH   3   4
ENDBRANCH   2   3
TORSDOF 10
ENDMDL
MODEL      232
REMARK 921   NORMALIZED FREE ENERGY PREDICTED BY IDOCK:   -2.47 KCAL/MOL
REMARK 922        TOTAL FREE ENERGY PREDICTED BY IDOCK:   -5.32 KCAL/MOL
REMARK 923 INTER-LIGAND FREE ENERGY PREDICTED BY IDOCK:   -6.28 KCAL/MOL
REMARK 924 INTRA-LIGAND FREE ENERGY PREDICTED BY IDOCK:    0.96 KCAL/MOL
REMARK 927      BINDING AFFINITY PREDICTED BY RF-SCORE:    0.00 PKD
ROOT
HETATM    1  C   UNL     1     -11.168  13.338  63.762  1.00  0.00    -0.230 C  
HETATM    2  C   UNL     1     -11.845  11.979  63.818  1.00  0.00    -0.581 C  
ENDROOT
BRANCH   2   3
HETATM    3  C   UNL     1     -11.217  11.094  64.885  1.00  0.00    -0.027 C  
BRANCH   3   4
HETATM    4  C   UNL     1      -9.801  10.716  64.529  1.00  0.00    -0.327 C  
HETATM    5  O   UNL     1      -9.419  10.352  63.425  1.00  0.00    -0.273 OA 
BRANCH   4   6
HETATM    6  O   UNL     1      -9.012  10.906  65.612  1.00  0.00    -0.186 OA 
BRANCH   6   7
HETATM    7  C   UNL     1      -9.266  12.095  66.346  1.00  0.00    -0.207 C  
BRANCH   7   8
HETATM    8  O   UNL     1     -10.099  11.977  67.499  1.00  0.00    -0.192 OA 
BRANCH   8   9
HETATM    9  C   UNL     1      -9.540  11.476  68.617  1.00  0.00    -0.152 C  
HETATM   10  O   UNL     1      -8.342  11.454  68.842  1.00  0.00    -0.130 OA 
BRANCH   9  11
HETATM   11  C   UNL     1     -10.571  10.787  69.462  1.00  0.00    -0.235 C  
HETATM   12  C   UNL     1     -11.634  11.409  70.038  1.00  0.00    -0.299 C  
HETATM   13  N   UNL     1     -12.614  10.653  70.653  1.00  0.00    -0.351 NA 
HETATM   14  C   UNL     1     -11.934  12.893  70.107  1.00  0.00    -0.373 C  
HETATM   15  C   UNL     1     -12.553   9.298  70.898  1.00  0.00    -0.102 C  
HETATM   16  C   UNL     1     -11.528   8.567  70.405  1.00  0.00    -0.135 C  
HETATM   17  C   UNL     1     -13.687   8.751  71.732  1.00  0.00    -0.461 C  
HETATM   18  C   UNL     1     -10.450   9.232  69.521  1.00  0.00    -0.229 C  
BRANCH  16  19
HETATM   19  C   UNL     1     -11.431   7.128  70.777  1.00  0.00    -0.305 C  
HETATM   20  O   UNL     1     -11.179   6.724  71.903  1.00  0.00    -0.242 OA 
BRANCH  19  21
HETATM   21  O   UNL     1     -11.622   6.321  69.704  1.00  0.00    -0.430 OA 
HETATM   22  C   UNL     1     -10.606   5.326  69.547  1.00  0.00    -0.173 C  
ENDBRANCH  19  21
ENDBRANCH  16  19
BRANCH  18  23
HETATM   23  C   UNL     1      -9.040   8.760  69.904  1.00  0.00    -0.158 A  
HETATM   24  C   UNL     1      -8.139   8.425  68.876  1.00  0.00    -0.114 A  
HETATM   25  C   UNL     1      -6.842   8.013  69.165  1.00  0.00    -0.052 A  
HETATM   26  C   UNL     1      -6.411   7.938  70.493  1.00  0.00    -0.037 A  
HETATM   27  C   UNL     1      -7.292   8.253  71.533  1.00  0.00    -0.087 A  
HETATM   28 CL   UNL     1      -6.672   8.132  73.147  1.00  0.00    -0.113 Cl 
HETATM   29  C   UNL     1      -8.605   8.663  71.252  1.00  0.00    -0.187 A  
HETATM   30 CL   UNL     1      -9.675   9.055  72.568  1.00  0.00     0.109 Cl 
ENDBRANCH  18  23
ENDBRANCH   9  11
ENDBRANCH   8   9
ENDBRANCH   7   8
ENDBRANCH   6   7
ENDBRANCH   4   6
ENDBRANCH   3   4
ENDBRANCH   2   3
TORSDOF 10
ENDMDL
MODEL      233
REMARK 921   NORMALIZED FREE ENERGY PREDICTED BY IDOCK:   -2.45 KCAL/MOL
REMARK 922        TOTAL FREE ENERGY PREDICTED BY IDOCK:   -5.28 KCAL/MOL
REMARK 923 INTER-LIGAND FREE ENERGY PREDICTED BY IDOCK:   -3.76 KCAL/MOL
REMARK 924 INTRA-LIGAND FREE ENERGY PREDICTED BY IDOCK:   -1.52 KCAL/MOL
REMARK 927      BINDING AFFINITY PREDICTED BY RF-SCORE:    0.00 PKD
ROOT
HETATM    1  C   UNL     1     -10.321  19.720  67.315  1.00  0.00    -0.581 C  
HETATM    2  C   UNL     1     -10.093  18.493  66.449  1.00  0.00    -0.430 C  
ENDROOT
BRANCH   2   3
HETATM    3  C   UNL     1     -10.031  17.227  67.291  1.00  0.00    -0.283 C  
BRANCH   3   4
HETATM    4  C   UNL     1      -8.666  16.586  67.230  1.00  0.00    -0.188 C  
HETATM    5  O   UNL     1      -7.613  17.177  67.041  1.00  0.00    -0.165 OA 
BRANCH   4   6
HETATM    6  O   UNL     1      -8.794  15.262  67.479  1.00  0.00    -0.170 OA 
BRANCH   6   7
HETATM    7  C   UNL     1      -7.573  14.541  67.564  1.00  0.00    -0.190 C  
BRANCH   7   8
HETATM    8  O   UNL     1      -7.593  13.320  68.302  1.00  0.00    -0.119 OA 
BRANCH   8   9
HETATM    9  C   UNL     1      -7.720  12.177  67.603  1.00  0.00    -0.148 C  
HETATM   10  O   UNL     1      -7.349  12.024  66.452  1.00  0.00     0.146 OA 
BRANCH   9  11
HETATM   11  C   UNL     1      -8.540  11.177  68.366  1.00  0.00    -0.152 C  
HETATM   12  C   UNL     1      -8.098   9.947  68.741  1.00  0.00    -0.102 C  
HETATM   13  N   UNL     1      -8.872   9.174  69.585  1.00  0.00    -0.142 NA 
HETATM   14  C   UNL     1      -6.804   9.254  68.363  1.00  0.00    -0.063 C  
HETATM   15  C   UNL     1     -10.164   9.451  69.975  1.00  0.00    -0.229 C  
HETATM   16  C   UNL     1     -10.733  10.631  69.638  1.00  0.00    -0.290 C  
HETATM   17  C   UNL     1     -10.838   8.357  70.768  1.00  0.00    -0.255 C  
HETATM   18  C   UNL     1      -9.924  11.695  68.864  1.00  0.00    -0.083 C  
BRANCH  16  19
HETATM   19  C   UNL     1     -12.166  10.858  69.979  1.00  0.00    -0.347 C  
HETATM   20  O   UNL     1     -13.104  10.372  69.365  1.00  0.00     0.222 OA 
BRANCH  19  21
HETATM   21  O   UNL     1     -12.300  11.699  71.035  1.00  0.00    -0.360 OA 
HETATM   22  C   UNL     1     -13.642  11.797  71.521  1.00  0.00     0.391 C  
ENDBRANCH  19  21
ENDBRANCH  16  19
BRANCH  18  23
HETATM   23  C   UNL     1     -10.760  12.330  67.743  1.00  0.00    -0.246 A  
HETATM   24  C   UNL     1     -10.958  11.600  66.555  1.00  0.00    -0.349 A  
HETATM   25  C   UNL     1     -11.724  12.117  65.516  1.00  0.00    -0.384 A  
HETATM   26  C   UNL     1     -12.323  13.375  65.646  1.00  0.00    -0.521 A  
HETATM   27  C   UNL     1     -12.130  14.124  66.810  1.00  0.00    -0.442 A  
HETATM   28 CL   UNL     1     -12.909  15.671  66.885  1.00  0.00     2.299 Cl 
HETATM   29  C   UNL     1     -11.352  13.614  67.862  1.00  0.00    -0.295 A  
HETATM   30 CL   UNL     1     -11.137  14.568  69.303  1.00  0.00    -0.281 Cl 
ENDBRANCH  18  23
ENDBRANCH   9  11
ENDBRANCH   8   9
ENDBRANCH   7   8
ENDBRANCH   6   7
ENDBRANCH   4   6
ENDBRANCH   3   4
ENDBRANCH   2   3
TORSDOF 10
ENDMDL
MODEL      234
REMARK 921   NORMALIZED FREE ENERGY PREDICTED BY IDOCK:   -2.42 KCAL/MOL
REMARK 922        TOTAL FREE ENERGY PREDICTED BY IDOCK:   -5.24 KCAL/MOL
REMARK 923 INTER-LIGAND FREE ENERGY PREDICTED BY IDOCK:   -3.89 KCAL/MOL
REMARK 924 INTRA-LIGAND FREE ENERGY PREDICTED BY IDOCK:   -1.35 KCAL/MOL
REMARK 927      BINDING AFFINITY PREDICTED BY RF-SCORE:    0.00 PKD
ROOT
HETATM    1  C   UNL     1     -11.942  12.810  70.084  1.00  0.00    -0.371 C  
HETATM    2  C   UNL     1     -12.250  11.363  69.736  1.00  0.00    -0.332 C  
ENDROOT
BRANCH   2   3
HETATM    3  C   UNL     1     -12.092  11.109  68.243  1.00  0.00    -0.011 C  
BRANCH   3   4
HETATM    4  C   UNL     1     -10.656  11.253  67.805  1.00  0.00    -0.201 C  
HETATM    5  O   UNL     1     -10.193  12.204  67.190  1.00  0.00    -0.208 OA 
BRANCH   4   6
HETATM    6  O   UNL     1      -9.952  10.189  68.257  1.00  0.00    -0.143 OA 
BRANCH   6   7
HETATM    7  C   UNL     1     -10.558   8.924  68.037  1.00  0.00    -0.168 C  
BRANCH   7   8
HETATM    8  O   UNL     1     -10.358   8.325  66.757  1.00  0.00    -0.310 OA 
BRANCH   8   9
HETATM    9  C   UNL     1      -9.091   8.226  66.311  1.00  0.00    -0.188 C  
HETATM   10  O   UNL     1      -8.694   8.673  65.248  1.00  0.00    -0.183 OA 
BRANCH   9  11
HETATM   11  C   UNL     1      -8.281   7.338  67.210  1.00  0.00    -0.115 C  
HETATM   12  C   UNL     1      -7.313   7.779  68.056  1.00  0.00    -0.102 C  
HETATM   13  N   UNL     1      -6.746   6.900  68.960  1.00  0.00    -0.054 NA 
HETATM   14  C   UNL     1      -6.728   9.172  68.177  1.00  0.00    -0.061 C  
HETATM   15  C   UNL     1      -6.945   5.537  68.993  1.00  0.00    -0.056 C  
HETATM   16  C   UNL     1      -7.861   4.968  68.176  1.00  0.00    -0.087 C  
HETATM   17  C   UNL     1      -6.077   4.791  69.977  1.00  0.00    -0.021 C  
HETATM   18  C   UNL     1      -8.726   5.843  67.244  1.00  0.00    -0.108 C  
BRANCH  16  19
HETATM   19  C   UNL     1      -7.977   3.483  68.156  1.00  0.00    -0.071 C  
HETATM   20  O   UNL     1      -8.813   2.849  68.782  1.00  0.00    -0.087 OA 
BRANCH  19  21
HETATM   21  O   UNL     1      -7.015   2.918  67.382  1.00  0.00    -0.048 OA 
HETATM   22  C   UNL     1      -7.504   1.877  66.532  1.00  0.00    -0.061 C  
ENDBRANCH  19  21
ENDBRANCH  16  19
BRANCH  18  23
HETATM   23  C   UNL     1      -8.843   5.225  65.842  1.00  0.00    -0.145 A  
HETATM   24  C   UNL     1     -10.065   4.638  65.465  1.00  0.00    -0.204 A  
HETATM   25  C   UNL     1     -10.233   4.084  64.200  1.00  0.00    -0.181 A  
HETATM   26  C   UNL     1      -9.183   4.115  63.276  1.00  0.00    -0.133 A  
HETATM   27  C   UNL     1      -7.955   4.680  63.633  1.00  0.00    -0.091 A  
HETATM   28 CL   UNL     1      -6.711   4.676  62.426  1.00  0.00    -0.026 Cl 
HETATM   29  C   UNL     1      -7.773   5.236  64.909  1.00  0.00    -0.087 A  
HETATM   30 CL   UNL     1      -6.234   5.940  65.321  1.00  0.00    -0.036 Cl 
ENDBRANCH  18  23
ENDBRANCH   9  11
ENDBRANCH   8   9
ENDBRANCH   7   8
ENDBRANCH   6   7
ENDBRANCH   4   6
ENDBRANCH   3   4
ENDBRANCH   2   3
TORSDOF 10
ENDMDL
MODEL      235
REMARK 921   NORMALIZED FREE ENERGY PREDICTED BY IDOCK:   -2.20 KCAL/MOL
REMARK 922        TOTAL FREE ENERGY PREDICTED BY IDOCK:   -4.88 KCAL/MOL
REMARK 923 INTER-LIGAND FREE ENERGY PREDICTED BY IDOCK:   -5.20 KCAL/MOL
REMARK 924 INTRA-LIGAND FREE ENERGY PREDICTED BY IDOCK:    0.32 KCAL/MOL
REMARK 927      BINDING AFFINITY PREDICTED BY RF-SCORE:    0.00 PKD
ROOT
HETATM    1  C   UNL     1      -6.705  10.517  62.671  1.00  0.00    -0.111 C  
HETATM    2  C   UNL     1      -8.112  10.135  63.097  1.00  0.00    -0.158 C  
ENDROOT
BRANCH   2   3
HETATM    3  C   UNL     1      -8.376  10.528  64.543  1.00  0.00    -0.108 C  
BRANCH   3   4
HETATM    4  C   UNL     1      -9.831  10.364  64.905  1.00  0.00    -0.334 C  
HETATM    5  O   UNL     1     -10.357   9.326  65.281  1.00  0.00     0.407 OA 
BRANCH   4   6
HETATM    6  O   UNL     1     -10.445  11.567  64.806  1.00  0.00    -0.268 OA 
BRANCH   6   7
HETATM    7  C   UNL     1     -11.118  12.003  65.977  1.00  0.00    -0.320 C  
BRANCH   7   8
HETATM    8  O   UNL     1     -11.931  13.170  65.859  1.00  0.00    -0.383 OA 
BRANCH   8   9
HETATM    9  C   UNL     1     -11.822  14.100  66.826  1.00  0.00    -0.425 C  
HETATM   10  O   UNL     1     -12.701  14.373  67.626  1.00  0.00     0.253 OA 
BRANCH   9  11
HETATM   11  C   UNL     1     -10.549  14.879  66.672  1.00  0.00    -0.305 C  
HETATM   12  C   UNL     1     -10.320  15.790  65.689  1.00  0.00    -0.388 C  
HETATM   13  N   UNL     1      -9.182  16.573  65.738  1.00  0.00    -0.491 NA 
HETATM   14  C   UNL     1     -11.175  16.107  64.478  1.00  0.00    -0.275 C  
HETATM   15  C   UNL     1      -8.133  16.418  66.618  1.00  0.00    -0.286 C  
HETATM   16  C   UNL     1      -8.223  15.520  67.626  1.00  0.00    -0.168 C  
HETATM   17  C   UNL     1      -6.940  17.303  66.348  1.00  0.00    -0.310 C  
HETATM   18  C   UNL     1      -9.518  14.704  67.830  1.00  0.00    -0.210 C  
BRANCH  16  19
HETATM   19  C   UNL     1      -7.033  15.296  68.493  1.00  0.00    -0.113 C  
HETATM   20  O   UNL     1      -6.009  14.740  68.127  1.00  0.00    -0.118 OA 
BRANCH  19  21
HETATM   21  O   UNL     1      -7.241  15.756  69.753  1.00  0.00    -0.167 OA 
HETATM   22  C   UNL     1      -6.129  16.478  70.289  1.00  0.00     0.023 C  
ENDBRANCH  19  21
ENDBRANCH  16  19
BRANCH  18  23
HETATM   23  C   UNL     1      -9.211  13.230  68.135  1.00  0.00    -0.212 A  
HETATM   24  C   UNL     1      -8.087  12.638  67.530  1.00  0.00    -0.178 A  
HETATM   25  C   UNL     1      -7.749  11.314  67.788  1.00  0.00    -0.113 A  
HETATM   26  C   UNL     1      -8.524  10.551  68.668  1.00  0.00    -0.138 A  
HETATM   27  C   UNL     1      -9.654  11.113  69.270  1.00  0.00     0.091 A  
HETATM   28 CL   UNL     1     -10.555  10.097  70.346  1.00  0.00    -0.336 Cl 
HETATM   29  C   UNL     1     -10.007  12.447  69.011  1.00  0.00     0.213 A  
HETATM   30 CL   UNL     1     -11.416  13.121  69.782  1.00  0.00    -0.268 Cl 
ENDBRANCH  18  23
ENDBRANCH   9  11
ENDBRANCH   8   9
ENDBRANCH   7   8
ENDBRANCH   6   7
ENDBRANCH   4   6
ENDBRANCH   3   4
ENDBRANCH   2   3
TORSDOF 10
ENDMDL
MODEL      236
REMARK 921   NORMALIZED FREE ENERGY PREDICTED BY IDOCK:   -2.14 KCAL/MOL
REMARK 922        TOTAL FREE ENERGY PREDICTED BY IDOCK:   -4.80 KCAL/MOL
REMARK 923 INTER-LIGAND FREE ENERGY PREDICTED BY IDOCK:   -3.96 KCAL/MOL
REMARK 924 INTRA-LIGAND FREE ENERGY PREDICTED BY IDOCK:   -0.84 KCAL/MOL
REMARK 927      BINDING AFFINITY PREDICTED BY RF-SCORE:    0.00 PKD
ROOT
HETATM    1  C   UNL     1      -6.521  15.308  70.650  1.00  0.00     0.235 C  
HETATM    2  C   UNL     1      -5.329  14.919  69.792  1.00  0.00    -0.095 C  
ENDROOT
BRANCH   2   3
HETATM    3  C   UNL     1      -5.147  13.409  69.752  1.00  0.00    -0.082 C  
BRANCH   3   4
HETATM    4  C   UNL     1      -5.607  12.829  68.438  1.00  0.00    -0.059 C  
HETATM    5  O   UNL     1      -6.209  13.437  67.565  1.00  0.00    -0.232 OA 
BRANCH   4   6
HETATM    6  O   UNL     1      -5.189  11.543  68.356  1.00  0.00    -0.040 OA 
BRANCH   6   7
HETATM    7  C   UNL     1      -6.224  10.573  68.292  1.00  0.00    -0.054 C  
BRANCH   7   8
HETATM    8  O   UNL     1      -6.202   9.538  69.275  1.00  0.00    -0.040 OA 
BRANCH   8   9
HETATM    9  C   UNL     1      -6.875   9.758  70.420  1.00  0.00    -0.135 C  
HETATM   10  O   UNL     1      -6.768  10.761  71.104  1.00  0.00     0.084 OA 
BRANCH   9  11
HETATM   11  C   UNL     1      -7.634   8.531  70.833  1.00  0.00    -0.080 C  
HETATM   12  C   UNL     1      -7.068   7.430  71.393  1.00  0.00    -0.063 C  
HETATM   13  N   UNL     1      -7.878   6.426  71.892  1.00  0.00    -0.100 NA 
HETATM   14  C   UNL     1      -5.596   7.116  71.578  1.00  0.00    -0.036 C  
HETATM   15  C   UNL     1      -9.243   6.338  71.733  1.00  0.00    -0.144 C  
HETATM   16  C   UNL     1      -9.924   7.357  71.159  1.00  0.00    -0.188 C  
HETATM   17  C   UNL     1      -9.861   5.055  72.235  1.00  0.00    -0.214 C  
HETATM   18  C   UNL     1      -9.187   8.644  70.729  1.00  0.00    -0.223 C  
BRANCH  16  19
HETATM   19  C   UNL     1     -11.382   7.188  70.902  1.00  0.00    -0.286 C  
HETATM   20  O   UNL     1     -12.247   7.937  71.329  1.00  0.00    -0.305 OA 
BRANCH  19  21
HETATM   21  O   UNL     1     -11.632   6.078  70.163  1.00  0.00    -0.308 OA 
HETATM   22  C   UNL     1     -11.333   6.236  68.773  1.00  0.00    -0.134 C  
ENDBRANCH  19  21
ENDBRANCH  16  19
BRANCH  18  23
HETATM   23  C   UNL     1      -9.657   9.125  69.349  1.00  0.00    -0.165 A  
HETATM   24  C   UNL     1      -9.219   8.428  68.207  1.00  0.00    -0.136 A  
HETATM   25  C   UNL     1      -9.631   8.807  66.934  1.00  0.00    -0.249 A  
HETATM   26  C   UNL     1     -10.504   9.888  66.773  1.00  0.00    -0.261 A  
HETATM   27  C   UNL     1     -10.943  10.605  67.890  1.00  0.00    -0.295 A  
HETATM   28 CL   UNL     1     -12.022  11.928  67.597  1.00  0.00    -0.244 Cl 
HETATM   29  C   UNL     1     -10.526  10.234  69.179  1.00  0.00    -0.224 A  
HETATM   30 CL   UNL     1     -11.096  11.142  70.552  1.00  0.00     0.111 Cl 
ENDBRANCH  18  23
ENDBRANCH   9  11
ENDBRANCH   8   9
ENDBRANCH   7   8
ENDBRANCH   6   7
ENDBRANCH   4   6
ENDBRANCH   3   4
ENDBRANCH   2   3
TORSDOF 10
ENDMDL
MODEL      237
REMARK 921   NORMALIZED FREE ENERGY PREDICTED BY IDOCK:   -2.05 KCAL/MOL
REMARK 922        TOTAL FREE ENERGY PREDICTED BY IDOCK:   -4.66 KCAL/MOL
REMARK 923 INTER-LIGAND FREE ENERGY PREDICTED BY IDOCK:   -4.49 KCAL/MOL
REMARK 924 INTRA-LIGAND FREE ENERGY PREDICTED BY IDOCK:   -0.17 KCAL/MOL
REMARK 927      BINDING AFFINITY PREDICTED BY RF-SCORE:    0.00 PKD
ROOT
HETATM    1  C   UNL     1     -12.820  11.461  71.168  1.00  0.00    -0.440 C  
HETATM    2  C   UNL     1     -13.318  10.305  72.019  1.00  0.00    -0.466 C  
ENDROOT
BRANCH   2   3
HETATM    3  C   UNL     1     -14.084   9.293  71.179  1.00  0.00     0.006 C  
BRANCH   3   4
HETATM    4  C   UNL     1     -13.675   7.878  71.505  1.00  0.00    -0.322 C  
HETATM    5  O   UNL     1     -14.350   6.879  71.302  1.00  0.00    -0.211 OA 
BRANCH   4   6
HETATM    6  O   UNL     1     -12.415   7.890  72.001  1.00  0.00    -0.306 OA 
BRANCH   6   7
HETATM    7  C   UNL     1     -11.737   6.643  71.962  1.00  0.00    -0.313 C  
BRANCH   7   8
HETATM    8  O   UNL     1     -10.507   6.599  71.239  1.00  0.00    -0.211 OA 
BRANCH   8   9
HETATM    9  C   UNL     1     -10.512   5.975  70.047  1.00  0.00    -0.250 C  
HETATM   10  O   UNL     1     -10.875   4.824  69.870  1.00  0.00     0.285 OA 
BRANCH   9  11
HETATM   11  C   UNL     1      -9.843   6.819  69.002  1.00  0.00    -0.152 C  
HETATM   12  C   UNL     1     -10.164   6.806  67.682  1.00  0.00    -0.179 C  
HETATM   13  N   UNL     1      -9.604   7.745  66.835  1.00  0.00    -0.183 NA 
HETATM   14  C   UNL     1     -11.107   5.872  66.949  1.00  0.00    -0.175 C  
HETATM   15  C   UNL     1      -8.594   8.623  67.161  1.00  0.00    -0.121 C  
HETATM   16  C   UNL     1      -8.160   8.711  68.438  1.00  0.00    -0.118 C  
HETATM   17  C   UNL     1      -8.053   9.427  66.003  1.00  0.00    -0.111 C  
HETATM   18  C   UNL     1      -8.826   7.870  69.549  1.00  0.00    -0.142 C  
BRANCH  16  19
HETATM   19  C   UNL     1      -6.994   9.589  68.739  1.00  0.00    -0.067 C  
HETATM   20  O   UNL     1      -5.827   9.253  68.605  1.00  0.00    -0.041 OA 
BRANCH  19  21
HETATM   21  O   UNL     1      -7.390  10.797  69.214  1.00  0.00    -0.107 OA 
HETATM   22  C   UNL     1      -6.344  11.528  69.860  1.00  0.00    -0.136 C  
ENDBRANCH  19  21
ENDBRANCH  16  19
BRANCH  18  23
HETATM   23  C   UNL     1      -7.781   7.252  70.489  1.00  0.00    -0.093 A  
HETATM   24  C   UNL     1      -6.786   6.424  69.938  1.00  0.00    -0.053 A  
HETATM   25  C   UNL     1      -5.801   5.856  70.741  1.00  0.00    -0.021 A  
HETATM   26  C   UNL     1      -5.782   6.114  72.115  1.00  0.00    -0.036 A  
HETATM   27  C   UNL     1      -6.769   6.923  72.688  1.00  0.00    -0.062 A  
HETATM   28 CL   UNL     1      -6.668   7.190  74.397  1.00  0.00    -0.085 Cl 
HETATM   29  C   UNL     1      -7.771   7.495  71.888  1.00  0.00    -0.085 A  
HETATM   30 CL   UNL     1      -8.981   8.504  72.629  1.00  0.00    -0.297 Cl 
ENDBRANCH  18  23
ENDBRANCH   9  11
ENDBRANCH   8   9
ENDBRANCH   7   8
ENDBRANCH   6   7
ENDBRANCH   4   6
ENDBRANCH   3   4
ENDBRANCH   2   3
TORSDOF 10
ENDMDL
MODEL      238
REMARK 921   NORMALIZED FREE ENERGY PREDICTED BY IDOCK:   -1.92 KCAL/MOL
REMARK 922        TOTAL FREE ENERGY PREDICTED BY IDOCK:   -4.45 KCAL/MOL
REMARK 923 INTER-LIGAND FREE ENERGY PREDICTED BY IDOCK:   -4.41 KCAL/MOL
REMARK 924 INTRA-LIGAND FREE ENERGY PREDICTED BY IDOCK:   -0.04 KCAL/MOL
REMARK 927      BINDING AFFINITY PREDICTED BY RF-SCORE:    0.00 PKD
ROOT
HETATM    1  C   UNL     1      -9.924  10.950  70.003  1.00  0.00     0.588 C  
HETATM    2  C   UNL     1     -11.176  10.097  69.883  1.00  0.00    -0.343 C  
ENDROOT
BRANCH   2   3
HETATM    3  C   UNL     1     -12.388  10.944  69.524  1.00  0.00    -0.241 C  
BRANCH   3   4
HETATM    4  C   UNL     1     -12.136  12.409  69.781  1.00  0.00    -0.223 C  
HETATM    5  O   UNL     1     -12.363  12.996  70.829  1.00  0.00    -0.363 OA 
BRANCH   4   6
HETATM    6  O   UNL     1     -11.560  12.953  68.683  1.00  0.00    -0.272 OA 
BRANCH   6   7
HETATM    7  C   UNL     1     -12.154  12.591  67.445  1.00  0.00    -0.051 C  
BRANCH   7   8
HETATM    8  O   UNL     1     -11.286  12.072  66.438  1.00  0.00    -0.306 OA 
BRANCH   8   9
HETATM    9  C   UNL     1     -10.447  12.937  65.838  1.00  0.00    -0.279 C  
HETATM   10  O   UNL     1     -10.680  13.511  64.788  1.00  0.00    -0.353 OA 
BRANCH   9  11
HETATM   11  C   UNL     1      -9.119  12.959  66.537  1.00  0.00    -0.138 C  
HETATM   12  C   UNL     1      -8.455  11.851  66.960  1.00  0.00    -0.177 C  
HETATM   13  N   UNL     1      -7.163  11.973  67.437  1.00  0.00    -0.133 NA 
HETATM   14  C   UNL     1      -8.935  10.414  66.981  1.00  0.00    -0.150 C  
HETATM   15  C   UNL     1      -6.506  13.157  67.694  1.00  0.00    -0.163 C  
HETATM   16  C   UNL     1      -7.075  14.334  67.349  1.00  0.00    -0.109 C  
HETATM   17  C   UNL     1      -5.163  13.005  68.368  1.00  0.00    -0.071 C  
HETATM   18  C   UNL     1      -8.435  14.359  66.618  1.00  0.00     0.036 C  
BRANCH  16  19
HETATM   19  C   UNL     1      -6.391  15.599  67.737  1.00  0.00    -0.157 C  
HETATM   20  O   UNL     1      -5.849  16.358  66.948  1.00  0.00    -0.317 OA 
BRANCH  19  21
HETATM   21  O   UNL     1      -6.416  15.788  69.080  1.00  0.00    -0.126 OA 
HETATM   22  C   UNL     1      -5.847  17.033  69.494  1.00  0.00    -0.203 C  
ENDBRANCH  19  21
ENDBRANCH  16  19
BRANCH  18  23
HETATM   23  C   UNL     1      -9.361  15.441  67.193  1.00  0.00    -0.225 A  
HETATM   24  C   UNL     1      -9.864  16.427  66.324  1.00  0.00    -0.336 A  
HETATM   25  C   UNL     1     -10.725  17.418  66.786  1.00  0.00    -0.100 A  
HETATM   26  C   UNL     1     -11.113  17.438  68.130  1.00  0.00    -0.017 A  
HETATM   27  C   UNL     1     -10.615  16.476  69.016  1.00  0.00    -0.324 A  
HETATM   28 CL   UNL     1     -11.150  16.576  70.661  1.00  0.00    -0.214 Cl 
HETATM   29  C   UNL     1      -9.741  15.477  68.560  1.00  0.00    -0.203 A  
HETATM   30 CL   UNL     1      -9.145  14.289  69.685  1.00  0.00     0.560 Cl 
ENDBRANCH  18  23
ENDBRANCH   9  11
ENDBRANCH   8   9
ENDBRANCH   7   8
ENDBRANCH   6   7
ENDBRANCH   4   6
ENDBRANCH   3   4
ENDBRANCH   2   3
TORSDOF 10
ENDMDL
MODEL      239
REMARK 921   NORMALIZED FREE ENERGY PREDICTED BY IDOCK:   -1.78 KCAL/MOL
REMARK 922        TOTAL FREE ENERGY PREDICTED BY IDOCK:   -4.22 KCAL/MOL
REMARK 923 INTER-LIGAND FREE ENERGY PREDICTED BY IDOCK:   -3.66 KCAL/MOL
REMARK 924 INTRA-LIGAND FREE ENERGY PREDICTED BY IDOCK:   -0.56 KCAL/MOL
REMARK 927      BINDING AFFINITY PREDICTED BY RF-SCORE:    0.00 PKD
ROOT
HETATM    1  C   UNL     1     -11.983  12.715  69.867  1.00  0.00    -0.365 C  
HETATM    2  C   UNL     1     -11.320  11.499  69.241  1.00  0.00    -0.353 C  
ENDROOT
BRANCH   2   3
HETATM    3  C   UNL     1     -11.917  11.187  67.876  1.00  0.00     0.002 C  
BRANCH   3   4
HETATM    4  C   UNL     1     -11.174  11.896  66.771  1.00  0.00    -0.327 C  
HETATM    5  O   UNL     1     -11.531  12.930  66.225  1.00  0.00    -0.315 OA 
BRANCH   4   6
HETATM    6  O   UNL     1     -10.018  11.234  66.527  1.00  0.00    -0.202 OA 
BRANCH   6   7
HETATM    7  C   UNL     1     -10.054   9.837  66.783  1.00  0.00    -0.231 C  
BRANCH   7   8
HETATM    8  O   UNL     1      -9.549   8.980  65.760  1.00  0.00    -0.256 OA 
BRANCH   8   9
HETATM    9  C   UNL     1      -8.225   9.012  65.522  1.00  0.00    -0.122 C  
HETATM   10  O   UNL     1      -7.720   8.977  64.413  1.00  0.00    -0.108 OA 
BRANCH   9  11
HETATM   11  C   UNL     1      -7.453   8.914  66.805  1.00  0.00    -0.083 C  
HETATM   12  C   UNL     1      -6.759   9.940  67.365  1.00  0.00    -0.074 C  
HETATM   13  N   UNL     1      -6.225   9.790  68.632  1.00  0.00    -0.043 NA 
HETATM   14  C   UNL     1      -6.469  11.310  66.786  1.00  0.00    -0.136 C  
HETATM   15  C   UNL     1      -6.177   8.616  69.353  1.00  0.00    -0.041 C  
HETATM   16  C   UNL     1      -6.803   7.511  68.889  1.00  0.00    -0.068 C  
HETATM   17  C   UNL     1      -5.391   8.693  70.640  1.00  0.00    -0.027 C  
HETATM   18  C   UNL     1      -7.619   7.569  67.579  1.00  0.00    -0.113 C  
BRANCH  16  19
HETATM   19  C   UNL     1      -6.642   6.232  69.634  1.00  0.00    -0.047 C  
HETATM   20  O   UNL     1      -7.512   5.724  70.326  1.00  0.00    -0.077 OA 
BRANCH  19  21
HETATM   21  O   UNL     1      -5.397   5.716  69.477  1.00  0.00    -0.004 OA 
HETATM   22  C   UNL     1      -5.379   4.461  68.791  1.00  0.00    -0.011 C  
ENDBRANCH  19  21
ENDBRANCH  16  19
BRANCH  18  23
HETATM   23  C   UNL     1      -7.354   6.339  66.698  1.00  0.00    -0.078 A  
HETATM   24  C   UNL     1      -6.298   6.393  65.768  1.00  0.00    -0.039 A  
HETATM   25  C   UNL     1      -5.999   5.301  64.960  1.00  0.00    -0.022 A  
HETATM   26  C   UNL     1      -6.744   4.122  65.071  1.00  0.00    -0.048 A  
HETATM   27  C   UNL     1      -7.806   4.049  65.978  1.00  0.00    -0.090 A  
HETATM   28 CL   UNL     1      -8.673   2.551  66.050  1.00  0.00    -0.124 Cl 
HETATM   29  C   UNL     1      -8.120   5.149  66.793  1.00  0.00    -0.108 A  
HETATM   30 CL   UNL     1      -9.444   5.025  67.917  1.00  0.00    -0.151 Cl 
ENDBRANCH  18  23
ENDBRANCH   9  11
ENDBRANCH   8   9
ENDBRANCH   7   8
ENDBRANCH   6   7
ENDBRANCH   4   6
ENDBRANCH   3   4
ENDBRANCH   2   3
TORSDOF 10
ENDMDL
MODEL      240
REMARK 921   NORMALIZED FREE ENERGY PREDICTED BY IDOCK:   -1.68 KCAL/MOL
REMARK 922        TOTAL FREE ENERGY PREDICTED BY IDOCK:   -4.06 KCAL/MOL
REMARK 923 INTER-LIGAND FREE ENERGY PREDICTED BY IDOCK:   -5.03 KCAL/MOL
REMARK 924 INTRA-LIGAND FREE ENERGY PREDICTED BY IDOCK:    0.97 KCAL/MOL
REMARK 927      BINDING AFFINITY PREDICTED BY RF-SCORE:    0.00 PKD
ROOT
HETATM    1  C   UNL     1      -9.293  16.896  65.827  1.00  0.00     0.005 C  
HETATM    2  C   UNL     1      -9.390  15.385  65.957  1.00  0.00    -0.364 C  
ENDROOT
BRANCH   2   3
HETATM    3  C   UNL     1      -8.515  14.873  67.093  1.00  0.00    -0.244 C  
BRANCH   3   4
HETATM    4  C   UNL     1      -9.142  13.688  67.784  1.00  0.00    -0.199 C  
HETATM    5  O   UNL     1     -10.320  13.369  67.718  1.00  0.00    -0.233 OA 
BRANCH   4   6
HETATM    6  O   UNL     1      -8.175  13.000  68.437  1.00  0.00    -0.151 OA 
BRANCH   6   7
HETATM    7  C   UNL     1      -7.251  12.316  67.604  1.00  0.00    -0.128 C  
BRANCH   7   8
HETATM    8  O   UNL     1      -7.061  10.924  67.856  1.00  0.00    -0.079 OA 
BRANCH   8   9
HETATM    9  C   UNL     1      -7.090  10.518  69.139  1.00  0.00    -0.089 C  
HETATM   10  O   UNL     1      -6.753  11.204  70.090  1.00  0.00    -0.165 OA 
BRANCH   9  11
HETATM   11  C   UNL     1      -7.415   9.055  69.226  1.00  0.00    -0.075 C  
HETATM   12  C   UNL     1      -6.739   8.162  69.996  1.00  0.00    -0.040 C  
HETATM   13  N   UNL     1      -7.227   6.876  70.134  1.00  0.00    -0.074 NA 
HETATM   14  C   UNL     1      -5.461   8.372  70.783  1.00  0.00    -0.028 C  
HETATM   15  C   UNL     1      -8.273   6.329  69.423  1.00  0.00    -0.114 C  
HETATM   16  C   UNL     1      -9.008   7.107  68.596  1.00  0.00    -0.131 C  
HETATM   17  C   UNL     1      -8.494   4.853  69.651  1.00  0.00    -0.090 C  
HETATM   18  C   UNL     1      -8.717   8.620  68.484  1.00  0.00    -0.139 C  
BRANCH  16  19
HETATM   19  C   UNL     1     -10.062   6.467  67.760  1.00  0.00    -0.146 C  
HETATM   20  O   UNL     1      -9.865   5.990  66.652  1.00  0.00    -0.155 OA 
BRANCH  19  21
HETATM   21  O   UNL     1     -11.274   6.509  68.367  1.00  0.00    -0.283 OA 
HETATM   22  C   UNL     1     -11.199   6.695  69.783  1.00  0.00    -0.356 C  
ENDBRANCH  19  21
ENDBRANCH  16  19
BRANCH  18  23
HETATM   23  C   UNL     1      -8.754   9.091  67.022  1.00  0.00    -0.124 A  
HETATM   24  C   UNL     1      -7.708   8.702  66.163  1.00  0.00    -0.097 A  
HETATM   25  C   UNL     1      -7.702   9.082  64.825  1.00  0.00    -0.109 A  
HETATM   26  C   UNL     1      -8.751   9.852  64.310  1.00  0.00    -0.229 A  
HETATM   27  C   UNL     1      -9.793  10.261  65.147  1.00  0.00    -0.321 A  
HETATM   28 CL   UNL     1     -11.050  11.211  64.425  1.00  0.00    -0.285 Cl 
HETATM   29  C   UNL     1      -9.805   9.889  66.501  1.00  0.00    -0.215 A  
HETATM   30 CL   UNL     1     -11.121  10.408  67.516  1.00  0.00    -0.368 Cl 
ENDBRANCH  18  23
ENDBRANCH   9  11
ENDBRANCH   8   9
ENDBRANCH   7   8
ENDBRANCH   6   7
ENDBRANCH   4   6
ENDBRANCH   3   4
ENDBRANCH   2   3
TORSDOF 10
ENDMDL
MODEL      241
REMARK 921   NORMALIZED FREE ENERGY PREDICTED BY IDOCK:   -1.65 KCAL/MOL
REMARK 922        TOTAL FREE ENERGY PREDICTED BY IDOCK:   -4.02 KCAL/MOL
REMARK 923 INTER-LIGAND FREE ENERGY PREDICTED BY IDOCK:   -4.33 KCAL/MOL
REMARK 924 INTRA-LIGAND FREE ENERGY PREDICTED BY IDOCK:    0.31 KCAL/MOL
REMARK 927      BINDING AFFINITY PREDICTED BY RF-SCORE:    0.00 PKD
ROOT
HETATM    1  C   UNL     1     -11.247  10.985  65.003  1.00  0.00     0.099 C  
HETATM    2  C   UNL     1     -11.487  12.105  66.001  1.00  0.00    -0.427 C  
ENDROOT
BRANCH   2   3
HETATM    3  C   UNL     1     -12.536  13.082  65.490  1.00  0.00    -0.422 C  
BRANCH   3   4
HETATM    4  C   UNL     1     -11.932  14.114  64.570  1.00  0.00    -0.458 C  
HETATM    5  O   UNL     1     -11.798  13.995  63.360  1.00  0.00    -0.114 OA 
BRANCH   4   6
HETATM    6  O   UNL     1     -11.621  15.216  65.292  1.00  0.00    -0.306 OA 
BRANCH   6   7
HETATM    7  C   UNL     1     -10.564  16.006  64.767  1.00  0.00    -0.070 C  
BRANCH   7   8
HETATM    8  O   UNL     1      -9.258  15.770  65.293  1.00  0.00    -0.151 OA 
BRANCH   8   9
HETATM    9  C   UNL     1      -8.919  16.420  66.422  1.00  0.00    -0.305 C  
HETATM   10  O   UNL     1      -7.867  17.011  66.591  1.00  0.00    -0.208 OA 
BRANCH   9  11
HETATM   11  C   UNL     1      -9.928  16.164  67.504  1.00  0.00    -0.243 C  
HETATM   12  C   UNL     1     -10.821  17.084  67.955  1.00  0.00    -0.302 C  
HETATM   13  N   UNL     1     -11.816  16.695  68.833  1.00  0.00     0.185 NA 
HETATM   14  C   UNL     1     -10.908  18.559  67.617  1.00  0.00    -0.319 C  
HETATM   15  C   UNL     1     -11.910  15.467  69.451  1.00  0.00    -0.374 C  
HETATM   16  C   UNL     1     -11.058  14.473  69.114  1.00  0.00    -0.284 C  
HETATM   17  C   UNL     1     -13.001  15.361  70.490  1.00  0.00    -0.379 C  
HETATM   18  C   UNL     1     -10.012  14.686  67.998  1.00  0.00    -0.220 C  
BRANCH  16  19
HETATM   19  C   UNL     1     -11.113  13.194  69.876  1.00  0.00     0.270 C  
HETATM   20  O   UNL     1     -11.463  13.103  71.043  1.00  0.00     0.684 OA 
BRANCH  19  21
HETATM   21  O   UNL     1     -10.695  12.146  69.122  1.00  0.00    -0.173 OA 
HETATM   22  C   UNL     1     -11.042  10.871  69.671  1.00  0.00    -0.266 C  
ENDBRANCH  19  21
ENDBRANCH  16  19
BRANCH  18  23
HETATM   23  C   UNL     1      -8.643  14.113  68.395  1.00  0.00    -0.176 A  
HETATM   24  C   UNL     1      -8.002  14.631  69.536  1.00  0.00     0.063 A  
HETATM   25  C   UNL     1      -6.772  14.134  69.953  1.00  0.00    -0.036 A  
HETATM   26  C   UNL     1      -6.158  13.096  69.244  1.00  0.00    -0.098 A  
HETATM   27  C   UNL     1      -6.769  12.575  68.100  1.00  0.00    -0.078 A  
HETATM   28 CL   UNL     1      -5.938  11.291  67.284  1.00  0.00    -0.062 Cl 
HETATM   29  C   UNL     1      -8.007  13.075  67.666  1.00  0.00    -0.169 A  
HETATM   30 CL   UNL     1      -8.747  12.399  66.241  1.00  0.00     0.010 Cl 
ENDBRANCH  18  23
ENDBRANCH   9  11
ENDBRANCH   8   9
ENDBRANCH   7   8
ENDBRANCH   6   7
ENDBRANCH   4   6
ENDBRANCH   3   4
ENDBRANCH   2   3
TORSDOF 10
ENDMDL
MODEL      242
REMARK 921   NORMALIZED FREE ENERGY PREDICTED BY IDOCK:   -1.63 KCAL/MOL
REMARK 922        TOTAL FREE ENERGY PREDICTED BY IDOCK:   -3.99 KCAL/MOL
REMARK 923 INTER-LIGAND FREE ENERGY PREDICTED BY IDOCK:   -4.81 KCAL/MOL
REMARK 924 INTRA-LIGAND FREE ENERGY PREDICTED BY IDOCK:    0.82 KCAL/MOL
REMARK 927      BINDING AFFINITY PREDICTED BY RF-SCORE:    0.00 PKD
ROOT
HETATM    1  C   UNL     1     -13.284  11.613  71.500  1.00  0.00    -0.301 C  
HETATM    2  C   UNL     1     -11.982  11.517  70.723  1.00  0.00    -0.317 C  
ENDROOT
BRANCH   2   3
HETATM    3  C   UNL     1     -11.770  10.113  70.174  1.00  0.00    -0.330 C  
BRANCH   3   4
HETATM    4  C   UNL     1     -10.959   9.264  71.120  1.00  0.00    -0.339 C  
HETATM    5  O   UNL     1     -11.358   8.803  72.180  1.00  0.00    -0.351 OA 
BRANCH   4   6
HETATM    6  O   UNL     1      -9.738   9.046  70.576  1.00  0.00    -0.184 OA 
BRANCH   6   7
HETATM    7  C   UNL     1      -9.725   8.876  69.166  1.00  0.00    -0.168 C  
BRANCH   7   8
HETATM    8  O   UNL     1     -10.845   8.208  68.586  1.00  0.00    -0.078 OA 
BRANCH   8   9
HETATM    9  C   UNL     1     -10.609   7.405  67.532  1.00  0.00    -0.269 C  
HETATM   10  O   UNL     1     -11.185   6.351  67.322  1.00  0.00    -0.364 OA 
BRANCH   9  11
HETATM   11  C   UNL     1      -9.422   7.889  66.752  1.00  0.00    -0.257 C  
HETATM   12  C   UNL     1      -9.293   9.145  66.249  1.00  0.00    -0.216 C  
HETATM   13  N   UNL     1      -8.088   9.537  65.695  1.00  0.00    -0.110 NA 
HETATM   14  C   UNL     1     -10.324  10.255  66.207  1.00  0.00    -0.256 C  
HETATM   15  C   UNL     1      -7.012   8.714  65.440  1.00  0.00    -0.075 C  
HETATM   16  C   UNL     1      -7.029   7.429  65.862  1.00  0.00    -0.061 C  
HETATM   17  C   UNL     1      -5.882   9.363  64.678  1.00  0.00    -0.070 C  
HETATM   18  C   UNL     1      -8.225   6.891  66.677  1.00  0.00    -0.115 C  
BRANCH  16  19
HETATM   19  C   UNL     1      -5.901   6.535  65.477  1.00  0.00    -0.026 C  
HETATM   20  O   UNL     1      -5.144   6.000  66.273  1.00  0.00    -0.008 OA 
BRANCH  19  21
HETATM   21  O   UNL     1      -5.798   6.415  64.129  1.00  0.00    -0.022 OA 
HETATM   22  C   UNL     1      -5.291   5.146  63.705  1.00  0.00    -0.013 C  
ENDBRANCH  19  21
ENDBRANCH  16  19
BRANCH  18  23
HETATM   23  C   UNL     1      -8.646   5.493  66.201  1.00  0.00    -0.129 A  
HETATM   24  C   UNL     1      -9.053   5.332  64.863  1.00  0.00     0.009 A  
HETATM   25  C   UNL     1      -9.424   4.084  64.372  1.00  0.00    -0.164 A  
HETATM   26  C   UNL     1      -9.384   2.963  65.207  1.00  0.00    -0.110 A  
HETATM   27  C   UNL     1      -8.995   3.099  66.543  1.00  0.00    -0.154 A  
HETATM   28 CL   UNL     1      -8.974   1.657  67.504  1.00  0.00    -0.146 Cl 
HETATM   29  C   UNL     1      -8.626   4.356  67.050  1.00  0.00    -0.104 A  
HETATM   30 CL   UNL     1      -8.139   4.492  68.717  1.00  0.00    -0.081 Cl 
ENDBRANCH  18  23
ENDBRANCH   9  11
ENDBRANCH   8   9
ENDBRANCH   7   8
ENDBRANCH   6   7
ENDBRANCH   4   6
ENDBRANCH   3   4
ENDBRANCH   2   3
TORSDOF 10
ENDMDL
MODEL      243
REMARK 921   NORMALIZED FREE ENERGY PREDICTED BY IDOCK:   -1.60 KCAL/MOL
REMARK 922        TOTAL FREE ENERGY PREDICTED BY IDOCK:   -3.94 KCAL/MOL
REMARK 923 INTER-LIGAND FREE ENERGY PREDICTED BY IDOCK:   -3.73 KCAL/MOL
REMARK 924 INTRA-LIGAND FREE ENERGY PREDICTED BY IDOCK:   -0.22 KCAL/MOL
REMARK 927      BINDING AFFINITY PREDICTED BY RF-SCORE:    0.00 PKD
ROOT
HETATM    1  C   UNL     1      -5.827  17.333  69.091  1.00  0.00    -0.193 C  
HETATM    2  C   UNL     1      -7.228  17.889  69.282  1.00  0.00    -0.069 C  
ENDROOT
BRANCH   2   3
HETATM    3  C   UNL     1      -8.281  16.913  68.776  1.00  0.00    -0.244 C  
BRANCH   3   4
HETATM    4  C   UNL     1      -8.310  16.861  67.269  1.00  0.00    -0.184 C  
HETATM    5  O   UNL     1      -8.617  17.787  66.532  1.00  0.00    -0.249 OA 
BRANCH   4   6
HETATM    6  O   UNL     1      -7.880  15.642  66.865  1.00  0.00    -0.221 OA 
BRANCH   6   7
HETATM    7  C   UNL     1      -8.905  14.689  66.620  1.00  0.00    -0.209 C  
BRANCH   7   8
HETATM    8  O   UNL     1      -8.572  13.316  66.823  1.00  0.00    -0.149 OA 
BRANCH   8   9
HETATM    9  C   UNL     1      -8.993  12.739  67.964  1.00  0.00    -0.196 C  
HETATM   10  O   UNL     1      -8.856  13.223  69.075  1.00  0.00     0.208 OA 
BRANCH   9  11
HETATM   11  C   UNL     1      -9.485  11.345  67.704  1.00  0.00    -0.165 C  
HETATM   12  C   UNL     1     -10.789  11.016  67.505  1.00  0.00    -0.263 C  
HETATM   13  N   UNL     1     -11.114   9.733  67.105  1.00  0.00    -0.033 NA 
HETATM   14  C   UNL     1     -12.017  11.893  67.652  1.00  0.00    -0.127 C  
HETATM   15  C   UNL     1     -10.246   8.665  67.040  1.00  0.00    -0.290 C  
HETATM   16  C   UNL     1      -8.923   8.854  67.250  1.00  0.00    -0.140 C  
HETATM   17  C   UNL     1     -10.895   7.336  66.732  1.00  0.00    -0.126 C  
HETATM   18  C   UNL     1      -8.370  10.272  67.509  1.00  0.00    -0.114 C  
BRANCH  16  19
HETATM   19  C   UNL     1      -8.026   7.665  67.281  1.00  0.00    -0.118 C  
HETATM   20  O   UNL     1      -8.154   6.727  68.053  1.00  0.00    -0.112 OA 
BRANCH  19  21
HETATM   21  O   UNL     1      -7.028   7.770  66.368  1.00  0.00    -0.061 OA 
HETATM   22  C   UNL     1      -7.326   7.138  65.120  1.00  0.00    -0.081 C  
ENDBRANCH  19  21
ENDBRANCH  16  19
BRANCH  18  23
HETATM   23  C   UNL     1      -7.339  10.273  68.648  1.00  0.00    -0.083 A  
HETATM   24  C   UNL     1      -6.139  10.987  68.469  1.00  0.00    -0.042 A  
HETATM   25  C   UNL     1      -5.180  11.040  69.476  1.00  0.00    -0.041 A  
HETATM   26  C   UNL     1      -5.405  10.388  70.693  1.00  0.00    -0.071 A  
HETATM   27  C   UNL     1      -6.584   9.661  70.889  1.00  0.00    -0.072 A  
HETATM   28 CL   UNL     1      -6.779   8.886  72.427  1.00  0.00     0.007 Cl 
HETATM   29  C   UNL     1      -7.554   9.596  69.876  1.00  0.00    -0.138 A  
HETATM   30 CL   UNL     1      -9.015   8.689  70.154  1.00  0.00    -0.148 Cl 
ENDBRANCH  18  23
ENDBRANCH   9  11
ENDBRANCH   8   9
ENDBRANCH   7   8
ENDBRANCH   6   7
ENDBRANCH   4   6
ENDBRANCH   3   4
ENDBRANCH   2   3
TORSDOF 10
ENDMDL
MODEL      244
REMARK 921   NORMALIZED FREE ENERGY PREDICTED BY IDOCK:   -1.47 KCAL/MOL
REMARK 922        TOTAL FREE ENERGY PREDICTED BY IDOCK:   -3.73 KCAL/MOL
REMARK 923 INTER-LIGAND FREE ENERGY PREDICTED BY IDOCK:   -4.02 KCAL/MOL
REMARK 924 INTRA-LIGAND FREE ENERGY PREDICTED BY IDOCK:    0.29 KCAL/MOL
REMARK 927      BINDING AFFINITY PREDICTED BY RF-SCORE:    0.00 PKD
ROOT
HETATM    1  C   UNL     1      -8.939   1.619  71.121  1.00  0.00    -0.125 C  
HETATM    2  C   UNL     1      -8.390   2.153  69.808  1.00  0.00    -0.075 C  
ENDROOT
BRANCH   2   3
HETATM    3  C   UNL     1      -9.222   1.674  68.627  1.00  0.00    -0.208 C  
BRANCH   3   4
HETATM    4  C   UNL     1      -8.983   2.521  67.402  1.00  0.00    -0.159 C  
HETATM    5  O   UNL     1      -9.648   2.488  66.376  1.00  0.00     0.080 OA 
BRANCH   4   6
HETATM    6  O   UNL     1      -7.953   3.364  67.646  1.00  0.00    -0.079 OA 
BRANCH   6   7
HETATM    7  C   UNL     1      -8.223   4.737  67.402  1.00  0.00    -0.105 C  
BRANCH   7   8
HETATM    8  O   UNL     1      -9.205   5.036  66.411  1.00  0.00    -0.130 OA 
BRANCH   8   9
HETATM    9  C   UNL     1     -10.003   6.098  66.631  1.00  0.00    -0.158 C  
HETATM   10  O   UNL     1     -11.221   6.053  66.667  1.00  0.00    -0.207 OA 
BRANCH   9  11
HETATM   11  C   UNL     1      -9.204   7.368  66.644  1.00  0.00    -0.196 C  
HETATM   12  C   UNL     1      -8.299   7.716  65.691  1.00  0.00    -0.140 C  
HETATM   13  N   UNL     1      -7.744   8.982  65.709  1.00  0.00    -0.090 NA 
HETATM   14  C   UNL     1      -7.777   6.884  64.536  1.00  0.00    -0.116 C  
HETATM   15  C   UNL     1      -7.889   9.913  66.714  1.00  0.00    -0.109 C  
HETATM   16  C   UNL     1      -8.739   9.673  67.739  1.00  0.00    -0.122 C  
HETATM   17  C   UNL     1      -7.043  11.153  66.560  1.00  0.00    -0.124 C  
HETATM   18  C   UNL     1      -9.590   8.385  67.763  1.00  0.00    -0.185 C  
BRANCH  16  19
HETATM   19  C   UNL     1      -8.793  10.646  68.866  1.00  0.00    -0.157 C  
HETATM   20  O   UNL     1      -9.634  11.525  68.976  1.00  0.00    -0.088 OA 
BRANCH  19  21
HETATM   21  O   UNL     1      -7.770  10.458  69.737  1.00  0.00    -0.158 OA 
HETATM   22  C   UNL     1      -6.727  11.429  69.615  1.00  0.00    -0.105 C  
ENDBRANCH  19  21
ENDBRANCH  16  19
BRANCH  18  23
HETATM   23  C   UNL     1      -9.610   7.750  69.161  1.00  0.00    -0.155 A  
HETATM   24  C   UNL     1     -10.836   7.672  69.847  1.00  0.00    -0.241 A  
HETATM   25  C   UNL     1     -10.916   7.087  71.107  1.00  0.00    -0.275 A  
HETATM   26  C   UNL     1      -9.770   6.555  71.707  1.00  0.00    -0.168 A  
HETATM   27  C   UNL     1      -8.538   6.633  71.051  1.00  0.00    -0.137 A  
HETATM   28 CL   UNL     1      -7.171   5.948  71.867  1.00  0.00    -0.089 Cl 
HETATM   29  C   UNL     1      -8.445   7.228  69.782  1.00  0.00    -0.136 A  
HETATM   30 CL   UNL     1      -6.898   7.303  68.987  1.00  0.00    -0.062 Cl 
ENDBRANCH  18  23
ENDBRANCH   9  11
ENDBRANCH   8   9
ENDBRANCH   7   8
ENDBRANCH   6   7
ENDBRANCH   4   6
ENDBRANCH   3   4
ENDBRANCH   2   3
TORSDOF 10
ENDMDL
MODEL      245
REMARK 921   NORMALIZED FREE ENERGY PREDICTED BY IDOCK:   -1.31 KCAL/MOL
REMARK 922        TOTAL FREE ENERGY PREDICTED BY IDOCK:   -3.48 KCAL/MOL
REMARK 923 INTER-LIGAND FREE ENERGY PREDICTED BY IDOCK:   -3.47 KCAL/MOL
REMARK 924 INTRA-LIGAND FREE ENERGY PREDICTED BY IDOCK:   -0.01 KCAL/MOL
REMARK 927      BINDING AFFINITY PREDICTED BY RF-SCORE:    0.00 PKD
ROOT
HETATM    1  C   UNL     1     -10.666  17.749  65.960  1.00  0.00    -0.119 C  
HETATM    2  C   UNL     1     -10.716  16.950  64.669  1.00  0.00     0.473 C  
ENDROOT
BRANCH   2   3
HETATM    3  C   UNL     1     -11.622  15.735  64.807  1.00  0.00    -0.173 C  
BRANCH   3   4
HETATM    4  C   UNL     1     -10.833  14.489  65.124  1.00  0.00    -0.395 C  
HETATM    5  O   UNL     1     -10.439  13.671  64.305  1.00  0.00    -0.392 OA 
BRANCH   4   6
HETATM    6  O   UNL     1     -10.581  14.457  66.454  1.00  0.00    -0.289 OA 
BRANCH   6   7
HETATM    7  C   UNL     1      -9.529  13.589  66.851  1.00  0.00    -0.258 C  
BRANCH   7   8
HETATM    8  O   UNL     1      -9.870  12.524  67.737  1.00  0.00    -0.194 OA 
BRANCH   8   9
HETATM    9  C   UNL     1     -10.065  11.307  67.196  1.00  0.00    -0.192 C  
HETATM   10  O   UNL     1     -10.462  11.110  66.060  1.00  0.00    -0.251 OA 
BRANCH   9  11
HETATM   11  C   UNL     1      -9.903  10.233  68.232  1.00  0.00    -0.161 C  
HETATM   12  C   UNL     1     -10.380  10.314  69.502  1.00  0.00    -0.242 C  
HETATM   13  N   UNL     1     -10.326   9.201  70.322  1.00  0.00    -0.200 NA 
HETATM   14  C   UNL     1     -11.011  11.502  70.201  1.00  0.00     0.328 C  
HETATM   15  C   UNL     1      -9.671   8.023  70.039  1.00  0.00    -0.173 C  
HETATM   16  C   UNL     1      -9.123   7.830  68.818  1.00  0.00    -0.140 C  
HETATM   17  C   UNL     1      -9.629   7.030  71.177  1.00  0.00    -0.165 C  
HETATM   18  C   UNL     1      -9.274   8.902  67.717  1.00  0.00    -0.153 C  
BRANCH  16  19
HETATM   19  C   UNL     1      -8.328   6.593  68.577  1.00  0.00    -0.122 C  
HETATM   20  O   UNL     1      -7.110   6.533  68.650  1.00  0.00    -0.077 OA 
BRANCH  19  21
HETATM   21  O   UNL     1      -9.123   5.548  68.234  1.00  0.00    -0.108 OA 
HETATM   22  C   UNL     1      -9.873   5.769  67.036  1.00  0.00    -0.151 C  
ENDBRANCH  19  21
ENDBRANCH  16  19
BRANCH  18  23
HETATM   23  C   UNL     1      -7.955   9.121  66.962  1.00  0.00    -0.102 A  
HETATM   24  C   UNL     1      -6.990   9.977  67.527  1.00  0.00    -0.086 A  
HETATM   25  C   UNL     1      -5.769  10.194  66.897  1.00  0.00    -0.050 A  
HETATM   26  C   UNL     1      -5.478   9.549  65.691  1.00  0.00    -0.044 A  
HETATM   27  C   UNL     1      -6.425   8.705  65.103  1.00  0.00    -0.064 A  
HETATM   28 CL   UNL     1      -5.980   7.948  63.610  1.00  0.00    -0.058 Cl 
HETATM   29  C   UNL     1      -7.664   8.485  65.727  1.00  0.00    -0.098 A  
HETATM   30 CL   UNL     1      -8.819   7.422  64.975  1.00  0.00     0.189 Cl 
ENDBRANCH  18  23
ENDBRANCH   9  11
ENDBRANCH   8   9
ENDBRANCH   7   8
ENDBRANCH   6   7
ENDBRANCH   4   6
ENDBRANCH   3   4
ENDBRANCH   2   3
TORSDOF 10
ENDMDL
MODEL      246
REMARK 921   NORMALIZED FREE ENERGY PREDICTED BY IDOCK:   -1.21 KCAL/MOL
REMARK 922        TOTAL FREE ENERGY PREDICTED BY IDOCK:   -3.31 KCAL/MOL
REMARK 923 INTER-LIGAND FREE ENERGY PREDICTED BY IDOCK:   -6.28 KCAL/MOL
REMARK 924 INTRA-LIGAND FREE ENERGY PREDICTED BY IDOCK:    2.97 KCAL/MOL
REMARK 927      BINDING AFFINITY PREDICTED BY RF-SCORE:    0.00 PKD
ROOT
HETATM    1  C   UNL     1      -5.128  11.993  67.216  1.00  0.00    -0.107 C  
HETATM    2  C   UNL     1      -5.198  11.057  66.021  1.00  0.00    -0.139 C  
ENDROOT
BRANCH   2   3
HETATM    3  C   UNL     1      -6.338  10.059  66.169  1.00  0.00    -0.081 C  
BRANCH   3   4
HETATM    4  C   UNL     1      -6.227   9.278  67.455  1.00  0.00    -0.058 C  
HETATM    5  O   UNL     1      -5.573   8.257  67.611  1.00  0.00    -0.037 OA 
BRANCH   4   6
HETATM    6  O   UNL     1      -6.920   9.925  68.421  1.00  0.00    -0.066 OA 
BRANCH   6   7
HETATM    7  C   UNL     1      -8.094  10.592  67.982  1.00  0.00    -0.111 C  
BRANCH   7   8
HETATM    8  O   UNL     1      -9.238  10.514  68.833  1.00  0.00    -0.167 OA 
BRANCH   8   9
HETATM    9  C   UNL     1     -10.371  10.018  68.302  1.00  0.00    -0.193 C  
HETATM   10  O   UNL     1     -11.002   9.084  68.766  1.00  0.00    -0.085 OA 
BRANCH   9  11
HETATM   11  C   UNL     1     -10.653  10.648  66.969  1.00  0.00    -0.317 C  
HETATM   12  C   UNL     1     -10.298  10.108  65.774  1.00  0.00    -0.146 C  
HETATM   13  N   UNL     1     -10.755  10.685  64.603  1.00  0.00    -0.124 NA 
HETATM   14  C   UNL     1      -9.434   8.891  65.507  1.00  0.00    -0.162 C  
HETATM   15  C   UNL     1     -11.422  11.886  64.503  1.00  0.00    -0.294 C  
HETATM   16  C   UNL     1     -11.805  12.542  65.622  1.00  0.00    -0.493 C  
HETATM   17  C   UNL     1     -11.661  12.365  63.091  1.00  0.00    -0.291 C  
HETATM   18  C   UNL     1     -11.547  11.927  67.014  1.00  0.00    -0.365 C  
BRANCH  16  19
HETATM   19  C   UNL     1     -12.426  13.889  65.484  1.00  0.00    -0.511 C  
HETATM   20  O   UNL     1     -13.618  14.115  65.629  1.00  0.00    -0.470 OA 
BRANCH  19  21
HETATM   21  O   UNL     1     -11.509  14.829  65.144  1.00  0.00    -0.350 OA 
HETATM   22  C   UNL     1     -10.245  14.282  64.758  1.00  0.00    -0.250 C  
ENDBRANCH  19  21
ENDBRANCH  16  19
BRANCH  18  23
HETATM   23  C   UNL     1     -11.029  12.979  68.006  1.00  0.00    -0.274 A  
HETATM   24  C   UNL     1     -11.882  13.404  69.042  1.00  0.00    -0.378 A  
HETATM   25  C   UNL     1     -11.457  14.338  69.982  1.00  0.00    -0.280 A  
HETATM   26  C   UNL     1     -10.162  14.862  69.913  1.00  0.00    -0.016 A  
HETATM   27  C   UNL     1      -9.301  14.465  68.885  1.00  0.00    -0.096 A  
HETATM   28 CL   UNL     1      -7.715  15.164  68.878  1.00  0.00    -0.146 Cl 
HETATM   29  C   UNL     1      -9.723  13.528  67.928  1.00  0.00    -0.225 A  
HETATM   30 CL   UNL     1      -8.625  13.049  66.664  1.00  0.00    -0.052 Cl 
ENDBRANCH  18  23
ENDBRANCH   9  11
ENDBRANCH   8   9
ENDBRANCH   7   8
ENDBRANCH   6   7
ENDBRANCH   4   6
ENDBRANCH   3   4
ENDBRANCH   2   3
TORSDOF 10
ENDMDL
MODEL      247
REMARK 921   NORMALIZED FREE ENERGY PREDICTED BY IDOCK:   -0.86 KCAL/MOL
REMARK 922        TOTAL FREE ENERGY PREDICTED BY IDOCK:   -2.76 KCAL/MOL
REMARK 923 INTER-LIGAND FREE ENERGY PREDICTED BY IDOCK:   -2.67 KCAL/MOL
REMARK 924 INTRA-LIGAND FREE ENERGY PREDICTED BY IDOCK:   -0.09 KCAL/MOL
REMARK 927      BINDING AFFINITY PREDICTED BY RF-SCORE:    0.00 PKD
ROOT
HETATM    1  C   UNL     1      -7.496  10.625  62.352  1.00  0.00    -0.158 C  
HETATM    2  C   UNL     1      -8.824  10.354  63.040  1.00  0.00    -0.222 C  
ENDROOT
BRANCH   2   3
HETATM    3  C   UNL     1      -8.668  10.346  64.554  1.00  0.00    -0.205 C  
BRANCH   3   4
HETATM    4  C   UNL     1      -9.995  10.159  65.246  1.00  0.00    -0.311 C  
HETATM    5  O   UNL     1     -10.197   9.433  66.209  1.00  0.00    -0.274 OA 
BRANCH   4   6
HETATM    6  O   UNL     1     -10.910  10.971  64.667  1.00  0.00    -0.296 OA 
BRANCH   6   7
HETATM    7  C   UNL     1     -11.308  12.089  65.447  1.00  0.00    -0.321 C  
BRANCH   7   8
HETATM    8  O   UNL     1     -12.613  12.613  65.207  1.00  0.00    -0.630 OA 
BRANCH   8   9
HETATM    9  C   UNL     1     -12.883  13.844  65.680  1.00  0.00    -0.424 C  
HETATM   10  O   UNL     1     -14.005  14.281  65.874  1.00  0.00     0.817 OA 
BRANCH   9  11
HETATM   11  C   UNL     1     -11.631  14.667  65.763  1.00  0.00    -0.328 C  
HETATM   12  C   UNL     1     -10.902  15.068  64.688  1.00  0.00    -0.269 C  
HETATM   13  N   UNL     1      -9.864  15.964  64.865  1.00  0.00    -0.111 NA 
HETATM   14  C   UNL     1     -11.066  14.670  63.235  1.00  0.00     2.972 C  
HETATM   15  C   UNL     1      -9.362  16.387  66.076  1.00  0.00    -0.300 C  
HETATM   16  C   UNL     1      -9.979  16.031  67.226  1.00  0.00    -0.242 C  
HETATM   17  C   UNL     1      -8.118  17.239  65.986  1.00  0.00    -0.187 C  
HETATM   18  C   UNL     1     -11.276  15.195  67.188  1.00  0.00    -0.320 C  
BRANCH  16  19
HETATM   19  C   UNL     1      -9.352  16.412  68.522  1.00  0.00    -0.225 C  
HETATM   20  O   UNL     1      -9.759  17.309  69.246  1.00  0.00    -0.163 OA 
BRANCH  19  21
HETATM   21  O   UNL     1      -8.251  15.663  68.784  1.00  0.00    -0.156 OA 
HETATM   22  C   UNL     1      -7.273  16.341  69.577  1.00  0.00    -0.109 C  
ENDBRANCH  19  21
ENDBRANCH  16  19
BRANCH  18  23
HETATM   23  C   UNL     1     -11.258  14.082  68.247  1.00  0.00    -0.293 A  
HETATM   24  C   UNL     1     -12.267  14.070  69.228  1.00  0.00    -0.319 A  
HETATM   25  C   UNL     1     -12.312  13.073  70.197  1.00  0.00    -0.270 A  
HETATM   26  C   UNL     1     -11.353  12.055  70.200  1.00  0.00     0.057 A  
HETATM   27  C   UNL     1     -10.332  12.053  69.244  1.00  0.00     0.201 A  
HETATM   28 CL   UNL     1      -9.188  10.755  69.323  1.00  0.00    -0.126 Cl 
HETATM   29  C   UNL     1     -10.274  13.059  68.266  1.00  0.00    -0.246 A  
HETATM   30 CL   UNL     1      -8.996  13.025  67.084  1.00  0.00    -0.216 Cl 
ENDBRANCH  18  23
ENDBRANCH   9  11
ENDBRANCH   8   9
ENDBRANCH   7   8
ENDBRANCH   6   7
ENDBRANCH   4   6
ENDBRANCH   3   4
ENDBRANCH   2   3
TORSDOF 10
ENDMDL
MODEL      248
REMARK 921   NORMALIZED FREE ENERGY PREDICTED BY IDOCK:   -0.81 KCAL/MOL
REMARK 922        TOTAL FREE ENERGY PREDICTED BY IDOCK:   -2.69 KCAL/MOL
REMARK 923 INTER-LIGAND FREE ENERGY PREDICTED BY IDOCK:   -2.35 KCAL/MOL
REMARK 924 INTRA-LIGAND FREE ENERGY PREDICTED BY IDOCK:   -0.34 KCAL/MOL
REMARK 927      BINDING AFFINITY PREDICTED BY RF-SCORE:    0.00 PKD
ROOT
HETATM    1  C   UNL     1     -10.530   8.675  65.872  1.00  0.00     1.015 C  
HETATM    2  C   UNL     1     -10.043   9.527  67.032  1.00  0.00    -0.297 C  
ENDROOT
BRANCH   2   3
HETATM    3  C   UNL     1     -11.151  10.429  67.558  1.00  0.00    -0.336 C  
BRANCH   3   4
HETATM    4  C   UNL     1     -10.826  10.965  68.929  1.00  0.00    -0.219 C  
HETATM    5  O   UNL     1      -9.716  11.309  69.313  1.00  0.00    -0.043 OA 
BRANCH   4   6
HETATM    6  O   UNL     1     -11.971  11.062  69.645  1.00  0.00    -0.303 OA 
BRANCH   6   7
HETATM    7  C   UNL     1     -12.166  10.045  70.617  1.00  0.00    -0.269 C  
BRANCH   7   8
HETATM    8  O   UNL     1     -11.582   8.771  70.346  1.00  0.00    -0.213 OA 
BRANCH   8   9
HETATM    9  C   UNL     1     -10.371   8.520  70.876  1.00  0.00    -0.199 C  
HETATM   10  O   UNL     1      -9.830   9.209  71.725  1.00  0.00    -0.299 OA 
BRANCH   9  11
HETATM   11  C   UNL     1      -9.700   7.389  70.153  1.00  0.00    -0.175 C  
HETATM   12  C   UNL     1     -10.329   6.546  69.292  1.00  0.00    -0.202 C  
HETATM   13  N   UNL     1      -9.584   5.647  68.552  1.00  0.00    -0.125 NA 
HETATM   14  C   UNL     1     -11.811   6.439  68.991  1.00  0.00     0.550 C  
HETATM   15  C   UNL     1      -8.240   5.388  68.713  1.00  0.00    -0.094 C  
HETATM   16  C   UNL     1      -7.505   6.137  69.566  1.00  0.00    -0.092 C  
HETATM   17  C   UNL     1      -7.711   4.241  67.886  1.00  0.00    -0.079 C  
HETATM   18  C   UNL     1      -8.150   7.319  70.322  1.00  0.00    -0.121 C  
BRANCH  16  19
HETATM   19  C   UNL     1      -6.082   5.764  69.801  1.00  0.00    -0.025 C  
HETATM   20  O   UNL     1      -5.127   6.367  69.336  1.00  0.00    -0.011 OA 
BRANCH  19  21
HETATM   21  O   UNL     1      -5.979   4.650  70.569  1.00  0.00    -0.016 OA 
HETATM   22  C   UNL     1      -5.284   4.866  71.800  1.00  0.00    -0.004 C  
ENDBRANCH  19  21
ENDBRANCH  16  19
BRANCH  18  23
HETATM   23  C   UNL     1      -7.711   7.351  71.793  1.00  0.00    -0.086 A  
HETATM   24  C   UNL     1      -8.284   6.427  72.687  1.00  0.00    -0.108 A  
HETATM   25  C   UNL     1      -7.906   6.396  74.026  1.00  0.00    -0.097 A  
HETATM   26  C   UNL     1      -6.936   7.285  74.500  1.00  0.00    -0.109 A  
HETATM   27  C   UNL     1      -6.362   8.221  73.635  1.00  0.00    -0.115 A  
HETATM   28 CL   UNL     1      -5.168   9.281  74.308  1.00  0.00    -0.123 Cl 
HETATM   29  C   UNL     1      -6.741   8.264  72.283  1.00  0.00    -0.082 A  
HETATM   30 CL   UNL     1      -6.003   9.436  71.229  1.00  0.00    -0.073 Cl 
ENDBRANCH  18  23
ENDBRANCH   9  11
ENDBRANCH   8   9
ENDBRANCH   7   8
ENDBRANCH   6   7
ENDBRANCH   4   6
ENDBRANCH   3   4
ENDBRANCH   2   3
TORSDOF 10
ENDMDL
MODEL      249
REMARK 921   NORMALIZED FREE ENERGY PREDICTED BY IDOCK:   -0.74 KCAL/MOL
REMARK 922        TOTAL FREE ENERGY PREDICTED BY IDOCK:   -2.58 KCAL/MOL
REMARK 923 INTER-LIGAND FREE ENERGY PREDICTED BY IDOCK:   -2.24 KCAL/MOL
REMARK 924 INTRA-LIGAND FREE ENERGY PREDICTED BY IDOCK:   -0.33 KCAL/MOL
REMARK 927      BINDING AFFINITY PREDICTED BY RF-SCORE:    0.00 PKD
ROOT
HETATM    1  C   UNL     1     -10.098   8.701  65.887  1.00  0.00     0.204 C  
HETATM    2  C   UNL     1      -9.339   9.723  66.717  1.00  0.00    -0.190 C  
ENDROOT
BRANCH   2   3
HETATM    3  C   UNL     1      -8.385  10.536  65.852  1.00  0.00    -0.161 C  
BRANCH   3   4
HETATM    4  C   UNL     1      -8.548  12.017  66.089  1.00  0.00     0.112 C  
HETATM    5  O   UNL     1      -7.728  12.744  66.631  1.00  0.00     0.162 OA 
BRANCH   4   6
HETATM    6  O   UNL     1      -9.722  12.419  65.548  1.00  0.00    -0.225 OA 
BRANCH   6   7
HETATM    7  C   UNL     1     -10.049  13.786  65.757  1.00  0.00    -0.307 C  
BRANCH   7   8
HETATM    8  O   UNL     1     -11.320  14.064  66.342  1.00  0.00    -0.316 OA 
BRANCH   8   9
HETATM    9  C   UNL     1     -11.359  14.973  67.333  1.00  0.00    -0.332 C  
HETATM   10  O   UNL     1     -12.238  15.808  67.473  1.00  0.00     0.494 OA 
BRANCH   9  11
HETATM   11  C   UNL     1     -10.090  14.942  68.133  1.00  0.00    -0.222 C  
HETATM   12  C   UNL     1      -9.781  13.985  69.047  1.00  0.00     0.056 C  
HETATM   13  N   UNL     1      -8.515  13.956  69.602  1.00  0.00     0.857 NA 
HETATM   14  C   UNL     1     -10.659  12.869  69.578  1.00  0.00     0.383 C  
HETATM   15  C   UNL     1      -7.545  14.922  69.448  1.00  0.00    -0.162 C  
HETATM   16  C   UNL     1      -7.743  15.948  68.589  1.00  0.00    -0.161 C  
HETATM   17  C   UNL     1      -6.311  14.725  70.296  1.00  0.00    -0.162 C  
HETATM   18  C   UNL     1      -9.029  16.015  67.737  1.00  0.00    -0.188 C  
BRANCH  16  19
HETATM   19  C   UNL     1      -6.725  17.034  68.525  1.00  0.00    -0.172 C  
HETATM   20  O   UNL     1      -6.777  18.066  69.176  1.00  0.00    -0.255 OA 
BRANCH  19  21
HETATM   21  O   UNL     1      -5.748  16.749  67.627  1.00  0.00    -0.125 OA 
HETATM   22  C   UNL     1      -6.036  17.210  66.303  1.00  0.00    -0.066 C  
ENDBRANCH  19  21
ENDBRANCH  16  19
BRANCH  18  23
HETATM   23  C   UNL     1      -9.606  17.438  67.704  1.00  0.00    -0.261 A  
HETATM   24  C   UNL     1      -9.661  18.170  68.905  1.00  0.00    -0.247 A  
HETATM   25  C   UNL     1     -10.153  19.471  68.929  1.00  0.00    -0.486 A  
HETATM   26  C   UNL     1     -10.593  20.076  67.747  1.00  0.00    -0.395 A  
HETATM   27  C   UNL     1     -10.562  19.364  66.544  1.00  0.00    -0.458 A  
HETATM   28 CL   UNL     1     -11.125  20.191  65.129  1.00  0.00     0.112 Cl 
HETATM   29  C   UNL     1     -10.073  18.048  66.510  1.00  0.00    -0.379 A  
HETATM   30 CL   UNL     1     -10.038  17.190  64.995  1.00  0.00     0.648 Cl 
ENDBRANCH  18  23
ENDBRANCH   9  11
ENDBRANCH   8   9
ENDBRANCH   7   8
ENDBRANCH   6   7
ENDBRANCH   4   6
ENDBRANCH   3   4
ENDBRANCH   2   3
TORSDOF 10
ENDMDL
MODEL      250
REMARK 921   NORMALIZED FREE ENERGY PREDICTED BY IDOCK:   -0.70 KCAL/MOL
REMARK 922        TOTAL FREE ENERGY PREDICTED BY IDOCK:   -2.52 KCAL/MOL
REMARK 923 INTER-LIGAND FREE ENERGY PREDICTED BY IDOCK:   -1.74 KCAL/MOL
REMARK 924 INTRA-LIGAND FREE ENERGY PREDICTED BY IDOCK:   -0.78 KCAL/MOL
REMARK 927      BINDING AFFINITY PREDICTED BY RF-SCORE:    0.00 PKD
ROOT
HETATM    1  C   UNL     1     -13.829  14.480  72.085  1.00  0.00    -0.574 C  
HETATM    2  C   UNL     1     -13.482  15.716  71.273  1.00  0.00    -0.439 C  
ENDROOT
BRANCH   2   3
HETATM    3  C   UNL     1     -12.059  15.642  70.737  1.00  0.00    -0.454 C  
BRANCH   3   4
HETATM    4  C   UNL     1     -11.832  14.382  69.940  1.00  0.00    -0.323 C  
HETATM    5  O   UNL     1     -12.520  14.000  69.004  1.00  0.00    -0.214 OA 
BRANCH   4   6
HETATM    6  O   UNL     1     -10.706  13.777  70.389  1.00  0.00     0.688 OA 
BRANCH   6   7
HETATM    7  C   UNL     1      -9.565  14.616  70.485  1.00  0.00     1.495 C  
BRANCH   7   8
HETATM    8  O   UNL     1      -9.183  15.326  69.307  1.00  0.00    -0.220 OA 
BRANCH   8   9
HETATM    9  C   UNL     1      -8.315  14.721  68.475  1.00  0.00    -0.160 C  
HETATM   10  O   UNL     1      -7.111  14.658  68.656  1.00  0.00    -0.103 OA 
BRANCH   9  11
HETATM   11  C   UNL     1      -9.002  14.296  67.210  1.00  0.00    -0.221 C  
HETATM   12  C   UNL     1      -8.875  13.068  66.642  1.00  0.00    -0.073 C  
HETATM   13  N   UNL     1      -9.683  12.725  65.573  1.00  0.00    -0.143 NA 
HETATM   14  C   UNL     1      -7.937  11.942  67.028  1.00  0.00    -0.158 C  
HETATM   15  C   UNL     1     -10.521  13.578  64.889  1.00  0.00    -0.402 C  
HETATM   16  C   UNL     1     -10.710  14.842  65.335  1.00  0.00    -0.385 C  
HETATM   17  C   UNL     1     -11.165  12.987  63.658  1.00  0.00    -0.333 C  
HETATM   18  C   UNL     1     -10.033  15.319  66.638  1.00  0.00    -0.264 C  
BRANCH  16  19
HETATM   19  C   UNL     1     -11.534  15.773  64.516  1.00  0.00    -0.289 C  
HETATM   20  O   UNL     1     -11.169  16.884  64.160  1.00  0.00    -1.176 OA 
BRANCH  19  21
HETATM   21  O   UNL     1     -12.756  15.249  64.242  1.00  0.00    -0.551 OA 
HETATM   22  C   UNL     1     -13.693  15.394  65.313  1.00  0.00     2.700 C  
ENDBRANCH  19  21
ENDBRANCH  16  19
BRANCH  18  23
HETATM   23  C   UNL     1      -9.447  16.730  66.482  1.00  0.00    -0.287 A  
HETATM   24  C   UNL     1      -8.249  16.885  65.758  1.00  0.00     0.288 A  
HETATM   25  C   UNL     1      -7.686  18.142  65.567  1.00  0.00     0.415 A  
HETATM   26  C   UNL     1      -8.314  19.278  66.087  1.00  0.00    -0.280 A  
HETATM   27  C   UNL     1      -9.497  19.148  66.821  1.00  0.00    -0.330 A  
HETATM   28 CL   UNL     1     -10.207  20.608  67.427  1.00  0.00    -0.366 Cl 
HETATM   29  C   UNL     1     -10.070  17.883  67.026  1.00  0.00    -0.340 A  
HETATM   30 CL   UNL     1     -11.548  17.754  67.938  1.00  0.00     0.759 Cl 
ENDBRANCH  18  23
ENDBRANCH   9  11
ENDBRANCH   8   9
ENDBRANCH   7   8
ENDBRANCH   6   7
ENDBRANCH   4   6
ENDBRANCH   3   4
ENDBRANCH   2   3
TORSDOF 10
ENDMDL
MODEL      251
REMARK 921   NORMALIZED FREE ENERGY PREDICTED BY IDOCK:   -0.55 KCAL/MOL
REMARK 922        TOTAL FREE ENERGY PREDICTED BY IDOCK:   -2.28 KCAL/MOL
REMARK 923 INTER-LIGAND FREE ENERGY PREDICTED BY IDOCK:   -3.19 KCAL/MOL
REMARK 924 INTRA-LIGAND FREE ENERGY PREDICTED BY IDOCK:    0.91 KCAL/MOL
REMARK 927      BINDING AFFINITY PREDICTED BY RF-SCORE:    0.00 PKD
ROOT
HETATM    1  C   UNL     1      -9.221  16.938  65.618  1.00  0.00     0.244 C  
HETATM    2  C   UNL     1      -9.316  15.423  65.687  1.00  0.00    -0.168 C  
ENDROOT
BRANCH   2   3
HETATM    3  C   UNL     1      -8.456  14.868  66.814  1.00  0.00    -0.215 C  
BRANCH   3   4
HETATM    4  C   UNL     1      -9.098  13.665  67.460  1.00  0.00    -0.213 C  
HETATM    5  O   UNL     1     -10.272  13.340  67.346  1.00  0.00    -0.227 OA 
BRANCH   4   6
HETATM    6  O   UNL     1      -8.150  12.972  68.134  1.00  0.00    -0.139 OA 
BRANCH   6   7
HETATM    7  C   UNL     1      -7.189  12.313  67.322  1.00  0.00    -0.138 C  
BRANCH   7   8
HETATM    8  O   UNL     1      -7.006  10.915  67.543  1.00  0.00    -0.079 OA 
BRANCH   8   9
HETATM    9  C   UNL     1      -7.312  10.437  68.764  1.00  0.00    -0.089 C  
HETATM   10  O   UNL     1      -7.382  11.114  69.775  1.00  0.00    -0.046 OA 
BRANCH   9  11
HETATM   11  C   UNL     1      -7.375   8.937  68.745  1.00  0.00    -0.076 C  
HETATM   12  C   UNL     1      -7.004   8.140  69.781  1.00  0.00    -0.052 C  
HETATM   13  N   UNL     1      -7.262   6.783  69.723  1.00  0.00    -0.075 NA 
HETATM   14  C   UNL     1      -6.318   8.532  71.075  1.00  0.00    -0.043 C  
HETATM   15  C   UNL     1      -7.725   6.097  68.621  1.00  0.00    -0.100 C  
HETATM   16  C   UNL     1      -8.099   6.773  67.512  1.00  0.00    -0.115 C  
HETATM   17  C   UNL     1      -7.762   4.595  68.777  1.00  0.00    -0.072 C  
HETATM   18  C   UNL     1      -8.062   8.317  67.489  1.00  0.00    -0.122 C  
BRANCH  16  19
HETATM   19  C   UNL     1      -8.491   5.999  66.300  1.00  0.00    -0.130 C  
HETATM   20  O   UNL     1      -9.584   6.075  65.760  1.00  0.00     0.000 OA 
BRANCH  19  21
HETATM   21  O   UNL     1      -7.495   5.174  65.892  1.00  0.00    -0.080 OA 
HETATM   22  C   UNL     1      -6.993   5.484  64.589  1.00  0.00    -0.049 C  
ENDBRANCH  19  21
ENDBRANCH  16  19
BRANCH  18  23
HETATM   23  C   UNL     1      -7.478   8.845  66.170  1.00  0.00    -0.090 A  
HETATM   24  C   UNL     1      -6.123   8.590  65.884  1.00  0.00    -0.048 A  
HETATM   25  C   UNL     1      -5.548   9.026  64.695  1.00  0.00    -0.062 A  
HETATM   26  C   UNL     1      -6.319   9.719  63.756  1.00  0.00    -0.118 A  
HETATM   27  C   UNL     1      -7.664   9.996  64.024  1.00  0.00    -0.143 A  
HETATM   28 CL   UNL     1      -8.543  10.857  62.804  1.00  0.00    -0.230 Cl 
HETATM   29  C   UNL     1      -8.252   9.566  65.224  1.00  0.00    -0.130 A  
HETATM   30 CL   UNL     1      -9.930   9.919  65.525  1.00  0.00    -0.382 Cl 
ENDBRANCH  18  23
ENDBRANCH   9  11
ENDBRANCH   8   9
ENDBRANCH   7   8
ENDBRANCH   6   7
ENDBRANCH   4   6
ENDBRANCH   3   4
ENDBRANCH   2   3
TORSDOF 10
ENDMDL
MODEL      252
REMARK 921   NORMALIZED FREE ENERGY PREDICTED BY IDOCK:   -0.54 KCAL/MOL
REMARK 922        TOTAL FREE ENERGY PREDICTED BY IDOCK:   -2.26 KCAL/MOL
REMARK 923 INTER-LIGAND FREE ENERGY PREDICTED BY IDOCK:   -2.80 KCAL/MOL
REMARK 924 INTRA-LIGAND FREE ENERGY PREDICTED BY IDOCK:    0.54 KCAL/MOL
REMARK 927      BINDING AFFINITY PREDICTED BY RF-SCORE:    0.00 PKD
ROOT
HETATM    1  C   UNL     1     -10.704  10.136  70.794  1.00  0.00    -0.163 C  
HETATM    2  C   UNL     1     -12.198   9.882  70.683  1.00  0.00    -0.325 C  
ENDROOT
BRANCH   2   3
HETATM    3  C   UNL     1     -12.926  11.102  70.139  1.00  0.00     0.050 C  
BRANCH   3   4
HETATM    4  C   UNL     1     -12.204  12.380  70.488  1.00  0.00    -0.295 C  
HETATM    5  O   UNL     1     -12.360  13.026  71.514  1.00  0.00    -0.157 OA 
BRANCH   4   6
HETATM    6  O   UNL     1     -11.311  12.659  69.509  1.00  0.00    -0.232 OA 
BRANCH   6   7
HETATM    7  C   UNL     1     -10.368  13.675  69.821  1.00  0.00     0.786 C  
BRANCH   7   8
HETATM    8  O   UNL     1     -10.071  14.618  68.792  1.00  0.00    -0.226 OA 
BRANCH   8   9
HETATM    9  C   UNL     1      -9.303  14.197  67.770  1.00  0.00    -0.200 C  
HETATM   10  O   UNL     1      -8.092  14.332  67.712  1.00  0.00    -0.143 OA 
BRANCH   9  11
HETATM   11  C   UNL     1     -10.152  13.707  66.634  1.00  0.00    -0.277 C  
HETATM   12  C   UNL     1     -11.390  14.184  66.339  1.00  0.00    -0.338 C  
HETATM   13  N   UNL     1     -12.015  13.784  65.172  1.00  0.00    -0.360 NA 
HETATM   14  C   UNL     1     -12.242  15.155  67.133  1.00  0.00     0.417 C  
HETATM   15  C   UNL     1     -11.575  12.792  64.322  1.00  0.00    -0.376 C  
HETATM   16  C   UNL     1     -10.370  12.213  64.525  1.00  0.00    -0.335 C  
HETATM   17  C   UNL     1     -12.531  12.441  63.207  1.00  0.00    -0.449 C  
HETATM   18  C   UNL     1      -9.457  12.693  65.674  1.00  0.00     0.013 C  
BRANCH  16  19
HETATM   19  C   UNL     1      -9.970  11.071  63.656  1.00  0.00    -0.361 C  
HETATM   20  O   UNL     1     -10.719  10.165  63.322  1.00  0.00     1.059 OA 
BRANCH  19  21
HETATM   21  O   UNL     1      -8.661  11.143  63.308  1.00  0.00    -0.050 OA 
HETATM   22  C   UNL     1      -8.252  10.116  62.401  1.00  0.00    -0.150 C  
ENDBRANCH  19  21
ENDBRANCH  16  19
BRANCH  18  23
HETATM   23  C   UNL     1      -8.822  11.509  66.418  1.00  0.00    -0.193 A  
HETATM   24  C   UNL     1      -7.430  11.515  66.630  1.00  0.00    -0.078 A  
HETATM   25  C   UNL     1      -6.806  10.480  67.318  1.00  0.00    -0.082 A  
HETATM   26  C   UNL     1      -7.562   9.417  67.821  1.00  0.00    -0.088 A  
HETATM   27  C   UNL     1      -8.944   9.381  67.612  1.00  0.00    -0.118 A  
HETATM   28 CL   UNL     1      -9.802   8.027  68.271  1.00  0.00    -0.178 Cl 
HETATM   29  C   UNL     1      -9.583  10.418  66.913  1.00  0.00    -0.172 A  
HETATM   30 CL   UNL     1     -11.307  10.349  66.674  1.00  0.00     0.224 Cl 
ENDBRANCH  18  23
ENDBRANCH   9  11
ENDBRANCH   8   9
ENDBRANCH   7   8
ENDBRANCH   6   7
ENDBRANCH   4   6
ENDBRANCH   3   4
ENDBRANCH   2   3
TORSDOF 10
ENDMDL
MODEL      253
REMARK 921   NORMALIZED FREE ENERGY PREDICTED BY IDOCK:   -0.33 KCAL/MOL
REMARK 922        TOTAL FREE ENERGY PREDICTED BY IDOCK:   -1.93 KCAL/MOL
REMARK 923 INTER-LIGAND FREE ENERGY PREDICTED BY IDOCK:   -2.50 KCAL/MOL
REMARK 924 INTRA-LIGAND FREE ENERGY PREDICTED BY IDOCK:    0.57 KCAL/MOL
REMARK 927      BINDING AFFINITY PREDICTED BY RF-SCORE:    0.00 PKD
ROOT
HETATM    1  C   UNL     1      -8.696   5.336  71.570  1.00  0.00    -0.140 C  
HETATM    2  C   UNL     1      -9.603   6.439  72.090  1.00  0.00    -0.155 C  
ENDROOT
BRANCH   2   3
HETATM    3  C   UNL     1     -11.067   6.118  71.825  1.00  0.00    -0.327 C  
BRANCH   3   4
HETATM    4  C   UNL     1     -11.530   6.688  70.507  1.00  0.00    -0.376 C  
HETATM    5  O   UNL     1     -11.963   7.818  70.336  1.00  0.00    -0.068 OA 
BRANCH   4   6
HETATM    6  O   UNL     1     -11.328   5.765  69.537  1.00  0.00    -0.261 OA 
BRANCH   6   7
HETATM    7  C   UNL     1      -9.977   5.593  69.136  1.00  0.00    -0.183 C  
BRANCH   7   8
HETATM    8  O   UNL     1      -9.597   6.165  67.885  1.00  0.00    -0.118 OA 
BRANCH   8   9
HETATM    9  C   UNL     1      -8.534   6.992  67.880  1.00  0.00    -0.124 C  
HETATM   10  O   UNL     1      -7.490   6.781  68.475  1.00  0.00    -0.088 OA 
BRANCH   9  11
HETATM   11  C   UNL     1      -8.871   8.286  67.198  1.00  0.00    -0.145 C  
HETATM   12  C   UNL     1      -9.277   8.390  65.905  1.00  0.00    -0.155 C  
HETATM   13  N   UNL     1      -9.725   9.608  65.428  1.00  0.00    -0.310 NA 
HETATM   14  C   UNL     1      -9.328   7.310  64.842  1.00  0.00     1.268 C  
HETATM   15  C   UNL     1      -9.652  10.811  66.094  1.00  0.00    -0.194 C  
HETATM   16  C   UNL     1      -9.233  10.848  67.379  1.00  0.00    -0.155 C  
HETATM   17  C   UNL     1     -10.062  12.015  65.280  1.00  0.00    -0.289 C  
HETATM   18  C   UNL     1      -8.886   9.541  68.125  1.00  0.00    -0.124 C  
BRANCH  16  19
HETATM   19  C   UNL     1      -9.060  12.173  68.038  1.00  0.00    -0.190 C  
HETATM   20  O   UNL     1      -9.646  12.519  69.053  1.00  0.00     0.139 OA 
BRANCH  19  21
HETATM   21  O   UNL     1      -8.196  12.962  67.351  1.00  0.00    -0.169 OA 
HETATM   22  C   UNL     1      -7.790  14.129  68.072  1.00  0.00    -0.146 C  
ENDBRANCH  19  21
ENDBRANCH  16  19
BRANCH  18  23
HETATM   23  C   UNL     1      -7.597   9.688  68.947  1.00  0.00    -0.076 A  
HETATM   24  C   UNL     1      -6.396   9.972  68.270  1.00  0.00    -0.053 A  
HETATM   25  C   UNL     1      -5.203  10.138  68.966  1.00  0.00    -0.035 A  
HETATM   26  C   UNL     1      -5.186  10.034  70.361  1.00  0.00    -0.044 A  
HETATM   27  C   UNL     1      -6.364   9.739  71.055  1.00  0.00    -0.038 A  
HETATM   28 CL   UNL     1      -6.250   9.631  72.780  1.00  0.00     0.482 Cl 
HETATM   29  C   UNL     1      -7.571   9.563  70.360  1.00  0.00    -0.159 A  
HETATM   30 CL   UNL     1      -9.023   9.204  71.253  1.00  0.00    -0.270 Cl 
ENDBRANCH  18  23
ENDBRANCH   9  11
ENDBRANCH   8   9
ENDBRANCH   7   8
ENDBRANCH   6   7
ENDBRANCH   4   6
ENDBRANCH   3   4
ENDBRANCH   2   3
TORSDOF 10
ENDMDL
MODEL      254
REMARK 921   NORMALIZED FREE ENERGY PREDICTED BY IDOCK:   -0.25 KCAL/MOL
REMARK 922        TOTAL FREE ENERGY PREDICTED BY IDOCK:   -1.79 KCAL/MOL
REMARK 923 INTER-LIGAND FREE ENERGY PREDICTED BY IDOCK:   -2.80 KCAL/MOL
REMARK 924 INTRA-LIGAND FREE ENERGY PREDICTED BY IDOCK:    1.01 KCAL/MOL
REMARK 927      BINDING AFFINITY PREDICTED BY RF-SCORE:    0.00 PKD
ROOT
HETATM    1  C   UNL     1     -10.527   8.677  65.875  1.00  0.00     1.015 C  
HETATM    2  C   UNL     1     -10.029   9.541  67.021  1.00  0.00    -0.273 C  
ENDROOT
BRANCH   2   3
HETATM    3  C   UNL     1     -11.133  10.446  67.549  1.00  0.00    -0.336 C  
BRANCH   3   4
HETATM    4  C   UNL     1     -10.790  11.005  68.907  1.00  0.00    -0.217 C  
HETATM    5  O   UNL     1      -9.677  11.362  69.268  1.00  0.00     0.008 OA 
BRANCH   4   6
HETATM    6  O   UNL     1     -11.924  11.104  69.640  1.00  0.00    -0.308 OA 
BRANCH   6   7
HETATM    7  C   UNL     1     -12.093  10.104  70.634  1.00  0.00    -0.319 C  
BRANCH   7   8
HETATM    8  O   UNL     1     -11.497   8.832  70.378  1.00  0.00    -0.240 OA 
BRANCH   8   9
HETATM    9  C   UNL     1     -10.278   8.603  70.901  1.00  0.00    -0.209 C  
HETATM   10  O   UNL     1      -9.736   9.313  71.731  1.00  0.00    -0.269 OA 
BRANCH   9  11
HETATM   11  C   UNL     1      -9.603   7.464  70.193  1.00  0.00    -0.165 C  
HETATM   12  C   UNL     1     -10.088   6.196  70.142  1.00  0.00    -0.184 C  
HETATM   13  N   UNL     1      -9.476   5.265  69.323  1.00  0.00    -0.125 NA 
HETATM   14  C   UNL     1     -11.273   5.608  70.882  1.00  0.00    -0.106 C  
HETATM   15  C   UNL     1      -8.287   5.442  68.649  1.00  0.00    -0.093 C  
HETATM   16  C   UNL     1      -7.684   6.653  68.647  1.00  0.00    -0.109 C  
HETATM   17  C   UNL     1      -7.759   4.208  67.957  1.00  0.00    -0.071 C  
HETATM   18  C   UNL     1      -8.348   7.856  69.352  1.00  0.00    -0.132 C  
BRANCH  16  19
HETATM   19  C   UNL     1      -6.348   6.786  68.003  1.00  0.00    -0.045 C  
HETATM   20  O   UNL     1      -6.167   7.224  66.877  1.00  0.00    -0.040 OA 
BRANCH  19  21
HETATM   21  O   UNL     1      -5.358   6.327  68.810  1.00  0.00    -0.007 OA 
HETATM   22  C   UNL     1      -5.218   4.904  68.793  1.00  0.00    -0.004 C  
ENDBRANCH  19  21
ENDBRANCH  16  19
BRANCH  18  23
HETATM   23  C   UNL     1      -7.324   8.670  70.156  1.00  0.00    -0.053 A  
HETATM   24  C   UNL     1      -6.879   8.160  71.391  1.00  0.00    -0.057 A  
HETATM   25  C   UNL     1      -5.935   8.845  72.150  1.00  0.00    -0.072 A  
HETATM   26  C   UNL     1      -5.406  10.054  71.686  1.00  0.00    -0.047 A  
HETATM   27  C   UNL     1      -5.842  10.587  70.469  1.00  0.00    -0.107 A  
HETATM   28 CL   UNL     1      -5.132  12.087  69.972  1.00  0.00    -0.075 Cl 
HETATM   29  C   UNL     1      -6.799   9.907  69.699  1.00  0.00    -0.076 A  
HETATM   30 CL   UNL     1      -7.318  10.593  68.185  1.00  0.00    -0.087 Cl 
ENDBRANCH  18  23
ENDBRANCH   9  11
ENDBRANCH   8   9
ENDBRANCH   7   8
ENDBRANCH   6   7
ENDBRANCH   4   6
ENDBRANCH   3   4
ENDBRANCH   2   3
TORSDOF 10
ENDMDL
MODEL      255
REMARK 921   NORMALIZED FREE ENERGY PREDICTED BY IDOCK:   -0.05 KCAL/MOL
REMARK 922        TOTAL FREE ENERGY PREDICTED BY IDOCK:   -1.48 KCAL/MOL
REMARK 923 INTER-LIGAND FREE ENERGY PREDICTED BY IDOCK:   -0.99 KCAL/MOL
REMARK 924 INTRA-LIGAND FREE ENERGY PREDICTED BY IDOCK:   -0.49 KCAL/MOL
REMARK 927      BINDING AFFINITY PREDICTED BY RF-SCORE:    0.00 PKD
ROOT
HETATM    1  C   UNL     1     -10.309  13.241  70.055  1.00  0.00     1.584 C  
HETATM    2  C   UNL     1     -11.744  12.747  70.133  1.00  0.00    -0.239 C  
ENDROOT
BRANCH   2   3
HETATM    3  C   UNL     1     -12.648  13.528  69.190  1.00  0.00     0.381 C  
BRANCH   3   4
HETATM    4  C   UNL     1     -12.521  15.015  69.405  1.00  0.00    -0.041 C  
HETATM    5  O   UNL     1     -13.199  15.682  70.173  1.00  0.00    -0.168 OA 
BRANCH   4   6
HETATM    6  O   UNL     1     -11.493  15.479  68.656  1.00  0.00    -0.322 OA 
BRANCH   6   7
HETATM    7  C   UNL     1     -11.861  16.046  67.407  1.00  0.00     0.558 C  
BRANCH   7   8
HETATM    8  O   UNL     1     -11.478  15.329  66.234  1.00  0.00    -0.233 OA 
BRANCH   8   9
HETATM    9  C   UNL     1     -10.492  15.853  65.482  1.00  0.00    -0.404 C  
HETATM   10  O   UNL     1     -10.654  16.365  64.388  1.00  0.00    -0.428 OA 
BRANCH   9  11
HETATM   11  C   UNL     1      -9.150  15.560  66.088  1.00  0.00    -0.359 C  
HETATM   12  C   UNL     1      -8.717  14.318  66.430  1.00  0.00     0.151 C  
HETATM   13  N   UNL     1      -7.402  14.139  66.820  1.00  0.00     0.464 NA 
HETATM   14  C   UNL     1      -9.494  13.017  66.441  1.00  0.00    -0.228 C  
HETATM   15  C   UNL     1      -6.491  15.143  67.066  1.00  0.00     0.580 C  
HETATM   16  C   UNL     1      -6.812  16.429  66.797  1.00  0.00    -0.183 C  
HETATM   17  C   UNL     1      -5.173  14.678  67.640  1.00  0.00     0.086 C  
HETATM   18  C   UNL     1      -8.176  16.776  66.164  1.00  0.00    -0.300 C  
BRANCH  16  19
HETATM   19  C   UNL     1      -5.848  17.500  67.175  1.00  0.00    -0.136 C  
HETATM   20  O   UNL     1      -5.532  18.430  66.447  1.00  0.00    -0.135 OA 
BRANCH  19  21
HETATM   21  O   UNL     1      -5.338  17.298  68.416  1.00  0.00    -0.132 OA 
HETATM   22  C   UNL     1      -5.665  18.335  69.345  1.00  0.00    -0.230 C  
ENDBRANCH  19  21
ENDBRANCH  16  19
BRANCH  18  23
HETATM   23  C   UNL     1      -8.810  18.005  66.834  1.00  0.00    -0.266 A  
HETATM   24  C   UNL     1      -9.154  19.108  66.030  1.00  0.00    -0.094 A  
HETATM   25  C   UNL     1      -9.751  20.237  66.581  1.00  0.00    -0.550 A  
HETATM   26  C   UNL     1     -10.029  20.285  67.951  1.00  0.00    -0.492 A  
HETATM   27  C   UNL     1      -9.684  19.207  68.772  1.00  0.00    -0.430 A  
HETATM   28 CL   UNL     1     -10.067  19.352  70.456  1.00  0.00     0.929 Cl 
HETATM   29  C   UNL     1      -9.075  18.065  68.227  1.00  0.00    -0.278 A  
HETATM   30 CL   UNL     1      -8.665  16.736  69.274  1.00  0.00    -0.074 Cl 
ENDBRANCH  18  23
ENDBRANCH   9  11
ENDBRANCH   8   9
ENDBRANCH   7   8
ENDBRANCH   6   7
ENDBRANCH   4   6
ENDBRANCH   3   4
ENDBRANCH   2   3
TORSDOF 10
ENDMDL
MODEL      256
REMARK 921   NORMALIZED FREE ENERGY PREDICTED BY IDOCK:    0.61 KCAL/MOL
REMARK 922        TOTAL FREE ENERGY PREDICTED BY IDOCK:   -0.44 KCAL/MOL
REMARK 923 INTER-LIGAND FREE ENERGY PREDICTED BY IDOCK:   -3.07 KCAL/MOL
REMARK 924 INTRA-LIGAND FREE ENERGY PREDICTED BY IDOCK:    2.63 KCAL/MOL
REMARK 927      BINDING AFFINITY PREDICTED BY RF-SCORE:    0.00 PKD
ROOT
HETATM    1  C   UNL     1     -13.299  11.618  71.485  1.00  0.00    -0.148 C  
HETATM    2  C   UNL     1     -11.968  11.394  70.787  1.00  0.00    -0.355 C  
ENDROOT
BRANCH   2   3
HETATM    3  C   UNL     1     -11.865   9.979  70.238  1.00  0.00    -0.291 C  
BRANCH   3   4
HETATM    4  C   UNL     1     -11.387   9.009  71.290  1.00  0.00    -0.319 C  
HETATM    5  O   UNL     1     -12.044   8.613  72.242  1.00  0.00    -0.364 OA 
BRANCH   4   6
HETATM    6  O   UNL     1     -10.135   8.602  70.973  1.00  0.00    -0.190 OA 
BRANCH   6   7
HETATM    7  C   UNL     1      -9.880   8.452  69.584  1.00  0.00    -0.184 C  
BRANCH   7   8
HETATM    8  O   UNL     1     -10.993   8.120  68.755  1.00  0.00    -0.006 OA 
BRANCH   8   9
HETATM    9  C   UNL     1     -10.798   7.189  67.802  1.00  0.00    -0.178 C  
HETATM   10  O   UNL     1     -11.631   6.369  67.454  1.00  0.00     0.035 OA 
BRANCH   9  11
HETATM   11  C   UNL     1      -9.365   7.178  67.356  1.00  0.00    -0.144 C  
HETATM   12  C   UNL     1      -8.514   6.133  67.533  1.00  0.00    -0.108 C  
HETATM   13  N   UNL     1      -7.268   6.161  66.934  1.00  0.00    -0.073 NA 
HETATM   14  C   UNL     1      -8.734   4.860  68.324  1.00  0.00    -0.109 C  
HETATM   15  C   UNL     1      -6.708   7.241  66.286  1.00  0.00    -0.053 C  
HETATM   16  C   UNL     1      -7.443   8.357  66.074  1.00  0.00    -0.084 C  
HETATM   17  C   UNL     1      -5.269   7.056  65.868  1.00  0.00    -0.023 C  
HETATM   18  C   UNL     1      -8.925   8.410  66.505  1.00  0.00    -0.190 C  
BRANCH  16  19
HETATM   19  C   UNL     1      -6.779   9.546  65.470  1.00  0.00    -0.080 C  
HETATM   20  O   UNL     1      -7.112  10.055  64.410  1.00  0.00    -0.131 OA 
BRANCH  19  21
HETATM   21  O   UNL     1      -5.737   9.973  66.226  1.00  0.00    -0.054 OA 
HETATM   22  C   UNL     1      -5.511  11.383  66.145  1.00  0.00    -0.038 C  
ENDBRANCH  19  21
ENDBRANCH  16  19
BRANCH  18  23
HETATM   23  C   UNL     1      -9.267   9.748  67.176  1.00  0.00    -0.159 A  
HETATM   24  C   UNL     1      -8.503  10.160  68.285  1.00  0.00    -0.115 A  
HETATM   25  C   UNL     1      -8.755  11.373  68.917  1.00  0.00    -0.012 A  
HETATM   26  C   UNL     1      -9.771  12.211  68.447  1.00  0.00    -0.193 A  
HETATM   27  C   UNL     1     -10.552  11.817  67.356  1.00  0.00    -0.224 A  
HETATM   28 CL   UNL     1     -11.788  12.917  66.841  1.00  0.00    -0.446 Cl 
HETATM   29  C   UNL     1     -10.311  10.591  66.715  1.00  0.00    -0.245 A  
HETATM   30 CL   UNL     1     -11.295  10.133  65.354  1.00  0.00     1.413 Cl 
ENDBRANCH  18  23
ENDBRANCH   9  11
ENDBRANCH   8   9
ENDBRANCH   7   8
ENDBRANCH   6   7
ENDBRANCH   4   6
ENDBRANCH   3   4
ENDBRANCH   2   3
TORSDOF 10
ENDMDL
MODEL      257
REMARK 921   NORMALIZED FREE ENERGY PREDICTED BY IDOCK:    1.01 KCAL/MOL
REMARK 922        TOTAL FREE ENERGY PREDICTED BY IDOCK:    0.20 KCAL/MOL
REMARK 923 INTER-LIGAND FREE ENERGY PREDICTED BY IDOCK:   -2.30 KCAL/MOL
REMARK 924 INTRA-LIGAND FREE ENERGY PREDICTED BY IDOCK:    2.50 KCAL/MOL
REMARK 927      BINDING AFFINITY PREDICTED BY RF-SCORE:    0.00 PKD
ROOT
HETATM    1  C   UNL     1      -5.821  15.051  70.023  1.00  0.00    -0.135 C  
HETATM    2  C   UNL     1      -6.355  16.193  69.175  1.00  0.00    -0.159 C  
ENDROOT
BRANCH   2   3
HETATM    3  C   UNL     1      -5.799  16.135  67.759  1.00  0.00    -0.157 C  
BRANCH   3   4
HETATM    4  C   UNL     1      -6.880  16.358  66.730  1.00  0.00    -0.148 C  
HETATM    5  O   UNL     1      -6.759  17.013  65.704  1.00  0.00     0.225 OA 
BRANCH   4   6
HETATM    6  O   UNL     1      -7.983  15.663  67.096  1.00  0.00    -0.179 OA 
BRANCH   6   7
HETATM    7  C   UNL     1      -9.138  16.450  67.347  1.00  0.00    -0.199 C  
BRANCH   7   8
HETATM    8  O   UNL     1     -10.110  15.904  68.238  1.00  0.00    -0.219 OA 
BRANCH   8   9
HETATM    9  C   UNL     1     -11.040  15.084  67.714  1.00  0.00    -0.310 C  
HETATM   10  O   UNL     1     -12.243  15.263  67.790  1.00  0.00     0.038 OA 
BRANCH   9  11
HETATM   11  C   UNL     1     -10.404  13.831  67.184  1.00  0.00    -0.261 C  
HETATM   12  C   UNL     1     -10.157  13.592  65.869  1.00  0.00    -0.310 C  
HETATM   13  N   UNL     1      -9.414  12.484  65.506  1.00  0.00    -0.032 NA 
HETATM   14  C   UNL     1     -10.587  14.406  64.665  1.00  0.00    -0.331 C  
HETATM   15  C   UNL     1      -9.018  11.468  66.348  1.00  0.00    -0.197 C  
HETATM   16  C   UNL     1      -9.234  11.570  67.679  1.00  0.00    -0.171 C  
HETATM   17  C   UNL     1      -8.360  10.294  65.663  1.00  0.00    -0.159 C  
HETATM   18  C   UNL     1      -9.874  12.845  68.271  1.00  0.00    -0.228 C  
BRANCH  16  19
HETATM   19  C   UNL     1      -8.894  10.410  68.550  1.00  0.00    -0.142 C  
HETATM   20  O   UNL     1      -8.585  10.502  69.729  1.00  0.00    -0.065 OA 
BRANCH  19  21
HETATM   21  O   UNL     1      -8.936   9.241  67.863  1.00  0.00    -0.128 OA 
HETATM   22  C   UNL     1      -9.307   8.118  68.667  1.00  0.00    -0.143 C  
ENDBRANCH  19  21
ENDBRANCH  16  19
BRANCH  18  23
HETATM   23  C   UNL     1     -10.933  12.502  69.329  1.00  0.00    -0.138 A  
HETATM   24  C   UNL     1     -11.074  13.353  70.441  1.00  0.00     0.791 A  
HETATM   25  C   UNL     1     -12.032  13.103  71.418  1.00  0.00     0.549 A  
HETATM   26  C   UNL     1     -12.882  11.999  71.299  1.00  0.00    -0.364 A  
HETATM   27  C   UNL     1     -12.752  11.131  70.211  1.00  0.00    -0.139 A  
HETATM   28 CL   UNL     1     -13.848   9.789  70.145  1.00  0.00     0.789 Cl 
HETATM   29  C   UNL     1     -11.784  11.371  69.223  1.00  0.00    -0.337 A  
HETATM   30 CL   UNL     1     -11.652  10.276  67.875  1.00  0.00    -0.041 Cl 
ENDBRANCH  18  23
ENDBRANCH   9  11
ENDBRANCH   8   9
ENDBRANCH   7   8
ENDBRANCH   6   7
ENDBRANCH   4   6
ENDBRANCH   3   4
ENDBRANCH   2   3
TORSDOF 10
ENDMDL
MODEL      258
REMARK 921   NORMALIZED FREE ENERGY PREDICTED BY IDOCK:    1.04 KCAL/MOL
REMARK 922        TOTAL FREE ENERGY PREDICTED BY IDOCK:    0.25 KCAL/MOL
REMARK 923 INTER-LIGAND FREE ENERGY PREDICTED BY IDOCK:   -3.77 KCAL/MOL
REMARK 924 INTRA-LIGAND FREE ENERGY PREDICTED BY IDOCK:    4.02 KCAL/MOL
REMARK 927      BINDING AFFINITY PREDICTED BY RF-SCORE:    0.00 PKD
ROOT
HETATM    1  C   UNL     1     -10.081  14.172  67.308  1.00  0.00    -0.256 C  
HETATM    2  C   UNL     1      -9.344  12.856  67.130  1.00  0.00    -0.229 C  
ENDROOT
BRANCH   2   3
HETATM    3  C   UNL     1     -10.209  11.678  67.555  1.00  0.00    -0.216 C  
BRANCH   3   4
HETATM    4  C   UNL     1     -10.158  11.463  69.048  1.00  0.00    -0.090 C  
HETATM    5  O   UNL     1     -11.128  11.321  69.778  1.00  0.00    -0.241 OA 
BRANCH   4   6
HETATM    6  O   UNL     1      -8.863  11.392  69.435  1.00  0.00     0.232 OA 
BRANCH   6   7
HETATM    7  C   UNL     1      -7.909  11.595  68.403  1.00  0.00    -0.137 C  
BRANCH   7   8
HETATM    8  O   UNL     1      -6.592  11.097  68.633  1.00  0.00    -0.054 OA 
BRANCH   8   9
HETATM    9  C   UNL     1      -6.480   9.880  69.199  1.00  0.00    -0.048 C  
HETATM   10  O   UNL     1      -5.726   9.611  70.119  1.00  0.00    -0.038 OA 
BRANCH   9  11
HETATM   11  C   UNL     1      -7.271   8.863  68.429  1.00  0.00    -0.078 C  
HETATM   12  C   UNL     1      -7.583   8.969  67.111  1.00  0.00    -0.091 C  
HETATM   13  N   UNL     1      -8.167   7.898  66.461  1.00  0.00    -0.110 NA 
HETATM   14  C   UNL     1      -7.370  10.149  66.183  1.00  0.00    -0.115 C  
HETATM   15  C   UNL     1      -8.632   6.747  67.059  1.00  0.00    -0.114 C  
HETATM   16  C   UNL     1      -8.413   6.534  68.376  1.00  0.00    -0.120 C  
HETATM   17  C   UNL     1      -9.375   5.808  66.139  1.00  0.00    -0.160 C  
HETATM   18  C   UNL     1      -7.595   7.548  69.205  1.00  0.00    -0.100 C  
BRANCH  16  19
HETATM   19  C   UNL     1      -9.022   5.336  69.018  1.00  0.00    -0.106 C  
HETATM   20  O   UNL     1     -10.079   5.345  69.631  1.00  0.00    -0.203 OA 
BRANCH  19  21
HETATM   21  O   UNL     1      -8.239   4.238  68.867  1.00  0.00    -0.074 OA 
HETATM   22  C   UNL     1      -6.948   4.368  69.469  1.00  0.00    -0.049 C  
ENDBRANCH  19  21
ENDBRANCH  16  19
BRANCH  18  23
HETATM   23  C   UNL     1      -8.245   7.810  70.572  1.00  0.00    -0.120 A  
HETATM   24  C   UNL     1      -9.624   8.088  70.620  1.00  0.00    -0.172 A  
HETATM   25  C   UNL     1     -10.269   8.310  71.832  1.00  0.00    -0.314 A  
HETATM   26  C   UNL     1      -9.549   8.249  73.030  1.00  0.00    -0.295 A  
HETATM   27  C   UNL     1      -8.176   7.988  73.007  1.00  0.00    -0.179 A  
HETATM   28 CL   UNL     1      -7.365   7.930  74.538  1.00  0.00    -0.184 Cl 
HETATM   29  C   UNL     1      -7.514   7.769  71.788  1.00  0.00    -0.072 A  
HETATM   30 CL   UNL     1      -5.805   7.439  71.794  1.00  0.00    -0.036 Cl 
ENDBRANCH  18  23
ENDBRANCH   9  11
ENDBRANCH   8   9
ENDBRANCH   7   8
ENDBRANCH   6   7
ENDBRANCH   4   6
ENDBRANCH   3   4
ENDBRANCH   2   3
TORSDOF 10
ENDMDL
MODEL      259
REMARK 921   NORMALIZED FREE ENERGY PREDICTED BY IDOCK:    1.73 KCAL/MOL
REMARK 922        TOTAL FREE ENERGY PREDICTED BY IDOCK:    1.34 KCAL/MOL
REMARK 923 INTER-LIGAND FREE ENERGY PREDICTED BY IDOCK:   -2.23 KCAL/MOL
REMARK 924 INTRA-LIGAND FREE ENERGY PREDICTED BY IDOCK:    3.57 KCAL/MOL
REMARK 927      BINDING AFFINITY PREDICTED BY RF-SCORE:    0.00 PKD
ROOT
HETATM    1  C   UNL     1      -8.879   5.785  71.311  1.00  0.00    -0.139 C  
HETATM    2  C   UNL     1      -9.502   7.099  71.751  1.00  0.00    -0.160 C  
ENDROOT
BRANCH   2   3
HETATM    3  C   UNL     1     -10.766   7.402  70.960  1.00  0.00    -0.244 C  
BRANCH   3   4
HETATM    4  C   UNL     1     -10.487   8.324  69.800  1.00  0.00    -0.220 C  
HETATM    5  O   UNL     1     -10.635   9.538  69.806  1.00  0.00    -0.212 OA 
BRANCH   4   6
HETATM    6  O   UNL     1      -9.987   7.597  68.773  1.00  0.00    -0.165 OA 
BRANCH   6   7
HETATM    7  C   UNL     1      -8.799   8.109  68.189  1.00  0.00    -0.132 C  
BRANCH   7   8
HETATM    8  O   UNL     1      -8.905   8.640  66.868  1.00  0.00    -0.127 OA 
BRANCH   8   9
HETATM    9  C   UNL     1      -8.502   9.910  66.677  1.00  0.00    -0.125 C  
HETATM   10  O   UNL     1      -7.338  10.273  66.672  1.00  0.00    -0.102 OA 
BRANCH   9  11
HETATM   11  C   UNL     1      -9.677  10.842  66.654  1.00  0.00    -0.227 C  
HETATM   12  C   UNL     1     -10.542  10.962  65.612  1.00  0.00    -0.164 C  
HETATM   13  N   UNL     1     -11.686  11.724  65.761  1.00  0.00    -0.349 NA 
HETATM   14  C   UNL     1     -10.446  10.346  64.230  1.00  0.00     0.130 C  
HETATM   15  C   UNL     1     -11.980  12.537  66.834  1.00  0.00    -0.236 C  
HETATM   16  C   UNL     1     -11.179  12.533  67.924  1.00  0.00    -0.312 C  
HETATM   17  C   UNL     1     -13.218  13.386  66.669  1.00  0.00     2.166 C  
HETATM   18  C   UNL     1      -9.965  11.582  67.997  1.00  0.00    -0.197 C  
BRANCH  16  19
HETATM   19  C   UNL     1     -11.460  13.501  69.021  1.00  0.00    -0.303 C  
HETATM   20  O   UNL     1     -10.978  14.621  69.091  1.00  0.00    -0.245 OA 
BRANCH  19  21
HETATM   21  O   UNL     1     -12.293  12.970  69.953  1.00  0.00    -0.224 OA 
HETATM   22  C   UNL     1     -12.256  13.654  71.209  1.00  0.00    -0.171 C  
ENDBRANCH  19  21
ENDBRANCH  16  19
BRANCH  18  23
HETATM   23  C   UNL     1      -8.726  12.295  68.560  1.00  0.00    -0.071 A  
HETATM   24  C   UNL     1      -8.611  13.686  68.379  1.00  0.00    -0.151 A  
HETATM   25  C   UNL     1      -7.521  14.387  68.887  1.00  0.00    -0.132 A  
HETATM   26  C   UNL     1      -6.525  13.711  69.599  1.00  0.00    -0.083 A  
HETATM   27  C   UNL     1      -6.611  12.328  69.781  1.00  0.00     0.032 A  
HETATM   28 CL   UNL     1      -5.333  11.574  70.677  1.00  0.00    -0.120 Cl 
HETATM   29  C   UNL     1      -7.703  11.611  69.266  1.00  0.00     0.166 A  
HETATM   30 CL   UNL     1      -7.786   9.889  69.515  1.00  0.00    -0.118 Cl 
ENDBRANCH  18  23
ENDBRANCH   9  11
ENDBRANCH   8   9
ENDBRANCH   7   8
ENDBRANCH   6   7
ENDBRANCH   4   6
ENDBRANCH   3   4
ENDBRANCH   2   3
TORSDOF 10
ENDMDL
MODEL      260
REMARK 921   NORMALIZED FREE ENERGY PREDICTED BY IDOCK:    2.11 KCAL/MOL
REMARK 922        TOTAL FREE ENERGY PREDICTED BY IDOCK:    1.95 KCAL/MOL
REMARK 923 INTER-LIGAND FREE ENERGY PREDICTED BY IDOCK:    1.85 KCAL/MOL
REMARK 924 INTRA-LIGAND FREE ENERGY PREDICTED BY IDOCK:    0.10 KCAL/MOL
REMARK 927      BINDING AFFINITY PREDICTED BY RF-SCORE:    0.00 PKD
ROOT
HETATM    1  C   UNL     1     -12.061   1.506  71.289  1.00  0.00     4.459 C  
HETATM    2  C   UNL     1     -10.905   2.422  71.654  1.00  0.00     1.196 C  
ENDROOT
BRANCH   2   3
HETATM    3  C   UNL     1     -10.900   2.738  73.142  1.00  0.00    -0.241 C  
BRANCH   3   4
HETATM    4  C   UNL     1     -10.758   4.218  73.395  1.00  0.00    -0.231 C  
HETATM    5  O   UNL     1     -10.087   4.727  74.281  1.00  0.00    -0.173 OA 
BRANCH   4   6
HETATM    6  O   UNL     1     -11.446   4.892  72.442  1.00  0.00    -0.010 OA 
BRANCH   6   7
HETATM    7  C   UNL     1     -10.647   5.560  71.477  1.00  0.00    -0.237 C  
BRANCH   7   8
HETATM    8  O   UNL     1      -9.337   5.955  71.883  1.00  0.00    -0.151 OA 
BRANCH   8   9
HETATM    9  C   UNL     1      -8.370   5.945  70.947  1.00  0.00    -0.126 C  
HETATM   10  O   UNL     1      -7.803   4.942  70.548  1.00  0.00    -0.064 OA 
BRANCH   9  11
HETATM   11  C   UNL     1      -7.957   7.344  70.596  1.00  0.00    -0.098 C  
HETATM   12  C   UNL     1      -7.823   8.354  71.495  1.00  0.00    -0.120 C  
HETATM   13  N   UNL     1      -7.274   9.558  71.092  1.00  0.00    -0.329 NA 
HETATM   14  C   UNL     1      -8.195   8.365  72.965  1.00  0.00    -0.181 C  
HETATM   15  C   UNL     1      -6.985   9.917  69.793  1.00  0.00    -0.095 C  
HETATM   16  C   UNL     1      -7.109   9.010  68.797  1.00  0.00    -0.070 C  
HETATM   17  C   UNL     1      -6.547  11.351  69.613  1.00  0.00    -0.128 C  
HETATM   18  C   UNL     1      -7.519   7.555  69.113  1.00  0.00    -0.098 C  
BRANCH  16  19
HETATM   19  C   UNL     1      -6.896   9.457  67.392  1.00  0.00    -0.080 C  
HETATM   20  O   UNL     1      -5.947   9.121  66.700  1.00  0.00    -0.057 OA 
BRANCH  19  21
HETATM   21  O   UNL     1      -7.868  10.312  66.988  1.00  0.00    -0.105 OA 
HETATM   22  C   UNL     1      -7.399  11.642  66.750  1.00  0.00    -0.083 C  
ENDBRANCH  19  21
ENDBRANCH  16  19
BRANCH  18  23
HETATM   23  C   UNL     1      -8.556   7.034  68.107  1.00  0.00    -0.128 A  
HETATM   24  C   UNL     1      -9.846   7.597  68.118  1.00  0.00    -0.186 A  
HETATM   25  C   UNL     1     -10.818   7.178  67.215  1.00  0.00    -0.382 A  
HETATM   26  C   UNL     1     -10.518   6.192  66.269  1.00  0.00     0.020 A  
HETATM   27  C   UNL     1      -9.247   5.608  66.248  1.00  0.00    -0.156 A  
HETATM   28 CL   UNL     1      -8.963   4.396  65.043  1.00  0.00    -0.139 Cl 
HETATM   29  C   UNL     1      -8.262   6.019  67.160  1.00  0.00    -0.105 A  
HETATM   30 CL   UNL     1      -6.687   5.278  67.103  1.00  0.00    -0.057 Cl 
ENDBRANCH  18  23
ENDBRANCH   9  11
ENDBRANCH   8   9
ENDBRANCH   7   8
ENDBRANCH   6   7
ENDBRANCH   4   6
ENDBRANCH   3   4
ENDBRANCH   2   3
TORSDOF 10
ENDMDL
MODEL      261
REMARK 921   NORMALIZED FREE ENERGY PREDICTED BY IDOCK:    2.61 KCAL/MOL
REMARK 922        TOTAL FREE ENERGY PREDICTED BY IDOCK:    2.74 KCAL/MOL
REMARK 923 INTER-LIGAND FREE ENERGY PREDICTED BY IDOCK:    0.89 KCAL/MOL
REMARK 924 INTRA-LIGAND FREE ENERGY PREDICTED BY IDOCK:    1.85 KCAL/MOL
REMARK 927      BINDING AFFINITY PREDICTED BY RF-SCORE:    0.00 PKD
ROOT
HETATM    1  C   UNL     1     -13.778   9.908  69.672  1.00  0.00     2.501 C  
HETATM    2  C   UNL     1     -12.497   9.236  70.137  1.00  0.00     0.566 C  
ENDROOT
BRANCH   2   3
HETATM    3  C   UNL     1     -11.588  10.221  70.857  1.00  0.00    -0.454 C  
BRANCH   3   4
HETATM    4  C   UNL     1     -10.200  10.228  70.266  1.00  0.00    -0.014 C  
HETATM    5  O   UNL     1      -9.184   9.854  70.835  1.00  0.00    -0.002 OA 
BRANCH   4   6
HETATM    6  O   UNL     1     -10.272  10.657  68.984  1.00  0.00    -0.196 OA 
BRANCH   6   7
HETATM    7  C   UNL     1      -9.167  10.306  68.164  1.00  0.00    -0.136 C  
BRANCH   7   8
HETATM    8  O   UNL     1      -9.445   9.523  67.004  1.00  0.00    -0.146 OA 
BRANCH   8   9
HETATM    9  C   UNL     1     -10.468   8.651  67.077  1.00  0.00    -0.284 C  
HETATM   10  O   UNL     1     -11.633   8.964  67.254  1.00  0.00     1.248 OA 
BRANCH   9  11
HETATM   11  C   UNL     1      -9.961   7.239  67.096  1.00  0.00    -0.279 C  
HETATM   12  C   UNL     1     -10.460   6.254  67.888  1.00  0.00    -0.230 C  
HETATM   13  N   UNL     1     -10.036   4.951  67.703  1.00  0.00    -0.159 NA 
HETATM   14  C   UNL     1     -11.480   6.365  69.003  1.00  0.00    -0.203 C  
HETATM   15  C   UNL     1      -9.004   4.547  66.884  1.00  0.00    -0.115 C  
HETATM   16  C   UNL     1      -8.400   5.440  66.068  1.00  0.00    -0.120 C  
HETATM   17  C   UNL     1      -8.639   3.086  66.995  1.00  0.00    -0.120 C  
HETATM   18  C   UNL     1      -8.895   6.901  66.007  1.00  0.00    -0.154 C  
BRANCH  16  19
HETATM   19  C   UNL     1      -7.218   4.999  65.275  1.00  0.00    -0.067 C  
HETATM   20  O   UNL     1      -7.286   4.444  64.189  1.00  0.00    -0.053 OA 
BRANCH  19  21
HETATM   21  O   UNL     1      -6.056   5.260  65.926  1.00  0.00    -0.031 OA 
HETATM   22  C   UNL     1      -5.952   4.609  67.195  1.00  0.00    -0.023 C  
ENDBRANCH  19  21
ENDBRANCH  16  19
BRANCH  18  23
HETATM   23  C   UNL     1      -7.722   7.892  65.996  1.00  0.00    -0.092 A  
HETATM   24  C   UNL     1      -6.893   7.965  67.131  1.00  0.00    -0.073 A  
HETATM   25  C   UNL     1      -5.802   8.828  67.167  1.00  0.00    -0.043 A  
HETATM   26  C   UNL     1      -5.509   9.633  66.061  1.00  0.00    -0.043 A  
HETATM   27  C   UNL     1      -6.326   9.588  64.928  1.00  0.00    -0.081 A  
HETATM   28 CL   UNL     1      -5.887  10.617  63.605  1.00  0.00    -0.084 Cl 
HETATM   29  C   UNL     1      -7.433   8.725  64.884  1.00  0.00    -0.095 A  
HETATM   30 CL   UNL     1      -8.426   8.686  63.455  1.00  0.00    -0.131 Cl 
ENDBRANCH  18  23
ENDBRANCH   9  11
ENDBRANCH   8   9
ENDBRANCH   7   8
ENDBRANCH   6   7
ENDBRANCH   4   6
ENDBRANCH   3   4
ENDBRANCH   2   3
TORSDOF 10
ENDMDL
MODEL      262
REMARK 921   NORMALIZED FREE ENERGY PREDICTED BY IDOCK:    2.62 KCAL/MOL
REMARK 922        TOTAL FREE ENERGY PREDICTED BY IDOCK:    2.75 KCAL/MOL
REMARK 923 INTER-LIGAND FREE ENERGY PREDICTED BY IDOCK:   -3.86 KCAL/MOL
REMARK 924 INTRA-LIGAND FREE ENERGY PREDICTED BY IDOCK:    6.60 KCAL/MOL
REMARK 927      BINDING AFFINITY PREDICTED BY RF-SCORE:    0.00 PKD
ROOT
HETATM    1  C   UNL     1     -10.434  19.402  68.813  1.00  0.00    -0.115 C  
HETATM    2  C   UNL     1      -9.227  18.563  68.427  1.00  0.00    -0.347 C  
ENDROOT
BRANCH   2   3
HETATM    3  C   UNL     1      -9.098  18.444  66.915  1.00  0.00    -0.286 C  
BRANCH   3   4
HETATM    4  C   UNL     1      -8.634  17.069  66.505  1.00  0.00    -0.270 C  
HETATM    5  O   UNL     1      -7.826  16.827  65.620  1.00  0.00    -0.081 OA 
BRANCH   4   6
HETATM    6  O   UNL     1      -9.213  16.152  67.316  1.00  0.00    -0.205 OA 
BRANCH   6   7
HETATM    7  C   UNL     1      -9.218  16.482  68.697  1.00  0.00    -0.238 C  
BRANCH   7   8
HETATM    8  O   UNL     1     -10.465  16.893  69.259  1.00  0.00    -0.319 OA 
BRANCH   8   9
HETATM    9  C   UNL     1     -11.556  16.175  68.933  1.00  0.00    -0.298 C  
HETATM   10  O   UNL     1     -12.378  16.507  68.096  1.00  0.00     0.821 OA 
BRANCH   9  11
HETATM   11  C   UNL     1     -11.721  15.009  69.863  1.00  0.00    -0.343 C  
HETATM   12  C   UNL     1     -11.760  15.107  71.218  1.00  0.00    -0.359 C  
HETATM   13  N   UNL     1     -12.087  13.995  71.972  1.00  0.00     0.026 NA 
HETATM   14  C   UNL     1     -11.495  16.322  72.085  1.00  0.00    -0.226 C  
HETATM   15  C   UNL     1     -12.225  12.709  71.496  1.00  0.00     0.412 C  
HETATM   16  C   UNL     1     -12.174  12.473  70.165  1.00  0.00    -0.307 C  
HETATM   17  C   UNL     1     -12.422  11.655  72.558  1.00  0.00     1.979 C  
HETATM   18  C   UNL     1     -12.017  13.643  69.170  1.00  0.00    -0.394 C  
BRANCH  16  19
HETATM   19  C   UNL     1     -12.217  11.062  69.687  1.00  0.00    -0.300 C  
HETATM   20  O   UNL     1     -12.148  10.731  68.513  1.00  0.00    -0.493 OA 
BRANCH  19  21
HETATM   21  O   UNL     1     -12.376  10.192  70.716  1.00  0.00    -0.299 OA 
HETATM   22  C   UNL     1     -11.180   9.485  71.057  1.00  0.00    -0.362 C  
ENDBRANCH  19  21
ENDBRANCH  16  19
BRANCH  18  23
HETATM   23  C   UNL     1     -11.005  13.307  68.064  1.00  0.00    -0.266 A  
HETATM   24  C   UNL     1      -9.708  12.907  68.437  1.00  0.00    -0.186 A  
HETATM   25  C   UNL     1      -8.759  12.570  67.477  1.00  0.00    -0.182 A  
HETATM   26  C   UNL     1      -9.089  12.614  66.119  1.00  0.00     0.019 A  
HETATM   27  C   UNL     1     -10.367  13.021  65.723  1.00  0.00    -0.286 A  
HETATM   28 CL   UNL     1     -10.689  13.044  64.021  1.00  0.00    -0.416 Cl 
HETATM   29  C   UNL     1     -11.330  13.370  66.684  1.00  0.00    -0.323 A  
HETATM   30 CL   UNL     1     -12.915  13.865  66.160  1.00  0.00    -0.215 Cl 
ENDBRANCH  18  23
ENDBRANCH   9  11
ENDBRANCH   8   9
ENDBRANCH   7   8
ENDBRANCH   6   7
ENDBRANCH   4   6
ENDBRANCH   3   4
ENDBRANCH   2   3
TORSDOF 10
ENDMDL
MODEL      263
REMARK 921   NORMALIZED FREE ENERGY PREDICTED BY IDOCK:    3.01 KCAL/MOL
REMARK 922        TOTAL FREE ENERGY PREDICTED BY IDOCK:    3.37 KCAL/MOL
REMARK 923 INTER-LIGAND FREE ENERGY PREDICTED BY IDOCK:    1.27 KCAL/MOL
REMARK 924 INTRA-LIGAND FREE ENERGY PREDICTED BY IDOCK:    2.11 KCAL/MOL
REMARK 927      BINDING AFFINITY PREDICTED BY RF-SCORE:    0.00 PKD
ROOT
HETATM    1  C   UNL     1     -11.908  12.322  63.294  1.00  0.00    -0.476 C  
HETATM    2  C   UNL     1     -11.935  11.271  64.391  1.00  0.00     0.438 C  
ENDROOT
BRANCH   2   3
HETATM    3  C   UNL     1     -10.529  10.934  64.865  1.00  0.00    -0.352 C  
BRANCH   3   4
HETATM    4  C   UNL     1     -10.479  10.744  66.360  1.00  0.00    -0.233 C  
HETATM    5  O   UNL     1      -9.565  10.217  66.979  1.00  0.00    -0.163 OA 
BRANCH   4   6
HETATM    6  O   UNL     1     -11.581  11.306  66.910  1.00  0.00    -0.464 OA 
BRANCH   6   7
HETATM    7  C   UNL     1     -11.489  12.701  67.159  1.00  0.00    -0.346 C  
BRANCH   7   8
HETATM    8  O   UNL     1     -12.191  13.565  66.266  1.00  0.00    -0.417 OA 
BRANCH   8   9
HETATM    9  C   UNL     1     -12.066  14.891  66.461  1.00  0.00     0.020 C  
HETATM   10  O   UNL     1     -12.987  15.688  66.414  1.00  0.00     2.087 OA 
BRANCH   9  11
HETATM   11  C   UNL     1     -10.619  15.278  66.561  1.00  0.00    -0.304 C  
HETATM   12  C   UNL     1      -9.677  14.975  65.629  1.00  0.00    -0.309 C  
HETATM   13  N   UNL     1      -8.412  15.525  65.735  1.00  0.00     0.582 NA 
HETATM   14  C   UNL     1      -9.806  14.081  64.412  1.00  0.00     0.893 C  
HETATM   15  C   UNL     1      -7.934  16.244  66.808  1.00  0.00    -0.271 C  
HETATM   16  C   UNL     1      -8.765  16.584  67.819  1.00  0.00    -0.197 C  
HETATM   17  C   UNL     1      -6.465  16.588  66.739  1.00  0.00    -0.123 C  
HETATM   18  C   UNL     1     -10.264  16.218  67.754  1.00  0.00    -0.270 C  
BRANCH  16  19
HETATM   19  C   UNL     1      -8.196  17.267  69.015  1.00  0.00    -0.096 C  
HETATM   20  O   UNL     1      -7.707  16.684  69.972  1.00  0.00     0.707 OA 
BRANCH  19  21
HETATM   21  O   UNL     1      -8.318  18.615  68.926  1.00  0.00    -0.285 OA 
HETATM   22  C   UNL     1      -7.064  19.302  68.879  1.00  0.00    -0.350 C  
ENDBRANCH  19  21
ENDBRANCH  16  19
BRANCH  18  23
HETATM   23  C   UNL     1     -10.770  15.683  69.102  1.00  0.00    -0.243 A  
HETATM   24  C   UNL     1     -10.823  14.290  69.297  1.00  0.00    -0.241 A  
HETATM   25  C   UNL     1     -11.252  13.752  70.506  1.00  0.00     0.421 A  
HETATM   26  C   UNL     1     -11.628  14.597  71.555  1.00  0.00    -0.187 A  
HETATM   27  C   UNL     1     -11.597  15.984  71.381  1.00  0.00    -0.455 A  
HETATM   28 CL   UNL     1     -12.079  16.954  72.734  1.00  0.00    -0.060 Cl 
HETATM   29  C   UNL     1     -11.172  16.537  70.162  1.00  0.00    -0.138 A  
HETATM   30 CL   UNL     1     -11.137  18.268  69.979  1.00  0.00     2.098 Cl 
ENDBRANCH  18  23
ENDBRANCH   9  11
ENDBRANCH   8   9
ENDBRANCH   7   8
ENDBRANCH   6   7
ENDBRANCH   4   6
ENDBRANCH   3   4
ENDBRANCH   2   3
TORSDOF 10
ENDMDL
MODEL      264
REMARK 921   NORMALIZED FREE ENERGY PREDICTED BY IDOCK:    3.56 KCAL/MOL
REMARK 922        TOTAL FREE ENERGY PREDICTED BY IDOCK:    4.24 KCAL/MOL
REMARK 923 INTER-LIGAND FREE ENERGY PREDICTED BY IDOCK:    0.49 KCAL/MOL
REMARK 924 INTRA-LIGAND FREE ENERGY PREDICTED BY IDOCK:    3.75 KCAL/MOL
REMARK 927      BINDING AFFINITY PREDICTED BY RF-SCORE:    0.00 PKD
ROOT
HETATM    1  C   UNL     1      -7.480   8.244  73.159  1.00  0.00    -0.155 C  
HETATM    2  C   UNL     1      -6.023   8.669  73.096  1.00  0.00    -0.097 C  
ENDROOT
BRANCH   2   3
HETATM    3  C   UNL     1      -5.375   8.226  71.792  1.00  0.00    -0.035 C  
BRANCH   3   4
HETATM    4  C   UNL     1      -5.305   9.356  70.796  1.00  0.00    -0.032 C  
HETATM    5  O   UNL     1      -5.241   9.229  69.581  1.00  0.00    -0.034 OA 
BRANCH   4   6
HETATM    6  O   UNL     1      -5.387  10.532  71.461  1.00  0.00    -0.192 OA 
BRANCH   6   7
HETATM    7  C   UNL     1      -5.131  11.690  70.680  1.00  0.00    -0.116 C  
BRANCH   7   8
HETATM    8  O   UNL     1      -6.248  12.283  70.018  1.00  0.00    -0.143 OA 
BRANCH   8   9
HETATM    9  C   UNL     1      -6.666  11.708  68.874  1.00  0.00    -0.088 C  
HETATM   10  O   UNL     1      -5.952  11.070  68.120  1.00  0.00    -0.049 OA 
BRANCH   9  11
HETATM   11  C   UNL     1      -8.077  12.111  68.562  1.00  0.00    -0.112 C  
HETATM   12  C   UNL     1      -9.033  11.264  68.098  1.00  0.00    -0.166 C  
HETATM   13  N   UNL     1     -10.343  11.700  68.006  1.00  0.00    -0.186 NA 
HETATM   14  C   UNL     1      -8.881   9.825  67.647  1.00  0.00    -0.127 C  
HETATM   15  C   UNL     1     -10.776  12.995  68.186  1.00  0.00    -0.242 C  
HETATM   16  C   UNL     1      -9.913  13.943  68.617  1.00  0.00    -0.189 C  
HETATM   17  C   UNL     1     -12.233  13.229  67.864  1.00  0.00    -0.129 C  
HETATM   18  C   UNL     1      -8.454  13.572  68.961  1.00  0.00     0.332 C  
BRANCH  16  19
HETATM   19  C   UNL     1     -10.383  15.355  68.697  1.00  0.00    -0.234 C  
HETATM   20  O   UNL     1     -10.782  15.890  69.720  1.00  0.00    -0.270 OA 
BRANCH  19  21
HETATM   21  O   UNL     1     -10.344  15.963  67.485  1.00  0.00    -0.270 OA 
HETATM   22  C   UNL     1     -11.625  16.071  66.858  1.00  0.00     0.487 C  
ENDBRANCH  19  21
ENDBRANCH  16  19
BRANCH  18  23
HETATM   23  C   UNL     1      -7.466  14.612  68.412  1.00  0.00    -0.117 A  
HETATM   24  C   UNL     1      -6.614  14.238  67.356  1.00  0.00     0.055 A  
HETATM   25  C   UNL     1      -5.715  15.146  66.806  1.00  0.00     1.631 A  
HETATM   26  C   UNL     1      -5.655  16.456  67.293  1.00  0.00    -0.152 A  
HETATM   27  C   UNL     1      -6.482  16.847  68.350  1.00  0.00    -0.149 A  
HETATM   28 CL   UNL     1      -6.342  18.488  68.888  1.00  0.00    -0.232 Cl 
HETATM   29  C   UNL     1      -7.388  15.936  68.917  1.00  0.00    -0.167 A  
HETATM   30 CL   UNL     1      -8.410  16.455  70.228  1.00  0.00     1.672 Cl 
ENDBRANCH  18  23
ENDBRANCH   9  11
ENDBRANCH   8   9
ENDBRANCH   7   8
ENDBRANCH   6   7
ENDBRANCH   4   6
ENDBRANCH   3   4
ENDBRANCH   2   3
TORSDOF 10
ENDMDL
MODEL      265
REMARK 921   NORMALIZED FREE ENERGY PREDICTED BY IDOCK:    4.41 KCAL/MOL
REMARK 922        TOTAL FREE ENERGY PREDICTED BY IDOCK:    5.59 KCAL/MOL
REMARK 923 INTER-LIGAND FREE ENERGY PREDICTED BY IDOCK:    0.75 KCAL/MOL
REMARK 924 INTRA-LIGAND FREE ENERGY PREDICTED BY IDOCK:    4.84 KCAL/MOL
REMARK 927      BINDING AFFINITY PREDICTED BY RF-SCORE:    0.00 PKD
ROOT
HETATM    1  C   UNL     1      -5.128  12.019  67.028  1.00  0.00    -0.071 C  
HETATM    2  C   UNL     1      -5.162  11.372  65.654  1.00  0.00     0.243 C  
ENDROOT
BRANCH   2   3
HETATM    3  C   UNL     1      -6.095  10.170  65.633  1.00  0.00    -0.095 C  
BRANCH   3   4
HETATM    4  C   UNL     1      -5.673   9.124  66.635  1.00  0.00    -0.050 C  
HETATM    5  O   UNL     1      -5.367   7.970  66.371  1.00  0.00    -0.024 OA 
BRANCH   4   6
HETATM    6  O   UNL     1      -5.630   9.688  67.865  1.00  0.00    -0.040 OA 
BRANCH   6   7
HETATM    7  C   UNL     1      -6.527  10.770  68.067  1.00  0.00    -0.062 C  
BRANCH   7   8
HETATM    8  O   UNL     1      -7.073  10.921  69.377  1.00  0.00    -0.108 OA 
BRANCH   8   9
HETATM    9  C   UNL     1      -8.376  10.625  69.542  1.00  0.00     0.003 C  
HETATM   10  O   UNL     1      -8.833  10.019  70.496  1.00  0.00    -0.015 OA 
BRANCH   9  11
HETATM   11  C   UNL     1      -9.160  10.979  68.312  1.00  0.00    -0.158 C  
HETATM   12  C   UNL     1      -9.453  10.108  67.310  1.00  0.00    -0.154 C  
HETATM   13  N   UNL     1     -10.324  10.492  66.307  1.00  0.00    -0.230 NA 
HETATM   14  C   UNL     1      -8.951   8.691  67.115  1.00  0.00    -0.148 C  
HETATM   15  C   UNL     1     -10.822  11.761  66.113  1.00  0.00    -0.291 C  
HETATM   16  C   UNL     1     -10.576  12.731  67.024  1.00  0.00    -0.253 C  
HETATM   17  C   UNL     1     -11.622  11.944  64.846  1.00  0.00    -0.290 C  
HETATM   18  C   UNL     1      -9.784  12.410  68.310  1.00  0.00    -0.218 C  
BRANCH  16  19
HETATM   19  C   UNL     1     -11.034  14.118  66.734  1.00  0.00    -0.300 C  
HETATM   20  O   UNL     1     -11.913  14.696  67.355  1.00  0.00    -0.384 OA 
BRANCH  19  21
HETATM   21  O   UNL     1     -10.377  14.648  65.672  1.00  0.00    -0.309 OA 
HETATM   22  C   UNL     1     -10.818  15.964  65.325  1.00  0.00    -0.387 C  
ENDBRANCH  19  21
ENDBRANCH  16  19
BRANCH  18  23
HETATM   23  C   UNL     1      -8.755  13.506  68.624  1.00  0.00    -0.001 A  
HETATM   24  C   UNL     1      -8.625  13.946  69.955  1.00  0.00     2.006 A  
HETATM   25  C   UNL     1      -7.694  14.920  70.300  1.00  0.00     0.585 A  
HETATM   26  C   UNL     1      -6.861  15.471  69.321  1.00  0.00    -0.160 A  
HETATM   27  C   UNL     1      -6.981  15.061  67.989  1.00  0.00    -0.137 A  
HETATM   28 CL   UNL     1      -5.908  15.795  66.844  1.00  0.00     0.365 Cl 
HETATM   29  C   UNL     1      -7.922  14.083  67.630  1.00  0.00    -0.178 A  
HETATM   30 CL   UNL     1      -8.042  13.587  65.965  1.00  0.00     1.606 Cl 
ENDBRANCH  18  23
ENDBRANCH   9  11
ENDBRANCH   8   9
ENDBRANCH   7   8
ENDBRANCH   6   7
ENDBRANCH   4   6
ENDBRANCH   3   4
ENDBRANCH   2   3
TORSDOF 10
ENDMDL
MODEL      266
REMARK 921   NORMALIZED FREE ENERGY PREDICTED BY IDOCK:    4.55 KCAL/MOL
REMARK 922        TOTAL FREE ENERGY PREDICTED BY IDOCK:    5.80 KCAL/MOL
REMARK 923 INTER-LIGAND FREE ENERGY PREDICTED BY IDOCK:   -1.37 KCAL/MOL
REMARK 924 INTRA-LIGAND FREE ENERGY PREDICTED BY IDOCK:    7.17 KCAL/MOL
REMARK 927      BINDING AFFINITY PREDICTED BY RF-SCORE:    0.00 PKD
ROOT
HETATM    1  C   UNL     1      -9.262   7.538  65.834  1.00  0.00    -0.034 C  
HETATM    2  C   UNL     1      -8.793   8.534  66.882  1.00  0.00    -0.153 C  
ENDROOT
BRANCH   2   3
HETATM    3  C   UNL     1      -9.688   9.764  66.913  1.00  0.00    -0.243 C  
BRANCH   3   4
HETATM    4  C   UNL     1      -9.549  10.518  68.212  1.00  0.00    -0.158 C  
HETATM    5  O   UNL     1      -8.505  10.687  68.827  1.00  0.00    -0.133 OA 
BRANCH   4   6
HETATM    6  O   UNL     1     -10.755  11.030  68.552  1.00  0.00    -0.178 OA 
BRANCH   6   7
HETATM    7  C   UNL     1     -11.467  10.300  69.540  1.00  0.00    -0.210 C  
BRANCH   7   8
HETATM    8  O   UNL     1     -11.217   8.896  69.611  1.00  0.00    -0.114 OA 
BRANCH   8   9
HETATM    9  C   UNL     1      -9.935   8.500  69.713  1.00  0.00    -0.191 C  
HETATM   10  O   UNL     1      -9.014   9.220  70.059  1.00  0.00    -0.163 OA 
BRANCH   9  11
HETATM   11  C   UNL     1      -9.764   7.111  69.172  1.00  0.00    -0.158 C  
HETATM   12  C   UNL     1     -10.714   6.437  68.470  1.00  0.00    -0.288 C  
HETATM   13  N   UNL     1     -10.392   5.233  67.872  1.00  0.00    -0.156 NA 
HETATM   14  C   UNL     1     -12.156   6.830  68.217  1.00  0.00     2.325 C  
HETATM   15  C   UNL     1      -9.219   4.532  68.049  1.00  0.00    -0.132 C  
HETATM   16  C   UNL     1      -8.204   5.080  68.756  1.00  0.00    -0.084 C  
HETATM   17  C   UNL     1      -9.193   3.164  67.410  1.00  0.00    -0.224 C  
HETATM   18  C   UNL     1      -8.331   6.511  69.322  1.00  0.00    -0.123 C  
BRANCH  16  19
HETATM   19  C   UNL     1      -6.992   4.257  69.022  1.00  0.00    -0.050 C  
HETATM   20  O   UNL     1      -5.954   4.333  68.382  1.00  0.00    -0.025 OA 
BRANCH  19  21
HETATM   21  O   UNL     1      -7.195   3.385  70.042  1.00  0.00    -0.041 OA 
HETATM   22  C   UNL     1      -6.019   3.122  70.812  1.00  0.00    -0.018 C  
ENDBRANCH  19  21
ENDBRANCH  16  19
BRANCH  18  23
HETATM   23  C   UNL     1      -7.799   6.595  70.760  1.00  0.00    -0.105 A  
HETATM   24  C   UNL     1      -6.674   7.401  71.016  1.00  0.00    -0.043 A  
HETATM   25  C   UNL     1      -6.163   7.531  72.303  1.00  0.00    -0.039 A  
HETATM   26  C   UNL     1      -6.775   6.866  73.370  1.00  0.00    -0.067 A  
HETATM   27  C   UNL     1      -7.887   6.049  73.139  1.00  0.00    -0.105 A  
HETATM   28 CL   UNL     1      -8.581   5.264  74.519  1.00  0.00    -0.108 Cl 
HETATM   29  C   UNL     1      -8.405   5.905  71.842  1.00  0.00    -0.119 A  
HETATM   30 CL   UNL     1      -9.794   4.887  71.588  1.00  0.00    -0.234 Cl 
ENDBRANCH  18  23
ENDBRANCH   9  11
ENDBRANCH   8   9
ENDBRANCH   7   8
ENDBRANCH   6   7
ENDBRANCH   4   6
ENDBRANCH   3   4
ENDBRANCH   2   3
TORSDOF 10
ENDMDL
MODEL      267
REMARK 921   NORMALIZED FREE ENERGY PREDICTED BY IDOCK:    5.32 KCAL/MOL
REMARK 922        TOTAL FREE ENERGY PREDICTED BY IDOCK:    7.03 KCAL/MOL
REMARK 923 INTER-LIGAND FREE ENERGY PREDICTED BY IDOCK:    1.26 KCAL/MOL
REMARK 924 INTRA-LIGAND FREE ENERGY PREDICTED BY IDOCK:    5.77 KCAL/MOL
REMARK 927      BINDING AFFINITY PREDICTED BY RF-SCORE:    0.00 PKD
ROOT
HETATM    1  C   UNL     1      -8.204  16.486  70.751  1.00  0.00     4.180 C  
HETATM    2  C   UNL     1      -8.317  15.702  69.455  1.00  0.00    -0.238 C  
ENDROOT
BRANCH   2   3
HETATM    3  C   UNL     1      -7.036  15.798  68.639  1.00  0.00    -0.124 C  
BRANCH   3   4
HETATM    4  C   UNL     1      -5.825  15.442  69.465  1.00  0.00    -0.118 C  
HETATM    5  O   UNL     1      -5.476  16.005  70.493  1.00  0.00    -0.169 OA 
BRANCH   4   6
HETATM    6  O   UNL     1      -5.224  14.360  68.916  1.00  0.00    -0.084 OA 
BRANCH   6   7
HETATM    7  C   UNL     1      -6.051  13.214  68.776  1.00  0.00    -0.079 C  
BRANCH   7   8
HETATM    8  O   UNL     1      -6.545  12.622  69.977  1.00  0.00     0.025 OA 
BRANCH   8   9
HETATM    9  C   UNL     1      -6.698  11.285  69.991  1.00  0.00    -0.008 C  
HETATM   10  O   UNL     1      -5.911  10.503  70.497  1.00  0.00    -0.084 OA 
BRANCH   9  11
HETATM   11  C   UNL     1      -7.868  10.876  69.145  1.00  0.00    -0.119 C  
HETATM   12  C   UNL     1      -8.748  11.744  68.579  1.00  0.00    -0.118 C  
HETATM   13  N   UNL     1      -9.688  11.273  67.681  1.00  0.00    -0.170 NA 
HETATM   14  C   UNL     1      -8.860  13.242  68.784  1.00  0.00     0.146 C  
HETATM   15  C   UNL     1      -9.947   9.948  67.406  1.00  0.00    -0.189 C  
HETATM   16  C   UNL     1      -9.162   8.982  67.934  1.00  0.00    -0.151 C  
HETATM   17  C   UNL     1     -11.137   9.706  66.509  1.00  0.00     0.477 C  
HETATM   18  C   UNL     1      -7.940   9.356  68.801  1.00  0.00    -0.092 C  
BRANCH  16  19
HETATM   19  C   UNL     1      -9.533   7.556  67.709  1.00  0.00    -0.141 C  
HETATM   20  O   UNL     1     -10.385   7.184  66.916  1.00  0.00    -0.256 OA 
BRANCH  19  21
HETATM   21  O   UNL     1      -8.830   6.725  68.519  1.00  0.00    -0.124 OA 
HETATM   22  C   UNL     1      -9.423   5.431  68.663  1.00  0.00    -0.123 C  
ENDBRANCH  19  21
ENDBRANCH  16  19
BRANCH  18  23
HETATM   23  C   UNL     1      -7.839   8.460  70.044  1.00  0.00    -0.103 A  
HETATM   24  C   UNL     1      -6.792   7.521  70.114  1.00  0.00    -0.051 A  
HETATM   25  C   UNL     1      -6.639   6.700  71.226  1.00  0.00    -0.050 A  
HETATM   26  C   UNL     1      -7.525   6.806  72.303  1.00  0.00    -0.092 A  
HETATM   27  C   UNL     1      -8.581   7.722  72.252  1.00  0.00    -0.132 A  
HETATM   28 CL   UNL     1      -9.628   7.787  73.631  1.00  0.00    -0.336 Cl 
HETATM   29  C   UNL     1      -8.748   8.551  71.130  1.00  0.00    -0.174 A  
HETATM   30 CL   UNL     1     -10.067   9.686  71.100  1.00  0.00    -0.247 Cl 
ENDBRANCH  18  23
ENDBRANCH   9  11
ENDBRANCH   8   9
ENDBRANCH   7   8
ENDBRANCH   6   7
ENDBRANCH   4   6
ENDBRANCH   3   4
ENDBRANCH   2   3
TORSDOF 10
ENDMDL
MODEL      268
REMARK 921   NORMALIZED FREE ENERGY PREDICTED BY IDOCK:    7.08 KCAL/MOL
REMARK 922        TOTAL FREE ENERGY PREDICTED BY IDOCK:    9.81 KCAL/MOL
REMARK 923 INTER-LIGAND FREE ENERGY PREDICTED BY IDOCK:   -0.63 KCAL/MOL
REMARK 924 INTRA-LIGAND FREE ENERGY PREDICTED BY IDOCK:   10.44 KCAL/MOL
REMARK 927      BINDING AFFINITY PREDICTED BY RF-SCORE:    0.00 PKD
ROOT
HETATM    1  C   UNL     1      -6.065  15.158  72.141  1.00  0.00     0.998 C  
HETATM    2  C   UNL     1      -5.828  15.029  70.646  1.00  0.00    -0.100 C  
ENDROOT
BRANCH   2   3
HETATM    3  C   UNL     1      -7.142  14.897  69.889  1.00  0.00    -0.109 C  
BRANCH   3   4
HETATM    4  C   UNL     1      -6.916  14.486  68.455  1.00  0.00    -0.105 C  
HETATM    5  O   UNL     1      -6.181  15.055  67.661  1.00  0.00    -0.194 OA 
BRANCH   4   6
HETATM    6  O   UNL     1      -7.612  13.351  68.211  1.00  0.00    -0.116 OA 
BRANCH   6   7
HETATM    7  C   UNL     1      -8.920  13.310  68.762  1.00  0.00     0.145 C  
BRANCH   7   8
HETATM    8  O   UNL     1      -9.885  12.511  68.080  1.00  0.00    -0.201 OA 
BRANCH   8   9
HETATM    9  C   UNL     1      -9.795  11.175  68.224  1.00  0.00    -0.189 C  
HETATM   10  O   UNL     1     -10.402  10.526  69.058  1.00  0.00    -0.189 OA 
BRANCH   9  11
HETATM   11  C   UNL     1      -8.713  10.619  67.344  1.00  0.00    -0.125 C  
HETATM   12  C   UNL     1      -7.455  10.324  67.767  1.00  0.00    -0.088 C  
HETATM   13  N   UNL     1      -6.590   9.657  66.918  1.00  0.00    -0.067 NA 
HETATM   14  C   UNL     1      -6.817  10.620  69.109  1.00  0.00    -0.079 C  
HETATM   15  C   UNL     1      -6.814   9.392  65.585  1.00  0.00    -0.078 C  
HETATM   16  C   UNL     1      -8.017   9.669  65.033  1.00  0.00    -0.122 C  
HETATM   17  C   UNL     1      -5.637   8.798  64.849  1.00  0.00    -0.050 C  
HETATM   18  C   UNL     1      -9.163  10.231  65.901  1.00  0.00    -0.205 C  
BRANCH  16  19
HETATM   19  C   UNL     1      -8.194   9.473  63.567  1.00  0.00    -0.164 C  
HETATM   20  O   UNL     1      -9.254   9.179  63.035  1.00  0.00    -0.007 OA 
BRANCH  19  21
HETATM   21  O   UNL     1      -7.023   9.626  62.899  1.00  0.00    -0.099 OA 
HETATM   22  C   UNL     1      -6.047   8.631  63.218  1.00  0.00    -0.085 C  
ENDBRANCH  19  21
ENDBRANCH  16  19
BRANCH  18  23
HETATM   23  C   UNL     1      -9.904  11.369  65.184  1.00  0.00    -0.302 A  
HETATM   24  C   UNL     1      -9.316  11.939  64.039  1.00  0.00     0.143 A  
HETATM   25  C   UNL     1      -9.954  12.957  63.338  1.00  0.00     1.017 A  
HETATM   26  C   UNL     1     -11.203  13.423  63.760  1.00  0.00    -0.133 A  
HETATM   27  C   UNL     1     -11.801  12.883  64.903  1.00  0.00    -0.366 A  
HETATM   28 CL   UNL     1     -13.349  13.519  65.352  1.00  0.00     0.075 Cl 
HETATM   29  C   UNL     1     -11.163  11.859  65.621  1.00  0.00    -0.306 A  
HETATM   30 CL   UNL     1     -11.937  11.201  67.036  1.00  0.00     0.475 Cl 
ENDBRANCH  18  23
ENDBRANCH   9  11
ENDBRANCH   8   9
ENDBRANCH   7   8
ENDBRANCH   6   7
ENDBRANCH   4   6
ENDBRANCH   3   4
ENDBRANCH   2   3
TORSDOF 10
ENDMDL
MODEL      269
REMARK 921   NORMALIZED FREE ENERGY PREDICTED BY IDOCK:    7.09 KCAL/MOL
REMARK 922        TOTAL FREE ENERGY PREDICTED BY IDOCK:    9.83 KCAL/MOL
REMARK 923 INTER-LIGAND FREE ENERGY PREDICTED BY IDOCK:    1.78 KCAL/MOL
REMARK 924 INTRA-LIGAND FREE ENERGY PREDICTED BY IDOCK:    8.05 KCAL/MOL
REMARK 927      BINDING AFFINITY PREDICTED BY RF-SCORE:    0.00 PKD
ROOT
HETATM    1  C   UNL     1     -10.305  13.882  68.872  1.00  0.00    -0.163 C  
HETATM    2  C   UNL     1     -11.079  13.481  70.117  1.00  0.00     0.351 C  
ENDROOT
BRANCH   2   3
HETATM    3  C   UNL     1     -12.536  13.909  70.021  1.00  0.00    -0.226 C  
BRANCH   3   4
HETATM    4  C   UNL     1     -12.745  15.295  70.580  1.00  0.00    -0.390 C  
HETATM    5  O   UNL     1     -13.829  15.803  70.829  1.00  0.00    -0.359 OA 
BRANCH   4   6
HETATM    6  O   UNL     1     -11.537  15.857  70.818  1.00  0.00    -0.351 OA 
BRANCH   6   7
HETATM    7  C   UNL     1     -10.964  16.549  69.718  1.00  0.00    -0.292 C  
BRANCH   7   8
HETATM    8  O   UNL     1     -10.134  15.791  68.839  1.00  0.00    -0.204 OA 
BRANCH   8   9
HETATM    9  C   UNL     1     -10.231  16.047  67.522  1.00  0.00    -0.275 C  
HETATM   10  O   UNL     1     -11.209  15.796  66.838  1.00  0.00    -0.208 OA 
BRANCH   9  11
HETATM   11  C   UNL     1      -8.914  16.511  66.972  1.00  0.00    -0.224 C  
HETATM   12  C   UNL     1      -7.873  15.689  66.674  1.00  0.00    -0.099 C  
HETATM   13  N   UNL     1      -6.770  16.198  66.015  1.00  0.00     0.899 NA 
HETATM   14  C   UNL     1      -7.729  14.207  66.960  1.00  0.00     0.128 C  
HETATM   15  C   UNL     1      -6.527  17.531  65.760  1.00  0.00    -0.020 C  
HETATM   16  C   UNL     1      -7.473  18.456  66.041  1.00  0.00    -0.256 C  
HETATM   17  C   UNL     1      -5.168  17.828  65.172  1.00  0.00     0.127 C  
HETATM   18  C   UNL     1      -8.847  18.024  66.596  1.00  0.00    -0.280 C  
BRANCH  16  19
HETATM   19  C   UNL     1      -7.141  19.896  65.856  1.00  0.00    -0.298 C  
HETATM   20  O   UNL     1      -6.009  20.326  65.690  1.00  0.00    -0.178 OA 
BRANCH  19  21
HETATM   21  O   UNL     1      -8.248  20.677  65.930  1.00  0.00     0.160 OA 
HETATM   22  C   UNL     1      -9.258  20.329  64.979  1.00  0.00     1.506 C  
ENDBRANCH  19  21
ENDBRANCH  16  19
BRANCH  18  23
HETATM   23  C   UNL     1      -9.304  18.941  67.740  1.00  0.00    -0.330 A  
HETATM   24  C   UNL     1     -10.538  19.606  67.617  1.00  0.00    -0.556 A  
HETATM   25  C   UNL     1     -11.012  20.431  68.632  1.00  0.00     0.807 A  
HETATM   26  C   UNL     1     -10.264  20.602  69.802  1.00  0.00     0.591 A  
HETATM   27  C   UNL     1      -9.029  19.963  69.942  1.00  0.00     0.889 A  
HETATM   28 CL   UNL     1      -8.172  20.230  71.424  1.00  0.00     1.580 Cl 
HETATM   29  C   UNL     1      -8.539  19.133  68.920  1.00  0.00    -0.279 A  
HETATM   30 CL   UNL     1      -7.000  18.345  69.127  1.00  0.00    -0.271 Cl 
ENDBRANCH  18  23
ENDBRANCH   9  11
ENDBRANCH   8   9
ENDBRANCH   7   8
ENDBRANCH   6   7
ENDBRANCH   4   6
ENDBRANCH   3   4
ENDBRANCH   2   3
TORSDOF 10
ENDMDL
MODEL      270
REMARK 921   NORMALIZED FREE ENERGY PREDICTED BY IDOCK:    8.49 KCAL/MOL
REMARK 922        TOTAL FREE ENERGY PREDICTED BY IDOCK:   12.05 KCAL/MOL
REMARK 923 INTER-LIGAND FREE ENERGY PREDICTED BY IDOCK:   11.31 KCAL/MOL
REMARK 924 INTRA-LIGAND FREE ENERGY PREDICTED BY IDOCK:    0.74 KCAL/MOL
REMARK 927      BINDING AFFINITY PREDICTED BY RF-SCORE:    0.00 PKD
ROOT
HETATM    1  C   UNL     1     -12.400   7.453  70.530  1.00  0.00     0.021 C  
HETATM    2  C   UNL     1     -11.318   7.749  69.505  1.00  0.00     0.211 C  
ENDROOT
BRANCH   2   3
HETATM    3  C   UNL     1     -10.001   7.089  69.888  1.00  0.00    -0.183 C  
BRANCH   3   4
HETATM    4  C   UNL     1      -8.947   8.113  70.231  1.00  0.00    -0.146 C  
HETATM    5  O   UNL     1      -8.514   8.337  71.352  1.00  0.00    -0.115 OA 
BRANCH   4   6
HETATM    6  O   UNL     1      -8.517   8.698  69.088  1.00  0.00    -0.121 OA 
BRANCH   6   7
HETATM    7  C   UNL     1      -9.043   9.992  68.834  1.00  0.00    -0.159 C  
BRANCH   7   8
HETATM    8  O   UNL     1      -9.203  10.368  67.467  1.00  0.00    -0.144 OA 
BRANCH   8   9
HETATM    9  C   UNL     1     -10.184  11.244  67.176  1.00  0.00    -0.201 C  
HETATM   10  O   UNL     1     -10.690  11.376  66.075  1.00  0.00    -0.265 OA 
BRANCH   9  11
HETATM   11  C   UNL     1     -10.441  12.157  68.339  1.00  0.00    -0.242 C  
HETATM   12  C   UNL     1     -11.346  11.912  69.323  1.00  0.00    -0.277 C  
HETATM   13  N   UNL     1     -11.383  12.733  70.435  1.00  0.00     0.372 NA 
HETATM   14  C   UNL     1     -12.379  10.804  69.401  1.00  0.00    -0.133 C  
HETATM   15  C   UNL     1     -10.688  13.913  70.589  1.00  0.00     1.534 C  
HETATM   16  C   UNL     1      -9.778  14.287  69.662  1.00  0.00     0.530 C  
HETATM   17  C   UNL     1     -11.036  14.698  71.831  1.00  0.00     0.730 C  
HETATM   18  C   UNL     1      -9.471  13.374  68.455  1.00  0.00    -0.176 C  
BRANCH  16  19
HETATM   19  C   UNL     1      -9.122  15.618  69.799  1.00  0.00    -0.040 C  
HETATM   20  O   UNL     1      -9.631  16.675  69.456  1.00  0.00    -0.128 OA 
BRANCH  19  21
HETATM   21  O   UNL     1      -7.875  15.508  70.323  1.00  0.00     0.286 OA 
HETATM   22  C   UNL     1      -7.391  14.163  70.369  1.00  0.00     0.924 C  
ENDBRANCH  19  21
ENDBRANCH  16  19
BRANCH  18  23
HETATM   23  C   UNL     1      -9.371  14.180  67.152  1.00  0.00    -0.241 A  
HETATM   24  C   UNL     1      -8.204  14.061  66.374  1.00  0.00     0.798 A  
HETATM   25  C   UNL     1      -8.069  14.751  65.174  1.00  0.00     6.190 A  
HETATM   26  C   UNL     1      -9.106  15.570  64.716  1.00  0.00     3.045 A  
HETATM   27  C   UNL     1     -10.270  15.715  65.477  1.00  0.00    -0.385 A  
HETATM   28 CL   UNL     1     -11.503  16.748  64.833  1.00  0.00     0.103 Cl 
HETATM   29  C   UNL     1     -10.413  15.028  66.693  1.00  0.00    -0.284 A  
HETATM   30 CL   UNL     1     -11.878  15.224  67.615  1.00  0.00    -0.192 Cl 
ENDBRANCH  18  23
ENDBRANCH   9  11
ENDBRANCH   8   9
ENDBRANCH   7   8
ENDBRANCH   6   7
ENDBRANCH   4   6
ENDBRANCH   3   4
ENDBRANCH   2   3
TORSDOF 10
ENDMDL
MODEL      271
REMARK 921   NORMALIZED FREE ENERGY PREDICTED BY IDOCK:    8.71 KCAL/MOL
REMARK 922        TOTAL FREE ENERGY PREDICTED BY IDOCK:   12.39 KCAL/MOL
REMARK 923 INTER-LIGAND FREE ENERGY PREDICTED BY IDOCK:    2.39 KCAL/MOL
REMARK 924 INTRA-LIGAND FREE ENERGY PREDICTED BY IDOCK:   10.01 KCAL/MOL
REMARK 927      BINDING AFFINITY PREDICTED BY RF-SCORE:    0.00 PKD
ROOT
HETATM    1  C   UNL     1      -8.740   1.783  71.031  1.00  0.00    -0.098 C  
HETATM    2  C   UNL     1      -8.468   2.292  69.626  1.00  0.00    -0.086 C  
ENDROOT
BRANCH   2   3
HETATM    3  C   UNL     1      -9.516   1.786  68.644  1.00  0.00    -0.218 C  
BRANCH   3   4
HETATM    4  C   UNL     1      -9.732   2.760  67.513  1.00  0.00     0.245 C  
HETATM    5  O   UNL     1     -10.630   2.698  66.685  1.00  0.00     2.530 OA 
BRANCH   4   6
HETATM    6  O   UNL     1      -8.809   3.746  67.602  1.00  0.00    -0.103 OA 
BRANCH   6   7
HETATM    7  C   UNL     1      -9.034   4.697  68.632  1.00  0.00    -0.109 C  
BRANCH   7   8
HETATM    8  O   UNL     1     -10.317   4.679  69.258  1.00  0.00    -0.102 OA 
BRANCH   8   9
HETATM    9  C   UNL     1     -10.409   5.198  70.496  1.00  0.00    -0.243 C  
HETATM   10  O   UNL     1     -11.109   4.746  71.387  1.00  0.00     0.222 OA 
BRANCH   9  11
HETATM   11  C   UNL     1      -9.680   6.508  70.578  1.00  0.00    -0.186 C  
HETATM   12  C   UNL     1     -10.041   7.631  69.904  1.00  0.00    -0.198 C  
HETATM   13  N   UNL     1      -9.403   8.826  70.182  1.00  0.00    -0.162 NA 
HETATM   14  C   UNL     1     -11.105   7.791  68.836  1.00  0.00     0.211 C  
HETATM   15  C   UNL     1      -8.290   8.980  70.980  1.00  0.00    -0.189 C  
HETATM   16  C   UNL     1      -7.811   7.928  71.681  1.00  0.00    -0.102 C  
HETATM   17  C   UNL     1      -7.697  10.369  70.982  1.00  0.00     1.902 C  
HETATM   18  C   UNL     1      -8.535   6.565  71.637  1.00  0.00    -0.124 C  
BRANCH  16  19
HETATM   19  C   UNL     1      -6.545   8.097  72.448  1.00  0.00    -0.081 C  
HETATM   20  O   UNL     1      -6.271   9.084  73.115  1.00  0.00    -0.280 OA 
BRANCH  19  21
HETATM   21  O   UNL     1      -5.718   7.034  72.286  1.00  0.00    -0.037 OA 
HETATM   22  C   UNL     1      -5.229   6.887  70.950  1.00  0.00    -0.023 C  
ENDBRANCH  19  21
ENDBRANCH  16  19
BRANCH  18  23
HETATM   23  C   UNL     1      -7.539   5.404  71.499  1.00  0.00    -0.103 A  
HETATM   24  C   UNL     1      -7.183   4.682  72.653  1.00  0.00    -0.082 A  
HETATM   25  C   UNL     1      -6.303   3.607  72.583  1.00  0.00    -0.016 A  
HETATM   26  C   UNL     1      -5.765   3.222  71.351  1.00  0.00    -0.013 A  
HETATM   27  C   UNL     1      -6.093   3.932  70.192  1.00  0.00    -0.019 A  
HETATM   28 CL   UNL     1      -5.381   3.384  68.710  1.00  0.00    -0.012 Cl 
HETATM   29  C   UNL     1      -6.975   5.023  70.254  1.00  0.00    -0.052 A  
HETATM   30 CL   UNL     1      -7.370   5.883  68.792  1.00  0.00    -0.082 Cl 
ENDBRANCH  18  23
ENDBRANCH   9  11
ENDBRANCH   8   9
ENDBRANCH   7   8
ENDBRANCH   6   7
ENDBRANCH   4   6
ENDBRANCH   3   4
ENDBRANCH   2   3
TORSDOF 10
ENDMDL
MODEL      272
REMARK 921   NORMALIZED FREE ENERGY PREDICTED BY IDOCK:    9.96 KCAL/MOL
REMARK 922        TOTAL FREE ENERGY PREDICTED BY IDOCK:   14.38 KCAL/MOL
REMARK 923 INTER-LIGAND FREE ENERGY PREDICTED BY IDOCK:    1.05 KCAL/MOL
REMARK 924 INTRA-LIGAND FREE ENERGY PREDICTED BY IDOCK:   13.33 KCAL/MOL
REMARK 927      BINDING AFFINITY PREDICTED BY RF-SCORE:    0.00 PKD
ROOT
HETATM    1  C   UNL     1      -5.483  12.272  67.360  1.00  0.00    -0.127 C  
HETATM    2  C   UNL     1      -5.590  12.374  65.848  1.00  0.00     2.672 C  
ENDROOT
BRANCH   2   3
HETATM    3  C   UNL     1      -6.348  11.189  65.267  1.00  0.00     0.478 C  
BRANCH   3   4
HETATM    4  C   UNL     1      -5.740   9.877  65.697  1.00  0.00    -0.061 C  
HETATM    5  O   UNL     1      -5.129   9.106  64.970  1.00  0.00    -0.036 OA 
BRANCH   4   6
HETATM    6  O   UNL     1      -5.926   9.724  67.029  1.00  0.00    -0.054 OA 
BRANCH   6   7
HETATM    7  C   UNL     1      -7.124  10.288  67.543  1.00  0.00    -0.086 C  
BRANCH   7   8
HETATM    8  O   UNL     1      -8.136   9.377  67.970  1.00  0.00    -0.105 OA 
BRANCH   8   9
HETATM    9  C   UNL     1      -9.289   9.363  67.275  1.00  0.00    -0.131 C  
HETATM   10  O   UNL     1      -9.855   8.353  66.893  1.00  0.00    -0.198 OA 
BRANCH   9  11
HETATM   11  C   UNL     1      -9.686  10.755  66.879  1.00  0.00    -0.209 C  
HETATM   12  C   UNL     1     -10.057  11.120  65.623  1.00  0.00    -0.253 C  
HETATM   13  N   UNL     1     -10.566  12.386  65.404  1.00  0.00    -0.276 NA 
HETATM   14  C   UNL     1     -10.005  10.301  64.348  1.00  0.00    -0.331 C  
HETATM   15  C   UNL     1     -10.592  13.415  66.320  1.00  0.00    -0.291 C  
HETATM   16  C   UNL     1     -10.217  13.190  67.600  1.00  0.00    -0.224 C  
HETATM   17  C   UNL     1     -11.051  14.744  65.771  1.00  0.00    -0.338 C  
HETATM   18  C   UNL     1      -9.811  11.771  68.056  1.00  0.00    -0.184 C  
BRANCH  16  19
HETATM   19  C   UNL     1     -10.150  14.344  68.540  1.00  0.00    -0.244 C  
HETATM   20  O   UNL     1      -9.300  15.220  68.494  1.00  0.00    -0.188 OA 
BRANCH  19  21
HETATM   21  O   UNL     1     -11.131  14.283  69.474  1.00  0.00    -0.245 OA 
HETATM   22  C   UNL     1     -11.068  15.337  70.440  1.00  0.00    -0.298 C  
ENDBRANCH  19  21
ENDBRANCH  16  19
BRANCH  18  23
HETATM   23  C   UNL     1      -8.561  11.804  68.948  1.00  0.00     0.110 A  
HETATM   24  C   UNL     1      -7.763  12.964  68.946  1.00  0.00     0.096 A  
HETATM   25  C   UNL     1      -6.632  13.057  69.751  1.00  0.00     0.069 A  
HETATM   26  C   UNL     1      -6.278  11.994  70.587  1.00  0.00     0.358 A  
HETATM   27  C   UNL     1      -7.047  10.826  70.596  1.00  0.00     0.920 A  
HETATM   28 CL   UNL     1      -6.535   9.560  71.663  1.00  0.00     0.081 Cl 
HETATM   29  C   UNL     1      -8.186  10.719  69.782  1.00  0.00     0.314 A  
HETATM   30 CL   UNL     1      -9.128   9.255  69.822  1.00  0.00    -0.169 Cl 
ENDBRANCH  18  23
ENDBRANCH   9  11
ENDBRANCH   8   9
ENDBRANCH   7   8
ENDBRANCH   6   7
ENDBRANCH   4   6
ENDBRANCH   3   4
ENDBRANCH   2   3
TORSDOF 10
ENDMDL
MODEL      273
REMARK 921   NORMALIZED FREE ENERGY PREDICTED BY IDOCK:   10.29 KCAL/MOL
REMARK 922        TOTAL FREE ENERGY PREDICTED BY IDOCK:   14.91 KCAL/MOL
REMARK 923 INTER-LIGAND FREE ENERGY PREDICTED BY IDOCK:    5.11 KCAL/MOL
REMARK 924 INTRA-LIGAND FREE ENERGY PREDICTED BY IDOCK:    9.80 KCAL/MOL
REMARK 927      BINDING AFFINITY PREDICTED BY RF-SCORE:    0.00 PKD
ROOT
HETATM    1  C   UNL     1      -9.655  10.099  70.291  1.00  0.00     0.067 C  
HETATM    2  C   UNL     1     -10.398  11.367  69.905  1.00  0.00     0.639 C  
ENDROOT
BRANCH   2   3
HETATM    3  C   UNL     1      -9.920  11.898  68.561  1.00  0.00    -0.196 C  
BRANCH   3   4
HETATM    4  C   UNL     1     -11.052  11.994  67.568  1.00  0.00    -0.275 C  
HETATM    5  O   UNL     1     -12.159  12.461  67.797  1.00  0.00    -0.447 OA 
BRANCH   4   6
HETATM    6  O   UNL     1     -10.623  11.536  66.369  1.00  0.00    -0.241 OA 
BRANCH   6   7
HETATM    7  C   UNL     1     -11.479  11.817  65.271  1.00  0.00    -0.186 C  
BRANCH   7   8
HETATM    8  O   UNL     1     -11.843  13.183  65.069  1.00  0.00    -0.323 OA 
BRANCH   8   9
HETATM    9  C   UNL     1     -11.782  14.004  66.133  1.00  0.00    -0.384 C  
HETATM   10  O   UNL     1     -12.129  13.700  67.262  1.00  0.00    -0.380 OA 
BRANCH   9  11
HETATM   11  C   UNL     1     -11.404  15.394  65.711  1.00  0.00    -0.115 C  
HETATM   12  C   UNL     1     -11.647  15.915  64.480  1.00  0.00    -0.232 C  
HETATM   13  N   UNL     1     -11.412  17.258  64.250  1.00  0.00    -0.452 NA 
HETATM   14  C   UNL     1     -12.176  15.213  63.245  1.00  0.00     1.589 C  
HETATM   15  C   UNL     1     -10.784  18.126  65.116  1.00  0.00     0.682 C  
HETATM   16  C   UNL     1     -10.460  17.719  66.365  1.00  0.00    -0.297 C  
HETATM   17  C   UNL     1     -10.508  19.499  64.551  1.00  0.00     3.558 C  
HETATM   18  C   UNL     1     -10.839  16.302  66.847  1.00  0.00    -0.151 C  
BRANCH  16  19
HETATM   19  C   UNL     1      -9.685  18.643  67.240  1.00  0.00    -0.302 C  
HETATM   20  O   UNL     1      -9.007  19.573  66.829  1.00  0.00    -0.304 OA 
BRANCH  19  21
HETATM   21  O   UNL     1      -9.798  18.303  68.548  1.00  0.00    -0.343 OA 
HETATM   22  C   UNL     1     -10.604  19.208  69.307  1.00  0.00     0.666 C  
ENDBRANCH  19  21
ENDBRANCH  16  19
BRANCH  18  23
HETATM   23  C   UNL     1      -9.685  15.643  67.616  1.00  0.00    -0.225 A  
HETATM   24  C   UNL     1      -9.736  15.625  69.022  1.00  0.00    -0.241 A  
HETATM   25  C   UNL     1      -8.729  15.022  69.769  1.00  0.00     0.120 A  
HETATM   26  C   UNL     1      -7.649  14.411  69.123  1.00  0.00    -0.072 A  
HETATM   27  C   UNL     1      -7.569  14.428  67.727  1.00  0.00    -0.164 A  
HETATM   28 CL   UNL     1      -6.197  13.646  67.013  1.00  0.00     0.666 Cl 
HETATM   29  C   UNL     1      -8.577  15.040  66.966  1.00  0.00    -0.239 A  
HETATM   30 CL   UNL     1      -8.452  15.038  65.229  1.00  0.00     2.695 Cl 
ENDBRANCH  18  23
ENDBRANCH   9  11
ENDBRANCH   8   9
ENDBRANCH   7   8
ENDBRANCH   6   7
ENDBRANCH   4   6
ENDBRANCH   3   4
ENDBRANCH   2   3
TORSDOF 10
ENDMDL
MODEL      274
REMARK 921   NORMALIZED FREE ENERGY PREDICTED BY IDOCK:   10.35 KCAL/MOL
REMARK 922        TOTAL FREE ENERGY PREDICTED BY IDOCK:   15.01 KCAL/MOL
REMARK 923 INTER-LIGAND FREE ENERGY PREDICTED BY IDOCK:    4.41 KCAL/MOL
REMARK 924 INTRA-LIGAND FREE ENERGY PREDICTED BY IDOCK:   10.60 KCAL/MOL
REMARK 927      BINDING AFFINITY PREDICTED BY RF-SCORE:    0.00 PKD
ROOT
HETATM    1  C   UNL     1      -8.374   5.552  70.893  1.00  0.00    -0.120 C  
HETATM    2  C   UNL     1      -9.437   6.174  71.783  1.00  0.00    -0.162 C  
ENDROOT
BRANCH   2   3
HETATM    3  C   UNL     1     -10.533   5.171  72.115  1.00  0.00    -0.281 C  
BRANCH   3   4
HETATM    4  C   UNL     1     -11.470   4.967  70.950  1.00  0.00     1.475 C  
HETATM    5  O   UNL     1     -12.477   5.624  70.726  1.00  0.00     1.569 OA 
BRANCH   4   6
HETATM    6  O   UNL     1     -10.980   3.981  70.162  1.00  0.00     1.894 OA 
BRANCH   6   7
HETATM    7  C   UNL     1      -9.626   4.139  69.764  1.00  0.00    -0.211 C  
BRANCH   7   8
HETATM    8  O   UNL     1      -9.387   4.870  68.562  1.00  0.00    -0.118 OA 
BRANCH   8   9
HETATM    9  C   UNL     1      -8.635   5.982  68.653  1.00  0.00    -0.112 C  
HETATM   10  O   UNL     1      -7.606   6.072  69.302  1.00  0.00    -0.089 OA 
BRANCH   9  11
HETATM   11  C   UNL     1      -9.325   7.144  68.000  1.00  0.00    -0.129 C  
HETATM   12  C   UNL     1      -9.527   7.266  66.662  1.00  0.00    -0.177 C  
HETATM   13  N   UNL     1     -10.322   8.290  66.183  1.00  0.00     0.218 NA 
HETATM   14  C   UNL     1      -8.990   6.394  65.544  1.00  0.00     0.038 C  
HETATM   15  C   UNL     1     -10.822   9.338  66.925  1.00  0.00     0.041 C  
HETATM   16  C   UNL     1     -10.661   9.352  68.268  1.00  0.00    -0.256 C  
HETATM   17  C   UNL     1     -11.523  10.408  66.123  1.00  0.00     1.118 C  
HETATM   18  C   UNL     1      -9.967   8.173  68.983  1.00  0.00    -0.191 C  
BRANCH  16  19
HETATM   19  C   UNL     1     -11.115  10.549  69.030  1.00  0.00    -0.249 C  
HETATM   20  O   UNL     1     -11.874  10.508  69.987  1.00  0.00    -0.274 OA 
BRANCH  19  21
HETATM   21  O   UNL     1     -10.608  11.694  68.508  1.00  0.00    -0.200 OA 
HETATM   22  C   UNL     1     -10.770  12.832  69.360  1.00  0.00     0.197 C  
ENDBRANCH  19  21
ENDBRANCH  16  19
BRANCH  18  23
HETATM   23  C   UNL     1      -8.982   8.666  70.053  1.00  0.00    -0.148 A  
HETATM   24  C   UNL     1      -9.345   8.548  71.408  1.00  0.00    -0.274 A  
HETATM   25  C   UNL     1      -8.482   8.958  72.419  1.00  0.00     0.194 A  
HETATM   26  C   UNL     1      -7.228   9.487  72.098  1.00  0.00     0.957 A  
HETATM   27  C   UNL     1      -6.850   9.628  70.759  1.00  0.00    -0.086 A  
HETATM   28 CL   UNL     1      -5.279  10.292  70.454  1.00  0.00    -0.044 Cl 
HETATM   29  C   UNL     1      -7.717   9.223  69.731  1.00  0.00    -0.096 A  
HETATM   30 CL   UNL     1      -7.215   9.404  68.074  1.00  0.00    -0.078 Cl 
ENDBRANCH  18  23
ENDBRANCH   9  11
ENDBRANCH   8   9
ENDBRANCH   7   8
ENDBRANCH   6   7
ENDBRANCH   4   6
ENDBRANCH   3   4
ENDBRANCH   2   3
TORSDOF 10
ENDMDL
MODEL      275
REMARK 921   NORMALIZED FREE ENERGY PREDICTED BY IDOCK:   10.87 KCAL/MOL
REMARK 922        TOTAL FREE ENERGY PREDICTED BY IDOCK:   15.82 KCAL/MOL
REMARK 923 INTER-LIGAND FREE ENERGY PREDICTED BY IDOCK:    3.79 KCAL/MOL
REMARK 924 INTRA-LIGAND FREE ENERGY PREDICTED BY IDOCK:   12.03 KCAL/MOL
REMARK 927      BINDING AFFINITY PREDICTED BY RF-SCORE:    0.00 PKD
ROOT
HETATM    1  C   UNL     1      -5.888  15.561  70.781  1.00  0.00     0.069 C  
HETATM    2  C   UNL     1      -5.193  14.631  69.801  1.00  0.00    -0.092 C  
ENDROOT
BRANCH   2   3
HETATM    3  C   UNL     1      -5.667  13.194  69.974  1.00  0.00    -0.131 C  
BRANCH   3   4
HETATM    4  C   UNL     1      -6.735  12.838  68.971  1.00  0.00    -0.096 C  
HETATM    5  O   UNL     1      -7.125  11.706  68.720  1.00  0.00    -0.092 OA 
BRANCH   4   6
HETATM    6  O   UNL     1      -7.236  13.979  68.441  1.00  0.00    -0.090 OA 
BRANCH   6   7
HETATM    7  C   UNL     1      -8.264  13.800  67.478  1.00  0.00    -0.188 C  
BRANCH   7   8
HETATM    8  O   UNL     1      -9.526  14.403  67.761  1.00  0.00    -0.204 OA 
BRANCH   8   9
HETATM    9  C   UNL     1     -10.440  14.418  66.773  1.00  0.00    -0.273 C  
HETATM   10  O   UNL     1     -10.942  13.423  66.279  1.00  0.00    -0.286 OA 
BRANCH   9  11
HETATM   11  C   UNL     1     -10.621  15.809  66.239  1.00  0.00    -0.313 C  
HETATM   12  C   UNL     1     -10.976  16.101  64.960  1.00  0.00    -0.344 C  
HETATM   13  N   UNL     1     -11.281  17.406  64.619  1.00  0.00    -0.824 NA 
HETATM   14  C   UNL     1     -11.107  15.160  63.779  1.00  0.00     1.305 C  
HETATM   15  C   UNL     1     -11.103  18.512  65.420  1.00  0.00     0.731 C  
HETATM   16  C   UNL     1     -10.720  18.358  66.709  1.00  0.00    -0.274 C  
HETATM   17  C   UNL     1     -11.361  19.836  64.743  1.00  0.00     1.981 C  
HETATM   18  C   UNL     1     -10.533  16.946  67.304  1.00  0.00    -0.301 C  
BRANCH  16  19
HETATM   19  C   UNL     1     -10.430  19.575  67.518  1.00  0.00    -0.472 C  
HETATM   20  O   UNL     1     -10.233  20.684  67.047  1.00  0.00    -0.316 OA 
BRANCH  19  21
HETATM   21  O   UNL     1     -10.379  19.291  68.844  1.00  0.00    -0.308 OA 
HETATM   22  C   UNL     1     -10.292  20.452  69.675  1.00  0.00     0.405 C  
ENDBRANCH  19  21
ENDBRANCH  16  19
BRANCH  18  23
HETATM   23  C   UNL     1      -9.260  16.862  68.160  1.00  0.00    -0.234 A  
HETATM   24  C   UNL     1      -8.091  17.490  67.691  1.00  0.00    -0.211 A  
HETATM   25  C   UNL     1      -6.917  17.464  68.436  1.00  0.00    -0.201 A  
HETATM   26  C   UNL     1      -6.887  16.817  69.676  1.00  0.00    -0.032 A  
HETATM   27  C   UNL     1      -8.032  16.174  70.156  1.00  0.00     1.221 A  
HETATM   28 CL   UNL     1      -7.905  15.400  71.701  1.00  0.00     3.841 Cl 
HETATM   29  C   UNL     1      -9.221  16.189  69.409  1.00  0.00    -0.170 A  
HETATM   30 CL   UNL     1     -10.632  15.386  70.038  1.00  0.00    -0.312 Cl 
ENDBRANCH  18  23
ENDBRANCH   9  11
ENDBRANCH   8   9
ENDBRANCH   7   8
ENDBRANCH   6   7
ENDBRANCH   4   6
ENDBRANCH   3   4
ENDBRANCH   2   3
TORSDOF 10
ENDMDL
MODEL      276
REMARK 921   NORMALIZED FREE ENERGY PREDICTED BY IDOCK:   11.22 KCAL/MOL
REMARK 922        TOTAL FREE ENERGY PREDICTED BY IDOCK:   16.37 KCAL/MOL
REMARK 923 INTER-LIGAND FREE ENERGY PREDICTED BY IDOCK:   13.10 KCAL/MOL
REMARK 924 INTRA-LIGAND FREE ENERGY PREDICTED BY IDOCK:    3.27 KCAL/MOL
REMARK 927      BINDING AFFINITY PREDICTED BY RF-SCORE:    0.00 PKD
ROOT
HETATM    1  C   UNL     1     -14.010  14.521  71.503  1.00  0.00    -0.487 C  
HETATM    2  C   UNL     1     -13.400  15.113  70.244  1.00  0.00     0.049 C  
ENDROOT
BRANCH   2   3
HETATM    3  C   UNL     1     -12.108  14.400  69.870  1.00  0.00    -0.398 C  
BRANCH   3   4
HETATM    4  C   UNL     1     -12.264  12.901  69.937  1.00  0.00    -0.188 C  
HETATM    5  O   UNL     1     -13.117  12.249  69.352  1.00  0.00     1.129 OA 
BRANCH   4   6
HETATM    6  O   UNL     1     -11.268  12.391  70.699  1.00  0.00     0.782 OA 
BRANCH   6   7
HETATM    7  C   UNL     1     -10.251  13.312  71.063  1.00  0.00     5.948 C  
BRANCH   7   8
HETATM    8  O   UNL     1      -9.994  14.383  70.154  1.00  0.00     0.533 OA 
BRANCH   8   9
HETATM    9  C   UNL     1      -8.869  14.313  69.418  1.00  0.00     0.422 C  
HETATM   10  O   UNL     1      -7.743  14.231  69.880  1.00  0.00     0.266 OA 
BRANCH   9  11
HETATM   11  C   UNL     1      -9.171  14.533  67.965  1.00  0.00    -0.190 C  
HETATM   12  C   UNL     1      -8.963  13.611  66.988  1.00  0.00    -0.236 C  
HETATM   13  N   UNL     1      -9.434  13.853  65.711  1.00  0.00    -0.071 NA 
HETATM   14  C   UNL     1      -8.260  12.271  67.090  1.00  0.00    -0.179 C  
HETATM   15  C   UNL     1      -9.969  15.039  65.260  1.00  0.00    -0.290 C  
HETATM   16  C   UNL     1     -10.198  16.051  66.128  1.00  0.00    -0.340 C  
HETATM   17  C   UNL     1     -10.252  15.087  63.778  1.00  0.00     3.824 C  
HETATM   18  C   UNL     1      -9.913  15.866  67.635  1.00  0.00    -0.237 C  
BRANCH  16  19
HETATM   19  C   UNL     1     -10.675  17.357  65.595  1.00  0.00    -0.111 C  
HETATM   20  O   UNL     1     -11.613  17.484  64.822  1.00  0.00    -0.135 OA 
BRANCH  19  21
HETATM   21  O   UNL     1      -9.916  18.387  66.047  1.00  0.00    -0.493 OA 
HETATM   22  C   UNL     1      -8.892  18.788  65.131  1.00  0.00     2.406 C  
ENDBRANCH  19  21
ENDBRANCH  16  19
BRANCH  18  23
HETATM   23  C   UNL     1      -9.214  17.098  68.229  1.00  0.00    -0.262 A  
HETATM   24  C   UNL     1      -7.815  17.069  68.381  1.00  0.00    -0.233 A  
HETATM   25  C   UNL     1      -7.128  18.165  68.894  1.00  0.00    -0.282 A  
HETATM   26  C   UNL     1      -7.825  19.322  69.256  1.00  0.00    -0.155 A  
HETATM   27  C   UNL     1      -9.216  19.370  69.126  1.00  0.00    -0.177 A  
HETATM   28 CL   UNL     1      -9.997  20.843  69.598  1.00  0.00     0.848 Cl 
HETATM   29  C   UNL     1      -9.920  18.266  68.617  1.00  0.00    -0.389 A  
HETATM   30 CL   UNL     1     -11.652  18.358  68.461  1.00  0.00     1.751 Cl 
ENDBRANCH  18  23
ENDBRANCH   9  11
ENDBRANCH   8   9
ENDBRANCH   7   8
ENDBRANCH   6   7
ENDBRANCH   4   6
ENDBRANCH   3   4
ENDBRANCH   2   3
TORSDOF 10
ENDMDL
MODEL      277
REMARK 921   NORMALIZED FREE ENERGY PREDICTED BY IDOCK:   12.46 KCAL/MOL
REMARK 922        TOTAL FREE ENERGY PREDICTED BY IDOCK:   18.34 KCAL/MOL
REMARK 923 INTER-LIGAND FREE ENERGY PREDICTED BY IDOCK:    1.91 KCAL/MOL
REMARK 924 INTRA-LIGAND FREE ENERGY PREDICTED BY IDOCK:   16.44 KCAL/MOL
REMARK 927      BINDING AFFINITY PREDICTED BY RF-SCORE:    0.00 PKD
ROOT
HETATM    1  C   UNL     1     -12.717   7.376  70.500  1.00  0.00     0.196 C  
HETATM    2  C   UNL     1     -11.237   7.668  70.677  1.00  0.00    -0.280 C  
ENDROOT
BRANCH   2   3
HETATM    3  C   UNL     1     -10.548   6.564  71.467  1.00  0.00    -0.265 C  
BRANCH   3   4
HETATM    4  C   UNL     1     -10.641   6.804  72.953  1.00  0.00    -0.250 C  
HETATM    5  O   UNL     1     -11.453   6.287  73.707  1.00  0.00     0.486 OA 
BRANCH   4   6
HETATM    6  O   UNL     1      -9.641   7.638  73.325  1.00  0.00    -0.219 OA 
BRANCH   6   7
HETATM    7  C   UNL     1      -9.245   8.584  72.343  1.00  0.00    -0.258 C  
BRANCH   7   8
HETATM    8  O   UNL     1      -7.843   8.799  72.181  1.00  0.00    -0.325 OA 
BRANCH   8   9
HETATM    9  C   UNL     1      -7.306   8.503  70.982  1.00  0.00    -0.074 C  
HETATM   10  O   UNL     1      -6.111   8.403  70.765  1.00  0.00    -0.032 OA 
BRANCH   9  11
HETATM   11  C   UNL     1      -8.362   8.493  69.916  1.00  0.00    -0.123 C  
HETATM   12  C   UNL     1      -9.029   7.382  69.505  1.00  0.00    -0.144 C  
HETATM   13  N   UNL     1     -10.099   7.511  68.639  1.00  0.00    -0.179 NA 
HETATM   14  C   UNL     1      -8.773   5.935  69.879  1.00  0.00    -0.129 C  
HETATM   15  C   UNL     1     -10.480   8.668  67.994  1.00  0.00    -0.197 C  
HETATM   16  C   UNL     1      -9.871   9.839  68.291  1.00  0.00    -0.167 C  
HETATM   17  C   UNL     1     -11.581   8.495  66.976  1.00  0.00     2.670 C  
HETATM   18  C   UNL     1      -8.788   9.899  69.389  1.00  0.00    -0.195 C  
BRANCH  16  19
HETATM   19  C   UNL     1     -10.227  11.050  67.500  1.00  0.00    -0.188 C  
HETATM   20  O   UNL     1      -9.902  11.232  66.337  1.00  0.00    -0.201 OA 
BRANCH  19  21
HETATM   21  O   UNL     1     -10.929  11.942  68.244  1.00  0.00    -0.204 OA 
HETATM   22  C   UNL     1     -10.851  11.700  69.652  1.00  0.00     0.060 C  
ENDBRANCH  19  21
ENDBRANCH  16  19
BRANCH  18  23
HETATM   23  C   UNL     1      -7.591  10.756  68.951  1.00  0.00    -0.121 A  
HETATM   24  C   UNL     1      -6.680  11.192  69.932  1.00  0.00    -0.098 A  
HETATM   25  C   UNL     1      -5.567  11.952  69.589  1.00  0.00    -0.084 A  
HETATM   26  C   UNL     1      -5.332  12.285  68.251  1.00  0.00    -0.056 A  
HETATM   27  C   UNL     1      -6.229  11.875  67.260  1.00  0.00    -0.140 A  
HETATM   28 CL   UNL     1      -5.858  12.332  65.630  1.00  0.00     2.663 Cl 
HETATM   29  C   UNL     1      -7.360  11.114  67.597  1.00  0.00    -0.095 A  
HETATM   30 CL   UNL     1      -8.455  10.612  66.340  1.00  0.00    -0.146 Cl 
ENDBRANCH  18  23
ENDBRANCH   9  11
ENDBRANCH   8   9
ENDBRANCH   7   8
ENDBRANCH   6   7
ENDBRANCH   4   6
ENDBRANCH   3   4
ENDBRANCH   2   3
TORSDOF 10
ENDMDL
MODEL      278
REMARK 921   NORMALIZED FREE ENERGY PREDICTED BY IDOCK:   13.46 KCAL/MOL
REMARK 922        TOTAL FREE ENERGY PREDICTED BY IDOCK:   19.93 KCAL/MOL
REMARK 923 INTER-LIGAND FREE ENERGY PREDICTED BY IDOCK:   11.86 KCAL/MOL
REMARK 924 INTRA-LIGAND FREE ENERGY PREDICTED BY IDOCK:    8.07 KCAL/MOL
REMARK 927      BINDING AFFINITY PREDICTED BY RF-SCORE:    0.00 PKD
ROOT
HETATM    1  C   UNL     1      -7.317   7.391  73.802  1.00  0.00    -0.116 C  
HETATM    2  C   UNL     1      -6.081   8.232  74.075  1.00  0.00    -0.119 C  
ENDROOT
BRANCH   2   3
HETATM    3  C   UNL     1      -5.160   8.268  72.863  1.00  0.00    -0.038 C  
BRANCH   3   4
HETATM    4  C   UNL     1      -5.544   9.371  71.909  1.00  0.00    -0.065 C  
HETATM    5  O   UNL     1      -5.126   9.499  70.767  1.00  0.00    -0.027 OA 
BRANCH   4   6
HETATM    6  O   UNL     1      -6.472  10.159  72.501  1.00  0.00     0.591 OA 
BRANCH   6   7
HETATM    7  C   UNL     1      -6.848  11.313  71.762  1.00  0.00     4.429 C  
BRANCH   7   8
HETATM    8  O   UNL     1      -7.749  11.117  70.673  1.00  0.00     1.275 OA 
BRANCH   8   9
HETATM    9  C   UNL     1      -7.257  10.548  69.557  1.00  0.00    -0.137 C  
HETATM   10  O   UNL     1      -6.091  10.606  69.207  1.00  0.00    -0.041 OA 
BRANCH   9  11
HETATM   11  C   UNL     1      -8.366   9.993  68.712  1.00  0.00    -0.121 C  
HETATM   12  C   UNL     1      -8.295   8.822  68.025  1.00  0.00    -0.119 C  
HETATM   13  N   UNL     1      -9.431   8.320  67.417  1.00  0.00    -0.147 NA 
HETATM   14  C   UNL     1      -7.094   7.921  67.817  1.00  0.00    -0.086 C  
HETATM   15  C   UNL     1     -10.634   8.978  67.287  1.00  0.00    -0.231 C  
HETATM   16  C   UNL     1     -10.822  10.170  67.898  1.00  0.00    -0.336 C  
HETATM   17  C   UNL     1     -11.658   8.268  66.434  1.00  0.00     4.238 C  
HETATM   18  C   UNL     1      -9.714  10.774  68.787  1.00  0.00    -0.197 C  
BRANCH  16  19
HETATM   19  C   UNL     1     -12.093  10.908  67.650  1.00  0.00     0.946 C  
HETATM   20  O   UNL     1     -13.101  10.789  68.329  1.00  0.00     2.459 OA 
BRANCH  19  21
HETATM   21  O   UNL     1     -12.002  11.703  66.555  1.00  0.00    -0.474 OA 
HETATM   22  C   UNL     1     -12.914  12.805  66.570  1.00  0.00     1.861 C  
ENDBRANCH  19  21
ENDBRANCH  16  19
BRANCH  18  23
HETATM   23  C   UNL     1      -9.545  12.279  68.527  1.00  0.00    -0.128 A  
HETATM   24  C   UNL     1      -8.293  12.749  68.088  1.00  0.00    -0.172 A  
HETATM   25  C   UNL     1      -8.089  14.098  67.816  1.00  0.00    -0.170 A  
HETATM   26  C   UNL     1      -9.139  15.009  67.967  1.00  0.00    -0.178 A  
HETATM   27  C   UNL     1     -10.388  14.568  68.415  1.00  0.00    -0.241 A  
HETATM   28 CL   UNL     1     -11.631  15.766  68.571  1.00  0.00    -0.379 Cl 
HETATM   29  C   UNL     1     -10.602  13.209  68.698  1.00  0.00    -0.239 A  
HETATM   30 CL   UNL     1     -12.171  12.690  69.247  1.00  0.00    -0.180 Cl 
ENDBRANCH  18  23
ENDBRANCH   9  11
ENDBRANCH   8   9
ENDBRANCH   7   8
ENDBRANCH   6   7
ENDBRANCH   4   6
ENDBRANCH   3   4
ENDBRANCH   2   3
TORSDOF 10
ENDMDL
MODEL      279
REMARK 921   NORMALIZED FREE ENERGY PREDICTED BY IDOCK:   16.32 KCAL/MOL
REMARK 922        TOTAL FREE ENERGY PREDICTED BY IDOCK:   24.45 KCAL/MOL
REMARK 923 INTER-LIGAND FREE ENERGY PREDICTED BY IDOCK:   22.33 KCAL/MOL
REMARK 924 INTRA-LIGAND FREE ENERGY PREDICTED BY IDOCK:    2.13 KCAL/MOL
REMARK 927      BINDING AFFINITY PREDICTED BY RF-SCORE:    0.00 PKD
ROOT
HETATM    1  C   UNL     1      -9.445   9.183  72.395  1.00  0.00     0.650 C  
HETATM    2  C   UNL     1     -10.381  10.168  71.714  1.00  0.00     2.271 C  
ENDROOT
BRANCH   2   3
HETATM    3  C   UNL     1     -11.827   9.927  72.124  1.00  0.00     0.347 C  
BRANCH   3   4
HETATM    4  C   UNL     1     -12.787  10.329  71.032  1.00  0.00    -0.397 C  
HETATM    5  O   UNL     1     -13.976  10.046  70.992  1.00  0.00    -0.017 OA 
BRANCH   4   6
HETATM    6  O   UNL     1     -12.131  11.105  70.137  1.00  0.00    -0.305 OA 
BRANCH   6   7
HETATM    7  C   UNL     1     -11.485  12.246  70.683  1.00  0.00     0.804 C  
BRANCH   7   8
HETATM    8  O   UNL     1     -10.333  12.729  69.993  1.00  0.00     1.231 OA 
BRANCH   8   9
HETATM    9  C   UNL     1      -9.984  12.099  68.856  1.00  0.00     0.043 C  
HETATM   10  O   UNL     1      -9.424  11.017  68.808  1.00  0.00    -0.189 OA 
BRANCH   9  11
HETATM   11  C   UNL     1     -10.210  12.986  67.666  1.00  0.00    -0.216 C  
HETATM   12  C   UNL     1     -11.431  13.269  67.140  1.00  0.00    -0.341 C  
HETATM   13  N   UNL     1     -11.540  14.230  66.152  1.00  0.00    -0.359 NA 
HETATM   14  C   UNL     1     -12.775  12.665  67.496  1.00  0.00     1.697 C  
HETATM   15  C   UNL     1     -10.491  14.843  65.503  1.00  0.00    -0.360 C  
HETATM   16  C   UNL     1      -9.221  14.620  65.911  1.00  0.00    -0.035 C  
HETATM   17  C   UNL     1     -10.889  15.734  64.351  1.00  0.00     0.115 C  
HETATM   18  C   UNL     1      -8.941  13.724  67.137  1.00  0.00    -0.241 C  
BRANCH  16  19
HETATM   19  C   UNL     1      -8.102  15.208  65.122  1.00  0.00     5.717 C  
HETATM   20  O   UNL     1      -7.662  14.727  64.089  1.00  0.00    12.026 OA 
BRANCH  19  21
HETATM   21  O   UNL     1      -7.610  16.326  65.712  1.00  0.00     0.549 OA 
HETATM   22  C   UNL     1      -8.623  17.238  66.145  1.00  0.00    -0.172 C  
ENDBRANCH  19  21
ENDBRANCH  16  19
BRANCH  18  23
HETATM   23  C   UNL     1      -7.764  12.771  66.880  1.00  0.00     0.113 A  
HETATM   24  C   UNL     1      -6.487  13.137  67.347  1.00  0.00    -0.079 A  
HETATM   25  C   UNL     1      -5.390  12.302  67.161  1.00  0.00    -0.063 A  
HETATM   26  C   UNL     1      -5.547  11.073  66.512  1.00  0.00    -0.113 A  
HETATM   27  C   UNL     1      -6.802  10.694  66.027  1.00  0.00    -0.129 A  
HETATM   28 CL   UNL     1      -6.905   9.155  65.236  1.00  0.00    -0.076 Cl 
HETATM   29  C   UNL     1      -7.915  11.533  66.203  1.00  0.00     0.093 A  
HETATM   30 CL   UNL     1      -9.466  11.029  65.594  1.00  0.00    -0.234 Cl 
ENDBRANCH  18  23
ENDBRANCH   9  11
ENDBRANCH   8   9
ENDBRANCH   7   8
ENDBRANCH   6   7
ENDBRANCH   4   6
ENDBRANCH   3   4
ENDBRANCH   2   3
TORSDOF 10
ENDMDL
MODEL      280
REMARK 921   NORMALIZED FREE ENERGY PREDICTED BY IDOCK:   22.93 KCAL/MOL
REMARK 922        TOTAL FREE ENERGY PREDICTED BY IDOCK:   34.93 KCAL/MOL
REMARK 923 INTER-LIGAND FREE ENERGY PREDICTED BY IDOCK:   26.46 KCAL/MOL
REMARK 924 INTRA-LIGAND FREE ENERGY PREDICTED BY IDOCK:    8.47 KCAL/MOL
REMARK 927      BINDING AFFINITY PREDICTED BY RF-SCORE:    0.00 PKD
ROOT
HETATM    1  C   UNL     1      -8.525  16.981  72.666  1.00  0.00    17.054 C  
HETATM    2  C   UNL     1      -9.095  16.640  71.300  1.00  0.00     6.270 C  
ENDROOT
BRANCH   2   3
HETATM    3  C   UNL     1      -8.138  17.044  70.187  1.00  0.00     2.226 C  
BRANCH   3   4
HETATM    4  C   UNL     1      -6.700  16.965  70.636  1.00  0.00     1.736 C  
HETATM    5  O   UNL     1      -6.256  17.422  71.680  1.00  0.00     1.801 OA 
BRANCH   4   6
HETATM    6  O   UNL     1      -5.996  16.253  69.725  1.00  0.00    -0.170 OA 
BRANCH   6   7
HETATM    7  C   UNL     1      -6.521  14.969  69.422  1.00  0.00    -0.135 C  
BRANCH   7   8
HETATM    8  O   UNL     1      -7.525  14.904  68.410  1.00  0.00    -0.106 OA 
BRANCH   8   9
HETATM    9  C   UNL     1      -8.360  13.848  68.433  1.00  0.00    -0.157 C  
HETATM   10  O   UNL     1      -9.576  13.928  68.489  1.00  0.00    -0.213 OA 
BRANCH   9  11
HETATM   11  C   UNL     1      -7.591  12.566  68.566  1.00  0.00    -0.119 C  
HETATM   12  C   UNL     1      -6.243  12.491  68.719  1.00  0.00    -0.074 C  
HETATM   13  N   UNL     1      -5.656  11.271  69.003  1.00  0.00    -0.040 NA 
HETATM   14  C   UNL     1      -5.220  13.606  68.633  1.00  0.00    -0.082 C  
HETATM   15  C   UNL     1      -6.291  10.048  68.986  1.00  0.00    -0.044 C  
HETATM   16  C   UNL     1      -7.630   9.984  68.810  1.00  0.00    -0.083 C  
HETATM   17  C   UNL     1      -5.381   8.858  69.171  1.00  0.00    -0.036 C  
HETATM   18  C   UNL     1      -8.464  11.277  68.681  1.00  0.00    -0.143 C  
BRANCH  16  19
HETATM   19  C   UNL     1      -8.272   8.645  68.688  1.00  0.00    -0.121 C  
HETATM   20  O   UNL     1      -7.711   7.588  68.937  1.00  0.00    -0.109 OA 
BRANCH  19  21
HETATM   21  O   UNL     1      -9.546   8.742  68.234  1.00  0.00    -0.143 OA 
HETATM   22  C   UNL     1     -10.050   7.525  67.676  1.00  0.00    -0.187 C  
ENDBRANCH  19  21
ENDBRANCH  16  19
BRANCH  18  23
HETATM   23  C   UNL     1      -9.507  11.163  67.560  1.00  0.00    -0.178 A  
HETATM   24  C   UNL     1     -10.850  11.461  67.857  1.00  0.00    -0.274 A  
HETATM   25  C   UNL     1     -11.833  11.396  66.875  1.00  0.00     0.264 A  
HETATM   26  C   UNL     1     -11.492  11.042  65.566  1.00  0.00     0.410 A  
HETATM   27  C   UNL     1     -10.167  10.728  65.248  1.00  0.00    -0.285 A  
HETATM   28 CL   UNL     1      -9.836  10.302  63.602  1.00  0.00    -0.285 Cl 
HETATM   29  C   UNL     1      -9.169  10.784  66.235  1.00  0.00    -0.173 A  
HETATM   30 CL   UNL     1      -7.526  10.396  65.807  1.00  0.00    -0.143 Cl 
ENDBRANCH  18  23
ENDBRANCH   9  11
ENDBRANCH   8   9
ENDBRANCH   7   8
ENDBRANCH   6   7
ENDBRANCH   4   6
ENDBRANCH   3   4
ENDBRANCH   2   3
TORSDOF 10
ENDMDL
MODEL      281
REMARK 921   NORMALIZED FREE ENERGY PREDICTED BY IDOCK:   23.71 KCAL/MOL
REMARK 922        TOTAL FREE ENERGY PREDICTED BY IDOCK:   36.17 KCAL/MOL
REMARK 923 INTER-LIGAND FREE ENERGY PREDICTED BY IDOCK:   12.32 KCAL/MOL
REMARK 924 INTRA-LIGAND FREE ENERGY PREDICTED BY IDOCK:   23.86 KCAL/MOL
REMARK 927      BINDING AFFINITY PREDICTED BY RF-SCORE:    0.00 PKD
ROOT
HETATM    1  C   UNL     1     -10.673  14.605  67.548  1.00  0.00    -0.268 C  
HETATM    2  C   UNL     1      -9.587  13.550  67.672  1.00  0.00    -0.222 C  
ENDROOT
BRANCH   2   3
HETATM    3  C   UNL     1     -10.041  12.220  67.088  1.00  0.00    -0.218 C  
BRANCH   3   4
HETATM    4  C   UNL     1     -10.880  11.440  68.070  1.00  0.00    -0.217 C  
HETATM    5  O   UNL     1     -11.250  10.284  67.926  1.00  0.00    -0.301 OA 
BRANCH   4   6
HETATM    6  O   UNL     1     -11.104  12.209  69.161  1.00  0.00    -0.232 OA 
BRANCH   6   7
HETATM    7  C   UNL     1     -11.849  13.395  68.925  1.00  0.00    -0.334 C  
BRANCH   7   8
HETATM    8  O   UNL     1     -12.099  14.237  70.050  1.00  0.00    -0.300 OA 
BRANCH   8   9
HETATM    9  C   UNL     1     -11.219  15.227  70.289  1.00  0.00    -0.297 C  
HETATM   10  O   UNL     1     -10.465  15.267  71.248  1.00  0.00     0.062 OA 
BRANCH   9  11
HETATM   11  C   UNL     1     -11.416  16.358  69.323  1.00  0.00    -0.165 C  
HETATM   12  C   UNL     1     -12.487  16.483  68.495  1.00  0.00     1.696 C  
HETATM   13  N   UNL     1     -12.654  17.648  67.769  1.00  0.00     3.635 NA 
HETATM   14  C   UNL     1     -13.601  15.488  68.236  1.00  0.00     5.276 C  
HETATM   15  C   UNL     1     -11.737  18.670  67.663  1.00  0.00     1.707 C  
HETATM   16  C   UNL     1     -10.611  18.649  68.412  1.00  0.00    -0.132 C  
HETATM   17  C   UNL     1     -12.102  19.751  66.674  1.00  0.00     2.691 C  
HETATM   18  C   UNL     1     -10.371  17.512  69.428  1.00  0.00    -0.067 C  
BRANCH  16  19
HETATM   19  C   UNL     1      -9.589  19.711  68.196  1.00  0.00    -0.377 C  
HETATM   20  O   UNL     1      -8.564  19.557  67.548  1.00  0.00    -0.292 OA 
BRANCH  19  21
HETATM   21  O   UNL     1      -9.919  20.860  68.837  1.00  0.00     0.465 OA 
HETATM   22  C   UNL     1     -10.012  20.717  70.257  1.00  0.00     1.278 C  
ENDBRANCH  19  21
ENDBRANCH  16  19
BRANCH  18  23
HETATM   23  C   UNL     1      -8.921  17.007  69.374  1.00  0.00     0.249 A  
HETATM   24  C   UNL     1      -8.673  15.644  69.621  1.00  0.00    -0.100 A  
HETATM   25  C   UNL     1      -7.383  15.129  69.563  1.00  0.00    -0.210 A  
HETATM   26  C   UNL     1      -6.308  15.965  69.244  1.00  0.00    -0.153 A  
HETATM   27  C   UNL     1      -6.527  17.325  69.007  1.00  0.00    -0.221 A  
HETATM   28 CL   UNL     1      -5.139  18.286  68.618  1.00  0.00    -0.163 Cl 
HETATM   29  C   UNL     1      -7.826  17.857  69.070  1.00  0.00    -0.088 A  
HETATM   30 CL   UNL     1      -8.067  19.554  68.763  1.00  0.00    -0.386 Cl 
ENDBRANCH  18  23
ENDBRANCH   9  11
ENDBRANCH   8   9
ENDBRANCH   7   8
ENDBRANCH   6   7
ENDBRANCH   4   6
ENDBRANCH   3   4
ENDBRANCH   2   3
TORSDOF 10
ENDMDL
MODEL      282
REMARK 921   NORMALIZED FREE ENERGY PREDICTED BY IDOCK:   23.98 KCAL/MOL
REMARK 922        TOTAL FREE ENERGY PREDICTED BY IDOCK:   36.60 KCAL/MOL
REMARK 923 INTER-LIGAND FREE ENERGY PREDICTED BY IDOCK:   21.18 KCAL/MOL
REMARK 924 INTRA-LIGAND FREE ENERGY PREDICTED BY IDOCK:   15.42 KCAL/MOL
REMARK 927      BINDING AFFINITY PREDICTED BY RF-SCORE:    0.00 PKD
ROOT
HETATM    1  C   UNL     1      -7.352   7.408  73.824  1.00  0.00    -0.116 C  
HETATM    2  C   UNL     1      -6.205   8.340  74.176  1.00  0.00    -0.129 C  
ENDROOT
BRANCH   2   3
HETATM    3  C   UNL     1      -5.342   8.637  72.958  1.00  0.00    -0.059 C  
BRANCH   3   4
HETATM    4  C   UNL     1      -5.755   9.923  72.287  1.00  0.00     0.274 C  
HETATM    5  O   UNL     1      -5.377  10.304  71.188  1.00  0.00    -0.076 OA 
BRANCH   4   6
HETATM    6  O   UNL     1      -6.659  10.556  73.072  1.00  0.00     1.975 OA 
BRANCH   6   7
HETATM    7  C   UNL     1      -7.031  11.857  72.640  1.00  0.00     9.007 C  
BRANCH   7   8
HETATM    8  O   UNL     1      -7.932  11.939  71.536  1.00  0.00     8.219 OA 
BRANCH   8   9
HETATM    9  C   UNL     1      -7.455  11.604  70.322  1.00  0.00     1.908 C  
HETATM   10  O   UNL     1      -6.277  11.638  70.008  1.00  0.00    -0.142 OA 
BRANCH   9  11
HETATM   11  C   UNL     1      -8.580  11.360  69.359  1.00  0.00     0.482 C  
HETATM   12  C   UNL     1      -9.387  12.333  68.859  1.00  0.00     0.243 C  
HETATM   13  N   UNL     1     -10.280  12.024  67.849  1.00  0.00    -0.191 NA 
HETATM   14  C   UNL     1      -9.457  13.795  69.251  1.00  0.00     0.501 C  
HETATM   15  C   UNL     1     -10.570  10.758  67.388  1.00  0.00    -0.242 C  
HETATM   16  C   UNL     1      -9.858   9.698  67.832  1.00  0.00    -0.182 C  
HETATM   17  C   UNL     1     -11.704  10.688  66.394  1.00  0.00     1.364 C  
HETATM   18  C   UNL     1      -8.684   9.902  68.815  1.00  0.00    -0.132 C  
BRANCH  16  19
HETATM   19  C   UNL     1     -10.265   8.332  67.399  1.00  0.00    -0.258 C  
HETATM   20  O   UNL     1      -9.855   7.779  66.390  1.00  0.00    -0.207 OA 
BRANCH  19  21
HETATM   21  O   UNL     1     -11.174   7.790  68.248  1.00  0.00     0.235 OA 
HETATM   22  C   UNL     1     -11.171   6.359  68.253  1.00  0.00    -0.176 C  
ENDBRANCH  19  21
ENDBRANCH  16  19
BRANCH  18  23
HETATM   23  C   UNL     1      -8.700   8.850  69.934  1.00  0.00    -0.140 A  
HETATM   24  C   UNL     1      -8.697   9.289  71.271  1.00  0.00    -0.031 A  
HETATM   25  C   UNL     1      -8.733   8.381  72.324  1.00  0.00    -0.277 A  
HETATM   26  C   UNL     1      -8.784   7.008  72.063  1.00  0.00    -0.128 A  
HETATM   27  C   UNL     1      -8.774   6.546  70.743  1.00  0.00    -0.143 A  
HETATM   28 CL   UNL     1      -8.840   4.829  70.513  1.00  0.00    -0.133 Cl 
HETATM   29  C   UNL     1      -8.731   7.455  69.673  1.00  0.00    -0.137 A  
HETATM   30 CL   UNL     1      -8.727   6.849  68.041  1.00  0.00    -0.126 Cl 
ENDBRANCH  18  23
ENDBRANCH   9  11
ENDBRANCH   8   9
ENDBRANCH   7   8
ENDBRANCH   6   7
ENDBRANCH   4   6
ENDBRANCH   3   4
ENDBRANCH   2   3
TORSDOF 10
ENDMDL
MODEL      283
REMARK 921   NORMALIZED FREE ENERGY PREDICTED BY IDOCK:   24.09 KCAL/MOL
REMARK 922        TOTAL FREE ENERGY PREDICTED BY IDOCK:   36.77 KCAL/MOL
REMARK 923 INTER-LIGAND FREE ENERGY PREDICTED BY IDOCK:   -2.02 KCAL/MOL
REMARK 924 INTRA-LIGAND FREE ENERGY PREDICTED BY IDOCK:   38.79 KCAL/MOL
REMARK 927      BINDING AFFINITY PREDICTED BY RF-SCORE:    0.00 PKD
ROOT
HETATM    1  C   UNL     1     -12.669   7.466  70.437  1.00  0.00     0.354 C  
HETATM    2  C   UNL     1     -11.318   8.159  70.505  1.00  0.00    -0.222 C  
ENDROOT
BRANCH   2   3
HETATM    3  C   UNL     1     -10.374   7.434  71.453  1.00  0.00    -0.208 C  
BRANCH   3   4
HETATM    4  C   UNL     1     -10.525   7.927  72.871  1.00  0.00    -0.355 C  
HETATM    5  O   UNL     1     -11.384   8.702  73.265  1.00  0.00     0.495 OA 
BRANCH   4   6
HETATM    6  O   UNL     1      -9.593   7.323  73.645  1.00  0.00    -0.219 OA 
BRANCH   6   7
HETATM    7  C   UNL     1      -8.375   7.002  72.990  1.00  0.00    -0.106 C  
BRANCH   7   8
HETATM    8  O   UNL     1      -7.892   5.667  73.140  1.00  0.00    -0.099 OA 
BRANCH   8   9
HETATM    9  C   UNL     1      -8.060   4.828  72.102  1.00  0.00    -0.107 C  
HETATM   10  O   UNL     1      -7.880   3.622  72.150  1.00  0.00    -0.061 OA 
BRANCH   9  11
HETATM   11  C   UNL     1      -8.319   5.593  70.837  1.00  0.00    -0.124 C  
HETATM   12  C   UNL     1      -9.449   6.305  70.588  1.00  0.00    -0.168 C  
HETATM   13  N   UNL     1      -9.514   7.110  69.466  1.00  0.00    -0.151 NA 
HETATM   14  C   UNL     1     -10.725   6.368  71.405  1.00  0.00    -0.290 C  
HETATM   15  C   UNL     1      -8.587   7.148  68.447  1.00  0.00    -0.123 C  
HETATM   16  C   UNL     1      -7.431   6.456  68.558  1.00  0.00    -0.088 C  
HETATM   17  C   UNL     1      -8.983   7.994  67.259  1.00  0.00    -0.148 C  
HETATM   18  C   UNL     1      -7.117   5.664  69.846  1.00  0.00    -0.067 C  
BRANCH  16  19
HETATM   19  C   UNL     1      -6.499   6.428  67.396  1.00  0.00    -0.049 C  
HETATM   20  O   UNL     1      -6.685   5.774  66.380  1.00  0.00    -0.054 OA 
BRANCH  19  21
HETATM   21  O   UNL     1      -5.401   7.192  67.619  1.00  0.00    -0.018 OA 
HETATM   22  C   UNL     1      -5.224   7.552  68.992  1.00  0.00    -0.015 C  
ENDBRANCH  19  21
ENDBRANCH  16  19
BRANCH  18  23
HETATM   23  C   UNL     1      -6.528   4.282  69.525  1.00  0.00    -0.033 A  
HETATM   24  C   UNL     1      -6.233   3.412  70.592  1.00  0.00    -0.019 A  
HETATM   25  C   UNL     1      -5.719   2.141  70.359  1.00  0.00    -0.017 A  
HETATM   26  C   UNL     1      -5.499   1.703  69.048  1.00  0.00    -0.013 A  
HETATM   27  C   UNL     1      -5.772   2.554  67.973  1.00  0.00    -0.019 A  
HETATM   28 CL   UNL     1      -5.470   1.930  66.384  1.00  0.00    -0.012 Cl 
HETATM   29  C   UNL     1      -6.284   3.842  68.198  1.00  0.00    -0.033 A  
HETATM   30 CL   UNL     1      -6.621   4.875  66.837  1.00  0.00    -0.049 Cl 
ENDBRANCH  18  23
ENDBRANCH   9  11
ENDBRANCH   8   9
ENDBRANCH   7   8
ENDBRANCH   6   7
ENDBRANCH   4   6
ENDBRANCH   3   4
ENDBRANCH   2   3
TORSDOF 10
ENDMDL
MODEL      284
REMARK 921   NORMALIZED FREE ENERGY PREDICTED BY IDOCK:   28.92 KCAL/MOL
REMARK 922        TOTAL FREE ENERGY PREDICTED BY IDOCK:   44.43 KCAL/MOL
REMARK 923 INTER-LIGAND FREE ENERGY PREDICTED BY IDOCK:    4.22 KCAL/MOL
REMARK 924 INTRA-LIGAND FREE ENERGY PREDICTED BY IDOCK:   40.21 KCAL/MOL
REMARK 927      BINDING AFFINITY PREDICTED BY RF-SCORE:    0.00 PKD
ROOT
HETATM    1  C   UNL     1     -12.669   7.466  70.437  1.00  0.00     0.354 C  
HETATM    2  C   UNL     1     -11.318   8.159  70.505  1.00  0.00    -0.222 C  
ENDROOT
BRANCH   2   3
HETATM    3  C   UNL     1     -10.374   7.434  71.453  1.00  0.00    -0.208 C  
BRANCH   3   4
HETATM    4  C   UNL     1     -10.525   7.927  72.871  1.00  0.00    -0.355 C  
HETATM    5  O   UNL     1     -11.384   8.702  73.265  1.00  0.00     0.495 OA 
BRANCH   4   6
HETATM    6  O   UNL     1      -9.593   7.323  73.645  1.00  0.00    -0.219 OA 
BRANCH   6   7
HETATM    7  C   UNL     1      -8.375   7.002  72.990  1.00  0.00    -0.106 C  
BRANCH   7   8
HETATM    8  O   UNL     1      -7.892   5.667  73.140  1.00  0.00    -0.099 OA 
BRANCH   8   9
HETATM    9  C   UNL     1      -8.060   4.828  72.102  1.00  0.00    -0.107 C  
HETATM   10  O   UNL     1      -7.212   4.052  71.695  1.00  0.00    -0.050 OA 
BRANCH   9  11
HETATM   11  C   UNL     1      -9.359   5.102  71.402  1.00  0.00    -0.189 C  
HETATM   12  C   UNL     1     -10.585   4.865  71.937  1.00  0.00    -0.116 C  
HETATM   13  N   UNL     1     -11.715   5.312  71.277  1.00  0.00     0.795 NA 
HETATM   14  C   UNL     1     -10.929   4.152  73.230  1.00  0.00    -0.324 C  
HETATM   15  C   UNL     1     -11.748   5.849  70.009  1.00  0.00     0.488 C  
HETATM   16  C   UNL     1     -10.593   6.105  69.353  1.00  0.00    -0.349 C  
HETATM   17  C   UNL     1     -13.132   6.102  69.461  1.00  0.00     6.248 C  
HETATM   18  C   UNL     1      -9.233   5.849  70.038  1.00  0.00    -0.164 C  
BRANCH  16  19
HETATM   19  C   UNL     1     -10.662   6.583  67.943  1.00  0.00    -0.287 C  
HETATM   20  O   UNL     1     -10.939   5.873  66.989  1.00  0.00    -0.297 OA 
BRANCH  19  21
HETATM   21  O   UNL     1     -10.345   7.899  67.847  1.00  0.00    -0.208 OA 
HETATM   22  C   UNL     1      -9.704   8.420  69.015  1.00  0.00    -0.171 C  
ENDBRANCH  19  21
ENDBRANCH  16  19
BRANCH  18  23
HETATM   23  C   UNL     1      -8.240   5.175  69.080  1.00  0.00    -0.088 A  
HETATM   24  C   UNL     1      -6.966   4.826  69.567  1.00  0.00    -0.053 A  
HETATM   25  C   UNL     1      -6.036   4.193  68.750  1.00  0.00    -0.026 A  
HETATM   26  C   UNL     1      -6.362   3.882  67.426  1.00  0.00    -0.037 A  
HETATM   27  C   UNL     1      -7.617   4.230  66.915  1.00  0.00    -0.081 A  
HETATM   28 CL   UNL     1      -7.936   3.806  65.265  1.00  0.00    -0.092 Cl 
HETATM   29  C   UNL     1      -8.560   4.876  67.730  1.00  0.00    -0.103 A  
HETATM   30 CL   UNL     1     -10.116   5.290  67.067  1.00  0.00    -0.211 Cl 
ENDBRANCH  18  23
ENDBRANCH   9  11
ENDBRANCH   8   9
ENDBRANCH   7   8
ENDBRANCH   6   7
ENDBRANCH   4   6
ENDBRANCH   3   4
ENDBRANCH   2   3
TORSDOF 10
ENDMDL
MODEL      285
REMARK 921   NORMALIZED FREE ENERGY PREDICTED BY IDOCK:   36.12 KCAL/MOL
REMARK 922        TOTAL FREE ENERGY PREDICTED BY IDOCK:   55.84 KCAL/MOL
REMARK 923 INTER-LIGAND FREE ENERGY PREDICTED BY IDOCK:   41.25 KCAL/MOL
REMARK 924 INTRA-LIGAND FREE ENERGY PREDICTED BY IDOCK:   14.59 KCAL/MOL
REMARK 927      BINDING AFFINITY PREDICTED BY RF-SCORE:    0.00 PKD
ROOT
HETATM    1  C   UNL     1      -8.584  16.997  72.999  1.00  0.00    18.137 C  
HETATM    2  C   UNL     1      -9.253  16.936  71.636  1.00  0.00     8.643 C  
ENDROOT
BRANCH   2   3
HETATM    3  C   UNL     1      -8.277  17.301  70.526  1.00  0.00     4.074 C  
BRANCH   3   4
HETATM    4  C   UNL     1      -6.878  16.835  70.843  1.00  0.00     2.639 C  
HETATM    5  O   UNL     1      -6.292  17.014  71.901  1.00  0.00     2.608 OA 
BRANCH   4   6
HETATM    6  O   UNL     1      -6.400  16.135  69.787  1.00  0.00    -0.190 OA 
BRANCH   6   7
HETATM    7  C   UNL     1      -7.293  15.173  69.244  1.00  0.00    -0.188 C  
BRANCH   7   8
HETATM    8  O   UNL     1      -6.945  13.800  69.415  1.00  0.00    -0.088 OA 
BRANCH   8   9
HETATM    9  C   UNL     1      -7.370  12.932  68.477  1.00  0.00    -0.115 C  
HETATM   10  O   UNL     1      -6.666  12.094  67.940  1.00  0.00    -0.069 OA 
BRANCH   9  11
HETATM   11  C   UNL     1      -8.772  13.255  68.052  1.00  0.00    -0.186 C  
HETATM   12  C   UNL     1      -9.452  14.370  68.430  1.00  0.00    -0.207 C  
HETATM   13  N   UNL     1     -10.673  14.654  67.846  1.00  0.00    -0.247 NA 
HETATM   14  C   UNL     1      -9.051  15.420  69.447  1.00  0.00    -0.258 C  
HETATM   15  C   UNL     1     -11.381  13.819  67.010  1.00  0.00    -0.326 C  
HETATM   16  C   UNL     1     -10.827  12.660  66.585  1.00  0.00    -0.286 C  
HETATM   17  C   UNL     1     -12.763  14.306  66.646  1.00  0.00     0.211 C  
HETATM   18  C   UNL     1      -9.382  12.292  66.987  1.00  0.00    -0.205 C  
BRANCH  16  19
HETATM   19  C   UNL     1     -11.656  11.727  65.772  1.00  0.00    -0.125 C  
HETATM   20  O   UNL     1     -12.725  12.025  65.260  1.00  0.00    -0.288 OA 
BRANCH  19  21
HETATM   21  O   UNL     1     -11.093  10.495  65.697  1.00  0.00     0.162 OA 
HETATM   22  C   UNL     1     -12.016   9.466  65.330  1.00  0.00     8.774 C  
ENDBRANCH  19  21
ENDBRANCH  16  19
BRANCH  18  23
HETATM   23  C   UNL     1      -9.271  10.814  67.390  1.00  0.00    -0.156 A  
HETATM   24  C   UNL     1      -8.134  10.090  66.986  1.00  0.00    -0.117 A  
HETATM   25  C   UNL     1      -7.970   8.755  67.342  1.00  0.00    -0.098 A  
HETATM   26  C   UNL     1      -8.939   8.114  68.121  1.00  0.00    -0.135 A  
HETATM   27  C   UNL     1     -10.084   8.809  68.523  1.00  0.00    -0.189 A  
HETATM   28 CL   UNL     1     -11.230   7.937  69.488  1.00  0.00     0.026 Cl 
HETATM   29  C   UNL     1     -10.261  10.154  68.164  1.00  0.00    -0.171 A  
HETATM   30 CL   UNL     1     -11.695  10.994  68.686  1.00  0.00    -0.380 Cl 
ENDBRANCH  18  23
ENDBRANCH   9  11
ENDBRANCH   8   9
ENDBRANCH   7   8
ENDBRANCH   6   7
ENDBRANCH   4   6
ENDBRANCH   3   4
ENDBRANCH   2   3
TORSDOF 10
ENDMDL
MODEL      286
REMARK 921   NORMALIZED FREE ENERGY PREDICTED BY IDOCK:   49.70 KCAL/MOL
REMARK 922        TOTAL FREE ENERGY PREDICTED BY IDOCK:   77.35 KCAL/MOL
REMARK 923 INTER-LIGAND FREE ENERGY PREDICTED BY IDOCK:   27.28 KCAL/MOL
REMARK 924 INTRA-LIGAND FREE ENERGY PREDICTED BY IDOCK:   50.07 KCAL/MOL
REMARK 927      BINDING AFFINITY PREDICTED BY RF-SCORE:    0.00 PKD
ROOT
HETATM    1  C   UNL     1      -9.893  15.388  70.195  1.00  0.00     0.006 C  
HETATM    2  C   UNL     1     -10.158  14.824  71.581  1.00  0.00     2.579 C  
ENDROOT
BRANCH   2   3
HETATM    3  C   UNL     1     -11.594  15.083  72.015  1.00  0.00    -0.419 C  
BRANCH   3   4
HETATM    4  C   UNL     1     -11.712  16.361  72.807  1.00  0.00    -0.281 C  
HETATM    5  O   UNL     1     -12.755  16.845  73.225  1.00  0.00     0.154 OA 
BRANCH   4   6
HETATM    6  O   UNL     1     -10.470  16.852  73.034  1.00  0.00     4.131 OA 
BRANCH   6   7
HETATM    7  C   UNL     1      -9.629  16.922  71.891  1.00  0.00     8.175 C  
BRANCH   7   8
HETATM    8  O   UNL     1      -8.982  15.714  71.491  1.00  0.00     3.430 OA 
BRANCH   8   9
HETATM    9  C   UNL     1      -9.308  15.207  70.288  1.00  0.00     0.603 C  
HETATM   10  O   UNL     1     -10.226  14.430  70.090  1.00  0.00     0.365 OA 
BRANCH   9  11
HETATM   11  C   UNL     1      -8.281  15.581  69.259  1.00  0.00    -0.255 C  
HETATM   12  C   UNL     1      -7.182  14.838  68.965  1.00  0.00    -0.135 C  
HETATM   13  N   UNL     1      -6.393  15.186  67.884  1.00  0.00    -0.148 NA 
HETATM   14  C   UNL     1      -6.658  13.605  69.675  1.00  0.00    -0.040 C  
HETATM   15  C   UNL     1      -6.509  16.340  67.139  1.00  0.00    -0.179 C  
HETATM   16  C   UNL     1      -7.545  17.182  67.356  1.00  0.00    -0.188 C  
HETATM   17  C   UNL     1      -5.416  16.551  66.120  1.00  0.00     1.153 C  
HETATM   18  C   UNL     1      -8.631  16.833  68.396  1.00  0.00    -0.235 C  
BRANCH  16  19
HETATM   19  C   UNL     1      -7.584  18.473  66.612  1.00  0.00    -0.238 C  
HETATM   20  O   UNL     1      -6.756  18.813  65.781  1.00  0.00    -0.237 OA 
BRANCH  19  21
HETATM   21  O   UNL     1      -8.635  19.239  66.999  1.00  0.00    -0.272 OA 
HETATM   22  C   UNL     1      -9.862  18.512  67.110  1.00  0.00    -0.319 C  
ENDBRANCH  19  21
ENDBRANCH  16  19
BRANCH  18  23
HETATM   23  C   UNL     1      -9.006  18.055  69.247  1.00  0.00     0.258 A  
HETATM   24  C   UNL     1     -10.363  18.267  69.559  1.00  0.00     0.401 A  
HETATM   25  C   UNL     1     -10.757  19.345  70.345  1.00  0.00     2.071 A  
HETATM   26  C   UNL     1      -9.800  20.232  70.849  1.00  0.00     1.691 A  
HETATM   27  C   UNL     1      -8.448  20.050  70.542  1.00  0.00     1.646 A  
HETATM   28 CL   UNL     1      -7.332  21.196  71.209  1.00  0.00     3.165 Cl 
HETATM   29  C   UNL     1      -8.041  18.969  69.743  1.00  0.00     0.689 A  
HETATM   30 CL   UNL     1      -6.349  18.765  69.384  1.00  0.00    -0.289 Cl 
ENDBRANCH  18  23
ENDBRANCH   9  11
ENDBRANCH   8   9
ENDBRANCH   7   8
ENDBRANCH   6   7
ENDBRANCH   4   6
ENDBRANCH   3   4
ENDBRANCH   2   3
TORSDOF 10
ENDMDL
MODEL      287
REMARK 921   NORMALIZED FREE ENERGY PREDICTED BY IDOCK:   53.32 KCAL/MOL
REMARK 922        TOTAL FREE ENERGY PREDICTED BY IDOCK:   83.09 KCAL/MOL
REMARK 923 INTER-LIGAND FREE ENERGY PREDICTED BY IDOCK:   25.86 KCAL/MOL
REMARK 924 INTRA-LIGAND FREE ENERGY PREDICTED BY IDOCK:   57.23 KCAL/MOL
REMARK 927      BINDING AFFINITY PREDICTED BY RF-SCORE:    0.00 PKD
ROOT
HETATM    1  C   UNL     1      -9.727  20.201  68.889  1.00  0.00    -0.123 C  
HETATM    2  C   UNL     1      -8.988  19.088  69.612  1.00  0.00     0.535 C  
ENDROOT
BRANCH   2   3
HETATM    3  C   UNL     1      -7.948  18.440  68.709  1.00  0.00    -0.278 C  
BRANCH   3   4
HETATM    4  C   UNL     1      -7.940  16.939  68.860  1.00  0.00    -0.224 C  
HETATM    5  O   UNL     1      -7.180  16.172  68.287  1.00  0.00    -0.129 OA 
BRANCH   4   6
HETATM    6  O   UNL     1      -8.870  16.587  69.779  1.00  0.00     0.275 OA 
BRANCH   6   7
HETATM    7  C   UNL     1      -9.789  17.610  70.134  1.00  0.00     1.399 C  
BRANCH   7   8
HETATM    8  O   UNL     1     -10.541  18.200  69.075  1.00  0.00    -0.122 OA 
BRANCH   8   9
HETATM    9  C   UNL     1     -11.355  17.391  68.370  1.00  0.00     0.436 C  
HETATM   10  O   UNL     1     -12.245  17.778  67.631  1.00  0.00     2.203 OA 
BRANCH   9  11
HETATM   11  C   UNL     1     -11.140  15.956  68.754  1.00  0.00    -0.328 C  
HETATM   12  C   UNL     1     -10.203  15.531  69.641  1.00  0.00    -0.286 C  
HETATM   13  N   UNL     1     -10.203  14.210  70.051  1.00  0.00     0.636 NA 
HETATM   14  C   UNL     1      -9.096  16.329  70.300  1.00  0.00     1.533 C  
HETATM   15  C   UNL     1     -10.975  13.200  69.518  1.00  0.00     0.085 C  
HETATM   16  C   UNL     1     -11.925  13.489  68.599  1.00  0.00    -0.378 C  
HETATM   17  C   UNL     1     -10.659  11.818  70.036  1.00  0.00     0.894 C  
HETATM   18  C   UNL     1     -12.189  14.952  68.183  1.00  0.00     0.011 C  
BRANCH  16  19
HETATM   19  C   UNL     1     -12.668  12.366  67.962  1.00  0.00     1.914 C  
HETATM   20  O   UNL     1     -13.731  12.491  67.373  1.00  0.00     5.798 OA 
BRANCH  19  21
HETATM   21  O   UNL     1     -12.034  11.181  68.146  1.00  0.00    -0.615 OA 
HETATM   22  C   UNL     1     -11.680  10.927  69.509  1.00  0.00    -0.328 C  
ENDBRANCH  19  21
ENDBRANCH  16  19
BRANCH  18  23
HETATM   23  C   UNL     1     -12.368  15.079  66.663  1.00  0.00     0.436 A  
HETATM   24  C   UNL     1     -11.839  16.212  66.015  1.00  0.00     1.168 A  
HETATM   25  C   UNL     1     -11.952  16.368  64.638  1.00  0.00     0.642 A  
HETATM   26  C   UNL     1     -12.588  15.386  63.871  1.00  0.00     0.537 A  
HETATM   27  C   UNL     1     -13.133  14.258  64.493  1.00  0.00     0.654 A  
HETATM   28 CL   UNL     1     -13.902  13.093  63.467  1.00  0.00     3.469 Cl 
HETATM   29  C   UNL     1     -13.030  14.095  65.884  1.00  0.00    -0.110 A  
HETATM   30 CL   UNL     1     -13.713  12.676  66.628  1.00  0.00     6.158 Cl 
ENDBRANCH  18  23
ENDBRANCH   9  11
ENDBRANCH   8   9
ENDBRANCH   7   8
ENDBRANCH   6   7
ENDBRANCH   4   6
ENDBRANCH   3   4
ENDBRANCH   2   3
TORSDOF 10
ENDMDL
