MODEL        1
REMARK 921   NORMALIZED FREE ENERGY PREDICTED BY IDOCK:   -7.03 KCAL/MOL
REMARK 922        TOTAL FREE ENERGY PREDICTED BY IDOCK:   -8.93 KCAL/MOL
REMARK 923 INTER-LIGAND FREE ENERGY PREDICTED BY IDOCK:   -7.85 KCAL/MOL
REMARK 924 INTRA-LIGAND FREE ENERGY PREDICTED BY IDOCK:   -1.08 KCAL/MOL
REMARK 927      BINDING AFFINITY PREDICTED BY RF-SCORE:    0.00 PKD
ROOT
HETATM    1  C   UNL     1      -6.795  19.405  67.523  1.00  0.00    -0.204 C  
HETATM    2  N   UNL     1      -8.036  18.548  67.325  1.00  0.00    -0.234 N  
HETATM    3  C   UNL     1      -9.190  19.406  66.796  1.00  0.00    -0.333 C  
HETATM    4  C   UNL     1     -10.426  18.517  66.635  1.00  0.00    -0.436 C  
HETATM    5  C   UNL     1     -10.118  17.053  67.003  1.00  0.00    -0.295 C  
HETATM    6  C   UNL     1      -8.970  16.574  66.107  1.00  0.00    -0.344 C  
HETATM    7  C   UNL     1      -9.668  16.988  68.480  1.00  0.00    -0.282 C  
HETATM    8  C   UNL     1      -7.729  17.444  66.301  1.00  0.00    -0.305 C  
HETATM    9  C   UNL     1      -8.450  17.920  68.687  1.00  0.00    -0.266 C  
ENDROOT
BRANCH   7  10
HETATM   10  O   UNL     1      -9.604  15.600  68.919  1.00  0.00    -0.198 OA 
BRANCH  10  11
HETATM   11  C   UNL     1     -10.628  14.686  68.872  1.00  0.00    -0.253 C  
HETATM   12  O   UNL     1     -11.671  14.829  69.499  1.00  0.00    -0.286 OA 
HETATM   13  C   UNL     1     -10.231  13.476  67.925  1.00  0.00    -0.247 C  
HETATM   14  C   UNL     1     -10.940  13.491  66.556  1.00  0.00    -0.295 A  
HETATM   15  C   UNL     1     -10.424  12.137  68.660  1.00  0.00    -0.237 A  
HETATM   16  O   UNL     1      -8.818  13.613  67.641  1.00  0.00    -0.173 OA 
HETATM   17  H   UNL     1      -8.580  12.889  67.074  1.00  0.00     0.000 HD 
HETATM   18  C   UNL     1     -10.320  12.879  65.440  1.00  0.00    -0.310 A  
HETATM   19  C   UNL     1     -11.696  11.708  69.079  1.00  0.00    -0.388 A  
HETATM   20  C   UNL     1     -10.917  12.878  64.176  1.00  0.00    -0.442 A  
HETATM   21  C   UNL     1     -11.865  10.490  69.743  1.00  0.00    -0.329 A  
HETATM   22  C   UNL     1     -10.765   9.669  69.995  1.00  0.00    -0.298 A  
HETATM   23  C   UNL     1     -12.161  13.467  63.995  1.00  0.00    -0.506 A  
HETATM   24  C   UNL     1     -12.816  14.037  65.084  1.00  0.00    -0.368 A  
HETATM   25  C   UNL     1      -9.501  10.068  69.587  1.00  0.00    -0.247 A  
HETATM   26  C   UNL     1      -9.331  11.287  68.924  1.00  0.00    -0.084 A  
HETATM   27  C   UNL     1     -12.218  14.043  66.353  1.00  0.00    -0.492 A  
ENDBRANCH  10  11
ENDBRANCH   7  10
TORSDOF 2
ENDMDL
MODEL        2
REMARK 921   NORMALIZED FREE ENERGY PREDICTED BY IDOCK:   -6.98 KCAL/MOL
REMARK 922        TOTAL FREE ENERGY PREDICTED BY IDOCK:   -8.88 KCAL/MOL
REMARK 923 INTER-LIGAND FREE ENERGY PREDICTED BY IDOCK:   -8.51 KCAL/MOL
REMARK 924 INTRA-LIGAND FREE ENERGY PREDICTED BY IDOCK:   -0.37 KCAL/MOL
REMARK 927      BINDING AFFINITY PREDICTED BY RF-SCORE:    0.00 PKD
ROOT
HETATM    1  C   UNL     1     -12.815   7.109  71.629  1.00  0.00    -0.379 C  
HETATM    2  N   UNL     1     -11.522   7.852  71.330  1.00  0.00    -0.255 N  
HETATM    3  C   UNL     1     -10.586   7.789  72.542  1.00  0.00    -0.293 C  
HETATM    4  C   UNL     1      -9.309   8.568  72.215  1.00  0.00    -0.363 C  
HETATM    5  C   UNL     1      -9.341   9.123  70.779  1.00  0.00    -0.325 C  
HETATM    6  C   UNL     1      -9.529   7.940  69.821  1.00  0.00    -0.163 C  
HETATM    7  C   UNL     1     -10.541  10.085  70.636  1.00  0.00    -0.202 C  
HETATM    8  C   UNL     1     -10.824   7.190  70.132  1.00  0.00    -0.257 C  
HETATM    9  C   UNL     1     -11.844   9.340  71.012  1.00  0.00    -0.307 C  
ENDROOT
BRANCH   7  10
HETATM   10  O   UNL     1     -10.454  10.803  69.370  1.00  0.00    -0.218 OA 
BRANCH  10  11
HETATM   11  C   UNL     1     -11.438  11.577  68.807  1.00  0.00    -0.287 C  
HETATM   12  O   UNL     1     -12.517  11.118  68.447  1.00  0.00    -0.390 OA 
HETATM   13  C   UNL     1     -10.949  13.082  68.701  1.00  0.00    -0.265 C  
HETATM   14  C   UNL     1     -11.589  14.026  69.739  1.00  0.00    -0.344 A  
HETATM   15  C   UNL     1     -11.127  13.602  67.262  1.00  0.00    -0.309 A  
HETATM   16  O   UNL     1      -9.529  13.082  68.988  1.00  0.00    -0.379 OA 
HETATM   17  H   UNL     1      -9.236  13.983  68.925  1.00  0.00     0.000 HD 
HETATM   18  C   UNL     1     -10.891  15.186  70.155  1.00  0.00    -0.265 A  
HETATM   19  C   UNL     1     -12.401  13.721  66.679  1.00  0.00    -0.403 A  
HETATM   20  C   UNL     1     -11.424  16.064  71.103  1.00  0.00    -0.470 A  
HETATM   21  C   UNL     1     -12.555  14.197  65.373  1.00  0.00    -0.485 A  
HETATM   22  C   UNL     1     -11.439  14.571  64.626  1.00  0.00    -0.389 A  
HETATM   23  C   UNL     1     -12.679  15.823  71.645  1.00  0.00    -0.515 A  
HETATM   24  C   UNL     1     -13.409  14.715  71.221  1.00  0.00    -0.447 A  
HETATM   25  C   UNL     1     -10.172  14.468  65.182  1.00  0.00    -0.420 A  
HETATM   26  C   UNL     1     -10.016  13.991  66.486  1.00  0.00    -0.289 A  
HETATM   27  C   UNL     1     -12.876  13.829  70.273  1.00  0.00    -0.093 A  
ENDBRANCH  10  11
ENDBRANCH   7  10
TORSDOF 2
ENDMDL
MODEL        3
REMARK 921   NORMALIZED FREE ENERGY PREDICTED BY IDOCK:   -6.80 KCAL/MOL
REMARK 922        TOTAL FREE ENERGY PREDICTED BY IDOCK:   -8.68 KCAL/MOL
REMARK 923 INTER-LIGAND FREE ENERGY PREDICTED BY IDOCK:   -8.16 KCAL/MOL
REMARK 924 INTRA-LIGAND FREE ENERGY PREDICTED BY IDOCK:   -0.53 KCAL/MOL
REMARK 927      BINDING AFFINITY PREDICTED BY RF-SCORE:    0.00 PKD
ROOT
HETATM    1  C   UNL     1     -10.420  19.685  66.400  1.00  0.00    -0.513 C  
HETATM    2  N   UNL     1      -9.242  18.798  66.776  1.00  0.00    -0.304 N  
HETATM    3  C   UNL     1      -7.981  19.255  66.035  1.00  0.00    -0.243 C  
HETATM    4  C   UNL     1      -6.826  18.326  66.417  1.00  0.00    -0.261 C  
HETATM    5  C   UNL     1      -7.271  17.269  67.445  1.00  0.00    -0.183 C  
HETATM    6  C   UNL     1      -7.818  18.006  68.672  1.00  0.00    -0.298 C  
HETATM    7  C   UNL     1      -8.396  16.408  66.829  1.00  0.00    -0.250 C  
HETATM    8  C   UNL     1      -8.994  18.904  68.288  1.00  0.00    -0.328 C  
HETATM    9  C   UNL     1      -9.559  17.327  66.383  1.00  0.00    -0.274 C  
ENDROOT
BRANCH   7  10
HETATM   10  O   UNL     1      -8.665  15.258  67.682  1.00  0.00    -0.164 OA 
BRANCH  10  11
HETATM   11  C   UNL     1      -9.883  14.650  67.865  1.00  0.00    -0.217 C  
HETATM   12  O   UNL     1     -10.797  15.174  68.491  1.00  0.00    -0.234 OA 
HETATM   13  C   UNL     1      -9.886  13.224  67.170  1.00  0.00    -0.237 C  
HETATM   14  C   UNL     1     -10.692  13.166  65.856  1.00  0.00    -0.287 A  
HETATM   15  C   UNL     1     -10.335  12.143  68.170  1.00  0.00    -0.214 A  
HETATM   16  O   UNL     1      -8.514  12.933  66.807  1.00  0.00    -0.380 OA 
HETATM   17  H   UNL     1      -8.516  12.079  66.390  1.00  0.00     0.000 HD 
HETATM   18  C   UNL     1     -10.346  12.216  64.865  1.00  0.00    -0.321 A  
HETATM   19  C   UNL     1     -11.630  12.146  68.719  1.00  0.00    -0.380 A  
HETATM   20  C   UNL     1     -11.039  12.135  63.653  1.00  0.00    -0.528 A  
HETATM   21  C   UNL     1     -12.033  11.160  69.624  1.00  0.00    -0.429 A  
HETATM   22  C   UNL     1     -11.152  10.144  69.994  1.00  0.00    -0.368 A  
HETATM   23  C   UNL     1     -12.109  12.982  63.406  1.00  0.00    -0.591 A  
HETATM   24  C   UNL     1     -12.501  13.896  64.382  1.00  0.00    -0.321 A  
HETATM   25  C   UNL     1      -9.871  10.116  69.462  1.00  0.00    -0.255 A  
HETATM   26  C   UNL     1      -9.466  11.102  68.557  1.00  0.00    -0.193 A  
HETATM   27  C   UNL     1     -11.806  13.983  65.597  1.00  0.00    -0.384 A  
ENDBRANCH  10  11
ENDBRANCH   7  10
TORSDOF 2
ENDMDL
MODEL        4
REMARK 921   NORMALIZED FREE ENERGY PREDICTED BY IDOCK:   -6.70 KCAL/MOL
REMARK 922        TOTAL FREE ENERGY PREDICTED BY IDOCK:   -8.56 KCAL/MOL
REMARK 923 INTER-LIGAND FREE ENERGY PREDICTED BY IDOCK:   -8.44 KCAL/MOL
REMARK 924 INTRA-LIGAND FREE ENERGY PREDICTED BY IDOCK:   -0.12 KCAL/MOL
REMARK 927      BINDING AFFINITY PREDICTED BY RF-SCORE:    0.00 PKD
ROOT
HETATM    1  C   UNL     1     -13.385   7.220  71.640  1.00  0.00    -0.358 C  
HETATM    2  N   UNL     1     -11.995   7.798  71.418  1.00  0.00    -0.299 N  
HETATM    3  C   UNL     1     -11.180   7.721  72.713  1.00  0.00    -0.398 C  
HETATM    4  C   UNL     1      -9.800   8.334  72.459  1.00  0.00    -0.368 C  
HETATM    5  C   UNL     1      -9.645   8.785  70.995  1.00  0.00    -0.290 C  
HETATM    6  C   UNL     1      -9.884   7.565  70.098  1.00  0.00    -0.180 C  
HETATM    7  C   UNL     1     -10.713   9.858  70.682  1.00  0.00    -0.303 C  
HETATM    8  C   UNL     1     -11.277   6.981  70.332  1.00  0.00    -0.299 C  
HETATM    9  C   UNL     1     -12.119   9.285  70.981  1.00  0.00    -0.280 C  
ENDROOT
BRANCH   7  10
HETATM   10  O   UNL     1     -10.437  10.471  69.389  1.00  0.00    -0.218 OA 
BRANCH  10  11
HETATM   11  C   UNL     1     -11.307  11.234  68.651  1.00  0.00    -0.273 C  
HETATM   12  O   UNL     1     -12.513  11.017  68.617  1.00  0.00    -0.462 OA 
HETATM   13  C   UNL     1     -10.513  12.373  67.884  1.00  0.00    -0.215 C  
HETATM   14  C   UNL     1     -10.687  13.779  68.492  1.00  0.00    -0.274 A  
HETATM   15  C   UNL     1     -10.856  12.347  66.383  1.00  0.00    -0.291 A  
HETATM   16  O   UNL     1      -9.105  12.058  68.010  1.00  0.00    -0.175 OA 
HETATM   17  H   UNL     1      -8.628  12.740  67.551  1.00  0.00     0.000 HD 
HETATM   18  C   UNL     1      -9.666  14.747  68.321  1.00  0.00    -0.218 A  
HETATM   19  C   UNL     1     -12.160  12.613  65.926  1.00  0.00    -0.459 A  
HETATM   20  C   UNL     1      -9.773  16.030  68.865  1.00  0.00    -0.232 A  
HETATM   21  C   UNL     1     -12.465  12.591  64.562  1.00  0.00    -0.539 A  
HETATM   22  C   UNL     1     -11.470  12.310  63.624  1.00  0.00    -0.572 A  
HETATM   23  C   UNL     1     -10.909  16.393  69.573  1.00  0.00    -0.338 A  
HETATM   24  C   UNL     1     -11.949  15.478  69.718  1.00  0.00    -0.384 A  
HETATM   25  C   UNL     1     -10.176  12.050  64.051  1.00  0.00    -0.391 A  
HETATM   26  C   UNL     1      -9.870  12.071  65.415  1.00  0.00    -0.243 A  
HETATM   27  C   UNL     1     -11.845  14.187  69.178  1.00  0.00    -0.380 A  
ENDBRANCH  10  11
ENDBRANCH   7  10
TORSDOF 2
ENDMDL
MODEL        5
REMARK 921   NORMALIZED FREE ENERGY PREDICTED BY IDOCK:   -6.65 KCAL/MOL
REMARK 922        TOTAL FREE ENERGY PREDICTED BY IDOCK:   -8.50 KCAL/MOL
REMARK 923 INTER-LIGAND FREE ENERGY PREDICTED BY IDOCK:   -8.13 KCAL/MOL
REMARK 924 INTRA-LIGAND FREE ENERGY PREDICTED BY IDOCK:   -0.37 KCAL/MOL
REMARK 927      BINDING AFFINITY PREDICTED BY RF-SCORE:    0.00 PKD
ROOT
HETATM    1  C   UNL     1     -13.230   7.489  71.828  1.00  0.00    -0.316 C  
HETATM    2  N   UNL     1     -11.835   7.905  71.388  1.00  0.00    -0.292 N  
HETATM    3  C   UNL     1     -10.898   7.973  72.598  1.00  0.00    -0.368 C  
HETATM    4  C   UNL     1      -9.514   8.419  72.122  1.00  0.00    -0.360 C  
HETATM    5  C   UNL     1      -9.480   8.612  70.594  1.00  0.00    -0.218 C  
HETATM    6  C   UNL     1      -9.890   7.286  69.942  1.00  0.00    -0.178 C  
HETATM    7  C   UNL     1     -10.500   9.705  70.200  1.00  0.00    -0.273 C  
HETATM    8  C   UNL     1     -11.288   6.866  70.396  1.00  0.00    -0.328 C  
HETATM    9  C   UNL     1     -11.903   9.307  70.717  1.00  0.00    -0.243 C  
ENDROOT
BRANCH   7  10
HETATM   10  O   UNL     1     -10.317  10.074  68.802  1.00  0.00    -0.180 OA 
BRANCH  10  11
HETATM   11  C   UNL     1      -9.806  11.260  68.336  1.00  0.00    -0.199 C  
HETATM   12  O   UNL     1      -8.609  11.524  68.373  1.00  0.00    -0.151 OA 
HETATM   13  C   UNL     1     -10.978  12.176  67.787  1.00  0.00    -0.233 C  
HETATM   14  C   UNL     1     -11.046  12.256  66.248  1.00  0.00    -0.342 A  
HETATM   15  C   UNL     1     -10.914  13.572  68.434  1.00  0.00    -0.289 A  
HETATM   16  O   UNL     1     -12.221  11.563  68.208  1.00  0.00    -0.561 OA 
HETATM   17  H   UNL     1     -12.924  12.112  67.879  1.00  0.00     0.000 HD 
HETATM   18  C   UNL     1     -12.285  12.521  65.615  1.00  0.00    -0.403 A  
HETATM   19  C   UNL     1      -9.818  14.428  68.221  1.00  0.00    -0.229 A  
HETATM   20  C   UNL     1     -12.399  12.589  64.224  1.00  0.00    -0.541 A  
HETATM   21  C   UNL     1      -9.767  15.695  68.809  1.00  0.00    -0.212 A  
HETATM   22  C   UNL     1     -10.814  16.137  69.617  1.00  0.00    -0.338 A  
HETATM   23  C   UNL     1     -11.277  12.419  63.426  1.00  0.00    -0.492 A  
HETATM   24  C   UNL     1     -10.036  12.202  64.022  1.00  0.00    -0.357 A  
HETATM   25  C   UNL     1     -11.908  15.313  69.838  1.00  0.00    -0.363 A  
HETATM   26  C   UNL     1     -11.960  14.045  69.252  1.00  0.00    -0.396 A  
HETATM   27  C   UNL     1      -9.919  12.129  65.418  1.00  0.00    -0.269 A  
ENDBRANCH  10  11
ENDBRANCH   7  10
TORSDOF 2
ENDMDL
MODEL        6
REMARK 921   NORMALIZED FREE ENERGY PREDICTED BY IDOCK:   -6.62 KCAL/MOL
REMARK 922        TOTAL FREE ENERGY PREDICTED BY IDOCK:   -8.48 KCAL/MOL
REMARK 923 INTER-LIGAND FREE ENERGY PREDICTED BY IDOCK:   -7.37 KCAL/MOL
REMARK 924 INTRA-LIGAND FREE ENERGY PREDICTED BY IDOCK:   -1.11 KCAL/MOL
REMARK 927      BINDING AFFINITY PREDICTED BY RF-SCORE:    0.00 PKD
ROOT
HETATM    1  C   UNL     1      -7.464  18.074  68.210  1.00  0.00    -0.266 C  
HETATM    2  N   UNL     1      -8.578  17.063  67.985  1.00  0.00    -0.212 N  
HETATM    3  C   UNL     1      -9.941  17.720  68.224  1.00  0.00    -0.355 C  
HETATM    4  C   UNL     1     -11.034  16.669  68.015  1.00  0.00    -0.311 C  
HETATM    5  C   UNL     1     -10.438  15.314  67.591  1.00  0.00    -0.263 C  
HETATM    6  C   UNL     1      -9.629  15.536  66.308  1.00  0.00    -0.338 C  
HETATM    7  C   UNL     1      -9.491  14.809  68.703  1.00  0.00    -0.213 C  
HETATM    8  C   UNL     1      -8.518  16.560  66.535  1.00  0.00    -0.293 C  
HETATM    9  C   UNL     1      -8.404  15.876  68.975  1.00  0.00    -0.239 C  
ENDROOT
BRANCH   7  10
HETATM   10  O   UNL     1      -9.104  13.429  68.438  1.00  0.00    -0.189 OA 
BRANCH  10  11
HETATM   11  C   UNL     1      -9.956  12.382  68.182  1.00  0.00    -0.215 C  
HETATM   12  O   UNL     1     -10.860  12.064  68.947  1.00  0.00    -0.220 OA 
HETATM   13  C   UNL     1      -9.571  11.694  66.806  1.00  0.00    -0.192 C  
HETATM   14  C   UNL     1     -10.536  12.020  65.649  1.00  0.00    -0.303 A  
HETATM   15  C   UNL     1      -9.393  10.177  66.999  1.00  0.00    -0.178 A  
HETATM   16  O   UNL     1      -8.285  12.233  66.415  1.00  0.00    -0.394 OA 
HETATM   17  H   UNL     1      -8.054  11.821  65.590  1.00  0.00     0.000 HD 
HETATM   18  C   UNL     1     -10.065  11.985  64.314  1.00  0.00    -0.319 A  
HETATM   19  C   UNL     1     -10.469   9.357  67.386  1.00  0.00    -0.343 A  
HETATM   20  C   UNL     1     -10.898  12.286  63.232  1.00  0.00    -0.359 A  
HETATM   21  C   UNL     1     -10.301   7.979  67.556  1.00  0.00    -0.330 A  
HETATM   22  C   UNL     1      -9.056   7.391  67.335  1.00  0.00    -0.129 A  
HETATM   23  C   UNL     1     -12.231  12.606  63.450  1.00  0.00    -0.610 A  
HETATM   24  C   UNL     1     -12.734  12.604  64.749  1.00  0.00    -0.460 A  
HETATM   25  C   UNL     1      -7.982   8.178  66.947  1.00  0.00    -0.104 A  
HETATM   26  C   UNL     1      -8.148   9.555  66.778  1.00  0.00    -0.109 A  
HETATM   27  C   UNL     1     -11.900  12.307  65.837  1.00  0.00    -0.420 A  
ENDBRANCH  10  11
ENDBRANCH   7  10
TORSDOF 2
ENDMDL
MODEL        7
REMARK 921   NORMALIZED FREE ENERGY PREDICTED BY IDOCK:   -6.55 KCAL/MOL
REMARK 922        TOTAL FREE ENERGY PREDICTED BY IDOCK:   -8.40 KCAL/MOL
REMARK 923 INTER-LIGAND FREE ENERGY PREDICTED BY IDOCK:   -8.05 KCAL/MOL
REMARK 924 INTRA-LIGAND FREE ENERGY PREDICTED BY IDOCK:   -0.35 KCAL/MOL
REMARK 927      BINDING AFFINITY PREDICTED BY RF-SCORE:    0.00 PKD
ROOT
HETATM    1  C   UNL     1      -5.421  17.530  67.774  1.00  0.00    -0.133 C  
HETATM    2  N   UNL     1      -6.873  17.805  67.414  1.00  0.00    -0.166 N  
HETATM    3  C   UNL     1      -6.959  18.969  66.421  1.00  0.00    -0.219 C  
HETATM    4  C   UNL     1      -8.433  19.234  66.104  1.00  0.00    -0.278 C  
HETATM    5  C   UNL     1      -9.353  18.236  66.831  1.00  0.00    -0.286 C  
HETATM    6  C   UNL     1      -8.941  16.821  66.409  1.00  0.00    -0.325 C  
HETATM    7  C   UNL     1      -9.155  18.385  68.356  1.00  0.00    -0.320 C  
HETATM    8  C   UNL     1      -7.478  16.552  66.762  1.00  0.00    -0.246 C  
HETATM    9  C   UNL     1      -7.662  18.175  68.703  1.00  0.00    -0.297 C  
ENDROOT
BRANCH   7  10
HETATM   10  O   UNL     1     -10.179  17.629  69.066  1.00  0.00    -0.364 OA 
BRANCH  10  11
HETATM   11  C   UNL     1     -10.112  16.304  69.418  1.00  0.00    -0.253 C  
HETATM   12  O   UNL     1      -9.067  15.764  69.764  1.00  0.00    -0.206 OA 
HETATM   13  C   UNL     1     -11.544  15.636  69.290  1.00  0.00    -0.366 C  
HETATM   14  C   UNL     1     -12.239  15.373  70.642  1.00  0.00    -0.431 A  
HETATM   15  C   UNL     1     -11.466  14.364  68.426  1.00  0.00    -0.329 A  
HETATM   16  O   UNL     1     -12.386  16.583  68.589  1.00  0.00     0.196 OA 
HETATM   17  H   UNL     1     -13.245  16.183  68.513  1.00  0.00     0.000 HD 
HETATM   18  C   UNL     1     -13.653  15.336  70.707  1.00  0.00    -0.313 A  
HETATM   19  C   UNL     1     -10.715  13.247  68.833  1.00  0.00    -0.215 A  
HETATM   20  C   UNL     1     -14.327  15.115  71.911  1.00  0.00    -0.693 A  
HETATM   21  C   UNL     1     -10.650  12.094  68.045  1.00  0.00    -0.232 A  
HETATM   22  C   UNL     1     -11.342  12.030  66.836  1.00  0.00    -0.400 A  
HETATM   23  C   UNL     1     -13.611  14.901  73.080  1.00  0.00    -0.416 A  
HETATM   24  C   UNL     1     -12.219  14.886  73.039  1.00  0.00    -0.407 A  
HETATM   25  C   UNL     1     -12.095  13.118  66.415  1.00  0.00    -0.447 A  
HETATM   26  C   UNL     1     -12.159  14.271  67.202  1.00  0.00    -0.412 A  
HETATM   27  C   UNL     1     -11.538  15.112  71.833  1.00  0.00    -0.490 A  
ENDBRANCH  10  11
ENDBRANCH   7  10
TORSDOF 2
ENDMDL
MODEL        8
REMARK 921   NORMALIZED FREE ENERGY PREDICTED BY IDOCK:   -6.54 KCAL/MOL
REMARK 922        TOTAL FREE ENERGY PREDICTED BY IDOCK:   -8.39 KCAL/MOL
REMARK 923 INTER-LIGAND FREE ENERGY PREDICTED BY IDOCK:   -8.02 KCAL/MOL
REMARK 924 INTRA-LIGAND FREE ENERGY PREDICTED BY IDOCK:   -0.37 KCAL/MOL
REMARK 927      BINDING AFFINITY PREDICTED BY RF-SCORE:    0.00 PKD
ROOT
HETATM    1  C   UNL     1      -7.421   7.090  70.795  1.00  0.00    -0.082 C  
HETATM    2  N   UNL     1      -8.805   7.703  70.640  1.00  0.00    -0.144 N  
HETATM    3  C   UNL     1      -9.848   6.601  70.425  1.00  0.00    -0.175 C  
HETATM    4  C   UNL     1     -11.220   7.255  70.246  1.00  0.00    -0.287 C  
HETATM    5  C   UNL     1     -11.136   8.787  70.383  1.00  0.00    -0.261 C  
HETATM    6  C   UNL     1     -10.546   9.105  71.762  1.00  0.00    -0.383 C  
HETATM    7  C   UNL     1     -10.194   9.340  69.290  1.00  0.00    -0.206 C  
HETATM    8  C   UNL     1      -9.160   8.478  71.918  1.00  0.00    -0.244 C  
HETATM    9  C   UNL     1      -8.810   8.657  69.412  1.00  0.00    -0.144 C  
ENDROOT
BRANCH   7  10
HETATM   10  O   UNL     1     -10.285  10.795  69.246  1.00  0.00    -0.218 OA 
BRANCH  10  11
HETATM   11  C   UNL     1     -11.323  11.527  68.725  1.00  0.00    -0.265 C  
HETATM   12  O   UNL     1     -12.398  11.024  68.416  1.00  0.00    -0.528 OA 
HETATM   13  C   UNL     1     -10.898  13.049  68.591  1.00  0.00    -0.259 C  
HETATM   14  C   UNL     1     -11.528  13.973  69.653  1.00  0.00    -0.317 A  
HETATM   15  C   UNL     1     -11.161  13.553  67.160  1.00  0.00    -0.308 A  
HETATM   16  O   UNL     1      -9.468  13.105  68.813  1.00  0.00    -0.398 OA 
HETATM   17  H   UNL     1      -9.214  14.018  68.733  1.00  0.00     0.000 HD 
HETATM   18  C   UNL     1     -10.857  15.161  70.033  1.00  0.00    -0.275 A  
HETATM   19  C   UNL     1     -12.464  13.619  66.634  1.00  0.00    -0.291 A  
HETATM   20  C   UNL     1     -11.381  16.023  71.001  1.00  0.00    -0.423 A  
HETATM   21  C   UNL     1     -12.696  14.081  65.335  1.00  0.00    -0.499 A  
HETATM   22  C   UNL     1     -11.629  14.495  64.536  1.00  0.00    -0.385 A  
HETATM   23  C   UNL     1     -12.600  15.737  71.599  1.00  0.00    -0.521 A  
HETATM   24  C   UNL     1     -13.304  14.599  71.213  1.00  0.00    -0.447 A  
HETATM   25  C   UNL     1     -10.335  14.444  65.035  1.00  0.00    -0.449 A  
HETATM   26  C   UNL     1     -10.103  13.981  66.333  1.00  0.00    -0.299 A  
HETATM   27  C   UNL     1     -12.780  13.730  70.245  1.00  0.00    -0.208 A  
ENDBRANCH  10  11
ENDBRANCH   7  10
TORSDOF 2
ENDMDL
MODEL        9
REMARK 921   NORMALIZED FREE ENERGY PREDICTED BY IDOCK:   -6.51 KCAL/MOL
REMARK 922        TOTAL FREE ENERGY PREDICTED BY IDOCK:   -8.36 KCAL/MOL
REMARK 923 INTER-LIGAND FREE ENERGY PREDICTED BY IDOCK:   -7.85 KCAL/MOL
REMARK 924 INTRA-LIGAND FREE ENERGY PREDICTED BY IDOCK:   -0.50 KCAL/MOL
REMARK 927      BINDING AFFINITY PREDICTED BY RF-SCORE:    0.00 PKD
ROOT
HETATM    1  C   UNL     1     -11.991  12.806  63.271  1.00  0.00    -0.443 C  
HETATM    2  N   UNL     1     -11.093  12.576  64.478  1.00  0.00    -0.300 N  
HETATM    3  C   UNL     1     -10.101  11.444  64.188  1.00  0.00    -0.309 C  
HETATM    4  C   UNL     1      -9.234  11.224  65.430  1.00  0.00    -0.202 C  
HETATM    5  C   UNL     1      -9.590  12.222  66.549  1.00  0.00    -0.242 C  
HETATM    6  C   UNL     1      -9.409  13.638  65.991  1.00  0.00    -0.029 C  
HETATM    7  C   UNL     1     -11.068  12.023  66.952  1.00  0.00    -0.302 C  
HETATM    8  C   UNL     1     -10.305  13.862  64.772  1.00  0.00    -0.394 C  
HETATM    9  C   UNL     1     -11.967  12.187  65.704  1.00  0.00    -0.208 C  
ENDROOT
BRANCH   7  10
HETATM   10  O   UNL     1     -11.359  12.781  68.162  1.00  0.00    -0.249 OA 
BRANCH  10  11
HETATM   11  C   UNL     1     -11.778  14.088  68.220  1.00  0.00    -0.357 C  
HETATM   12  O   UNL     1     -12.629  14.543  67.464  1.00  0.00     0.057 OA 
HETATM   13  C   UNL     1     -10.996  14.857  69.366  1.00  0.00    -0.271 C  
HETATM   14  C   UNL     1     -11.838  15.126  70.630  1.00  0.00    -0.371 A  
HETATM   15  C   UNL     1     -10.364  16.146  68.809  1.00  0.00    -0.248 A  
HETATM   16  O   UNL     1      -9.914  13.992  69.787  1.00  0.00    -0.119 OA 
HETATM   17  H   UNL     1      -9.445  14.453  70.474  1.00  0.00     0.000 HD 
HETATM   18  C   UNL     1     -11.195  15.259  71.884  1.00  0.00    -0.350 A  
HETATM   19  C   UNL     1     -11.158  17.196  68.312  1.00  0.00    -0.118 A  
HETATM   20  C   UNL     1     -11.916  15.490  73.059  1.00  0.00    -0.571 A  
HETATM   21  C   UNL     1     -10.579  18.365  67.811  1.00  0.00    -0.419 A  
HETATM   22  C   UNL     1      -9.191  18.513  67.804  1.00  0.00    -0.295 A  
HETATM   23  C   UNL     1     -13.297  15.618  73.013  1.00  0.00    -0.668 A  
HETATM   24  C   UNL     1     -13.954  15.537  71.787  1.00  0.00    -0.569 A  
HETATM   25  C   UNL     1      -8.387  17.494  68.294  1.00  0.00    -0.265 A  
HETATM   26  C   UNL     1      -8.966  16.324  68.794  1.00  0.00    -0.243 A  
HETATM   27  C   UNL     1     -13.233  15.302  70.606  1.00  0.00    -0.370 A  
ENDBRANCH  10  11
ENDBRANCH   7  10
TORSDOF 2
ENDMDL
MODEL       10
REMARK 921   NORMALIZED FREE ENERGY PREDICTED BY IDOCK:   -6.48 KCAL/MOL
REMARK 922        TOTAL FREE ENERGY PREDICTED BY IDOCK:   -8.32 KCAL/MOL
REMARK 923 INTER-LIGAND FREE ENERGY PREDICTED BY IDOCK:   -7.81 KCAL/MOL
REMARK 924 INTRA-LIGAND FREE ENERGY PREDICTED BY IDOCK:   -0.51 KCAL/MOL
REMARK 927      BINDING AFFINITY PREDICTED BY RF-SCORE:    0.00 PKD
ROOT
HETATM    1  C   UNL     1      -6.897  10.118  66.511  1.00  0.00    -0.090 C  
HETATM    2  N   UNL     1      -8.340  10.587  66.398  1.00  0.00    -0.139 N  
HETATM    3  C   UNL     1      -8.839  10.414  64.960  1.00  0.00    -0.191 C  
HETATM    4  C   UNL     1     -10.282  10.920  64.879  1.00  0.00    -0.381 C  
HETATM    5  C   UNL     1     -10.790  11.393  66.254  1.00  0.00    -0.318 C  
HETATM    6  C   UNL     1     -10.669  10.218  67.231  1.00  0.00    -0.323 C  
HETATM    7  C   UNL     1      -9.900  12.555  66.748  1.00  0.00    -0.229 C  
HETATM    8  C   UNL     1      -9.219   9.743  67.333  1.00  0.00    -0.134 C  
HETATM    9  C   UNL     1      -8.425  12.090  66.790  1.00  0.00    -0.155 C  
ENDROOT
BRANCH   7  10
HETATM   10  O   UNL     1     -10.500  13.175  67.923  1.00  0.00    -0.229 OA 
BRANCH  10  11
HETATM   11  C   UNL     1     -11.129  14.395  67.965  1.00  0.00    -0.272 C  
HETATM   12  O   UNL     1     -11.975  14.731  67.143  1.00  0.00    -0.351 OA 
HETATM   13  C   UNL     1     -10.586  15.244  69.190  1.00  0.00    -0.250 C  
HETATM   14  C   UNL     1     -11.566  15.334  70.376  1.00  0.00    -0.341 A  
HETATM   15  C   UNL     1     -10.126  16.634  68.714  1.00  0.00    -0.270 A  
HETATM   16  O   UNL     1      -9.417  14.551  69.692  1.00  0.00    -0.386 OA 
HETATM   17  H   UNL     1      -9.091  15.059  70.426  1.00  0.00     0.000 HD 
HETATM   18  C   UNL     1     -11.063  15.529  71.686  1.00  0.00    -0.266 A  
HETATM   19  C   UNL     1     -11.034  17.558  68.165  1.00  0.00    -0.128 A  
HETATM   20  C   UNL     1     -11.911  15.604  72.795  1.00  0.00    -0.590 A  
HETATM   21  C   UNL     1     -10.610  18.820  67.739  1.00  0.00    -0.452 A  
HETATM   22  C   UNL     1      -9.270  19.189  67.859  1.00  0.00    -0.358 A  
HETATM   23  C   UNL     1     -13.285  15.511  72.626  1.00  0.00    -0.579 A  
HETATM   24  C   UNL     1     -13.812  15.364  71.344  1.00  0.00    -0.577 A  
HETATM   25  C   UNL     1      -8.357  18.297  68.402  1.00  0.00    -0.323 A  
HETATM   26  C   UNL     1      -8.779  17.034  68.828  1.00  0.00    -0.244 A  
HETATM   27  C   UNL     1     -12.964  15.284  70.230  1.00  0.00    -0.228 A  
ENDBRANCH  10  11
ENDBRANCH   7  10
TORSDOF 2
ENDMDL
MODEL       11
REMARK 921   NORMALIZED FREE ENERGY PREDICTED BY IDOCK:   -6.46 KCAL/MOL
REMARK 922        TOTAL FREE ENERGY PREDICTED BY IDOCK:   -8.30 KCAL/MOL
REMARK 923 INTER-LIGAND FREE ENERGY PREDICTED BY IDOCK:   -7.84 KCAL/MOL
REMARK 924 INTRA-LIGAND FREE ENERGY PREDICTED BY IDOCK:   -0.46 KCAL/MOL
REMARK 927      BINDING AFFINITY PREDICTED BY RF-SCORE:    0.00 PKD
ROOT
HETATM    1  C   UNL     1     -10.154   5.148  70.518  1.00  0.00    -0.256 C  
HETATM    2  N   UNL     1     -10.350   6.606  70.908  1.00  0.00    -0.206 N  
HETATM    3  C   UNL     1     -11.249   6.703  72.145  1.00  0.00    -0.264 C  
HETATM    4  C   UNL     1     -11.446   8.181  72.492  1.00  0.00    -0.470 C  
HETATM    5  C   UNL     1     -10.656   9.093  71.535  1.00  0.00    -0.428 C  
HETATM    6  C   UNL     1      -9.178   8.697  71.619  1.00  0.00    -0.326 C  
HETATM    7  C   UNL     1     -11.158   8.866  70.091  1.00  0.00    -0.201 C  
HETATM    8  C   UNL     1      -8.985   7.229  71.237  1.00  0.00    -0.139 C  
HETATM    9  C   UNL     1     -11.021   7.368  69.730  1.00  0.00    -0.200 C  
ENDROOT
BRANCH   7  10
HETATM   10  O   UNL     1     -10.601   9.881  69.206  1.00  0.00    -0.202 OA 
BRANCH  10  11
HETATM   11  C   UNL     1     -11.305  10.860  68.549  1.00  0.00    -0.299 C  
HETATM   12  O   UNL     1     -12.521  10.978  68.646  1.00  0.00    -0.462 OA 
HETATM   13  C   UNL     1     -10.317  11.748  67.682  1.00  0.00    -0.200 C  
HETATM   14  C   UNL     1     -10.039  13.143  68.278  1.00  0.00    -0.247 A  
HETATM   15  C   UNL     1     -10.812  11.832  66.226  1.00  0.00    -0.325 A  
HETATM   16  O   UNL     1      -9.042  11.062  67.666  1.00  0.00    -0.143 OA 
HETATM   17  H   UNL     1      -8.450  11.594  67.147  1.00  0.00     0.000 HD 
HETATM   18  C   UNL     1      -8.819  13.799  67.984  1.00  0.00    -0.182 A  
HETATM   19  C   UNL     1     -12.035  12.445  65.902  1.00  0.00    -0.434 A  
HETATM   20  C   UNL     1      -8.515  15.057  68.511  1.00  0.00    -0.163 A  
HETATM   21  C   UNL     1     -12.477  12.521  64.578  1.00  0.00    -0.539 A  
HETATM   22  C   UNL     1     -11.700  11.990  63.548  1.00  0.00    -0.566 A  
HETATM   23  C   UNL     1      -9.430  15.708  69.327  1.00  0.00    -0.264 A  
HETATM   24  C   UNL     1     -10.658  15.107  69.597  1.00  0.00    -0.274 A  
HETATM   25  C   UNL     1     -10.487  11.385  63.842  1.00  0.00    -0.444 A  
HETATM   26  C   UNL     1     -10.045  11.308  65.165  1.00  0.00    -0.326 A  
HETATM   27  C   UNL     1     -10.964  13.842  69.073  1.00  0.00    -0.281 A  
ENDBRANCH  10  11
ENDBRANCH   7  10
TORSDOF 2
ENDMDL
MODEL       12
REMARK 921   NORMALIZED FREE ENERGY PREDICTED BY IDOCK:   -6.42 KCAL/MOL
REMARK 922        TOTAL FREE ENERGY PREDICTED BY IDOCK:   -8.26 KCAL/MOL
REMARK 923 INTER-LIGAND FREE ENERGY PREDICTED BY IDOCK:   -7.53 KCAL/MOL
REMARK 924 INTRA-LIGAND FREE ENERGY PREDICTED BY IDOCK:   -0.73 KCAL/MOL
REMARK 927      BINDING AFFINITY PREDICTED BY RF-SCORE:    0.00 PKD
ROOT
HETATM    1  C   UNL     1      -9.451   7.296  67.303  1.00  0.00    -0.138 C  
HETATM    2  N   UNL     1      -9.854   8.165  68.485  1.00  0.00    -0.173 N  
HETATM    3  C   UNL     1     -10.728   7.363  69.454  1.00  0.00    -0.211 C  
HETATM    4  C   UNL     1     -11.136   8.275  70.615  1.00  0.00    -0.269 C  
HETATM    5  C   UNL     1     -10.512   9.676  70.474  1.00  0.00    -0.367 C  
HETATM    6  C   UNL     1      -8.990   9.510  70.408  1.00  0.00    -0.291 C  
HETATM    7  C   UNL     1     -11.008  10.320  69.160  1.00  0.00    -0.238 C  
HETATM    8  C   UNL     1      -8.590   8.627  69.226  1.00  0.00    -0.131 C  
HETATM    9  C   UNL     1     -10.657   9.394  67.971  1.00  0.00    -0.226 C  
ENDROOT
BRANCH   7  10
HETATM   10  O   UNL     1     -10.628  11.726  69.122  1.00  0.00    -0.172 OA 
BRANCH  10  11
HETATM   11  C   UNL     1      -9.928  12.351  68.119  1.00  0.00    -0.215 C  
HETATM   12  O   UNL     1      -8.725  12.185  67.950  1.00  0.00    -0.159 OA 
HETATM   13  C   UNL     1     -10.899  13.283  67.280  1.00  0.00    -0.264 C  
HETATM   14  C   UNL     1     -11.270  12.717  65.894  1.00  0.00    -0.350 A  
HETATM   15  C   UNL     1     -10.324  14.708  67.186  1.00  0.00    -0.265 A  
HETATM   16  O   UNL     1     -12.141  13.366  68.020  1.00  0.00    -0.342 OA 
HETATM   17  H   UNL     1     -12.724  13.924  67.516  1.00  0.00     0.000 HD 
HETATM   18  C   UNL     1     -12.497  13.088  65.292  1.00  0.00    -0.555 A  
HETATM   19  C   UNL     1      -9.110  14.966  66.524  1.00  0.00    -0.309 A  
HETATM   20  C   UNL     1     -12.882  12.591  64.044  1.00  0.00    -0.323 A  
HETATM   21  C   UNL     1      -8.595  16.263  66.439  1.00  0.00    -0.361 A  
HETATM   22  C   UNL     1      -9.288  17.331  67.009  1.00  0.00    -0.257 A  
HETATM   23  C   UNL     1     -12.045  11.730  63.350  1.00  0.00    -0.449 A  
HETATM   24  C   UNL     1     -10.811  11.383  63.896  1.00  0.00    -0.463 A  
HETATM   25  C   UNL     1     -10.490  17.103  67.663  1.00  0.00    -0.355 A  
HETATM   26  C   UNL     1     -11.005  15.806  67.749  1.00  0.00    -0.314 A  
HETATM   27  C   UNL     1     -10.422  11.876  65.151  1.00  0.00    -0.330 A  
ENDBRANCH  10  11
ENDBRANCH   7  10
TORSDOF 2
ENDMDL
MODEL       13
REMARK 921   NORMALIZED FREE ENERGY PREDICTED BY IDOCK:   -6.38 KCAL/MOL
REMARK 922        TOTAL FREE ENERGY PREDICTED BY IDOCK:   -8.20 KCAL/MOL
REMARK 923 INTER-LIGAND FREE ENERGY PREDICTED BY IDOCK:   -7.75 KCAL/MOL
REMARK 924 INTRA-LIGAND FREE ENERGY PREDICTED BY IDOCK:   -0.46 KCAL/MOL
REMARK 927      BINDING AFFINITY PREDICTED BY RF-SCORE:    0.00 PKD
ROOT
HETATM    1  C   UNL     1      -7.174  19.891  65.340  1.00  0.00    -0.216 C  
HETATM    2  N   UNL     1      -7.745  19.623  66.724  1.00  0.00    -0.255 N  
HETATM    3  C   UNL     1      -6.851  20.257  67.794  1.00  0.00    -0.287 C  
HETATM    4  C   UNL     1      -7.440  19.945  69.172  1.00  0.00    -0.183 C  
HETATM    5  C   UNL     1      -8.751  19.145  69.055  1.00  0.00    -0.238 C  
HETATM    6  C   UNL     1      -9.729  19.965  68.207  1.00  0.00    -0.479 C  
HETATM    7  C   UNL     1      -8.462  17.805  68.340  1.00  0.00    -0.295 C  
HETATM    8  C   UNL     1      -9.148  20.242  66.820  1.00  0.00    -0.306 C  
HETATM    9  C   UNL     1      -7.815  18.087  66.963  1.00  0.00    -0.218 C  
ENDROOT
BRANCH   7  10
HETATM   10  O   UNL     1      -9.627  16.933  68.431  1.00  0.00    -0.238 OA 
BRANCH  10  11
HETATM   11  C   UNL     1      -9.679  15.713  69.058  1.00  0.00    -0.241 C  
HETATM   12  O   UNL     1      -8.696  15.189  69.570  1.00  0.00    -0.214 OA 
HETATM   13  C   UNL     1     -11.154  15.132  68.990  1.00  0.00    -0.255 C  
HETATM   14  C   UNL     1     -11.923  15.214  70.324  1.00  0.00    -0.361 A  
HETATM   15  C   UNL     1     -11.139  13.702  68.419  1.00  0.00    -0.289 A  
HETATM   16  O   UNL     1     -11.888  15.962  68.057  1.00  0.00    -0.241 OA 
HETATM   17  H   UNL     1     -12.771  15.615  68.017  1.00  0.00     0.000 HD 
HETATM   18  C   UNL     1     -13.337  15.288  70.313  1.00  0.00     0.045 A  
HETATM   19  C   UNL     1     -10.497  12.650  69.096  1.00  0.00     0.081 A  
HETATM   20  C   UNL     1     -14.078  15.377  71.495  1.00  0.00    -0.596 A  
HETATM   21  C   UNL     1     -10.490  11.353  68.574  1.00  0.00    -0.223 A  
HETATM   22  C   UNL     1     -11.133  11.079  67.366  1.00  0.00    -0.370 A  
HETATM   23  C   UNL     1     -13.431  15.369  72.722  1.00  0.00    -0.637 A  
HETATM   24  C   UNL     1     -12.043  15.251  72.767  1.00  0.00    -0.525 A  
HETATM   25  C   UNL     1     -11.779  12.100  66.683  1.00  0.00    -0.385 A  
HETATM   26  C   UNL     1     -11.785  13.397  67.204  1.00  0.00    -0.424 A  
HETATM   27  C   UNL     1     -11.296  15.166  71.582  1.00  0.00    -0.394 A  
ENDBRANCH  10  11
ENDBRANCH   7  10
TORSDOF 2
ENDMDL
MODEL       14
REMARK 921   NORMALIZED FREE ENERGY PREDICTED BY IDOCK:   -6.37 KCAL/MOL
REMARK 922        TOTAL FREE ENERGY PREDICTED BY IDOCK:   -8.20 KCAL/MOL
REMARK 923 INTER-LIGAND FREE ENERGY PREDICTED BY IDOCK:   -7.76 KCAL/MOL
REMARK 924 INTRA-LIGAND FREE ENERGY PREDICTED BY IDOCK:   -0.44 KCAL/MOL
REMARK 927      BINDING AFFINITY PREDICTED BY RF-SCORE:    0.00 PKD
ROOT
HETATM    1  C   UNL     1      -5.597  20.026  68.668  1.00  0.00    -0.224 C  
HETATM    2  N   UNL     1      -6.903  19.598  68.016  1.00  0.00    -0.246 N  
HETATM    3  C   UNL     1      -7.633  20.820  67.448  1.00  0.00    -0.300 C  
HETATM    4  C   UNL     1      -8.952  20.356  66.825  1.00  0.00    -0.338 C  
HETATM    5  C   UNL     1      -9.111  18.827  66.918  1.00  0.00    -0.305 C  
HETATM    6  C   UNL     1      -7.910  18.184  66.216  1.00  0.00    -0.280 C  
HETATM    7  C   UNL     1      -9.109  18.410  68.406  1.00  0.00    -0.320 C  
HETATM    8  C   UNL     1      -6.599  18.625  66.867  1.00  0.00    -0.188 C  
HETATM    9  C   UNL     1      -7.809  18.912  69.078  1.00  0.00    -0.206 C  
ENDROOT
BRANCH   7  10
HETATM   10  O   UNL     1      -9.497  17.010  68.529  1.00  0.00    -0.252 OA 
BRANCH  10  11
HETATM   11  C   UNL     1     -10.778  16.530  68.648  1.00  0.00    -0.334 C  
HETATM   12  O   UNL     1     -11.754  17.138  68.221  1.00  0.00     0.346 OA 
HETATM   13  C   UNL     1     -10.767  15.136  69.404  1.00  0.00    -0.265 C  
HETATM   14  C   UNL     1     -11.003  13.921  68.485  1.00  0.00    -0.277 A  
HETATM   15  C   UNL     1     -11.750  15.163  70.589  1.00  0.00    -0.356 A  
HETATM   16  O   UNL     1      -9.436  14.968  69.951  1.00  0.00    -0.461 OA 
HETATM   17  H   UNL     1      -9.429  14.132  70.404  1.00  0.00     0.000 HD 
HETATM   18  C   UNL     1     -10.478  12.656  68.848  1.00  0.00    -0.109 A  
HETATM   19  C   UNL     1     -13.134  15.318  70.389  1.00  0.00    -0.240 A  
HETATM   20  C   UNL     1     -10.654  11.529  68.041  1.00  0.00    -0.222 A  
HETATM   21  C   UNL     1     -14.022  15.338  71.468  1.00  0.00    -0.627 A  
HETATM   22  C   UNL     1     -13.545  15.196  72.772  1.00  0.00    -0.588 A  
HETATM   23  C   UNL     1     -11.379  11.624  66.862  1.00  0.00    -0.364 A  
HETATM   24  C   UNL     1     -11.947  12.845  66.501  1.00  0.00    -0.447 A  
HETATM   25  C   UNL     1     -12.185  15.036  72.994  1.00  0.00    -0.456 A  
HETATM   26  C   UNL     1     -11.296  15.017  71.915  1.00  0.00    -0.281 A  
HETATM   27  C   UNL     1     -11.769  13.980  67.307  1.00  0.00    -0.420 A  
ENDBRANCH  10  11
ENDBRANCH   7  10
TORSDOF 2
ENDMDL
MODEL       15
REMARK 921   NORMALIZED FREE ENERGY PREDICTED BY IDOCK:   -6.34 KCAL/MOL
REMARK 922        TOTAL FREE ENERGY PREDICTED BY IDOCK:   -8.16 KCAL/MOL
REMARK 923 INTER-LIGAND FREE ENERGY PREDICTED BY IDOCK:   -8.01 KCAL/MOL
REMARK 924 INTRA-LIGAND FREE ENERGY PREDICTED BY IDOCK:   -0.15 KCAL/MOL
REMARK 927      BINDING AFFINITY PREDICTED BY RF-SCORE:    0.00 PKD
ROOT
HETATM    1  C   UNL     1      -8.670  19.795  68.354  1.00  0.00    -0.248 C  
HETATM    2  N   UNL     1      -9.041  18.513  67.624  1.00  0.00    -0.279 N  
HETATM    3  C   UNL     1     -10.104  18.803  66.559  1.00  0.00    -0.397 C  
HETATM    4  C   UNL     1     -10.472  17.489  65.865  1.00  0.00    -0.251 C  
HETATM    5  C   UNL     1      -9.640  16.313  66.410  1.00  0.00    -0.316 C  
HETATM    6  C   UNL     1      -8.158  16.650  66.208  1.00  0.00    -0.361 C  
HETATM    7  C   UNL     1      -9.921  16.153  67.921  1.00  0.00    -0.239 C  
HETATM    8  C   UNL     1      -7.792  17.944  66.935  1.00  0.00    -0.221 C  
HETATM    9  C   UNL     1      -9.609  17.485  68.644  1.00  0.00    -0.303 C  
ENDROOT
BRANCH   7  10
HETATM   10  O   UNL     1      -9.337  14.909  68.406  1.00  0.00    -0.185 OA 
BRANCH  10  11
HETATM   11  C   UNL     1      -9.290  13.716  67.727  1.00  0.00    -0.218 C  
HETATM   12  O   UNL     1      -8.276  13.313  67.167  1.00  0.00    -0.175 OA 
HETATM   13  C   UNL     1     -10.706  13.004  67.784  1.00  0.00    -0.229 C  
HETATM   14  C   UNL     1     -10.766  11.801  68.748  1.00  0.00    -0.255 A  
HETATM   15  C   UNL     1     -11.173  12.630  66.365  1.00  0.00    -0.350 A  
HETATM   16  O   UNL     1     -11.643  13.977  68.305  1.00  0.00    -0.290 OA 
HETATM   17  H   UNL     1     -12.491  13.551  68.339  1.00  0.00     0.000 HD 
HETATM   18  C   UNL     1     -12.002  11.437  69.336  1.00  0.00    -0.407 A  
HETATM   19  C   UNL     1     -10.467  11.699  65.583  1.00  0.00    -0.314 A  
HETATM   20  C   UNL     1     -12.104  10.364  70.225  1.00  0.00    -0.370 A  
HETATM   21  C   UNL     1     -10.898  11.361  64.297  1.00  0.00    -0.416 A  
HETATM   22  C   UNL     1     -12.051  11.942  63.768  1.00  0.00    -0.547 A  
HETATM   23  C   UNL     1     -10.982   9.609  70.535  1.00  0.00    -0.374 A  
HETATM   24  C   UNL     1      -9.762   9.914  69.936  1.00  0.00    -0.274 A  
HETATM   25  C   UNL     1     -12.769  12.859  64.523  1.00  0.00    -0.359 A  
HETATM   26  C   UNL     1     -12.337  13.198  65.809  1.00  0.00    -0.496 A  
HETATM   27  C   UNL     1      -9.654  10.994  69.046  1.00  0.00    -0.136 A  
ENDBRANCH  10  11
ENDBRANCH   7  10
TORSDOF 2
ENDMDL
MODEL       16
REMARK 921   NORMALIZED FREE ENERGY PREDICTED BY IDOCK:   -6.30 KCAL/MOL
REMARK 922        TOTAL FREE ENERGY PREDICTED BY IDOCK:   -8.12 KCAL/MOL
REMARK 923 INTER-LIGAND FREE ENERGY PREDICTED BY IDOCK:   -7.91 KCAL/MOL
REMARK 924 INTRA-LIGAND FREE ENERGY PREDICTED BY IDOCK:   -0.20 KCAL/MOL
REMARK 927      BINDING AFFINITY PREDICTED BY RF-SCORE:    0.00 PKD
ROOT
HETATM    1  C   UNL     1      -7.360  19.939  65.715  1.00  0.00    -0.321 C  
HETATM    2  N   UNL     1      -8.448  19.373  66.615  1.00  0.00    -0.303 N  
HETATM    3  C   UNL     1      -8.176  19.757  68.073  1.00  0.00    -0.300 C  
HETATM    4  C   UNL     1      -9.274  19.149  68.951  1.00  0.00    -0.365 C  
HETATM    5  C   UNL     1     -10.317  18.395  68.106  1.00  0.00    -0.393 C  
HETATM    6  C   UNL     1     -10.903  19.382  67.090  1.00  0.00    -0.561 C  
HETATM    7  C   UNL     1      -9.617  17.245  67.347  1.00  0.00    -0.252 C  
HETATM    8  C   UNL     1      -9.805  19.957  66.194  1.00  0.00    -0.458 C  
HETATM    9  C   UNL     1      -8.465  17.823  66.490  1.00  0.00    -0.260 C  
ENDROOT
BRANCH   7  10
HETATM   10  O   UNL     1     -10.613  16.375  66.735  1.00  0.00    -0.299 OA 
BRANCH  10  11
HETATM   11  C   UNL     1     -10.950  15.110  67.149  1.00  0.00    -0.326 C  
HETATM   12  O   UNL     1     -11.772  14.901  68.034  1.00  0.00    -0.333 OA 
HETATM   13  C   UNL     1     -10.120  14.033  66.332  1.00  0.00    -0.294 C  
HETATM   14  C   UNL     1     -10.941  13.288  65.261  1.00  0.00    -0.307 A  
HETATM   15  C   UNL     1      -9.410  13.063  67.293  1.00  0.00    -0.220 A  
HETATM   16  O   UNL     1      -9.092  14.757  65.611  1.00  0.00    -0.433 OA 
HETATM   17  H   UNL     1      -8.595  14.112  65.121  1.00  0.00     0.000 HD 
HETATM   18  C   UNL     1     -10.288  12.759  64.121  1.00  0.00    -0.401 A  
HETATM   19  C   UNL     1     -10.138  12.211  68.144  1.00  0.00    -0.206 A  
HETATM   20  C   UNL     1     -10.992  12.087  63.117  1.00  0.00    -0.269 A  
HETATM   21  C   UNL     1      -9.487  11.330  69.012  1.00  0.00    -0.030 A  
HETATM   22  C   UNL     1      -8.093  11.276  69.044  1.00  0.00    -0.045 A  
HETATM   23  C   UNL     1     -12.362  11.902  63.233  1.00  0.00    -0.508 A  
HETATM   24  C   UNL     1     -13.024  12.371  64.365  1.00  0.00    -0.219 A  
HETATM   25  C   UNL     1      -7.354  12.103  68.210  1.00  0.00    -0.100 A  
HETATM   26  C   UNL     1      -8.003  12.985  67.342  1.00  0.00    -0.173 A  
HETATM   27  C   UNL     1     -12.322  13.049  65.373  1.00  0.00    -0.538 A  
ENDBRANCH  10  11
ENDBRANCH   7  10
TORSDOF 2
ENDMDL
MODEL       17
REMARK 921   NORMALIZED FREE ENERGY PREDICTED BY IDOCK:   -6.28 KCAL/MOL
REMARK 922        TOTAL FREE ENERGY PREDICTED BY IDOCK:   -8.09 KCAL/MOL
REMARK 923 INTER-LIGAND FREE ENERGY PREDICTED BY IDOCK:   -7.18 KCAL/MOL
REMARK 924 INTRA-LIGAND FREE ENERGY PREDICTED BY IDOCK:   -0.92 KCAL/MOL
REMARK 927      BINDING AFFINITY PREDICTED BY RF-SCORE:    0.00 PKD
ROOT
HETATM    1  C   UNL     1     -12.180  12.712  63.082  1.00  0.00    -0.244 C  
HETATM    2  N   UNL     1     -11.391  12.746  64.381  1.00  0.00    -0.327 N  
HETATM    3  C   UNL     1     -10.168  11.827  64.279  1.00  0.00    -0.302 C  
HETATM    4  C   UNL     1      -9.414  11.866  65.610  1.00  0.00    -0.180 C  
HETATM    5  C   UNL     1     -10.080  12.835  66.606  1.00  0.00    -0.248 C  
HETATM    6  C   UNL     1     -10.125  14.222  65.954  1.00  0.00    -0.344 C  
HETATM    7  C   UNL     1     -11.524  12.360  66.884  1.00  0.00    -0.360 C  
HETATM    8  C   UNL     1     -10.910  14.181  64.643  1.00  0.00    -0.386 C  
HETATM    9  C   UNL     1     -12.297  12.259  65.548  1.00  0.00    -0.024 C  
ENDROOT
BRANCH   7  10
HETATM   10  O   UNL     1     -12.089  13.114  67.996  1.00  0.00    -0.325 OA 
BRANCH  10  11
HETATM   11  C   UNL     1     -11.443  13.450  69.160  1.00  0.00    -0.300 C  
HETATM   12  O   UNL     1     -10.797  12.639  69.816  1.00  0.00     0.184 OA 
HETATM   13  C   UNL     1     -11.681  14.983  69.489  1.00  0.00    -0.322 C  
HETATM   14  C   UNL     1     -10.458  15.882  69.218  1.00  0.00    -0.253 A  
HETATM   15  C   UNL     1     -12.209  15.146  70.927  1.00  0.00    -0.398 A  
HETATM   16  O   UNL     1     -12.720  15.446  68.593  1.00  0.00    -0.169 OA 
HETATM   17  H   UNL     1     -12.863  16.365  68.790  1.00  0.00     0.000 HD 
HETATM   18  C   UNL     1     -10.650  17.251  68.909  1.00  0.00    -0.276 A  
HETATM   19  C   UNL     1     -11.429  14.779  72.039  1.00  0.00    -0.056 A  
HETATM   20  C   UNL     1      -9.573  18.101  68.643  1.00  0.00    -0.342 A  
HETATM   21  C   UNL     1     -11.913  14.932  73.341  1.00  0.00    -0.353 A  
HETATM   22  C   UNL     1     -13.184  15.463  73.560  1.00  0.00    -0.482 A  
HETATM   23  C   UNL     1      -8.274  17.617  68.701  1.00  0.00    -0.264 A  
HETATM   24  C   UNL     1      -8.052  16.286  69.046  1.00  0.00    -0.236 A  
HETATM   25  C   UNL     1     -13.970  15.837  72.479  1.00  0.00    -0.535 A  
HETATM   26  C   UNL     1     -13.488  15.683  71.177  1.00  0.00    -0.373 A  
HETATM   27  C   UNL     1      -9.130  15.428  69.311  1.00  0.00    -0.260 A  
ENDBRANCH  10  11
ENDBRANCH   7  10
TORSDOF 2
ENDMDL
MODEL       18
REMARK 921   NORMALIZED FREE ENERGY PREDICTED BY IDOCK:   -6.22 KCAL/MOL
REMARK 922        TOTAL FREE ENERGY PREDICTED BY IDOCK:   -8.03 KCAL/MOL
REMARK 923 INTER-LIGAND FREE ENERGY PREDICTED BY IDOCK:   -7.54 KCAL/MOL
REMARK 924 INTRA-LIGAND FREE ENERGY PREDICTED BY IDOCK:   -0.48 KCAL/MOL
REMARK 927      BINDING AFFINITY PREDICTED BY RF-SCORE:    0.00 PKD
ROOT
HETATM    1  C   UNL     1      -7.428   6.818  70.828  1.00  0.00    -0.083 C  
HETATM    2  N   UNL     1      -8.851   7.352  70.759  1.00  0.00    -0.148 N  
HETATM    3  C   UNL     1      -9.827   6.212  70.449  1.00  0.00    -0.178 C  
HETATM    4  C   UNL     1     -11.241   6.789  70.361  1.00  0.00    -0.378 C  
HETATM    5  C   UNL     1     -11.251   8.302  70.653  1.00  0.00    -0.270 C  
HETATM    6  C   UNL     1     -10.650   8.517  72.047  1.00  0.00    -0.408 C  
HETATM    7  C   UNL     1     -10.371   9.023  69.607  1.00  0.00    -0.212 C  
HETATM    8  C   UNL     1      -9.225   7.969  72.115  1.00  0.00    -0.172 C  
HETATM    9  C   UNL     1      -8.945   8.423  69.634  1.00  0.00    -0.145 C  
ENDROOT
BRANCH   7  10
HETATM   10  O   UNL     1     -10.555  10.465  69.712  1.00  0.00    -0.247 OA 
BRANCH  10  11
HETATM   11  C   UNL     1     -11.435  11.226  68.984  1.00  0.00    -0.302 C  
HETATM   12  O   UNL     1     -12.626  10.949  68.886  1.00  0.00    -0.338 OA 
HETATM   13  C   UNL     1     -10.673  12.448  68.319  1.00  0.00    -0.230 C  
HETATM   14  C   UNL     1     -10.946  13.805  69.000  1.00  0.00    -0.277 A  
HETATM   15  C   UNL     1     -10.955  12.495  66.806  1.00  0.00    -0.304 A  
HETATM   16  O   UNL     1      -9.256  12.198  68.487  1.00  0.00    -0.295 OA 
HETATM   17  H   UNL     1      -8.799  12.930  68.089  1.00  0.00     0.000 HD 
HETATM   18  C   UNL     1      -9.973  14.831  68.930  1.00  0.00    -0.233 A  
HETATM   19  C   UNL     1     -12.251  12.721  66.309  1.00  0.00    -0.289 A  
HETATM   20  C   UNL     1     -10.170  16.072  69.543  1.00  0.00    -0.274 A  
HETATM   21  C   UNL     1     -12.500  12.766  64.935  1.00  0.00    -0.563 A  
HETATM   22  C   UNL     1     -11.456  12.594  64.026  1.00  0.00    -0.475 A  
HETATM   23  C   UNL     1     -11.351  16.333  70.221  1.00  0.00    -0.299 A  
HETATM   24  C   UNL     1     -12.346  15.358  70.268  1.00  0.00    -0.425 A  
HETATM   25  C   UNL     1     -10.167  12.375  64.492  1.00  0.00    -0.325 A  
HETATM   26  C   UNL     1      -9.918  12.329  65.866  1.00  0.00    -0.272 A  
HETATM   27  C   UNL     1     -12.151  14.110  69.658  1.00  0.00    -0.400 A  
ENDBRANCH  10  11
ENDBRANCH   7  10
TORSDOF 2
ENDMDL
MODEL       19
REMARK 921   NORMALIZED FREE ENERGY PREDICTED BY IDOCK:   -6.17 KCAL/MOL
REMARK 922        TOTAL FREE ENERGY PREDICTED BY IDOCK:   -7.98 KCAL/MOL
REMARK 923 INTER-LIGAND FREE ENERGY PREDICTED BY IDOCK:   -7.64 KCAL/MOL
REMARK 924 INTRA-LIGAND FREE ENERGY PREDICTED BY IDOCK:   -0.34 KCAL/MOL
REMARK 927      BINDING AFFINITY PREDICTED BY RF-SCORE:    0.00 PKD
ROOT
HETATM    1  C   UNL     1      -7.474  19.697  69.204  1.00  0.00    -0.275 C  
HETATM    2  N   UNL     1      -8.476  19.270  68.142  1.00  0.00    -0.315 N  
HETATM    3  C   UNL     1      -9.057  20.502  67.440  1.00  0.00    -0.327 C  
HETATM    4  C   UNL     1     -10.078  20.036  66.399  1.00  0.00    -0.609 C  
HETATM    5  C   UNL     1     -10.168  18.499  66.348  1.00  0.00    -0.449 C  
HETATM    6  C   UNL     1      -8.769  17.956  66.035  1.00  0.00    -0.014 C  
HETATM    7  C   UNL     1     -10.616  17.974  67.730  1.00  0.00    -0.394 C  
HETATM    8  C   UNL     1      -7.764  18.396  67.098  1.00  0.00    -0.224 C  
HETATM    9  C   UNL     1      -9.631  18.474  68.814  1.00  0.00    -0.333 C  
ENDROOT
BRANCH   7  10
HETATM   10  O   UNL     1     -10.940  16.555  67.641  1.00  0.00    -0.301 OA 
BRANCH  10  11
HETATM   11  C   UNL     1     -10.375  15.546  68.382  1.00  0.00    -0.230 C  
HETATM   12  O   UNL     1      -9.183  15.521  68.665  1.00  0.00    -0.185 OA 
HETATM   13  C   UNL     1     -11.479  14.476  68.769  1.00  0.00    -0.294 C  
HETATM   14  C   UNL     1     -11.926  14.539  70.244  1.00  0.00    -0.379 A  
HETATM   15  C   UNL     1     -11.019  13.063  68.366  1.00  0.00    -0.288 A  
HETATM   16  O   UNL     1     -12.657  14.787  67.984  1.00  0.00    -0.400 OA 
HETATM   17  H   UNL     1     -13.319  14.145  68.216  1.00  0.00     0.000 HD 
HETATM   18  C   UNL     1     -13.224  14.099  70.601  1.00  0.00    -0.120 A  
HETATM   19  C   UNL     1      -9.888  12.466  68.952  1.00  0.00     0.105 A  
HETATM   20  C   UNL     1     -13.679  14.149  71.922  1.00  0.00    -0.525 A  
HETATM   21  C   UNL     1      -9.477  11.181  68.584  1.00  0.00    -0.196 A  
HETATM   22  C   UNL     1     -10.193  10.463  67.627  1.00  0.00    -0.240 A  
HETATM   23  C   UNL     1     -12.844  14.616  72.927  1.00  0.00    -0.556 A  
HETATM   24  C   UNL     1     -11.546  15.013  72.613  1.00  0.00    -0.332 A  
HETATM   25  C   UNL     1     -11.315  11.028  67.038  1.00  0.00    -0.164 A  
HETATM   26  C   UNL     1     -11.726  12.313  67.404  1.00  0.00    -0.405 A  
HETATM   27  C   UNL     1     -11.088  14.968  71.287  1.00  0.00    -0.187 A  
ENDBRANCH  10  11
ENDBRANCH   7  10
TORSDOF 2
ENDMDL
MODEL       20
REMARK 921   NORMALIZED FREE ENERGY PREDICTED BY IDOCK:   -6.16 KCAL/MOL
REMARK 922        TOTAL FREE ENERGY PREDICTED BY IDOCK:   -7.96 KCAL/MOL
REMARK 923 INTER-LIGAND FREE ENERGY PREDICTED BY IDOCK:   -6.96 KCAL/MOL
REMARK 924 INTRA-LIGAND FREE ENERGY PREDICTED BY IDOCK:   -1.00 KCAL/MOL
REMARK 927      BINDING AFFINITY PREDICTED BY RF-SCORE:    0.00 PKD
ROOT
HETATM    1  C   UNL     1     -13.634  15.351  73.201  1.00  0.00    -0.372 C  
HETATM    2  N   UNL     1     -12.896  14.917  71.944  1.00  0.00    -0.311 N  
HETATM    3  C   UNL     1     -12.846  13.388  71.864  1.00  0.00    -0.256 C  
HETATM    4  C   UNL     1     -12.075  12.989  70.603  1.00  0.00    -0.333 C  
HETATM    5  C   UNL     1     -11.638  14.226  69.796  1.00  0.00    -0.350 C  
HETATM    6  C   UNL     1     -12.896  15.029  69.446  1.00  0.00     0.344 C  
HETATM    7  C   UNL     1     -10.710  15.098  70.672  1.00  0.00    -0.121 C  
HETATM    8  C   UNL     1     -13.640  15.454  70.711  1.00  0.00    -0.199 C  
HETATM    9  C   UNL     1     -11.444  15.474  71.981  1.00  0.00    -0.428 C  
ENDROOT
BRANCH   7  10
HETATM   10  O   UNL     1     -10.094  16.139  69.859  1.00  0.00    -0.212 OA 
BRANCH  10  11
HETATM   11  C   UNL     1      -9.165  15.951  68.865  1.00  0.00    -0.232 C  
HETATM   12  O   UNL     1      -8.085  15.407  69.064  1.00  0.00    -0.176 OA 
HETATM   13  C   UNL     1      -9.708  16.541  67.497  1.00  0.00    -0.242 C  
HETATM   14  C   UNL     1     -10.169  15.470  66.488  1.00  0.00    -0.291 A  
HETATM   15  C   UNL     1      -8.675  17.505  66.883  1.00  0.00    -0.269 A  
HETATM   16  O   UNL     1     -10.888  17.319  67.816  1.00  0.00    -0.351 OA 
HETATM   17  H   UNL     1     -11.213  17.673  66.996  1.00  0.00     0.000 HD 
HETATM   18  C   UNL     1     -11.157  15.793  65.527  1.00  0.00    -0.193 A  
HETATM   19  C   UNL     1      -7.410  17.053  66.466  1.00  0.00    -0.320 A  
HETATM   20  C   UNL     1     -11.616  14.852  64.601  1.00  0.00    -0.395 A  
HETATM   21  C   UNL     1      -6.478  17.932  65.907  1.00  0.00    -0.294 A  
HETATM   22  C   UNL     1      -6.794  19.281  65.745  1.00  0.00    -0.306 A  
HETATM   23  C   UNL     1     -11.086  13.570  64.592  1.00  0.00    -0.383 A  
HETATM   24  C   UNL     1     -10.079  13.236  65.496  1.00  0.00    -0.274 A  
HETATM   25  C   UNL     1      -8.038  19.750  66.145  1.00  0.00    -0.357 A  
HETATM   26  C   UNL     1      -8.970  18.872  66.705  1.00  0.00    -0.329 A  
HETATM   27  C   UNL     1      -9.619  14.177  66.429  1.00  0.00    -0.310 A  
ENDBRANCH  10  11
ENDBRANCH   7  10
TORSDOF 2
ENDMDL
MODEL       21
REMARK 921   NORMALIZED FREE ENERGY PREDICTED BY IDOCK:   -6.14 KCAL/MOL
REMARK 922        TOTAL FREE ENERGY PREDICTED BY IDOCK:   -7.94 KCAL/MOL
REMARK 923 INTER-LIGAND FREE ENERGY PREDICTED BY IDOCK:   -7.48 KCAL/MOL
REMARK 924 INTRA-LIGAND FREE ENERGY PREDICTED BY IDOCK:   -0.46 KCAL/MOL
REMARK 927      BINDING AFFINITY PREDICTED BY RF-SCORE:    0.00 PKD
ROOT
HETATM    1  C   UNL     1      -8.389   6.996  66.979  1.00  0.00    -0.121 C  
HETATM    2  N   UNL     1      -8.636   7.749  68.277  1.00  0.00    -0.124 N  
HETATM    3  C   UNL     1      -8.835   6.760  69.430  1.00  0.00    -0.135 C  
HETATM    4  C   UNL     1      -9.107   7.550  70.712  1.00  0.00    -0.154 C  
HETATM    5  C   UNL     1      -9.050   9.069  70.459  1.00  0.00    -0.259 C  
HETATM    6  C   UNL     1      -7.667   9.400  69.887  1.00  0.00    -0.114 C  
HETATM    7  C   UNL     1     -10.131   9.448  69.422  1.00  0.00    -0.198 C  
HETATM    8  C   UNL     1      -7.418   8.633  68.588  1.00  0.00    -0.096 C  
HETATM    9  C   UNL     1      -9.914   8.624  68.130  1.00  0.00    -0.178 C  
ENDROOT
BRANCH   7  10
HETATM   10  O   UNL     1     -10.258  10.898  69.346  1.00  0.00    -0.206 OA 
BRANCH  10  11
HETATM   11  C   UNL     1     -11.319  11.593  68.819  1.00  0.00    -0.264 C  
HETATM   12  O   UNL     1     -12.381  11.055  68.525  1.00  0.00    -0.536 OA 
HETATM   13  C   UNL     1     -10.937  13.124  68.656  1.00  0.00    -0.265 C  
HETATM   14  C   UNL     1     -11.586  14.048  69.707  1.00  0.00    -0.344 A  
HETATM   15  C   UNL     1     -11.221  13.596  67.219  1.00  0.00    -0.329 A  
HETATM   16  O   UNL     1      -9.508  13.223  68.869  1.00  0.00    -0.403 OA 
HETATM   17  H   UNL     1      -9.279  14.140  68.773  1.00  0.00     0.000 HD 
HETATM   18  C   UNL     1     -10.947  15.261  70.062  1.00  0.00    -0.306 A  
HETATM   19  C   UNL     1     -12.528  13.617  66.699  1.00  0.00    -0.291 A  
HETATM   20  C   UNL     1     -11.489  16.124  71.018  1.00  0.00    -0.424 A  
HETATM   21  C   UNL     1     -12.779  14.050  65.394  1.00  0.00    -0.499 A  
HETATM   22  C   UNL     1     -11.729  14.479  64.582  1.00  0.00    -0.438 A  
HETATM   23  C   UNL     1     -12.696  15.815  71.628  1.00  0.00    -0.515 A  
HETATM   24  C   UNL     1     -13.371  14.652  71.266  1.00  0.00    -0.447 A  
HETATM   25  C   UNL     1     -10.432  14.472  65.074  1.00  0.00    -0.454 A  
HETATM   26  C   UNL     1     -10.179  14.039  66.378  1.00  0.00    -0.293 A  
HETATM   27  C   UNL     1     -12.828  13.780  70.310  1.00  0.00    -0.093 A  
ENDBRANCH  10  11
ENDBRANCH   7  10
TORSDOF 2
ENDMDL
MODEL       22
REMARK 921   NORMALIZED FREE ENERGY PREDICTED BY IDOCK:   -6.14 KCAL/MOL
REMARK 922        TOTAL FREE ENERGY PREDICTED BY IDOCK:   -7.94 KCAL/MOL
REMARK 923 INTER-LIGAND FREE ENERGY PREDICTED BY IDOCK:   -6.96 KCAL/MOL
REMARK 924 INTRA-LIGAND FREE ENERGY PREDICTED BY IDOCK:   -0.98 KCAL/MOL
REMARK 927      BINDING AFFINITY PREDICTED BY RF-SCORE:    0.00 PKD
ROOT
HETATM    1  C   UNL     1     -10.368  17.972  67.700  1.00  0.00    -0.388 C  
HETATM    2  N   UNL     1     -10.319  16.549  67.163  1.00  0.00    -0.296 N  
HETATM    3  C   UNL     1     -10.699  16.534  65.678  1.00  0.00    -0.248 C  
HETATM    4  C   UNL     1     -10.665  15.088  65.179  1.00  0.00    -0.434 C  
HETATM    5  C   UNL     1     -10.221  14.119  66.292  1.00  0.00    -0.301 C  
HETATM    6  C   UNL     1      -8.840  14.569  66.784  1.00  0.00    -0.248 C  
HETATM    7  C   UNL     1     -11.226  14.201  67.463  1.00  0.00    -0.306 C  
HETATM    8  C   UNL     1      -8.891  16.002  67.313  1.00  0.00    -0.190 C  
HETATM    9  C   UNL     1     -11.323  15.664  67.955  1.00  0.00    -0.324 C  
ENDROOT
BRANCH   7  10
HETATM   10  O   UNL     1     -10.965  13.129  68.416  1.00  0.00    -0.241 OA 
BRANCH  10  11
HETATM   11  C   UNL     1     -11.130  11.784  68.190  1.00  0.00    -0.243 C  
HETATM   12  O   UNL     1     -12.225  11.282  67.961  1.00  0.00    -0.621 OA 
HETATM   13  C   UNL     1      -9.731  11.043  68.288  1.00  0.00    -0.177 C  
HETATM   14  C   UNL     1      -9.146  10.623  66.924  1.00  0.00    -0.168 A  
HETATM   15  C   UNL     1      -9.821   9.858  69.267  1.00  0.00    -0.217 A  
HETATM   16  O   UNL     1      -8.792  11.994  68.846  1.00  0.00    -0.376 OA 
HETATM   17  H   UNL     1      -7.954  11.550  68.904  1.00  0.00     0.000 HD 
HETATM   18  C   UNL     1      -7.744  10.493  66.774  1.00  0.00    -0.118 A  
HETATM   19  C   UNL     1     -10.660   8.758  69.010  1.00  0.00    -0.191 A  
HETATM   20  C   UNL     1      -7.167  10.128  65.554  1.00  0.00    -0.142 A  
HETATM   21  C   UNL     1     -10.734   7.684  69.901  1.00  0.00    -0.253 A  
HETATM   22  C   UNL     1      -9.966   7.683  71.066  1.00  0.00    -0.188 A  
HETATM   23  C   UNL     1      -7.972   9.858  64.457  1.00  0.00    -0.145 A  
HETATM   24  C   UNL     1      -9.357   9.932  64.587  1.00  0.00    -0.338 A  
HETATM   25  C   UNL     1      -9.127   8.754  71.338  1.00  0.00    -0.313 A  
HETATM   26  C   UNL     1      -9.053   9.829  70.448  1.00  0.00    -0.154 A  
HETATM   27  C   UNL     1      -9.940  10.302  65.808  1.00  0.00    -0.337 A  
ENDBRANCH  10  11
ENDBRANCH   7  10
TORSDOF 2
ENDMDL
MODEL       23
REMARK 921   NORMALIZED FREE ENERGY PREDICTED BY IDOCK:   -6.14 KCAL/MOL
REMARK 922        TOTAL FREE ENERGY PREDICTED BY IDOCK:   -7.94 KCAL/MOL
REMARK 923 INTER-LIGAND FREE ENERGY PREDICTED BY IDOCK:   -7.46 KCAL/MOL
REMARK 924 INTRA-LIGAND FREE ENERGY PREDICTED BY IDOCK:   -0.47 KCAL/MOL
REMARK 927      BINDING AFFINITY PREDICTED BY RF-SCORE:    0.00 PKD
ROOT
HETATM    1  C   UNL     1     -10.668  10.087  69.829  1.00  0.00    -0.271 C  
HETATM    2  N   UNL     1     -10.601  10.858  68.519  1.00  0.00    -0.179 N  
HETATM    3  C   UNL     1     -10.440   9.887  67.344  1.00  0.00    -0.267 C  
HETATM    4  C   UNL     1     -10.350  10.698  66.049  1.00  0.00    -0.290 C  
HETATM    5  C   UNL     1     -10.495  12.207  66.319  1.00  0.00    -0.270 C  
HETATM    6  C   UNL     1     -11.839  12.433  67.022  1.00  0.00    -0.368 C  
HETATM    7  C   UNL     1      -9.353  12.665  67.253  1.00  0.00    -0.195 C  
HETATM    8  C   UNL     1     -11.905  11.648  68.332  1.00  0.00    -0.278 C  
HETATM    9  C   UNL     1      -9.384  11.825  68.552  1.00  0.00    -0.156 C  
ENDROOT
BRANCH   7  10
HETATM   10  O   UNL     1      -9.327  14.121  67.328  1.00  0.00    -0.209 OA 
BRANCH  10  11
HETATM   11  C   UNL     1      -9.357  14.874  68.476  1.00  0.00    -0.196 C  
HETATM   12  O   UNL     1      -8.552  14.723  69.388  1.00  0.00    -0.100 OA 
HETATM   13  C   UNL     1     -10.562  15.904  68.416  1.00  0.00    -0.266 C  
HETATM   14  C   UNL     1     -10.131  17.360  68.148  1.00  0.00    -0.328 A  
HETATM   15  C   UNL     1     -11.432  15.783  69.680  1.00  0.00    -0.348 A  
HETATM   16  O   UNL     1     -11.385  15.520  67.287  1.00  0.00    -0.281 OA 
HETATM   17  H   UNL     1     -12.106  16.137  67.250  1.00  0.00     0.000 HD 
HETATM   18  C   UNL     1     -11.033  18.252  67.517  1.00  0.00    -0.140 A  
HETATM   19  C   UNL     1     -10.919  16.087  70.954  1.00  0.00    -0.169 A  
HETATM   20  C   UNL     1     -10.683  19.577  67.242  1.00  0.00    -0.604 A  
HETATM   21  C   UNL     1     -11.715  15.978  72.098  1.00  0.00    -0.587 A  
HETATM   22  C   UNL     1     -13.045  15.571  71.991  1.00  0.00    -0.535 A  
HETATM   23  C   UNL     1      -9.434  20.057  67.609  1.00  0.00    -0.498 A  
HETATM   24  C   UNL     1      -8.542  19.216  68.271  1.00  0.00    -0.370 A  
HETATM   25  C   UNL     1     -13.576  15.271  70.745  1.00  0.00    -0.313 A  
HETATM   26  C   UNL     1     -12.780  15.378  69.601  1.00  0.00     0.047 A  
HETATM   27  C   UNL     1      -8.888  17.884  68.546  1.00  0.00    -0.293 A  
ENDBRANCH  10  11
ENDBRANCH   7  10
TORSDOF 2
ENDMDL
MODEL       24
REMARK 921   NORMALIZED FREE ENERGY PREDICTED BY IDOCK:   -6.10 KCAL/MOL
REMARK 922        TOTAL FREE ENERGY PREDICTED BY IDOCK:   -7.90 KCAL/MOL
REMARK 923 INTER-LIGAND FREE ENERGY PREDICTED BY IDOCK:   -7.31 KCAL/MOL
REMARK 924 INTRA-LIGAND FREE ENERGY PREDICTED BY IDOCK:   -0.59 KCAL/MOL
REMARK 927      BINDING AFFINITY PREDICTED BY RF-SCORE:    0.00 PKD
ROOT
HETATM    1  C   UNL     1      -6.382  18.309  67.913  1.00  0.00    -0.190 C  
HETATM    2  N   UNL     1      -7.898  18.415  67.839  1.00  0.00    -0.251 N  
HETATM    3  C   UNL     1      -8.402  19.461  68.840  1.00  0.00    -0.300 C  
HETATM    4  C   UNL     1      -9.929  19.521  68.757  1.00  0.00    -0.547 C  
HETATM    5  C   UNL     1     -10.472  18.563  67.680  1.00  0.00    -0.452 C  
HETATM    6  C   UNL     1      -9.829  18.945  66.342  1.00  0.00    -0.412 C  
HETATM    7  C   UNL     1     -10.066  17.116  68.041  1.00  0.00    -0.311 C  
HETATM    8  C   UNL     1      -8.306  18.848  66.423  1.00  0.00    -0.296 C  
HETATM    9  C   UNL     1      -8.528  17.035  68.184  1.00  0.00    -0.227 C  
ENDROOT
BRANCH   7  10
HETATM   10  O   UNL     1     -10.766  16.174  67.176  1.00  0.00    -0.310 OA 
BRANCH  10  11
HETATM   11  C   UNL     1     -10.184  15.243  66.351  1.00  0.00    -0.277 C  
HETATM   12  O   UNL     1      -9.380  15.546  65.476  1.00  0.00    -0.248 OA 
HETATM   13  C   UNL     1     -10.721  13.794  66.706  1.00  0.00    -0.276 C  
HETATM   14  C   UNL     1      -9.707  12.917  67.469  1.00  0.00    -0.205 A  
HETATM   15  C   UNL     1     -11.250  13.094  65.440  1.00  0.00    -0.315 A  
HETATM   16  O   UNL     1     -11.844  13.972  67.603  1.00  0.00    -0.357 OA 
HETATM   17  H   UNL     1     -12.166  13.103  67.816  1.00  0.00     0.000 HD 
HETATM   18  C   UNL     1     -10.173  11.891  68.326  1.00  0.00    -0.207 A  
HETATM   19  C   UNL     1     -10.397  12.779  64.367  1.00  0.00    -0.388 A  
HETATM   20  C   UNL     1      -9.293  11.080  69.048  1.00  0.00    -0.105 A  
HETATM   21  C   UNL     1     -10.883  12.142  63.222  1.00  0.00    -0.381 A  
HETATM   22  C   UNL     1     -12.232  11.798  63.129  1.00  0.00    -0.273 A  
HETATM   23  C   UNL     1      -7.923  11.253  68.918  1.00  0.00    -0.104 A  
HETATM   24  C   UNL     1      -7.433  12.225  68.047  1.00  0.00    -0.115 A  
HETATM   25  C   UNL     1     -13.092  12.093  64.177  1.00  0.00    -0.113 A  
HETATM   26  C   UNL     1     -12.607  12.732  65.322  1.00  0.00    -0.460 A  
HETATM   27  C   UNL     1      -8.313  13.043  67.324  1.00  0.00    -0.186 A  
ENDBRANCH  10  11
ENDBRANCH   7  10
TORSDOF 2
ENDMDL
MODEL       25
REMARK 921   NORMALIZED FREE ENERGY PREDICTED BY IDOCK:   -6.06 KCAL/MOL
REMARK 922        TOTAL FREE ENERGY PREDICTED BY IDOCK:   -7.85 KCAL/MOL
REMARK 923 INTER-LIGAND FREE ENERGY PREDICTED BY IDOCK:   -7.42 KCAL/MOL
REMARK 924 INTRA-LIGAND FREE ENERGY PREDICTED BY IDOCK:   -0.43 KCAL/MOL
REMARK 927      BINDING AFFINITY PREDICTED BY RF-SCORE:    0.00 PKD
ROOT
HETATM    1  C   UNL     1     -10.407  10.191  65.189  1.00  0.00    -0.038 C  
HETATM    2  N   UNL     1     -10.520  11.150  66.365  1.00  0.00    -0.252 N  
HETATM    3  C   UNL     1     -11.029  10.406  67.604  1.00  0.00    -0.312 C  
HETATM    4  C   UNL     1     -11.155  11.405  68.757  1.00  0.00    -0.290 C  
HETATM    5  C   UNL     1     -10.694  12.813  68.334  1.00  0.00    -0.269 C  
HETATM    6  C   UNL     1      -9.244  12.708  67.848  1.00  0.00    -0.201 C  
HETATM    7  C   UNL     1     -11.583  13.306  67.170  1.00  0.00    -0.357 C  
HETATM    8  C   UNL     1      -9.133  11.735  66.674  1.00  0.00    -0.194 C  
HETATM    9  C   UNL     1     -11.518  12.287  66.007  1.00  0.00    -0.381 C  
ENDROOT
BRANCH   7  10
HETATM   10  O   UNL     1     -11.327  14.718  66.914  1.00  0.00    -0.344 OA 
BRANCH  10  11
HETATM   11  C   UNL     1     -10.888  15.642  67.830  1.00  0.00    -0.306 C  
HETATM   12  O   UNL     1     -11.452  15.830  68.902  1.00  0.00    -0.334 OA 
HETATM   13  C   UNL     1      -9.602  16.387  67.275  1.00  0.00    -0.234 C  
HETATM   14  C   UNL     1      -8.283  15.943  67.938  1.00  0.00    -0.151 A  
HETATM   15  C   UNL     1      -9.797  17.913  67.343  1.00  0.00    -0.305 A  
HETATM   16  O   UNL     1      -9.483  16.029  65.876  1.00  0.00    -0.318 OA 
HETATM   17  H   UNL     1      -8.713  16.475  65.543  1.00  0.00     0.000 HD 
HETATM   18  C   UNL     1      -7.067  16.051  67.220  1.00  0.00    -0.238 A  
HETATM   19  C   UNL     1      -9.947  18.577  68.573  1.00  0.00    -0.419 A  
HETATM   20  C   UNL     1      -5.848  15.649  67.774  1.00  0.00    -0.163 A  
HETATM   21  C   UNL     1     -10.120  19.963  68.629  1.00  0.00    -0.518 A  
HETATM   22  C   UNL     1     -10.139  20.716  67.454  1.00  0.00    -0.359 A  
HETATM   23  C   UNL     1      -5.804  15.150  69.068  1.00  0.00    -0.097 A  
HETATM   24  C   UNL     1      -6.977  15.074  69.815  1.00  0.00    -0.182 A  
HETATM   25  C   UNL     1      -9.987  20.084  66.229  1.00  0.00    -0.597 A  
HETATM   26  C   UNL     1      -9.815  18.698  66.172  1.00  0.00    -0.308 A  
HETATM   27  C   UNL     1      -8.203  15.473  69.261  1.00  0.00    -0.255 A  
ENDBRANCH  10  11
ENDBRANCH   7  10
TORSDOF 2
ENDMDL
MODEL       26
REMARK 921   NORMALIZED FREE ENERGY PREDICTED BY IDOCK:   -6.06 KCAL/MOL
REMARK 922        TOTAL FREE ENERGY PREDICTED BY IDOCK:   -7.85 KCAL/MOL
REMARK 923 INTER-LIGAND FREE ENERGY PREDICTED BY IDOCK:   -7.13 KCAL/MOL
REMARK 924 INTRA-LIGAND FREE ENERGY PREDICTED BY IDOCK:   -0.72 KCAL/MOL
REMARK 927      BINDING AFFINITY PREDICTED BY RF-SCORE:    0.00 PKD
ROOT
HETATM    1  C   UNL     1     -11.190  12.534  63.696  1.00  0.00    -0.483 C  
HETATM    2  N   UNL     1     -10.984  13.194  65.051  1.00  0.00    -0.293 N  
HETATM    3  C   UNL     1     -10.307  14.557  64.875  1.00  0.00    -0.371 C  
HETATM    4  C   UNL     1     -10.092  15.179  66.257  1.00  0.00    -0.299 C  
HETATM    5  C   UNL     1     -10.656  14.279  67.372  1.00  0.00    -0.276 C  
HETATM    6  C   UNL     1     -12.146  14.057  67.090  1.00  0.00    -0.436 C  
HETATM    7  C   UNL     1      -9.927  12.917  67.339  1.00  0.00    -0.217 C  
HETATM    8  C   UNL     1     -12.350  13.403  65.723  1.00  0.00    -0.460 C  
HETATM    9  C   UNL     1     -10.082  12.286  65.934  1.00  0.00    -0.251 C  
ENDROOT
BRANCH   7  10
HETATM   10  O   UNL     1     -10.270  12.141  68.525  1.00  0.00    -0.216 OA 
BRANCH  10  11
HETATM   11  C   UNL     1     -10.802  10.876  68.541  1.00  0.00    -0.220 C  
HETATM   12  O   UNL     1     -11.950  10.636  68.184  1.00  0.00    -0.460 OA 
HETATM   13  C   UNL     1      -9.728   9.844  69.088  1.00  0.00    -0.198 C  
HETATM   14  C   UNL     1      -9.101   8.952  67.997  1.00  0.00    -0.143 A  
HETATM   15  C   UNL     1     -10.323   9.013  70.240  1.00  0.00    -0.243 A  
HETATM   16  O   UNL     1      -8.639  10.625  69.637  1.00  0.00    -0.381 OA 
HETATM   17  H   UNL     1      -7.996  10.007  69.964  1.00  0.00     0.000 HD 
HETATM   18  C   UNL     1      -7.800   8.426  68.185  1.00  0.00    -0.111 A  
HETATM   19  C   UNL     1     -11.409   8.143  70.030  1.00  0.00     0.000 A  
HETATM   20  C   UNL     1      -7.184   7.625  67.220  1.00  0.00    -0.090 A  
HETATM   21  C   UNL     1     -11.943   7.389  71.080  1.00  0.00    -0.337 A  
HETATM   22  C   UNL     1     -11.396   7.483  72.360  1.00  0.00    -0.360 A  
HETATM   23  C   UNL     1      -7.858   7.305  66.050  1.00  0.00    -0.106 A  
HETATM   24  C   UNL     1      -9.157   7.771  65.856  1.00  0.00    -0.122 A  
HETATM   25  C   UNL     1     -10.322   8.330  72.590  1.00  0.00    -0.374 A  
HETATM   26  C   UNL     1      -9.788   9.085  71.542  1.00  0.00    -0.381 A  
HETATM   27  C   UNL     1      -9.776   8.579  66.821  1.00  0.00    -0.303 A  
ENDBRANCH  10  11
ENDBRANCH   7  10
TORSDOF 2
ENDMDL
MODEL       27
REMARK 921   NORMALIZED FREE ENERGY PREDICTED BY IDOCK:   -6.04 KCAL/MOL
REMARK 922        TOTAL FREE ENERGY PREDICTED BY IDOCK:   -7.83 KCAL/MOL
REMARK 923 INTER-LIGAND FREE ENERGY PREDICTED BY IDOCK:   -6.75 KCAL/MOL
REMARK 924 INTRA-LIGAND FREE ENERGY PREDICTED BY IDOCK:   -1.08 KCAL/MOL
REMARK 927      BINDING AFFINITY PREDICTED BY RF-SCORE:    0.00 PKD
ROOT
HETATM    1  C   UNL     1     -13.464   6.728  71.847  1.00  0.00    -0.037 C  
HETATM    2  N   UNL     1     -12.416   7.743  71.414  1.00  0.00    -0.323 N  
HETATM    3  C   UNL     1     -11.324   7.860  72.483  1.00  0.00    -0.390 C  
HETATM    4  C   UNL     1     -10.304   8.906  72.027  1.00  0.00    -0.378 C  
HETATM    5  C   UNL     1     -10.660   9.471  70.639  1.00  0.00    -0.374 C  
HETATM    6  C   UNL     1     -10.728   8.297  69.655  1.00  0.00    -0.196 C  
HETATM    7  C   UNL     1     -12.046  10.151  70.711  1.00  0.00    -0.343 C  
HETATM    8  C   UNL     1     -11.774   7.275  70.099  1.00  0.00    -0.057 C  
HETATM    9  C   UNL     1     -13.092   9.130  71.221  1.00  0.00    -0.240 C  
ENDROOT
BRANCH   7  10
HETATM   10  O   UNL     1     -12.297  10.897  69.485  1.00  0.00    -0.321 OA 
BRANCH  10  11
HETATM   11  C   UNL     1     -11.545  11.939  69.000  1.00  0.00    -0.317 C  
HETATM   12  O   UNL     1     -11.394  12.988  69.616  1.00  0.00    -0.208 OA 
HETATM   13  C   UNL     1     -10.953  11.564  67.577  1.00  0.00    -0.255 C  
HETATM   14  C   UNL     1      -9.448  11.228  67.591  1.00  0.00    -0.173 A  
HETATM   15  C   UNL     1     -11.290  12.662  66.552  1.00  0.00    -0.377 A  
HETATM   16  O   UNL     1     -11.625  10.354  67.151  1.00  0.00    -0.291 OA 
HETATM   17  H   UNL     1     -11.270  10.128  66.298  1.00  0.00     0.000 HD 
HETATM   18  C   UNL     1      -8.915  10.362  66.605  1.00  0.00    -0.155 A  
HETATM   19  C   UNL     1     -10.786  13.968  66.686  1.00  0.00    -0.281 A  
HETATM   20  C   UNL     1      -7.560  10.019  66.585  1.00  0.00    -0.104 A  
HETATM   21  C   UNL     1     -11.093  14.960  65.749  1.00  0.00    -0.342 A  
HETATM   22  C   UNL     1     -11.905  14.664  64.654  1.00  0.00    -0.459 A  
HETATM   23  C   UNL     1      -6.694  10.548  67.531  1.00  0.00    -0.070 A  
HETATM   24  C   UNL     1      -7.181  11.438  68.486  1.00  0.00    -0.093 A  
HETATM   25  C   UNL     1     -12.409  13.381  64.497  1.00  0.00    -0.415 A  
HETATM   26  C   UNL     1     -12.104  12.389  65.433  1.00  0.00    -0.428 A  
HETATM   27  C   UNL     1      -8.541  11.782  68.512  1.00  0.00    -0.123 A  
ENDBRANCH  10  11
ENDBRANCH   7  10
TORSDOF 2
ENDMDL
MODEL       28
REMARK 921   NORMALIZED FREE ENERGY PREDICTED BY IDOCK:   -6.01 KCAL/MOL
REMARK 922        TOTAL FREE ENERGY PREDICTED BY IDOCK:   -7.79 KCAL/MOL
REMARK 923 INTER-LIGAND FREE ENERGY PREDICTED BY IDOCK:   -7.18 KCAL/MOL
REMARK 924 INTRA-LIGAND FREE ENERGY PREDICTED BY IDOCK:   -0.62 KCAL/MOL
REMARK 927      BINDING AFFINITY PREDICTED BY RF-SCORE:    0.00 PKD
ROOT
HETATM    1  C   UNL     1      -8.705   8.247  72.486  1.00  0.00    -0.217 C  
HETATM    2  N   UNL     1      -9.452   8.685  71.235  1.00  0.00    -0.200 N  
HETATM    3  C   UNL     1      -9.727   7.475  70.335  1.00  0.00    -0.179 C  
HETATM    4  C   UNL     1     -10.455   7.957  69.077  1.00  0.00    -0.210 C  
HETATM    5  C   UNL     1     -10.722   9.473  69.128  1.00  0.00    -0.228 C  
HETATM    6  C   UNL     1     -11.543   9.765  70.389  1.00  0.00    -0.327 C  
HETATM    7  C   UNL     1      -9.373  10.220  69.219  1.00  0.00    -0.207 C  
HETATM    8  C   UNL     1     -10.794   9.314  71.642  1.00  0.00    -0.348 C  
HETATM    9  C   UNL     1      -8.589   9.716  70.454  1.00  0.00    -0.157 C  
ENDROOT
BRANCH   7  10
HETATM   10  O   UNL     1      -9.583  11.650  69.026  1.00  0.00    -0.054 OA 
BRANCH  10  11
HETATM   11  C   UNL     1      -9.155  12.396  67.955  1.00  0.00    -0.195 C  
HETATM   12  O   UNL     1      -7.989  12.403  67.578  1.00  0.00    -0.151 OA 
HETATM   13  C   UNL     1     -10.371  13.208  67.341  1.00  0.00    -0.239 C  
HETATM   14  C   UNL     1     -10.898  12.638  66.008  1.00  0.00    -0.306 A  
HETATM   15  C   UNL     1     -10.015  14.701  67.228  1.00  0.00    -0.235 A  
HETATM   16  O   UNL     1     -11.467  13.095  68.281  1.00  0.00    -0.272 OA 
HETATM   17  H   UNL     1     -12.196  13.581  67.913  1.00  0.00     0.000 HD 
HETATM   18  C   UNL     1     -12.249  12.853  65.640  1.00  0.00    -0.519 A  
HETATM   19  C   UNL     1      -8.979  15.145  66.387  1.00  0.00    -0.314 A  
HETATM   20  C   UNL     1     -12.776  12.344  64.449  1.00  0.00    -0.434 A  
HETATM   21  C   UNL     1      -8.661  16.503  66.287  1.00  0.00    -0.369 A  
HETATM   22  C   UNL     1      -9.380  17.448  67.020  1.00  0.00    -0.265 A  
HETATM   23  C   UNL     1     -11.965  11.629  63.580  1.00  0.00    -0.374 A  
HETATM   24  C   UNL     1     -10.620  11.441  63.893  1.00  0.00    -0.452 A  
HETATM   25  C   UNL     1     -10.410  17.034  67.853  1.00  0.00    -0.338 A  
HETATM   26  C   UNL     1     -10.727  15.677  67.955  1.00  0.00    -0.294 A  
HETATM   27  C   UNL     1     -10.089  11.946  65.090  1.00  0.00    -0.293 A  
ENDBRANCH  10  11
ENDBRANCH   7  10
TORSDOF 2
ENDMDL
MODEL       29
REMARK 921   NORMALIZED FREE ENERGY PREDICTED BY IDOCK:   -5.96 KCAL/MOL
REMARK 922        TOTAL FREE ENERGY PREDICTED BY IDOCK:   -7.73 KCAL/MOL
REMARK 923 INTER-LIGAND FREE ENERGY PREDICTED BY IDOCK:   -7.19 KCAL/MOL
REMARK 924 INTRA-LIGAND FREE ENERGY PREDICTED BY IDOCK:   -0.55 KCAL/MOL
REMARK 927      BINDING AFFINITY PREDICTED BY RF-SCORE:    0.00 PKD
ROOT
HETATM    1  C   UNL     1     -10.761   7.660  69.656  1.00  0.00    -0.228 C  
HETATM    2  N   UNL     1      -9.805   8.514  68.837  1.00  0.00    -0.172 N  
HETATM    3  C   UNL     1      -8.524   7.729  68.535  1.00  0.00    -0.129 C  
HETATM    4  C   UNL     1      -7.578   8.626  67.734  1.00  0.00    -0.098 C  
HETATM    5  C   UNL     1      -8.215   9.999  67.444  1.00  0.00    -0.118 C  
HETATM    6  C   UNL     1      -9.526   9.759  66.686  1.00  0.00    -0.220 C  
HETATM    7  C   UNL     1      -8.527  10.703  68.783  1.00  0.00    -0.149 C  
HETATM    8  C   UNL     1     -10.479   8.892  67.509  1.00  0.00    -0.269 C  
HETATM    9  C   UNL     1      -9.441   9.795  69.640  1.00  0.00    -0.219 C  
ENDROOT
BRANCH   7  10
HETATM   10  O   UNL     1      -8.903  12.090  68.539  1.00  0.00    -0.166 OA 
BRANCH  10  11
HETATM   11  C   UNL     1     -10.127  12.533  68.102  1.00  0.00    -0.225 C  
HETATM   12  O   UNL     1     -11.181  12.196  68.631  1.00  0.00    -0.229 OA 
HETATM   13  C   UNL     1      -9.942  13.493  66.853  1.00  0.00    -0.256 C  
HETATM   14  C   UNL     1     -10.149  14.988  67.173  1.00  0.00    -0.239 A  
HETATM   15  C   UNL     1     -10.826  13.026  65.683  1.00  0.00    -0.293 A  
HETATM   16  O   UNL     1      -8.562  13.366  66.430  1.00  0.00    -0.422 OA 
HETATM   17  H   UNL     1      -8.451  13.941  65.682  1.00  0.00     0.000 HD 
HETATM   18  C   UNL     1      -9.495  15.968  66.389  1.00  0.00    -0.322 A  
HETATM   19  C   UNL     1     -12.230  13.026  65.780  1.00  0.00    -0.511 A  
HETATM   20  C   UNL     1      -9.641  17.334  66.649  1.00  0.00    -0.286 A  
HETATM   21  C   UNL     1     -13.027  12.603  64.713  1.00  0.00    -0.191 A  
HETATM   22  C   UNL     1     -12.439  12.178  63.522  1.00  0.00    -0.666 A  
HETATM   23  C   UNL     1     -10.463  17.761  67.682  1.00  0.00    -0.393 A  
HETATM   24  C   UNL     1     -11.156  16.821  68.441  1.00  0.00    -0.266 A  
HETATM   25  C   UNL     1     -11.057  12.175  63.400  1.00  0.00    -0.495 A  
HETATM   26  C   UNL     1     -10.258  12.596  64.467  1.00  0.00    -0.331 A  
HETATM   27  C   UNL     1     -11.008  15.449  68.186  1.00  0.00    -0.297 A  
ENDBRANCH  10  11
ENDBRANCH   7  10
TORSDOF 2
ENDMDL
MODEL       30
REMARK 921   NORMALIZED FREE ENERGY PREDICTED BY IDOCK:   -5.93 KCAL/MOL
REMARK 922        TOTAL FREE ENERGY PREDICTED BY IDOCK:   -7.70 KCAL/MOL
REMARK 923 INTER-LIGAND FREE ENERGY PREDICTED BY IDOCK:   -6.97 KCAL/MOL
REMARK 924 INTRA-LIGAND FREE ENERGY PREDICTED BY IDOCK:   -0.73 KCAL/MOL
REMARK 927      BINDING AFFINITY PREDICTED BY RF-SCORE:    0.00 PKD
ROOT
HETATM    1  C   UNL     1      -9.884  10.807  67.117  1.00  0.00    -0.185 C  
HETATM    2  N   UNL     1     -10.477  11.746  66.077  1.00  0.00    -0.238 N  
HETATM    3  C   UNL     1     -10.482  11.072  64.701  1.00  0.00    -0.329 C  
HETATM    4  C   UNL     1     -11.059  12.054  63.678  1.00  0.00    -0.525 C  
HETATM    5  C   UNL     1     -11.492  13.373  64.346  1.00  0.00    -0.417 C  
HETATM    6  C   UNL     1     -12.520  13.035  65.432  1.00  0.00    -0.531 C  
HETATM    7  C   UNL     1     -10.260  14.033  65.005  1.00  0.00    -0.368 C  
HETATM    8  C   UNL     1     -11.924  12.083  66.469  1.00  0.00    -0.006 C  
HETATM    9  C   UNL     1      -9.621  13.043  66.007  1.00  0.00    -0.165 C  
ENDROOT
BRANCH   7  10
HETATM   10  O   UNL     1     -10.591  15.387  65.431  1.00  0.00    -0.350 OA 
BRANCH  10  11
HETATM   11  C   UNL     1     -10.469  15.890  66.703  1.00  0.00    -0.306 C  
HETATM   12  O   UNL     1     -11.299  15.679  67.580  1.00  0.00    -0.313 OA 
HETATM   13  C   UNL     1      -9.143  16.753  66.819  1.00  0.00    -0.241 C  
HETATM   14  C   UNL     1      -8.006  16.057  67.595  1.00  0.00    -0.160 A  
HETATM   15  C   UNL     1      -9.461  18.147  67.389  1.00  0.00    -0.255 A  
HETATM   16  O   UNL     1      -8.646  16.940  65.471  1.00  0.00    -0.296 OA 
HETATM   17  H   UNL     1      -7.852  17.457  65.541  1.00  0.00     0.000 HD 
HETATM   18  C   UNL     1      -6.659  16.393  67.314  1.00  0.00    -0.222 A  
HETATM   19  C   UNL     1      -9.968  18.308  68.691  1.00  0.00    -0.410 A  
HETATM   20  C   UNL     1      -5.595  15.780  67.982  1.00  0.00    -0.140 A  
HETATM   21  C   UNL     1     -10.252  19.577  69.204  1.00  0.00    -0.267 A  
HETATM   22  C   UNL     1     -10.027  20.714  68.427  1.00  0.00     0.063 A  
HETATM   23  C   UNL     1      -5.844  14.834  68.965  1.00  0.00    -0.092 A  
HETATM   24  C   UNL     1      -7.160  14.516  69.295  1.00  0.00    -0.140 A  
HETATM   25  C   UNL     1      -9.522  20.582  67.142  1.00  0.00    -0.544 A  
HETATM   26  C   UNL     1      -9.239  19.313  66.628  1.00  0.00    -0.379 A  
HETATM   27  C   UNL     1      -8.231  15.126  68.625  1.00  0.00    -0.154 A  
ENDBRANCH  10  11
ENDBRANCH   7  10
TORSDOF 2
ENDMDL
MODEL       31
REMARK 921   NORMALIZED FREE ENERGY PREDICTED BY IDOCK:   -5.89 KCAL/MOL
REMARK 922        TOTAL FREE ENERGY PREDICTED BY IDOCK:   -7.66 KCAL/MOL
REMARK 923 INTER-LIGAND FREE ENERGY PREDICTED BY IDOCK:   -7.01 KCAL/MOL
REMARK 924 INTRA-LIGAND FREE ENERGY PREDICTED BY IDOCK:   -0.65 KCAL/MOL
REMARK 927      BINDING AFFINITY PREDICTED BY RF-SCORE:    0.00 PKD
ROOT
HETATM    1  C   UNL     1     -11.390  13.802  69.020  1.00  0.00    -0.289 C  
HETATM    2  N   UNL     1     -10.980  12.706  68.049  1.00  0.00    -0.225 N  
HETATM    3  C   UNL     1     -11.608  12.958  66.674  1.00  0.00    -0.372 C  
HETATM    4  C   UNL     1     -11.196  11.823  65.732  1.00  0.00    -0.337 C  
HETATM    5  C   UNL     1     -10.257  10.824  66.433  1.00  0.00    -0.294 C  
HETATM    6  C   UNL     1      -9.033  11.599  66.935  1.00  0.00    -0.191 C  
HETATM    7  C   UNL     1     -10.992  10.203  67.642  1.00  0.00    -0.268 C  
HETATM    8  C   UNL     1      -9.451  12.707  67.902  1.00  0.00    -0.204 C  
HETATM    9  C   UNL     1     -11.469  11.331  68.588  1.00  0.00    -0.297 C  
ENDROOT
BRANCH   7  10
HETATM   10  O   UNL     1     -10.220   9.087  68.174  1.00  0.00    -0.187 OA 
BRANCH  10  11
HETATM   11  C   UNL     1      -9.990   8.818  69.501  1.00  0.00    -0.195 C  
HETATM   12  O   UNL     1      -9.195   9.460  70.178  1.00  0.00    -0.198 OA 
HETATM   13  C   UNL     1     -10.879   7.589  69.966  1.00  0.00    -0.249 C  
HETATM   14  C   UNL     1     -12.087   7.982  70.840  1.00  0.00    -0.164 A  
HETATM   15  C   UNL     1     -10.001   6.520  70.643  1.00  0.00    -0.206 A  
HETATM   16  O   UNL     1     -11.433   6.996  68.766  1.00  0.00    -0.494 OA 
HETATM   17  H   UNL     1     -11.966   6.260  69.044  1.00  0.00     0.000 HD 
HETATM   18  C   UNL     1     -13.238   7.158  70.854  1.00  0.00    -0.037 A  
HETATM   19  C   UNL     1      -9.314   6.788  71.841  1.00  0.00    -0.146 A  
HETATM   20  C   UNL     1     -14.363   7.479  71.619  1.00  0.00    -0.621 A  
HETATM   21  C   UNL     1      -8.521   5.813  72.452  1.00  0.00    -0.118 A  
HETATM   22  C   UNL     1      -8.404   4.545  71.882  1.00  0.00    -0.108 A  
HETATM   23  C   UNL     1     -14.362   8.619  72.411  1.00  0.00    -0.429 A  
HETATM   24  C   UNL     1     -13.227   9.425  72.452  1.00  0.00    -0.483 A  
HETATM   25  C   UNL     1      -9.077   4.255  70.704  1.00  0.00    -0.175 A  
HETATM   26  C   UNL     1      -9.869   5.230  70.091  1.00  0.00    -0.290 A  
HETATM   27  C   UNL     1     -12.098   9.108  71.682  1.00  0.00    -0.432 A  
ENDBRANCH  10  11
ENDBRANCH   7  10
TORSDOF 2
ENDMDL
MODEL       32
REMARK 921   NORMALIZED FREE ENERGY PREDICTED BY IDOCK:   -5.88 KCAL/MOL
REMARK 922        TOTAL FREE ENERGY PREDICTED BY IDOCK:   -7.65 KCAL/MOL
REMARK 923 INTER-LIGAND FREE ENERGY PREDICTED BY IDOCK:   -6.75 KCAL/MOL
REMARK 924 INTRA-LIGAND FREE ENERGY PREDICTED BY IDOCK:   -0.90 KCAL/MOL
REMARK 927      BINDING AFFINITY PREDICTED BY RF-SCORE:    0.00 PKD
ROOT
HETATM    1  C   UNL     1     -11.495  15.849  68.685  1.00  0.00    -0.391 C  
HETATM    2  N   UNL     1     -11.379  14.358  68.405  1.00  0.00    -0.273 N  
HETATM    3  C   UNL     1     -11.995  14.029  67.042  1.00  0.00    -0.438 C  
HETATM    4  C   UNL     1     -11.884  12.521  66.806  1.00  0.00    -0.416 C  
HETATM    5  C   UNL     1     -11.158  11.821  67.971  1.00  0.00    -0.297 C  
HETATM    6  C   UNL     1      -9.773  12.463  68.115  1.00  0.00    -0.214 C  
HETATM    7  C   UNL     1     -11.958  12.047  69.273  1.00  0.00    -0.270 C  
HETATM    8  C   UNL     1      -9.894  13.963  68.386  1.00  0.00    -0.229 C  
HETATM    9  C   UNL     1     -12.134  13.566  69.511  1.00  0.00    -0.297 C  
ENDROOT
BRANCH   7  10
HETATM   10  O   UNL     1     -11.427  11.202  70.335  1.00  0.00    -0.290 OA 
BRANCH  10  11
HETATM   11  C   UNL     1     -11.654   9.857  70.491  1.00  0.00    -0.309 C  
HETATM   12  O   UNL     1     -12.778   9.387  70.627  1.00  0.00    -0.087 OA 
HETATM   13  C   UNL     1     -10.277   9.070  70.479  1.00  0.00    -0.219 C  
HETATM   14  C   UNL     1     -10.007   8.295  69.173  1.00  0.00    -0.196 A  
HETATM   15  C   UNL     1     -10.167   8.165  71.720  1.00  0.00    -0.275 A  
HETATM   16  O   UNL     1      -9.227  10.064  70.575  1.00  0.00    -0.322 OA 
HETATM   17  H   UNL     1      -8.401   9.592  70.567  1.00  0.00     0.000 HD 
HETATM   18  C   UNL     1      -8.672   8.041  68.773  1.00  0.00    -0.131 A  
HETATM   19  C   UNL     1     -11.054   7.093  71.925  1.00  0.00    -0.268 A  
HETATM   20  C   UNL     1      -8.378   7.355  67.591  1.00  0.00    -0.118 A  
HETATM   21  C   UNL     1     -10.947   6.273  73.052  1.00  0.00    -0.271 A  
HETATM   22  C   UNL     1      -9.944   6.502  73.994  1.00  0.00    -0.320 A  
HETATM   23  C   UNL     1      -9.405   6.882  66.788  1.00  0.00    -0.190 A  
HETATM   24  C   UNL     1     -10.728   7.077  67.179  1.00  0.00    -0.433 A  
HETATM   25  C   UNL     1      -9.053   7.550  73.811  1.00  0.00    -0.311 A  
HETATM   26  C   UNL     1      -9.160   8.371  72.685  1.00  0.00    -0.311 A  
HETATM   27  C   UNL     1     -11.028   7.769  68.362  1.00  0.00     0.128 A  
ENDBRANCH  10  11
ENDBRANCH   7  10
TORSDOF 2
ENDMDL
MODEL       33
REMARK 921   NORMALIZED FREE ENERGY PREDICTED BY IDOCK:   -5.87 KCAL/MOL
REMARK 922        TOTAL FREE ENERGY PREDICTED BY IDOCK:   -7.64 KCAL/MOL
REMARK 923 INTER-LIGAND FREE ENERGY PREDICTED BY IDOCK:   -6.99 KCAL/MOL
REMARK 924 INTRA-LIGAND FREE ENERGY PREDICTED BY IDOCK:   -0.65 KCAL/MOL
REMARK 927      BINDING AFFINITY PREDICTED BY RF-SCORE:    0.00 PKD
ROOT
HETATM    1  C   UNL     1      -8.144   7.276  65.340  1.00  0.00    -0.133 C  
HETATM    2  N   UNL     1      -8.951   7.309  66.629  1.00  0.00    -0.144 N  
HETATM    3  C   UNL     1      -9.865   6.082  66.710  1.00  0.00    -0.163 C  
HETATM    4  C   UNL     1     -10.679   6.163  68.004  1.00  0.00    -0.370 C  
HETATM    5  C   UNL     1     -10.300   7.406  68.830  1.00  0.00    -0.214 C  
HETATM    6  C   UNL     1      -8.797   7.335  69.125  1.00  0.00    -0.136 C  
HETATM    7  C   UNL     1     -10.592   8.674  67.998  1.00  0.00    -0.145 C  
HETATM    8  C   UNL     1      -7.990   7.291  67.827  1.00  0.00    -0.115 C  
HETATM    9  C   UNL     1      -9.823   8.597  66.657  1.00  0.00    -0.266 C  
ENDROOT
BRANCH   7  10
HETATM   10  O   UNL     1     -10.470   9.859  68.838  1.00  0.00    -0.193 OA 
BRANCH  10  11
HETATM   11  C   UNL     1      -9.914  11.060  68.472  1.00  0.00    -0.193 C  
HETATM   12  O   UNL     1      -8.706  11.267  68.508  1.00  0.00    -0.150 OA 
HETATM   13  C   UNL     1     -11.052  12.073  68.032  1.00  0.00    -0.241 C  
HETATM   14  C   UNL     1     -11.140  12.296  66.509  1.00  0.00    -0.343 A  
HETATM   15  C   UNL     1     -10.914  13.399  68.802  1.00  0.00    -0.290 A  
HETATM   16  O   UNL     1     -12.314  11.478  68.420  1.00  0.00    -0.461 OA 
HETATM   17  H   UNL     1     -12.996  12.084  68.156  1.00  0.00     0.000 HD 
HETATM   18  C   UNL     1     -12.376  12.672  65.927  1.00  0.00    -0.247 A  
HETATM   19  C   UNL     1      -9.785  14.223  68.646  1.00  0.00    -0.213 A  
HETATM   20  C   UNL     1     -12.508  12.873  64.550  1.00  0.00    -0.468 A  
HETATM   21  C   UNL     1      -9.667  15.427  69.345  1.00  0.00    -0.273 A  
HETATM   22  C   UNL     1     -10.681  15.838  70.211  1.00  0.00    -0.342 A  
HETATM   23  C   UNL     1     -11.408  12.728  63.717  1.00  0.00    -0.520 A  
HETATM   24  C   UNL     1     -10.169  12.404  64.266  1.00  0.00    -0.358 A  
HETATM   25  C   UNL     1     -11.807  15.045  70.378  1.00  0.00    -0.345 A  
HETATM   26  C   UNL     1     -11.925  13.840  69.680  1.00  0.00    -0.399 A  
HETATM   27  C   UNL     1     -10.033  12.197  65.647  1.00  0.00    -0.271 A  
ENDBRANCH  10  11
ENDBRANCH   7  10
TORSDOF 2
ENDMDL
MODEL       34
REMARK 921   NORMALIZED FREE ENERGY PREDICTED BY IDOCK:   -5.85 KCAL/MOL
REMARK 922        TOTAL FREE ENERGY PREDICTED BY IDOCK:   -7.62 KCAL/MOL
REMARK 923 INTER-LIGAND FREE ENERGY PREDICTED BY IDOCK:   -7.53 KCAL/MOL
REMARK 924 INTRA-LIGAND FREE ENERGY PREDICTED BY IDOCK:   -0.09 KCAL/MOL
REMARK 927      BINDING AFFINITY PREDICTED BY RF-SCORE:    0.00 PKD
ROOT
HETATM    1  C   UNL     1      -7.513   6.816  68.844  1.00  0.00    -0.096 C  
HETATM    2  N   UNL     1      -8.290   7.934  68.164  1.00  0.00    -0.123 N  
HETATM    3  C   UNL     1      -7.663   8.259  66.804  1.00  0.00    -0.094 C  
HETATM    4  C   UNL     1      -8.452   9.403  66.162  1.00  0.00    -0.127 C  
HETATM    5  C   UNL     1      -9.639   9.832  67.045  1.00  0.00    -0.218 C  
HETATM    6  C   UNL     1     -10.527   8.603  67.270  1.00  0.00    -0.360 C  
HETATM    7  C   UNL     1      -9.102  10.324  68.408  1.00  0.00    -0.136 C  
HETATM    8  C   UNL     1      -9.741   7.479  67.944  1.00  0.00    -0.146 C  
HETATM    9  C   UNL     1      -8.253   9.205  69.059  1.00  0.00    -0.115 C  
ENDROOT
BRANCH   7  10
HETATM   10  O   UNL     1     -10.175  10.956  69.166  1.00  0.00    -0.213 OA 
BRANCH  10  11
HETATM   11  C   UNL     1     -11.199  11.709  68.647  1.00  0.00    -0.250 C  
HETATM   12  O   UNL     1     -12.253  11.216  68.262  1.00  0.00    -0.613 OA 
HETATM   13  C   UNL     1     -10.789  13.241  68.627  1.00  0.00    -0.259 C  
HETATM   14  C   UNL     1     -11.474  14.090  69.716  1.00  0.00    -0.293 A  
HETATM   15  C   UNL     1     -10.997  13.831  67.220  1.00  0.00    -0.302 A  
HETATM   16  O   UNL     1      -9.370  13.298  68.913  1.00  0.00    -0.394 OA 
HETATM   17  H   UNL     1      -9.124  14.216  68.901  1.00  0.00     0.000 HD 
HETATM   18  C   UNL     1     -10.836  15.259  70.197  1.00  0.00    -0.302 A  
HETATM   19  C   UNL     1     -12.277  13.917  66.643  1.00  0.00    -0.465 A  
HETATM   20  C   UNL     1     -11.411  16.053  71.193  1.00  0.00    -0.470 A  
HETATM   21  C   UNL     1     -12.460  14.457  65.367  1.00  0.00    -0.357 A  
HETATM   22  C   UNL     1     -11.366  14.930  64.642  1.00  0.00    -0.362 A  
HETATM   23  C   UNL     1     -12.650  15.718  71.720  1.00  0.00    -0.524 A  
HETATM   24  C   UNL     1     -13.323  14.599  71.234  1.00  0.00    -0.447 A  
HETATM   25  C   UNL     1     -10.094  14.862  65.192  1.00  0.00    -0.354 A  
HETATM   26  C   UNL     1      -9.910  14.321  66.467  1.00  0.00    -0.299 A  
HETATM   27  C   UNL     1     -12.747  13.797  70.238  1.00  0.00    -0.208 A  
ENDBRANCH  10  11
ENDBRANCH   7  10
TORSDOF 2
ENDMDL
MODEL       35
REMARK 921   NORMALIZED FREE ENERGY PREDICTED BY IDOCK:   -5.82 KCAL/MOL
REMARK 922        TOTAL FREE ENERGY PREDICTED BY IDOCK:   -7.58 KCAL/MOL
REMARK 923 INTER-LIGAND FREE ENERGY PREDICTED BY IDOCK:   -6.62 KCAL/MOL
REMARK 924 INTRA-LIGAND FREE ENERGY PREDICTED BY IDOCK:   -0.96 KCAL/MOL
REMARK 927      BINDING AFFINITY PREDICTED BY RF-SCORE:    0.00 PKD
ROOT
HETATM    1  C   UNL     1      -6.039  21.293  66.281  1.00  0.00    -0.260 C  
HETATM    2  N   UNL     1      -6.694  20.160  67.057  1.00  0.00    -0.214 N  
HETATM    3  C   UNL     1      -6.298  20.236  68.535  1.00  0.00    -0.311 C  
HETATM    4  C   UNL     1      -6.951  19.068  69.278  1.00  0.00    -0.302 C  
HETATM    5  C   UNL     1      -7.826  18.221  68.335  1.00  0.00    -0.318 C  
HETATM    6  C   UNL     1      -8.882  19.144  67.716  1.00  0.00    -0.339 C  
HETATM    7  C   UNL     1      -6.940  17.640  67.210  1.00  0.00    -0.166 C  
HETATM    8  C   UNL     1      -8.221  20.287  66.946  1.00  0.00    -0.294 C  
HETATM    9  C   UNL     1      -6.223  18.797  66.473  1.00  0.00    -0.178 C  
ENDROOT
BRANCH   7  10
HETATM   10  O   UNL     1      -7.690  16.649  66.449  1.00  0.00    -0.280 OA 
BRANCH  10  11
HETATM   11  C   UNL     1      -8.056  15.399  66.884  1.00  0.00    -0.224 C  
HETATM   12  O   UNL     1      -7.242  14.570  67.276  1.00  0.00    -0.177 OA 
HETATM   13  C   UNL     1      -9.630  15.229  66.782  1.00  0.00    -0.241 C  
HETATM   14  C   UNL     1     -10.359  15.294  68.139  1.00  0.00    -0.242 A  
HETATM   15  C   UNL     1      -9.979  13.949  66.000  1.00  0.00    -0.325 A  
HETATM   16  O   UNL     1     -10.122  16.353  66.012  1.00  0.00    -0.316 OA 
HETATM   17  H   UNL     1     -11.065  16.251  65.951  1.00  0.00     0.000 HD 
HETATM   18  C   UNL     1     -11.707  15.725  68.189  1.00  0.00    -0.175 A  
HETATM   19  C   UNL     1      -9.630  12.676  66.486  1.00  0.00    -0.248 A  
HETATM   20  C   UNL     1     -12.405  15.813  69.397  1.00  0.00    -0.034 A  
HETATM   21  C   UNL     1      -9.953  11.517  65.773  1.00  0.00    -0.271 A  
HETATM   22  C   UNL     1     -10.640  11.607  64.562  1.00  0.00    -0.373 A  
HETATM   23  C   UNL     1     -11.787  15.451  70.585  1.00  0.00    -0.388 A  
HETATM   24  C   UNL     1     -10.476  14.980  70.562  1.00  0.00     0.045 A  
HETATM   25  C   UNL     1     -10.999  12.851  64.065  1.00  0.00    -0.447 A  
HETATM   26  C   UNL     1     -10.676  14.010  64.776  1.00  0.00    -0.442 A  
HETATM   27  C   UNL     1      -9.771  14.894  69.352  1.00  0.00    -0.099 A  
ENDBRANCH  10  11
ENDBRANCH   7  10
TORSDOF 2
ENDMDL
MODEL       36
REMARK 921   NORMALIZED FREE ENERGY PREDICTED BY IDOCK:   -5.81 KCAL/MOL
REMARK 922        TOTAL FREE ENERGY PREDICTED BY IDOCK:   -7.57 KCAL/MOL
REMARK 923 INTER-LIGAND FREE ENERGY PREDICTED BY IDOCK:   -7.52 KCAL/MOL
REMARK 924 INTRA-LIGAND FREE ENERGY PREDICTED BY IDOCK:   -0.05 KCAL/MOL
REMARK 927      BINDING AFFINITY PREDICTED BY RF-SCORE:    0.00 PKD
ROOT
HETATM    1  C   UNL     1     -10.597  20.215  65.350  1.00  0.00    -0.018 C  
HETATM    2  N   UNL     1      -9.611  19.610  66.338  1.00  0.00    -0.378 N  
HETATM    3  C   UNL     1      -8.175  19.948  65.922  1.00  0.00    -0.211 C  
HETATM    4  C   UNL     1      -7.211  19.303  66.921  1.00  0.00    -0.217 C  
HETATM    5  C   UNL     1      -7.971  18.568  68.041  1.00  0.00    -0.293 C  
HETATM    6  C   UNL     1      -8.889  19.582  68.732  1.00  0.00    -0.354 C  
HETATM    7  C   UNL     1      -8.835  17.450  67.415  1.00  0.00    -0.227 C  
HETATM    8  C   UNL     1      -9.872  20.195  67.734  1.00  0.00    -0.410 C  
HETATM    9  C   UNL     1      -9.785  18.065  66.359  1.00  0.00    -0.321 C  
ENDROOT
BRANCH   7  10
HETATM   10  O   UNL     1      -9.372  16.591  68.463  1.00  0.00    -0.213 OA 
BRANCH  10  11
HETATM   11  C   UNL     1     -10.672  16.163  68.575  1.00  0.00    -0.300 C  
HETATM   12  O   UNL     1     -11.606  16.735  68.025  1.00  0.00     0.001 OA 
HETATM   13  C   UNL     1     -10.741  14.877  69.501  1.00  0.00    -0.244 C  
HETATM   14  C   UNL     1     -10.971  13.560  68.732  1.00  0.00    -0.291 A  
HETATM   15  C   UNL     1     -11.778  15.080  70.621  1.00  0.00    -0.357 A  
HETATM   16  O   UNL     1      -9.444  14.747  70.133  1.00  0.00    -0.252 OA 
HETATM   17  H   UNL     1      -9.485  13.976  70.688  1.00  0.00     0.000 HD 
HETATM   18  C   UNL     1     -10.504  12.340  69.279  1.00  0.00     0.149 A  
HETATM   19  C   UNL     1     -13.145  15.243  70.331  1.00  0.00    -0.240 A  
HETATM   20  C   UNL     1     -10.676  11.123  68.613  1.00  0.00    -0.234 A  
HETATM   21  C   UNL     1     -14.083  15.423  71.352  1.00  0.00    -0.539 A  
HETATM   22  C   UNL     1     -13.674  15.437  72.686  1.00  0.00    -0.640 A  
HETATM   23  C   UNL     1     -11.341  11.085  67.396  1.00  0.00    -0.306 A  
HETATM   24  C   UNL     1     -11.851  12.263  66.855  1.00  0.00    -0.334 A  
HETATM   25  C   UNL     1     -12.332  15.273  72.997  1.00  0.00    -0.525 A  
HETATM   26  C   UNL     1     -11.394  15.094  71.977  1.00  0.00    -0.358 A  
HETATM   27  C   UNL     1     -11.677  13.487  67.518  1.00  0.00    -0.403 A  
ENDBRANCH  10  11
ENDBRANCH   7  10
TORSDOF 2
ENDMDL
MODEL       37
REMARK 921   NORMALIZED FREE ENERGY PREDICTED BY IDOCK:   -5.76 KCAL/MOL
REMARK 922        TOTAL FREE ENERGY PREDICTED BY IDOCK:   -7.52 KCAL/MOL
REMARK 923 INTER-LIGAND FREE ENERGY PREDICTED BY IDOCK:   -6.90 KCAL/MOL
REMARK 924 INTRA-LIGAND FREE ENERGY PREDICTED BY IDOCK:   -0.62 KCAL/MOL
REMARK 927      BINDING AFFINITY PREDICTED BY RF-SCORE:    0.00 PKD
ROOT
HETATM    1  C   UNL     1     -10.595  12.216  63.636  1.00  0.00    -0.461 C  
HETATM    2  N   UNL     1     -10.660  12.809  65.035  1.00  0.00    -0.298 N  
HETATM    3  C   UNL     1     -10.336  14.306  64.988  1.00  0.00    -0.421 C  
HETATM    4  C   UNL     1     -10.384  14.863  66.413  1.00  0.00    -0.291 C  
HETATM    5  C   UNL     1     -10.783  13.775  67.428  1.00  0.00    -0.279 C  
HETATM    6  C   UNL     1     -12.145  13.214  67.006  1.00  0.00    -0.366 C  
HETATM    7  C   UNL     1      -9.735  12.640  67.390  1.00  0.00    -0.199 C  
HETATM    8  C   UNL     1     -12.079  12.628  65.596  1.00  0.00    -0.443 C  
HETATM    9  C   UNL     1      -9.624  12.092  65.947  1.00  0.00    -0.223 C  
ENDROOT
BRANCH   7  10
HETATM   10  O   UNL     1      -9.956  11.723  68.501  1.00  0.00    -0.205 OA 
BRANCH  10  11
HETATM   11  C   UNL     1      -9.146  10.674  68.860  1.00  0.00    -0.176 C  
HETATM   12  O   UNL     1      -7.966  10.820  69.157  1.00  0.00    -0.143 OA 
HETATM   13  C   UNL     1      -9.966   9.316  68.812  1.00  0.00    -0.181 C  
HETATM   14  C   UNL     1     -10.343   8.760  70.199  1.00  0.00    -0.225 A  
HETATM   15  C   UNL     1      -9.223   8.274  67.955  1.00  0.00    -0.142 A  
HETATM   16  O   UNL     1     -11.219   9.608  68.147  1.00  0.00    -0.505 OA 
HETATM   17  H   UNL     1     -11.710   8.795  68.118  1.00  0.00     0.000 HD 
HETATM   18  C   UNL     1     -11.492   7.943  70.337  1.00  0.00    -0.154 A  
HETATM   19  C   UNL     1      -7.961   7.781  68.333  1.00  0.00    -0.122 A  
HETATM   20  C   UNL     1     -11.882   7.427  71.576  1.00  0.00    -0.327 A  
HETATM   21  C   UNL     1      -7.294   6.832  67.552  1.00  0.00    -0.096 A  
HETATM   22  C   UNL     1      -7.878   6.351  66.381  1.00  0.00    -0.104 A  
HETATM   23  C   UNL     1     -11.124   7.690  72.708  1.00  0.00    -0.437 A  
HETATM   24  C   UNL     1      -9.964   8.452  72.596  1.00  0.00    -0.329 A  
HETATM   25  C   UNL     1      -9.125   6.818  65.990  1.00  0.00    -0.103 A  
HETATM   26  C   UNL     1      -9.792   7.767  66.769  1.00  0.00    -0.312 A  
HETATM   27  C   UNL     1      -9.571   8.976  71.355  1.00  0.00    -0.356 A  
ENDBRANCH  10  11
ENDBRANCH   7  10
TORSDOF 2
ENDMDL
MODEL       38
REMARK 921   NORMALIZED FREE ENERGY PREDICTED BY IDOCK:   -5.75 KCAL/MOL
REMARK 922        TOTAL FREE ENERGY PREDICTED BY IDOCK:   -7.50 KCAL/MOL
REMARK 923 INTER-LIGAND FREE ENERGY PREDICTED BY IDOCK:   -6.97 KCAL/MOL
REMARK 924 INTRA-LIGAND FREE ENERGY PREDICTED BY IDOCK:   -0.53 KCAL/MOL
REMARK 927      BINDING AFFINITY PREDICTED BY RF-SCORE:    0.00 PKD
ROOT
HETATM    1  C   UNL     1     -11.491  13.835  67.009  1.00  0.00    -0.346 C  
HETATM    2  N   UNL     1     -10.719  12.600  66.570  1.00  0.00    -0.248 N  
HETATM    3  C   UNL     1     -10.905  12.370  65.067  1.00  0.00    -0.295 C  
HETATM    4  C   UNL     1     -10.139  11.107  64.667  1.00  0.00    -0.358 C  
HETATM    5  C   UNL     1      -9.393  10.497  65.869  1.00  0.00    -0.220 C  
HETATM    6  C   UNL     1      -8.447  11.565  66.428  1.00  0.00    -0.138 C  
HETATM    7  C   UNL     1     -10.420  10.112  66.957  1.00  0.00    -0.240 C  
HETATM    8  C   UNL     1      -9.225  12.809  66.858  1.00  0.00    -0.229 C  
HETATM    9  C   UNL     1     -11.249  11.359  67.345  1.00  0.00    -0.305 C  
ENDROOT
BRANCH   7  10
HETATM   10  O   UNL     1      -9.772   9.319  67.994  1.00  0.00    -0.144 OA 
BRANCH  10  11
HETATM   11  C   UNL     1     -10.372   8.371  68.785  1.00  0.00    -0.206 C  
HETATM   12  O   UNL     1     -10.903   7.366  68.326  1.00  0.00    -0.138 OA 
HETATM   13  C   UNL     1     -10.271   8.795  70.310  1.00  0.00    -0.196 C  
HETATM   14  C   UNL     1      -9.231   7.993  71.118  1.00  0.00    -0.174 A  
HETATM   15  C   UNL     1     -11.662   8.763  70.968  1.00  0.00    -0.329 A  
HETATM   16  O   UNL     1      -9.814  10.170  70.332  1.00  0.00    -0.393 OA 
HETATM   17  H   UNL     1      -9.753  10.425  71.246  1.00  0.00     0.000 HD 
HETATM   18  C   UNL     1      -8.622   8.580  72.254  1.00  0.00    -0.235 A  
HETATM   19  C   UNL     1     -12.382   7.562  71.099  1.00  0.00    -0.321 A  
HETATM   20  C   UNL     1      -7.665   7.897  73.010  1.00  0.00    -0.166 A  
HETATM   21  C   UNL     1     -13.644   7.539  71.700  1.00  0.00    -0.442 A  
HETATM   22  C   UNL     1     -14.210   8.716  72.190  1.00  0.00    -0.520 A  
HETATM   23  C   UNL     1      -7.306   6.601  72.669  1.00  0.00    -0.088 A  
HETATM   24  C   UNL     1      -7.922   5.980  71.585  1.00  0.00    -0.110 A  
HETATM   25  C   UNL     1     -13.517   9.913  72.077  1.00  0.00    -0.478 A  
HETATM   26  C   UNL     1     -12.256   9.937  71.475  1.00  0.00    -0.505 A  
HETATM   27  C   UNL     1      -8.880   6.664  70.821  1.00  0.00    -0.147 A  
ENDBRANCH  10  11
ENDBRANCH   7  10
TORSDOF 2
ENDMDL
MODEL       39
REMARK 921   NORMALIZED FREE ENERGY PREDICTED BY IDOCK:   -5.71 KCAL/MOL
REMARK 922        TOTAL FREE ENERGY PREDICTED BY IDOCK:   -7.46 KCAL/MOL
REMARK 923 INTER-LIGAND FREE ENERGY PREDICTED BY IDOCK:   -7.05 KCAL/MOL
REMARK 924 INTRA-LIGAND FREE ENERGY PREDICTED BY IDOCK:   -0.41 KCAL/MOL
REMARK 927      BINDING AFFINITY PREDICTED BY RF-SCORE:    0.00 PKD
ROOT
HETATM    1  C   UNL     1      -7.336  19.304  69.430  1.00  0.00    -0.178 C  
HETATM    2  N   UNL     1      -7.030  18.037  68.645  1.00  0.00    -0.251 N  
HETATM    3  C   UNL     1      -6.452  18.395  67.272  1.00  0.00    -0.186 C  
HETATM    4  C   UNL     1      -6.182  17.100  66.502  1.00  0.00    -0.248 C  
HETATM    5  C   UNL     1      -6.525  15.860  67.349  1.00  0.00    -0.209 C  
HETATM    6  C   UNL     1      -5.694  15.924  68.636  1.00  0.00    -0.101 C  
HETATM    7  C   UNL     1      -8.026  15.898  67.715  1.00  0.00    -0.141 C  
HETATM    8  C   UNL     1      -5.996  17.203  69.416  1.00  0.00    -0.222 C  
HETATM    9  C   UNL     1      -8.341  17.223  68.449  1.00  0.00    -0.261 C  
ENDROOT
BRANCH   7  10
HETATM   10  O   UNL     1      -8.425  14.627  68.306  1.00  0.00    -0.145 OA 
BRANCH  10  11
HETATM   11  C   UNL     1      -8.726  13.474  67.624  1.00  0.00    -0.194 C  
HETATM   12  O   UNL     1      -7.883  12.830  67.010  1.00  0.00    -0.125 OA 
HETATM   13  C   UNL     1     -10.274  13.155  67.755  1.00  0.00    -0.231 C  
HETATM   14  C   UNL     1     -10.597  11.995  68.719  1.00  0.00    -0.237 A  
HETATM   15  C   UNL     1     -10.896  12.938  66.363  1.00  0.00    -0.293 A  
HETATM   16  O   UNL     1     -10.896  14.331  68.327  1.00  0.00    -0.236 OA 
HETATM   17  H   UNL     1     -11.824  14.140  68.407  1.00  0.00     0.000 HD 
HETATM   18  C   UNL     1     -11.853  11.957  69.372  1.00  0.00    -0.389 A  
HETATM   19  C   UNL     1     -10.498  11.867  65.543  1.00  0.00    -0.309 A  
HETATM   20  C   UNL     1     -12.187  10.934  70.264  1.00  0.00    -0.432 A  
HETATM   21  C   UNL     1     -11.068  11.674  64.281  1.00  0.00    -0.406 A  
HETATM   22  C   UNL     1     -12.055  12.543  63.816  1.00  0.00    -0.615 A  
HETATM   23  C   UNL     1     -11.287   9.907  70.512  1.00  0.00    -0.399 A  
HETATM   24  C   UNL     1     -10.061   9.894  69.850  1.00  0.00    -0.297 A  
HETATM   25  C   UNL     1     -12.468  13.604  64.610  1.00  0.00    -0.359 A  
HETATM   26  C   UNL     1     -11.898  13.798  65.871  1.00  0.00    -0.405 A  
HETATM   27  C   UNL     1      -9.721  10.921  68.957  1.00  0.00    -0.181 A  
ENDBRANCH  10  11
ENDBRANCH   7  10
TORSDOF 2
ENDMDL
MODEL       40
REMARK 921   NORMALIZED FREE ENERGY PREDICTED BY IDOCK:   -5.69 KCAL/MOL
REMARK 922        TOTAL FREE ENERGY PREDICTED BY IDOCK:   -7.43 KCAL/MOL
REMARK 923 INTER-LIGAND FREE ENERGY PREDICTED BY IDOCK:   -6.92 KCAL/MOL
REMARK 924 INTRA-LIGAND FREE ENERGY PREDICTED BY IDOCK:   -0.52 KCAL/MOL
REMARK 927      BINDING AFFINITY PREDICTED BY RF-SCORE:    0.00 PKD
ROOT
HETATM    1  C   UNL     1     -12.262  13.229  63.397  1.00  0.00    -0.403 C  
HETATM    2  N   UNL     1     -11.658  13.373  64.786  1.00  0.00    -0.327 N  
HETATM    3  C   UNL     1     -10.513  14.391  64.760  1.00  0.00    -0.367 C  
HETATM    4  C   UNL     1      -9.914  14.489  66.165  1.00  0.00    -0.330 C  
HETATM    5  C   UNL     1     -10.666  13.587  67.162  1.00  0.00    -0.282 C  
HETATM    6  C   UNL     1     -12.140  14.006  67.157  1.00  0.00    -0.436 C  
HETATM    7  C   UNL     1     -10.556  12.118  66.694  1.00  0.00    -0.235 C  
HETATM    8  C   UNL     1     -12.740  13.870  65.758  1.00  0.00    -0.461 C  
HETATM    9  C   UNL     1     -11.106  11.996  65.253  1.00  0.00    -0.317 C  
ENDROOT
BRANCH   7  10
HETATM   10  O   UNL     1     -11.048  11.227  67.738  1.00  0.00    -0.230 OA 
BRANCH  10  11
HETATM   11  C   UNL     1     -10.710   9.906  67.902  1.00  0.00    -0.265 C  
HETATM   12  O   UNL     1     -10.959   9.050  67.061  1.00  0.00    -0.091 OA 
HETATM   13  C   UNL     1      -9.994   9.700  69.302  1.00  0.00    -0.191 C  
HETATM   14  C   UNL     1      -8.470   9.490  69.204  1.00  0.00    -0.131 A  
HETATM   15  C   UNL     1     -10.682   8.573  70.094  1.00  0.00    -0.240 A  
HETATM   16  O   UNL     1     -10.178  10.927  70.050  1.00  0.00    -0.396 OA 
HETATM   17  H   UNL     1      -9.748  10.804  70.889  1.00  0.00     0.000 HD 
HETATM   18  C   UNL     1      -7.641   9.855  70.293  1.00  0.00    -0.172 A  
HETATM   19  C   UNL     1     -10.684   7.246  69.627  1.00  0.00    -0.249 A  
HETATM   20  C   UNL     1      -6.253   9.696  70.245  1.00  0.00    -0.070 A  
HETATM   21  C   UNL     1     -11.308   6.227  70.352  1.00  0.00    -0.440 A  
HETATM   22  C   UNL     1     -11.936   6.511  71.565  1.00  0.00    -0.383 A  
HETATM   23  C   UNL     1      -5.655   9.145  69.121  1.00  0.00    -0.036 A  
HETATM   24  C   UNL     1      -6.448   8.734  68.052  1.00  0.00    -0.057 A  
HETATM   25  C   UNL     1     -11.943   7.811  72.049  1.00  0.00    -0.350 A  
HETATM   26  C   UNL     1     -11.320   8.831  71.324  1.00  0.00    -0.357 A  
HETATM   27  C   UNL     1      -7.842   8.896  68.094  1.00  0.00    -0.101 A  
ENDBRANCH  10  11
ENDBRANCH   7  10
TORSDOF 2
ENDMDL
MODEL       41
REMARK 921   NORMALIZED FREE ENERGY PREDICTED BY IDOCK:   -5.67 KCAL/MOL
REMARK 922        TOTAL FREE ENERGY PREDICTED BY IDOCK:   -7.41 KCAL/MOL
REMARK 923 INTER-LIGAND FREE ENERGY PREDICTED BY IDOCK:   -6.89 KCAL/MOL
REMARK 924 INTRA-LIGAND FREE ENERGY PREDICTED BY IDOCK:   -0.52 KCAL/MOL
REMARK 927      BINDING AFFINITY PREDICTED BY RF-SCORE:    0.00 PKD
ROOT
HETATM    1  C   UNL     1     -10.605   7.320  71.594  1.00  0.00    -0.206 C  
HETATM    2  N   UNL     1      -9.948   7.707  70.278  1.00  0.00    -0.188 N  
HETATM    3  C   UNL     1      -8.586   7.017  70.146  1.00  0.00    -0.140 C  
HETATM    4  C   UNL     1      -7.944   7.450  68.826  1.00  0.00    -0.123 C  
HETATM    5  C   UNL     1      -8.870   8.391  68.032  1.00  0.00    -0.142 C  
HETATM    6  C   UNL     1     -10.193   7.655  67.790  1.00  0.00    -0.259 C  
HETATM    7  C   UNL     1      -9.143   9.658  68.873  1.00  0.00    -0.144 C  
HETATM    8  C   UNL     1     -10.845   7.258  69.114  1.00  0.00    -0.136 C  
HETATM    9  C   UNL     1      -9.744   9.249  70.238  1.00  0.00    -0.232 C  
ENDROOT
BRANCH   7  10
HETATM   10  O   UNL     1      -9.813  10.662  68.055  1.00  0.00    -0.156 OA 
BRANCH  10  11
HETATM   11  C   UNL     1      -9.701  12.024  68.188  1.00  0.00    -0.199 C  
HETATM   12  O   UNL     1      -8.630  12.581  68.400  1.00  0.00    -0.172 OA 
HETATM   13  C   UNL     1     -11.127  12.702  68.040  1.00  0.00    -0.251 C  
HETATM   14  C   UNL     1     -11.345  13.421  66.693  1.00  0.00    -0.350 A  
HETATM   15  C   UNL     1     -11.407  13.626  69.239  1.00  0.00    -0.323 A  
HETATM   16  O   UNL     1     -12.104  11.633  68.081  1.00  0.00    -0.577 OA 
HETATM   17  H   UNL     1     -12.959  12.039  67.992  1.00  0.00     0.000 HD 
HETATM   18  C   UNL     1     -12.656  13.562  66.179  1.00  0.00    -0.355 A  
HETATM   19  C   UNL     1     -10.622  14.767  69.483  1.00  0.00    -0.200 A  
HETATM   20  C   UNL     1     -12.902  14.194  64.957  1.00  0.00    -0.249 A  
HETATM   21  C   UNL     1     -10.883  15.604  70.572  1.00  0.00    -0.347 A  
HETATM   22  C   UNL     1     -11.940  15.322  71.436  1.00  0.00    -0.428 A  
HETATM   23  C   UNL     1     -11.849  14.725  64.225  1.00  0.00    -0.335 A  
HETATM   24  C   UNL     1     -10.553  14.642  64.727  1.00  0.00    -0.379 A  
HETATM   25  C   UNL     1     -12.733  14.205  71.213  1.00  0.00    -0.434 A  
HETATM   26  C   UNL     1     -12.472  13.367  70.126  1.00  0.00    -0.243 A  
HETATM   27  C   UNL     1     -10.302  14.005  65.952  1.00  0.00    -0.327 A  
ENDBRANCH  10  11
ENDBRANCH   7  10
TORSDOF 2
ENDMDL
MODEL       42
REMARK 921   NORMALIZED FREE ENERGY PREDICTED BY IDOCK:   -5.60 KCAL/MOL
REMARK 922        TOTAL FREE ENERGY PREDICTED BY IDOCK:   -7.34 KCAL/MOL
REMARK 923 INTER-LIGAND FREE ENERGY PREDICTED BY IDOCK:   -6.59 KCAL/MOL
REMARK 924 INTRA-LIGAND FREE ENERGY PREDICTED BY IDOCK:   -0.75 KCAL/MOL
REMARK 927      BINDING AFFINITY PREDICTED BY RF-SCORE:    0.00 PKD
ROOT
HETATM    1  C   UNL     1      -5.713   8.081  67.181  1.00  0.00    -0.038 C  
HETATM    2  N   UNL     1      -6.826   9.034  66.772  1.00  0.00    -0.079 N  
HETATM    3  C   UNL     1      -6.738   9.334  65.272  1.00  0.00    -0.074 C  
HETATM    4  C   UNL     1      -7.854  10.314  64.902  1.00  0.00    -0.134 C  
HETATM    5  C   UNL     1      -8.732  10.652  66.121  1.00  0.00    -0.178 C  
HETATM    6  C   UNL     1      -9.306   9.339  66.667  1.00  0.00    -0.219 C  
HETATM    7  C   UNL     1      -7.854  11.311  67.209  1.00  0.00    -0.141 C  
HETATM    8  C   UNL     1      -8.184   8.380  67.067  1.00  0.00    -0.107 C  
HETATM    9  C   UNL     1      -6.684  10.364  67.566  1.00  0.00    -0.071 C  
ENDROOT
BRANCH   7  10
HETATM   10  O   UNL     1      -8.698  11.855  68.265  1.00  0.00    -0.163 OA 
BRANCH  10  11
HETATM   11  C   UNL     1      -9.112  13.159  68.383  1.00  0.00    -0.134 C  
HETATM   12  O   UNL     1      -8.335  14.082  68.597  1.00  0.00    -0.153 OA 
HETATM   13  C   UNL     1     -10.687  13.244  68.216  1.00  0.00    -0.252 C  
HETATM   14  C   UNL     1     -11.144  13.817  66.859  1.00  0.00    -0.311 A  
HETATM   15  C   UNL     1     -11.310  14.003  69.402  1.00  0.00    -0.317 A  
HETATM   16  O   UNL     1     -11.187  11.886  68.261  1.00  0.00    -0.222 OA 
HETATM   17  H   UNL     1     -12.130  11.937  68.161  1.00  0.00     0.000 HD 
HETATM   18  C   UNL     1     -12.405  13.446  66.332  1.00  0.00    -0.381 A  
HETATM   19  C   UNL     1     -11.019  15.359  69.638  1.00  0.00    -0.288 A  
HETATM   20  C   UNL     1     -12.858  13.929  65.101  1.00  0.00    -0.383 A  
HETATM   21  C   UNL     1     -11.590  16.043  70.715  1.00  0.00    -0.431 A  
HETATM   22  C   UNL     1     -12.473  15.387  71.574  1.00  0.00    -0.450 A  
HETATM   23  C   UNL     1     -12.076  14.813  64.371  1.00  0.00    -0.457 A  
HETATM   24  C   UNL     1     -10.850  15.232  64.885  1.00  0.00    -0.444 A  
HETATM   25  C   UNL     1     -12.780  14.052  71.358  1.00  0.00    -0.442 A  
HETATM   26  C   UNL     1     -12.208  13.367  70.283  1.00  0.00    -0.405 A  
HETATM   27  C   UNL     1     -10.391  14.746  66.119  1.00  0.00    -0.314 A  
ENDBRANCH  10  11
ENDBRANCH   7  10
TORSDOF 2
ENDMDL
MODEL       43
REMARK 921   NORMALIZED FREE ENERGY PREDICTED BY IDOCK:   -5.59 KCAL/MOL
REMARK 922        TOTAL FREE ENERGY PREDICTED BY IDOCK:   -7.32 KCAL/MOL
REMARK 923 INTER-LIGAND FREE ENERGY PREDICTED BY IDOCK:   -6.22 KCAL/MOL
REMARK 924 INTRA-LIGAND FREE ENERGY PREDICTED BY IDOCK:   -1.10 KCAL/MOL
REMARK 927      BINDING AFFINITY PREDICTED BY RF-SCORE:    0.00 PKD
ROOT
HETATM    1  C   UNL     1      -7.737   3.564  66.484  1.00  0.00    -0.081 C  
HETATM    2  N   UNL     1      -8.331   3.954  67.830  1.00  0.00    -0.093 N  
HETATM    3  C   UNL     1      -8.441   2.722  68.734  1.00  0.00    -0.068 C  
HETATM    4  C   UNL     1      -9.065   3.146  70.065  1.00  0.00    -0.197 C  
HETATM    5  C   UNL     1      -9.341   4.661  70.100  1.00  0.00    -0.213 C  
HETATM    6  C   UNL     1      -8.014   5.387  69.854  1.00  0.00    -0.081 C  
HETATM    7  C   UNL     1     -10.331   5.020  68.968  1.00  0.00    -0.085 C  
HETATM    8  C   UNL     1      -7.415   4.985  68.506  1.00  0.00    -0.074 C  
HETATM    9  C   UNL     1      -9.750   4.554  67.612  1.00  0.00    -0.157 C  
ENDROOT
BRANCH   7  10
HETATM   10  O   UNL     1     -10.791   6.394  69.129  1.00  0.00    -0.255 OA 
BRANCH  10  11
HETATM   11  C   UNL     1     -11.429   6.912  70.229  1.00  0.00    -0.323 C  
HETATM   12  O   UNL     1     -12.506   6.486  70.631  1.00  0.00    -0.211 OA 
HETATM   13  C   UNL     1     -10.575   8.101  70.839  1.00  0.00    -0.209 C  
HETATM   14  C   UNL     1      -9.837   7.740  72.144  1.00  0.00    -0.242 A  
HETATM   15  C   UNL     1     -11.448   9.359  71.000  1.00  0.00    -0.403 A  
HETATM   16  O   UNL     1      -9.542   8.414  69.873  1.00  0.00    -0.169 OA 
HETATM   17  H   UNL     1      -9.030   9.126  70.238  1.00  0.00     0.000 HD 
HETATM   18  C   UNL     1      -8.647   8.426  72.488  1.00  0.00    -0.253 A  
HETATM   19  C   UNL     1     -12.549   9.379  71.876  1.00  0.00    -0.481 A  
HETATM   20  C   UNL     1      -7.936   8.124  73.653  1.00  0.00    -0.256 A  
HETATM   21  C   UNL     1     -13.336  10.525  72.020  1.00  0.00    -0.420 A  
HETATM   22  C   UNL     1     -13.035  11.680  71.298  1.00  0.00    -0.368 A  
HETATM   23  C   UNL     1      -8.404   7.147  74.520  1.00  0.00    -0.215 A  
HETATM   24  C   UNL     1      -9.596   6.486  74.230  1.00  0.00    -0.280 A  
HETATM   25  C   UNL     1     -11.950  11.686  70.432  1.00  0.00    -0.448 A  
HETATM   26  C   UNL     1     -11.163  10.540  70.286  1.00  0.00    -0.391 A  
HETATM   27  C   UNL     1     -10.310   6.783  73.060  1.00  0.00    -0.252 A  
ENDBRANCH  10  11
ENDBRANCH   7  10
TORSDOF 2
ENDMDL
MODEL       44
REMARK 921   NORMALIZED FREE ENERGY PREDICTED BY IDOCK:   -5.58 KCAL/MOL
REMARK 922        TOTAL FREE ENERGY PREDICTED BY IDOCK:   -7.31 KCAL/MOL
REMARK 923 INTER-LIGAND FREE ENERGY PREDICTED BY IDOCK:   -6.47 KCAL/MOL
REMARK 924 INTRA-LIGAND FREE ENERGY PREDICTED BY IDOCK:   -0.84 KCAL/MOL
REMARK 927      BINDING AFFINITY PREDICTED BY RF-SCORE:    0.00 PKD
ROOT
HETATM    1  C   UNL     1     -10.137  10.125  64.663  1.00  0.00    -0.140 C  
HETATM    2  N   UNL     1     -10.743  11.489  64.958  1.00  0.00    -0.293 N  
HETATM    3  C   UNL     1     -12.105  11.621  64.269  1.00  0.00    -0.050 C  
HETATM    4  C   UNL     1     -12.670  13.012  64.565  1.00  0.00    -0.318 C  
HETATM    5  C   UNL     1     -11.733  13.816  65.487  1.00  0.00    -0.356 C  
HETATM    6  C   UNL     1     -11.537  13.011  66.777  1.00  0.00    -0.420 C  
HETATM    7  C   UNL     1     -10.366  13.991  64.787  1.00  0.00    -0.380 C  
HETATM    8  C   UNL     1     -10.938  11.637  66.475  1.00  0.00    -0.299 C  
HETATM    9  C   UNL     1      -9.793  12.600  64.426  1.00  0.00    -0.047 C  
ENDROOT
BRANCH   7  10
HETATM   10  O   UNL     1      -9.549  14.945  65.527  1.00  0.00    -0.296 OA 
BRANCH  10  11
HETATM   11  C   UNL     1      -9.987  16.109  66.109  1.00  0.00    -0.335 C  
HETATM   12  O   UNL     1     -10.735  16.894  65.537  1.00  0.00    -0.445 OA 
HETATM   13  C   UNL     1      -9.375  16.249  67.566  1.00  0.00    -0.217 C  
HETATM   14  C   UNL     1     -10.381  15.970  68.700  1.00  0.00    -0.241 A  
HETATM   15  C   UNL     1      -8.689  17.618  67.727  1.00  0.00    -0.232 A  
HETATM   16  O   UNL     1      -8.348  15.235  67.687  1.00  0.00    -0.149 OA 
HETATM   17  H   UNL     1      -7.981  15.319  68.560  1.00  0.00     0.000 HD 
HETATM   18  C   UNL     1      -9.913  15.500  69.951  1.00  0.00    -0.243 A  
HETATM   19  C   UNL     1      -9.421  18.817  67.657  1.00  0.00    -0.330 A  
HETATM   20  C   UNL     1     -10.787  15.220  71.005  1.00  0.00    -0.183 A  
HETATM   21  C   UNL     1      -8.793  20.057  67.808  1.00  0.00    -0.379 A  
HETATM   22  C   UNL     1      -7.419  20.124  68.040  1.00  0.00    -0.297 A  
HETATM   23  C   UNL     1     -12.151  15.424  70.849  1.00  0.00    -0.413 A  
HETATM   24  C   UNL     1     -12.637  15.929  69.645  1.00  0.00     0.265 A  
HETATM   25  C   UNL     1      -6.676  18.955  68.119  1.00  0.00    -0.249 A  
HETATM   26  C   UNL     1      -7.303  17.715  67.967  1.00  0.00    -0.214 A  
HETATM   27  C   UNL     1     -11.762  16.207  68.584  1.00  0.00    -0.205 A  
ENDBRANCH  10  11
ENDBRANCH   7  10
TORSDOF 2
ENDMDL
MODEL       45
REMARK 921   NORMALIZED FREE ENERGY PREDICTED BY IDOCK:   -5.57 KCAL/MOL
REMARK 922        TOTAL FREE ENERGY PREDICTED BY IDOCK:   -7.31 KCAL/MOL
REMARK 923 INTER-LIGAND FREE ENERGY PREDICTED BY IDOCK:   -6.62 KCAL/MOL
REMARK 924 INTRA-LIGAND FREE ENERGY PREDICTED BY IDOCK:   -0.68 KCAL/MOL
REMARK 927      BINDING AFFINITY PREDICTED BY RF-SCORE:    0.00 PKD
ROOT
HETATM    1  C   UNL     1      -7.843   7.682  65.892  1.00  0.00    -0.103 C  
HETATM    2  N   UNL     1      -8.062   8.081  67.344  1.00  0.00    -0.121 N  
HETATM    3  C   UNL     1      -7.923   6.857  68.254  1.00  0.00    -0.119 C  
HETATM    4  C   UNL     1      -8.175   7.291  69.700  1.00  0.00    -0.131 C  
HETATM    5  C   UNL     1      -8.440   8.806  69.795  1.00  0.00    -0.129 C  
HETATM    6  C   UNL     1      -7.228   9.533  69.201  1.00  0.00    -0.067 C  
HETATM    7  C   UNL     1      -9.695   9.152  68.962  1.00  0.00    -0.166 C  
HETATM    8  C   UNL     1      -7.004   9.121  67.746  1.00  0.00    -0.078 C  
HETATM    9  C   UNL     1      -9.490   8.676  67.504  1.00  0.00    -0.149 C  
ENDROOT
BRANCH   7  10
HETATM   10  O   UNL     1     -10.103  10.526  69.228  1.00  0.00    -0.213 OA 
BRANCH  10  11
HETATM   11  C   UNL     1     -11.086  11.222  68.568  1.00  0.00    -0.235 C  
HETATM   12  O   UNL     1     -12.267  10.898  68.609  1.00  0.00    -0.533 OA 
HETATM   13  C   UNL     1     -10.449  12.442  67.779  1.00  0.00    -0.218 C  
HETATM   14  C   UNL     1     -10.704  13.815  68.432  1.00  0.00    -0.266 A  
HETATM   15  C   UNL     1     -10.890  12.413  66.304  1.00  0.00    -0.299 A  
HETATM   16  O   UNL     1      -9.013  12.252  67.804  1.00  0.00    -0.162 OA 
HETATM   17  H   UNL     1      -8.631  12.983  67.332  1.00  0.00     0.000 HD 
HETATM   18  C   UNL     1      -9.788  14.873  68.219  1.00  0.00    -0.218 A  
HETATM   19  C   UNL     1     -12.240  12.570  65.941  1.00  0.00    -0.310 A  
HETATM   20  C   UNL     1      -9.970  16.131  68.801  1.00  0.00    -0.231 A  
HETATM   21  C   UNL     1     -12.633  12.546  64.600  1.00  0.00    -0.507 A  
HETATM   22  C   UNL     1     -11.684  12.374  63.592  1.00  0.00    -0.596 A  
HETATM   23  C   UNL     1     -11.083  16.377  69.591  1.00  0.00    -0.306 A  
HETATM   24  C   UNL     1     -12.026  15.369  69.782  1.00  0.00    -0.381 A  
HETATM   25  C   UNL     1     -10.346  12.223  63.926  1.00  0.00    -0.455 A  
HETATM   26  C   UNL     1      -9.951  12.245  65.266  1.00  0.00    -0.250 A  
HETATM   27  C   UNL     1     -11.845  14.104  69.203  1.00  0.00    -0.380 A  
ENDBRANCH  10  11
ENDBRANCH   7  10
TORSDOF 2
ENDMDL
MODEL       46
REMARK 921   NORMALIZED FREE ENERGY PREDICTED BY IDOCK:   -5.56 KCAL/MOL
REMARK 922        TOTAL FREE ENERGY PREDICTED BY IDOCK:   -7.29 KCAL/MOL
REMARK 923 INTER-LIGAND FREE ENERGY PREDICTED BY IDOCK:   -7.07 KCAL/MOL
REMARK 924 INTRA-LIGAND FREE ENERGY PREDICTED BY IDOCK:   -0.23 KCAL/MOL
REMARK 927      BINDING AFFINITY PREDICTED BY RF-SCORE:    0.00 PKD
ROOT
HETATM    1  C   UNL     1      -8.976   8.388  69.778  1.00  0.00    -0.146 C  
HETATM    2  N   UNL     1      -9.755   9.474  69.051  1.00  0.00    -0.165 N  
HETATM    3  C   UNL     1     -10.480   8.879  67.839  1.00  0.00    -0.223 C  
HETATM    4  C   UNL     1     -11.229  10.002  67.118  1.00  0.00     0.122 C  
HETATM    5  C   UNL     1     -11.064  11.348  67.849  1.00  0.00    -0.320 C  
HETATM    6  C   UNL     1     -11.576  11.172  69.283  1.00  0.00    -0.388 C  
HETATM    7  C   UNL     1      -9.565  11.720  67.889  1.00  0.00    -0.187 C  
HETATM    8  C   UNL     1     -10.798  10.073  70.007  1.00  0.00    -0.302 C  
HETATM    9  C   UNL     1      -8.771  10.577  68.566  1.00  0.00    -0.140 C  
ENDROOT
BRANCH   7  10
HETATM   10  O   UNL     1      -9.406  13.091  68.357  1.00  0.00    -0.206 OA 
BRANCH  10  11
HETATM   11  C   UNL     1     -10.294  14.121  68.168  1.00  0.00    -0.239 C  
HETATM   12  O   UNL     1     -11.074  14.157  67.223  1.00  0.00    -0.291 OA 
HETATM   13  C   UNL     1     -10.129  15.197  69.321  1.00  0.00    -0.246 C  
HETATM   14  C   UNL     1     -11.256  15.170  70.373  1.00  0.00    -0.310 A  
HETATM   15  C   UNL     1      -9.935  16.601  68.719  1.00  0.00    -0.265 A  
HETATM   16  O   UNL     1      -8.913  14.862  70.035  1.00  0.00    -0.404 OA 
HETATM   17  H   UNL     1      -8.814  15.507  70.726  1.00  0.00     0.000 HD 
HETATM   18  C   UNL     1     -10.994  15.615  71.692  1.00  0.00    -0.042 A  
HETATM   19  C   UNL     1     -10.945  17.217  67.958  1.00  0.00    -0.229 A  
HETATM   20  C   UNL     1     -11.980  15.597  72.682  1.00  0.00    -0.578 A  
HETATM   21  C   UNL     1     -10.764  18.493  67.416  1.00  0.00    -0.424 A  
HETATM   22  C   UNL     1      -9.572  19.184  67.631  1.00  0.00    -0.375 A  
HETATM   23  C   UNL     1     -13.261  15.159  72.380  1.00  0.00    -0.491 A  
HETATM   24  C   UNL     1     -13.561  14.758  71.080  1.00  0.00    -0.364 A  
HETATM   25  C   UNL     1      -8.563  18.599  68.383  1.00  0.00    -0.366 A  
HETATM   26  C   UNL     1      -8.742  17.323  68.924  1.00  0.00    -0.172 A  
HETATM   27  C   UNL     1     -12.573  14.771  70.084  1.00  0.00    -0.319 A  
ENDBRANCH  10  11
ENDBRANCH   7  10
TORSDOF 2
ENDMDL
MODEL       47
REMARK 921   NORMALIZED FREE ENERGY PREDICTED BY IDOCK:   -5.54 KCAL/MOL
REMARK 922        TOTAL FREE ENERGY PREDICTED BY IDOCK:   -7.27 KCAL/MOL
REMARK 923 INTER-LIGAND FREE ENERGY PREDICTED BY IDOCK:   -6.85 KCAL/MOL
REMARK 924 INTRA-LIGAND FREE ENERGY PREDICTED BY IDOCK:   -0.42 KCAL/MOL
REMARK 927      BINDING AFFINITY PREDICTED BY RF-SCORE:    0.00 PKD
ROOT
HETATM    1  C   UNL     1     -13.534   8.128  72.165  1.00  0.00    -0.215 C  
HETATM    2  N   UNL     1     -12.150   8.386  71.588  1.00  0.00    -0.297 N  
HETATM    3  C   UNL     1     -11.097   8.328  72.700  1.00  0.00    -0.330 C  
HETATM    4  C   UNL     1      -9.724   8.619  72.088  1.00  0.00    -0.383 C  
HETATM    5  C   UNL     1      -9.820   8.829  70.565  1.00  0.00    -0.224 C  
HETATM    6  C   UNL     1     -10.443   7.569  69.954  1.00  0.00    -0.232 C  
HETATM    7  C   UNL     1     -10.739  10.037  70.279  1.00  0.00    -0.309 C  
HETATM    8  C   UNL     1     -11.829   7.306  70.544  1.00  0.00    -0.199 C  
HETATM    9  C   UNL     1     -12.121   9.796  70.932  1.00  0.00    -0.321 C  
ENDROOT
BRANCH   7  10
HETATM   10  O   UNL     1     -10.655  10.403  68.871  1.00  0.00    -0.190 OA 
BRANCH  10  11
HETATM   11  C   UNL     1      -9.694  11.198  68.295  1.00  0.00    -0.188 C  
HETATM   12  O   UNL     1      -8.597  11.387  68.809  1.00  0.00    -0.153 OA 
HETATM   13  C   UNL     1     -10.237  11.803  66.933  1.00  0.00    -0.209 C  
HETATM   14  C   UNL     1      -9.640  11.146  65.672  1.00  0.00    -0.259 A  
HETATM   15  C   UNL     1     -10.067  13.333  66.922  1.00  0.00    -0.250 A  
HETATM   16  O   UNL     1     -11.658  11.526  66.889  1.00  0.00    -0.503 OA 
HETATM   17  H   UNL     1     -11.983  11.888  66.073  1.00  0.00     0.000 HD 
HETATM   18  C   UNL     1     -10.383  11.142  64.466  1.00  0.00    -0.400 A  
HETATM   19  C   UNL     1      -8.793  13.928  66.959  1.00  0.00    -0.231 A  
HETATM   20  C   UNL     1      -9.890  10.547  63.302  1.00  0.00    -0.309 A  
HETATM   21  C   UNL     1      -8.644  15.318  66.945  1.00  0.00    -0.289 A  
HETATM   22  C   UNL     1      -9.768  16.143  66.886  1.00  0.00    -0.246 A  
HETATM   23  C   UNL     1      -8.632   9.962  63.299  1.00  0.00    -0.204 A  
HETATM   24  C   UNL     1      -7.859   9.991  64.457  1.00  0.00    -0.145 A  
HETATM   25  C   UNL     1     -11.035  15.580  66.843  1.00  0.00    -0.268 A  
HETATM   26  C   UNL     1     -11.184  14.190  66.857  1.00  0.00    -0.326 A  
HETATM   27  C   UNL     1      -8.352  10.583  65.630  1.00  0.00    -0.167 A  
ENDBRANCH  10  11
ENDBRANCH   7  10
TORSDOF 2
ENDMDL
MODEL       48
REMARK 921   NORMALIZED FREE ENERGY PREDICTED BY IDOCK:   -5.47 KCAL/MOL
REMARK 922        TOTAL FREE ENERGY PREDICTED BY IDOCK:   -7.19 KCAL/MOL
REMARK 923 INTER-LIGAND FREE ENERGY PREDICTED BY IDOCK:   -6.89 KCAL/MOL
REMARK 924 INTRA-LIGAND FREE ENERGY PREDICTED BY IDOCK:   -0.30 KCAL/MOL
REMARK 927      BINDING AFFINITY PREDICTED BY RF-SCORE:    0.00 PKD
ROOT
HETATM    1  C   UNL     1      -7.046  10.571  66.806  1.00  0.00    -0.109 C  
HETATM    2  N   UNL     1      -8.503  10.857  66.474  1.00  0.00    -0.153 N  
HETATM    3  C   UNL     1      -8.781  10.532  65.003  1.00  0.00    -0.182 C  
HETATM    4  C   UNL     1     -10.246  10.856  64.699  1.00  0.00    -0.411 C  
HETATM    5  C   UNL     1     -10.984  11.356  65.956  1.00  0.00    -0.286 C  
HETATM    6  C   UNL     1     -10.869  10.270  67.032  1.00  0.00    -0.248 C  
HETATM    7  C   UNL     1     -10.301  12.645  66.463  1.00  0.00    -0.242 C  
HETATM    8  C   UNL     1      -9.403   9.978  67.355  1.00  0.00    -0.148 C  
HETATM    9  C   UNL     1      -8.803  12.362  66.729  1.00  0.00    -0.189 C  
ENDROOT
BRANCH   7  10
HETATM   10  O   UNL     1     -11.118  13.266  67.498  1.00  0.00    -0.257 OA 
BRANCH  10  11
HETATM   11  C   UNL     1     -10.665  13.797  68.680  1.00  0.00    -0.256 C  
HETATM   12  O   UNL     1      -9.861  13.216  69.401  1.00  0.00     0.493 OA 
HETATM   13  C   UNL     1     -11.341  15.209  68.934  1.00  0.00    -0.301 C  
HETATM   14  C   UNL     1     -10.402  16.409  68.692  1.00  0.00    -0.273 A  
HETATM   15  C   UNL     1     -11.981  15.252  70.334  1.00  0.00    -0.374 A  
HETATM   16  O   UNL     1     -12.410  15.341  67.966  1.00  0.00    -0.408 OA 
HETATM   17  H   UNL     1     -12.815  16.187  68.118  1.00  0.00     0.000 HD 
HETATM   18  C   UNL     1     -10.948  17.661  68.319  1.00  0.00    -0.053 A  
HETATM   19  C   UNL     1     -11.200  15.145  71.500  1.00  0.00    -0.323 A  
HETATM   20  C   UNL     1     -10.137  18.773  68.075  1.00  0.00    -0.417 A  
HETATM   21  C   UNL     1     -11.787  15.187  72.768  1.00  0.00    -0.464 A  
HETATM   22  C   UNL     1     -13.167  15.345  72.898  1.00  0.00    -0.622 A  
HETATM   23  C   UNL     1      -8.761  18.674  68.221  1.00  0.00    -0.349 A  
HETATM   24  C   UNL     1      -8.198  17.467  68.631  1.00  0.00    -0.265 A  
HETATM   25  C   UNL     1     -13.957  15.458  71.763  1.00  0.00    -0.626 A  
HETATM   26  C   UNL     1     -13.372  15.415  70.495  1.00  0.00    -0.173 A  
HETATM   27  C   UNL     1      -9.009  16.348  68.872  1.00  0.00    -0.256 A  
ENDBRANCH  10  11
ENDBRANCH   7  10
TORSDOF 2
ENDMDL
MODEL       49
REMARK 921   NORMALIZED FREE ENERGY PREDICTED BY IDOCK:   -5.42 KCAL/MOL
REMARK 922        TOTAL FREE ENERGY PREDICTED BY IDOCK:   -7.13 KCAL/MOL
REMARK 923 INTER-LIGAND FREE ENERGY PREDICTED BY IDOCK:   -6.69 KCAL/MOL
REMARK 924 INTRA-LIGAND FREE ENERGY PREDICTED BY IDOCK:   -0.45 KCAL/MOL
REMARK 927      BINDING AFFINITY PREDICTED BY RF-SCORE:    0.00 PKD
ROOT
HETATM    1  C   UNL     1     -10.253  19.855  66.929  1.00  0.00    -0.470 C  
HETATM    2  N   UNL     1      -9.165  18.793  66.970  1.00  0.00    -0.287 N  
HETATM    3  C   UNL     1      -8.039  19.154  65.996  1.00  0.00    -0.189 C  
HETATM    4  C   UNL     1      -6.977  18.052  66.044  1.00  0.00    -0.340 C  
HETATM    5  C   UNL     1      -7.341  16.966  67.073  1.00  0.00    -0.228 C  
HETATM    6  C   UNL     1      -7.498  17.644  68.439  1.00  0.00    -0.253 C  
HETATM    7  C   UNL     1      -8.686  16.320  66.672  1.00  0.00    -0.259 C  
HETATM    8  C   UNL     1      -8.585  18.718  68.391  1.00  0.00    -0.341 C  
HETATM    9  C   UNL     1      -9.770  17.419  66.562  1.00  0.00    -0.293 C  
ENDROOT
BRANCH   7  10
HETATM   10  O   UNL     1      -8.931  15.136  67.486  1.00  0.00    -0.172 OA 
BRANCH  10  11
HETATM   11  C   UNL     1      -8.703  13.834  67.114  1.00  0.00    -0.221 C  
HETATM   12  O   UNL     1      -7.575  13.370  66.991  1.00  0.00    -0.025 OA 
HETATM   13  C   UNL     1     -10.082  13.089  66.874  1.00  0.00    -0.243 C  
HETATM   14  C   UNL     1     -10.468  12.104  67.996  1.00  0.00    -0.227 A  
HETATM   15  C   UNL     1     -10.093  12.418  65.488  1.00  0.00    -0.287 A  
HETATM   16  O   UNL     1     -11.112  14.108  66.868  1.00  0.00    -0.296 OA 
HETATM   17  H   UNL     1     -11.939  13.662  66.725  1.00  0.00     0.000 HD 
HETATM   18  C   UNL     1     -11.834  11.815  68.234  1.00  0.00    -0.340 A  
HETATM   19  C   UNL     1      -9.200  11.379  65.171  1.00  0.00    -0.119 A  
HETATM   20  C   UNL     1     -12.233  10.939  69.248  1.00  0.00    -0.240 A  
HETATM   21  C   UNL     1      -9.217  10.771  63.912  1.00  0.00    -0.258 A  
HETATM   22  C   UNL     1     -10.134  11.184  62.945  1.00  0.00    -0.235 A  
HETATM   23  C   UNL     1     -11.282  10.310  70.037  1.00  0.00    -0.376 A  
HETATM   24  C   UNL     1      -9.929  10.540  69.797  1.00  0.00    -0.090 A  
HETATM   25  C   UNL     1     -11.029  12.204  63.237  1.00  0.00    -0.398 A  
HETATM   26  C   UNL     1     -11.012  12.813  64.495  1.00  0.00    -0.370 A  
HETATM   27  C   UNL     1      -9.524  11.421  68.783  1.00  0.00    -0.128 A  
ENDBRANCH  10  11
ENDBRANCH   7  10
TORSDOF 2
ENDMDL
MODEL       50
REMARK 921   NORMALIZED FREE ENERGY PREDICTED BY IDOCK:   -5.36 KCAL/MOL
REMARK 922        TOTAL FREE ENERGY PREDICTED BY IDOCK:   -7.07 KCAL/MOL
REMARK 923 INTER-LIGAND FREE ENERGY PREDICTED BY IDOCK:   -6.72 KCAL/MOL
REMARK 924 INTRA-LIGAND FREE ENERGY PREDICTED BY IDOCK:   -0.34 KCAL/MOL
REMARK 927      BINDING AFFINITY PREDICTED BY RF-SCORE:    0.00 PKD
ROOT
HETATM    1  C   UNL     1     -10.077  14.947  68.891  1.00  0.00    -0.236 C  
HETATM    2  N   UNL     1     -10.616  14.028  67.805  1.00  0.00    -0.241 N  
HETATM    3  C   UNL     1     -11.828  14.672  67.124  1.00  0.00    -0.345 C  
HETATM    4  C   UNL     1     -12.358  13.710  66.058  1.00  0.00    -0.493 C  
HETATM    5  C   UNL     1     -11.496  12.437  65.969  1.00  0.00    -0.431 C  
HETATM    6  C   UNL     1     -10.056  12.864  65.663  1.00  0.00    -0.282 C  
HETATM    7  C   UNL     1     -11.528  11.710  67.332  1.00  0.00    -0.285 C  
HETATM    8  C   UNL     1      -9.522  13.796  66.751  1.00  0.00    -0.275 C  
HETATM    9  C   UNL     1     -11.047  12.676  68.441  1.00  0.00    -0.265 C  
ENDROOT
BRANCH   7  10
HETATM   10  O   UNL     1     -10.923  10.390  67.205  1.00  0.00    -0.288 OA 
BRANCH  10  11
HETATM   11  C   UNL     1      -9.890   9.895  67.963  1.00  0.00    -0.147 C  
HETATM   12  O   UNL     1      -8.920  10.574  68.282  1.00  0.00    -0.131 OA 
HETATM   13  C   UNL     1     -10.157   8.372  68.315  1.00  0.00    -0.199 C  
HETATM   14  C   UNL     1     -10.591   8.131  69.775  1.00  0.00    -0.231 A  
HETATM   15  C   UNL     1      -8.942   7.511  67.925  1.00  0.00    -0.131 A  
HETATM   16  O   UNL     1     -11.271   7.943  67.494  1.00  0.00    -0.447 OA 
HETATM   17  H   UNL     1     -11.432   7.030  67.705  1.00  0.00     0.000 HD 
HETATM   18  C   UNL     1     -11.387   7.003  70.092  1.00  0.00    -0.321 A  
HETATM   19  C   UNL     1      -7.692   7.686  68.545  1.00  0.00    -0.119 A  
HETATM   20  C   UNL     1     -11.815   6.751  71.398  1.00  0.00    -0.385 A  
HETATM   21  C   UNL     1      -6.592   6.899  68.189  1.00  0.00    -0.059 A  
HETATM   22  C   UNL     1      -6.722   5.914  67.209  1.00  0.00    -0.061 A  
HETATM   23  C   UNL     1     -11.442   7.602  72.429  1.00  0.00    -0.392 A  
HETATM   24  C   UNL     1     -10.623   8.694  72.155  1.00  0.00    -0.411 A  
HETATM   25  C   UNL     1      -7.947   5.720  66.587  1.00  0.00    -0.102 A  
HETATM   26  C   UNL     1      -9.046   6.507  66.942  1.00  0.00    -0.144 A  
HETATM   27  C   UNL     1     -10.194   8.953  70.844  1.00  0.00    -0.304 A  
ENDBRANCH  10  11
ENDBRANCH   7  10
TORSDOF 2
ENDMDL
MODEL       51
REMARK 921   NORMALIZED FREE ENERGY PREDICTED BY IDOCK:   -5.32 KCAL/MOL
REMARK 922        TOTAL FREE ENERGY PREDICTED BY IDOCK:   -7.02 KCAL/MOL
REMARK 923 INTER-LIGAND FREE ENERGY PREDICTED BY IDOCK:   -5.97 KCAL/MOL
REMARK 924 INTRA-LIGAND FREE ENERGY PREDICTED BY IDOCK:   -1.05 KCAL/MOL
REMARK 927      BINDING AFFINITY PREDICTED BY RF-SCORE:    0.00 PKD
ROOT
HETATM    1  C   UNL     1     -12.779  14.019  65.647  1.00  0.00    -0.481 C  
HETATM    2  N   UNL     1     -11.567  13.241  66.135  1.00  0.00    -0.333 N  
HETATM    3  C   UNL     1     -10.381  14.188  66.341  1.00  0.00    -0.287 C  
HETATM    4  C   UNL     1      -9.174  13.368  66.805  1.00  0.00    -0.242 C  
HETATM    5  C   UNL     1      -9.535  11.879  66.965  1.00  0.00    -0.192 C  
HETATM    6  C   UNL     1     -10.692  11.779  67.966  1.00  0.00    -0.244 C  
HETATM    7  C   UNL     1      -9.997  11.323  65.600  1.00  0.00    -0.247 C  
HETATM    8  C   UNL     1     -11.904  12.571  67.477  1.00  0.00    -0.323 C  
HETATM    9  C   UNL     1     -11.185  12.167  65.078  1.00  0.00    -0.322 C  
ENDROOT
BRANCH   7  10
HETATM   10  O   UNL     1     -10.112   9.871  65.669  1.00  0.00    -0.289 OA 
BRANCH  10  11
HETATM   11  C   UNL     1      -9.174   9.006  66.176  1.00  0.00    -0.216 C  
HETATM   12  O   UNL     1      -7.999   9.027  65.827  1.00  0.00    -0.099 OA 
HETATM   13  C   UNL     1      -9.851   8.025  67.222  1.00  0.00    -0.197 C  
HETATM   14  C   UNL     1      -9.519   8.349  68.693  1.00  0.00    -0.147 A  
HETATM   15  C   UNL     1      -9.531   6.561  66.868  1.00  0.00    -0.178 A  
HETATM   16  O   UNL     1     -11.283   8.198  67.091  1.00  0.00    -0.298 OA 
HETATM   17  H   UNL     1     -11.689   7.611  67.719  1.00  0.00     0.000 HD 
HETATM   18  C   UNL     1     -10.431   7.985  69.713  1.00  0.00    -0.227 A  
HETATM   19  C   UNL     1      -8.212   6.073  66.897  1.00  0.00    -0.105 A  
HETATM   20  C   UNL     1     -10.181   8.269  71.058  1.00  0.00    -0.230 A  
HETATM   21  C   UNL     1      -7.928   4.742  66.578  1.00  0.00    -0.103 A  
HETATM   22  C   UNL     1      -8.959   3.868  66.229  1.00  0.00    -0.132 A  
HETATM   23  C   UNL     1      -9.003   8.903  71.427  1.00  0.00    -0.300 A  
HETATM   24  C   UNL     1      -8.066   9.233  70.451  1.00  0.00    -0.178 A  
HETATM   25  C   UNL     1     -10.268   4.326  66.198  1.00  0.00    -0.160 A  
HETATM   26  C   UNL     1     -10.553   5.657  66.517  1.00  0.00    -0.320 A  
HETATM   27  C   UNL     1      -8.315   8.953  69.099  1.00  0.00    -0.124 A  
ENDBRANCH  10  11
ENDBRANCH   7  10
TORSDOF 2
ENDMDL
MODEL       52
REMARK 921   NORMALIZED FREE ENERGY PREDICTED BY IDOCK:   -5.31 KCAL/MOL
REMARK 922        TOTAL FREE ENERGY PREDICTED BY IDOCK:   -7.01 KCAL/MOL
REMARK 923 INTER-LIGAND FREE ENERGY PREDICTED BY IDOCK:   -6.45 KCAL/MOL
REMARK 924 INTRA-LIGAND FREE ENERGY PREDICTED BY IDOCK:   -0.56 KCAL/MOL
REMARK 927      BINDING AFFINITY PREDICTED BY RF-SCORE:    0.00 PKD
ROOT
HETATM    1  C   UNL     1      -9.448  15.644  66.154  1.00  0.00    -0.341 C  
HETATM    2  N   UNL     1     -10.257  14.532  66.807  1.00  0.00    -0.262 N  
HETATM    3  C   UNL     1     -11.096  15.097  67.957  1.00  0.00    -0.308 C  
HETATM    4  C   UNL     1     -11.874  13.949  68.605  1.00  0.00    -0.407 C  
HETATM    5  C   UNL     1     -11.612  12.614  67.882  1.00  0.00    -0.401 C  
HETATM    6  C   UNL     1     -12.007  12.790  66.411  1.00  0.00    -0.443 C  
HETATM    7  C   UNL     1     -10.106  12.282  67.965  1.00  0.00    -0.206 C  
HETATM    8  C   UNL     1     -11.200  13.915  65.763  1.00  0.00    -0.303 C  
HETATM    9  C   UNL     1      -9.288  13.451  67.365  1.00  0.00    -0.221 C  
ENDROOT
BRANCH   7  10
HETATM   10  O   UNL     1      -9.872  10.919  67.504  1.00  0.00    -0.166 OA 
BRANCH  10  11
HETATM   11  C   UNL     1      -9.087   9.977  68.121  1.00  0.00    -0.121 C  
HETATM   12  O   UNL     1      -7.916  10.183  68.419  1.00  0.00    -0.098 OA 
HETATM   13  C   UNL     1      -9.919   8.647  68.354  1.00  0.00    -0.184 C  
HETATM   14  C   UNL     1     -10.351   8.423  69.817  1.00  0.00    -0.216 A  
HETATM   15  C   UNL     1      -9.160   7.434  67.784  1.00  0.00    -0.129 A  
HETATM   16  O   UNL     1     -11.146   8.783  67.595  1.00  0.00    -0.480 OA 
HETATM   17  H   UNL     1     -11.645   7.986  67.734  1.00  0.00     0.000 HD 
HETATM   18  C   UNL     1     -11.513   7.663  70.096  1.00  0.00    -0.083 A  
HETATM   19  C   UNL     1      -7.918   7.036  68.310  1.00  0.00    -0.123 A  
HETATM   20  C   UNL     1     -11.951   7.444  71.405  1.00  0.00    -0.340 A  
HETATM   21  C   UNL     1      -7.235   5.932  67.791  1.00  0.00    -0.076 A  
HETATM   22  C   UNL     1      -7.784   5.198  66.739  1.00  0.00    -0.092 A  
HETATM   23  C   UNL     1     -11.230   7.956  72.474  1.00  0.00    -0.436 A  
HETATM   24  C   UNL     1     -10.057   8.669  72.233  1.00  0.00    -0.363 A  
HETATM   25  C   UNL     1      -9.011   5.568  66.208  1.00  0.00    -0.140 A  
HETATM   26  C   UNL     1      -9.694   6.672  66.725  1.00  0.00    -0.217 A  
HETATM   27  C   UNL     1      -9.616   8.894  70.920  1.00  0.00    -0.298 A  
ENDBRANCH  10  11
ENDBRANCH   7  10
TORSDOF 2
ENDMDL
MODEL       53
REMARK 921   NORMALIZED FREE ENERGY PREDICTED BY IDOCK:   -5.31 KCAL/MOL
REMARK 922        TOTAL FREE ENERGY PREDICTED BY IDOCK:   -7.01 KCAL/MOL
REMARK 923 INTER-LIGAND FREE ENERGY PREDICTED BY IDOCK:   -6.48 KCAL/MOL
REMARK 924 INTRA-LIGAND FREE ENERGY PREDICTED BY IDOCK:   -0.53 KCAL/MOL
REMARK 927      BINDING AFFINITY PREDICTED BY RF-SCORE:    0.00 PKD
ROOT
HETATM    1  C   UNL     1     -13.149   8.743  72.544  1.00  0.00    -0.335 C  
HETATM    2  N   UNL     1     -11.914   8.447  71.706  1.00  0.00    -0.304 N  
HETATM    3  C   UNL     1     -10.681   8.331  72.608  1.00  0.00    -0.314 C  
HETATM    4  C   UNL     1      -9.456   8.061  71.730  1.00  0.00    -0.223 C  
HETATM    5  C   UNL     1      -9.844   7.945  70.244  1.00  0.00    -0.184 C  
HETATM    6  C   UNL     1     -10.879   6.821  70.114  1.00  0.00    -0.311 C  
HETATM    7  C   UNL     1     -10.482   9.274  69.783  1.00  0.00    -0.222 C  
HETATM    8  C   UNL     1     -12.113   7.116  70.966  1.00  0.00    -0.350 C  
HETATM    9  C   UNL     1     -11.694   9.603  70.688  1.00  0.00    -0.280 C  
ENDROOT
BRANCH   7  10
HETATM   10  O   UNL     1     -10.636   9.275  68.334  1.00  0.00    -0.218 OA 
BRANCH  10  11
HETATM   11  C   UNL     1     -10.724  10.384  67.528  1.00  0.00    -0.287 C  
HETATM   12  O   UNL     1     -11.754  11.038  67.413  1.00  0.00    -0.539 OA 
HETATM   13  C   UNL     1      -9.335  10.640  66.806  1.00  0.00    -0.157 C  
HETATM   14  C   UNL     1      -8.534  11.824  67.384  1.00  0.00    -0.158 A  
HETATM   15  C   UNL     1      -9.539  10.769  65.285  1.00  0.00    -0.278 A  
HETATM   16  O   UNL     1      -8.522   9.462  67.034  1.00  0.00    -0.125 OA 
HETATM   17  H   UNL     1      -7.690   9.615  66.602  1.00  0.00     0.000 HD 
HETATM   18  C   UNL     1      -7.123  11.834  67.275  1.00  0.00    -0.140 A  
HETATM   19  C   UNL     1     -10.294  11.820  64.734  1.00  0.00    -0.333 A  
HETATM   20  C   UNL     1      -6.353  12.879  67.795  1.00  0.00    -0.144 A  
HETATM   21  C   UNL     1     -10.472  11.934  63.353  1.00  0.00    -0.487 A  
HETATM   22  C   UNL     1      -9.893  11.003  62.491  1.00  0.00    -0.072 A  
HETATM   23  C   UNL     1      -6.971  13.954  68.418  1.00  0.00    -0.102 A  
HETATM   24  C   UNL     1      -8.362  13.994  68.500  1.00  0.00    -0.143 A  
HETATM   25  C   UNL     1      -9.139   9.960  63.010  1.00  0.00    -0.291 A  
HETATM   26  C   UNL     1      -8.961   9.845  64.391  1.00  0.00    -0.275 A  
HETATM   27  C   UNL     1      -9.137  12.945  67.982  1.00  0.00    -0.211 A  
ENDBRANCH  10  11
ENDBRANCH   7  10
TORSDOF 2
ENDMDL
MODEL       54
REMARK 921   NORMALIZED FREE ENERGY PREDICTED BY IDOCK:   -5.21 KCAL/MOL
REMARK 922        TOTAL FREE ENERGY PREDICTED BY IDOCK:   -6.90 KCAL/MOL
REMARK 923 INTER-LIGAND FREE ENERGY PREDICTED BY IDOCK:   -6.45 KCAL/MOL
REMARK 924 INTRA-LIGAND FREE ENERGY PREDICTED BY IDOCK:   -0.45 KCAL/MOL
REMARK 927      BINDING AFFINITY PREDICTED BY RF-SCORE:    0.00 PKD
ROOT
HETATM    1  C   UNL     1      -9.245  15.632  65.817  1.00  0.00    -0.211 C  
HETATM    2  N   UNL     1     -10.311  14.616  66.200  1.00  0.00    -0.289 N  
HETATM    3  C   UNL     1     -11.112  15.121  67.404  1.00  0.00    -0.325 C  
HETATM    4  C   UNL     1     -12.155  14.064  67.777  1.00  0.00    -0.325 C  
HETATM    5  C   UNL     1     -12.108  12.863  66.813  1.00  0.00    -0.335 C  
HETATM    6  C   UNL     1     -12.336  13.391  65.392  1.00  0.00    -0.522 C  
HETATM    7  C   UNL     1     -10.710  12.209  66.890  1.00  0.00    -0.236 C  
HETATM    8  C   UNL     1     -11.270  14.420  65.015  1.00  0.00    -0.375 C  
HETATM    9  C   UNL     1      -9.629  13.268  66.570  1.00  0.00    -0.264 C  
ENDROOT
BRANCH   7  10
HETATM   10  O   UNL     1     -10.717  10.938  66.175  1.00  0.00    -0.235 OA 
BRANCH  10  11
HETATM   11  C   UNL     1      -9.697  10.020  66.143  1.00  0.00    -0.227 C  
HETATM   12  O   UNL     1      -8.828  10.026  65.278  1.00  0.00    -0.157 OA 
HETATM   13  C   UNL     1      -9.846   9.002  67.350  1.00  0.00    -0.190 C  
HETATM   14  C   UNL     1      -8.840   9.234  68.496  1.00  0.00    -0.129 A  
HETATM   15  C   UNL     1      -9.809   7.552  66.835  1.00  0.00    -0.295 A  
HETATM   16  O   UNL     1     -11.158   9.223  67.923  1.00  0.00    -0.506 OA 
HETATM   17  H   UNL     1     -11.247   8.613  68.647  1.00  0.00     0.000 HD 
HETATM   18  C   UNL     1      -9.177   8.839  69.814  1.00  0.00    -0.155 A  
HETATM   19  C   UNL     1      -8.661   7.024  66.215  1.00  0.00    -0.154 A  
HETATM   20  C   UNL     1      -8.304   9.041  70.887  1.00  0.00    -0.238 A  
HETATM   21  C   UNL     1      -8.632   5.706  65.752  1.00  0.00    -0.148 A  
HETATM   22  C   UNL     1      -9.749   4.883  65.906  1.00  0.00    -0.197 A  
HETATM   23  C   UNL     1      -7.061   9.619  70.672  1.00  0.00    -0.117 A  
HETATM   24  C   UNL     1      -6.683   9.976  69.380  1.00  0.00    -0.060 A  
HETATM   25  C   UNL     1     -10.890   5.379  66.519  1.00  0.00    -0.222 A  
HETATM   26  C   UNL     1     -10.920   6.698  66.981  1.00  0.00    -0.463 A  
HETATM   27  C   UNL     1      -7.559   9.779  68.301  1.00  0.00    -0.081 A  
ENDBRANCH  10  11
ENDBRANCH   7  10
TORSDOF 2
ENDMDL
MODEL       55
REMARK 921   NORMALIZED FREE ENERGY PREDICTED BY IDOCK:   -5.18 KCAL/MOL
REMARK 922        TOTAL FREE ENERGY PREDICTED BY IDOCK:   -6.86 KCAL/MOL
REMARK 923 INTER-LIGAND FREE ENERGY PREDICTED BY IDOCK:   -6.57 KCAL/MOL
REMARK 924 INTRA-LIGAND FREE ENERGY PREDICTED BY IDOCK:   -0.30 KCAL/MOL
REMARK 927      BINDING AFFINITY PREDICTED BY RF-SCORE:    0.00 PKD
ROOT
HETATM    1  C   UNL     1     -10.114   5.039  70.922  1.00  0.00    -0.232 C  
HETATM    2  N   UNL     1     -10.350   6.518  71.185  1.00  0.00    -0.203 N  
HETATM    3  C   UNL     1     -11.510   6.700  72.169  1.00  0.00    -0.287 C  
HETATM    4  C   UNL     1     -11.736   8.198  72.388  1.00  0.00    -0.461 C  
HETATM    5  C   UNL     1     -10.715   9.042  71.603  1.00  0.00    -0.441 C  
HETATM    6  C   UNL     1      -9.311   8.621  72.052  1.00  0.00    -0.362 C  
HETATM    7  C   UNL     1     -10.872   8.747  70.094  1.00  0.00    -0.227 C  
HETATM    8  C   UNL     1      -9.081   7.131  71.797  1.00  0.00    -0.139 C  
HETATM    9  C   UNL     1     -10.701   7.229  69.846  1.00  0.00    -0.242 C  
ENDROOT
BRANCH   7  10
HETATM   10  O   UNL     1     -10.090   9.702  69.318  1.00  0.00    -0.175 OA 
BRANCH  10  11
HETATM   11  C   UNL     1     -10.098   9.838  67.952  1.00  0.00    -0.173 C  
HETATM   12  O   UNL     1     -10.645   9.029  67.210  1.00  0.00    -0.276 OA 
HETATM   13  C   UNL     1      -9.306  11.146  67.532  1.00  0.00    -0.168 C  
HETATM   14  C   UNL     1     -10.211  12.312  67.085  1.00  0.00    -0.224 A  
HETATM   15  C   UNL     1      -8.237  10.809  66.477  1.00  0.00    -0.148 A  
HETATM   16  O   UNL     1      -8.614  11.613  68.715  1.00  0.00    -0.306 OA 
HETATM   17  H   UNL     1      -8.139  12.398  68.464  1.00  0.00     0.000 HD 
HETATM   18  C   UNL     1      -9.758  13.646  67.231  1.00  0.00    -0.243 A  
HETATM   19  C   UNL     1      -8.590  10.323  65.205  1.00  0.00    -0.175 A  
HETATM   20  C   UNL     1     -10.548  14.735  66.852  1.00  0.00    -0.294 A  
HETATM   21  C   UNL     1      -7.614  10.021  64.251  1.00  0.00    -0.141 A  
HETATM   22  C   UNL     1      -6.263  10.207  64.545  1.00  0.00    -0.133 A  
HETATM   23  C   UNL     1     -11.801  14.525  66.295  1.00  0.00    -0.354 A  
HETATM   24  C   UNL     1     -12.255  13.223  66.096  1.00  0.00    -0.466 A  
HETATM   25  C   UNL     1      -5.890  10.691  65.791  1.00  0.00    -0.138 A  
HETATM   26  C   UNL     1      -6.865  10.991  66.746  1.00  0.00    -0.128 A  
HETATM   27  C   UNL     1     -11.467  12.127  66.479  1.00  0.00    -0.430 A  
ENDBRANCH  10  11
ENDBRANCH   7  10
TORSDOF 2
ENDMDL
MODEL       56
REMARK 921   NORMALIZED FREE ENERGY PREDICTED BY IDOCK:   -5.17 KCAL/MOL
REMARK 922        TOTAL FREE ENERGY PREDICTED BY IDOCK:   -6.85 KCAL/MOL
REMARK 923 INTER-LIGAND FREE ENERGY PREDICTED BY IDOCK:   -6.18 KCAL/MOL
REMARK 924 INTRA-LIGAND FREE ENERGY PREDICTED BY IDOCK:   -0.67 KCAL/MOL
REMARK 927      BINDING AFFINITY PREDICTED BY RF-SCORE:    0.00 PKD
ROOT
HETATM    1  C   UNL     1     -12.280  13.351  66.186  1.00  0.00    -0.415 C  
HETATM    2  N   UNL     1     -11.185  12.610  66.939  1.00  0.00    -0.285 N  
HETATM    3  C   UNL     1     -10.042  13.570  67.286  1.00  0.00    -0.235 C  
HETATM    4  C   UNL     1      -8.950  12.785  68.016  1.00  0.00    -0.196 C  
HETATM    5  C   UNL     1      -9.352  11.312  68.215  1.00  0.00    -0.180 C  
HETATM    6  C   UNL     1     -10.671  11.285  68.996  1.00  0.00    -0.257 C  
HETATM    7  C   UNL     1      -9.570  10.658  66.832  1.00  0.00    -0.171 C  
HETATM    8  C   UNL     1     -11.765  12.040  68.242  1.00  0.00    -0.334 C  
HETATM    9  C   UNL     1     -10.634  11.462  66.046  1.00  0.00    -0.266 C  
ENDROOT
BRANCH   7  10
HETATM   10  O   UNL     1      -9.715   9.215  66.983  1.00  0.00    -0.164 OA 
BRANCH  10  11
HETATM   11  C   UNL     1      -9.021   8.417  67.859  1.00  0.00    -0.137 C  
HETATM   12  O   UNL     1      -7.832   8.585  68.107  1.00  0.00    -0.101 OA 
HETATM   13  C   UNL     1      -9.978   7.297  68.446  1.00  0.00    -0.161 C  
HETATM   14  C   UNL     1     -10.415   7.545  69.904  1.00  0.00    -0.232 A  
HETATM   15  C   UNL     1      -9.348   5.905  68.262  1.00  0.00    -0.118 A  
HETATM   16  O   UNL     1     -11.193   7.330  67.657  1.00  0.00    -0.530 OA 
HETATM   17  H   UNL     1     -11.766   6.659  68.009  1.00  0.00     0.000 HD 
HETATM   18  C   UNL     1     -11.644   7.014  70.367  1.00  0.00    -0.341 A  
HETATM   19  C   UNL     1      -8.146   5.554  68.903  1.00  0.00    -0.095 A  
HETATM   20  C   UNL     1     -12.088   7.224  71.675  1.00  0.00    -0.359 A  
HETATM   21  C   UNL     1      -7.580   4.287  68.734  1.00  0.00    -0.059 A  
HETATM   22  C   UNL     1      -8.210   3.340  67.926  1.00  0.00    -0.087 A  
HETATM   23  C   UNL     1     -11.309   7.947  72.566  1.00  0.00    -0.449 A  
HETATM   24  C   UNL     1     -10.075   8.444  72.154  1.00  0.00    -0.376 A  
HETATM   25  C   UNL     1      -9.399   3.660  67.288  1.00  0.00    -0.235 A  
HETATM   26  C   UNL     1      -9.965   4.927  67.455  1.00  0.00    -0.202 A  
HETATM   27  C   UNL     1      -9.627   8.239  70.840  1.00  0.00    -0.196 A  
ENDBRANCH  10  11
ENDBRANCH   7  10
TORSDOF 2
ENDMDL
MODEL       57
REMARK 921   NORMALIZED FREE ENERGY PREDICTED BY IDOCK:   -5.17 KCAL/MOL
REMARK 922        TOTAL FREE ENERGY PREDICTED BY IDOCK:   -6.85 KCAL/MOL
REMARK 923 INTER-LIGAND FREE ENERGY PREDICTED BY IDOCK:   -6.12 KCAL/MOL
REMARK 924 INTRA-LIGAND FREE ENERGY PREDICTED BY IDOCK:   -0.73 KCAL/MOL
REMARK 927      BINDING AFFINITY PREDICTED BY RF-SCORE:    0.00 PKD
ROOT
HETATM    1  C   UNL     1     -10.963  16.709  67.427  1.00  0.00    -0.103 C  
HETATM    2  N   UNL     1     -10.672  15.328  66.861  1.00  0.00    -0.309 N  
HETATM    3  C   UNL     1     -10.635  15.383  65.330  1.00  0.00    -0.410 C  
HETATM    4  C   UNL     1     -10.367  13.974  64.796  1.00  0.00    -0.407 C  
HETATM    5  C   UNL     1     -10.174  12.965  65.944  1.00  0.00    -0.299 C  
HETATM    6  C   UNL     1      -9.013  13.458  66.814  1.00  0.00    -0.190 C  
HETATM    7  C   UNL     1     -11.461  12.919  66.797  1.00  0.00    -0.340 C  
HETATM    8  C   UNL     1      -9.304  14.850  67.372  1.00  0.00    -0.199 C  
HETATM    9  C   UNL     1     -11.789  14.342  67.309  1.00  0.00    -0.413 C  
ENDROOT
BRANCH   7  10
HETATM   10  O   UNL     1     -11.395  11.806  67.737  1.00  0.00    -0.247 OA 
BRANCH  10  11
HETATM   11  C   UNL     1     -10.852  10.569  67.492  1.00  0.00    -0.301 C  
HETATM   12  O   UNL     1     -11.028   9.966  66.439  1.00  0.00     0.069 OA 
HETATM   13  C   UNL     1     -10.016  10.085  68.750  1.00  0.00    -0.172 C  
HETATM   14  C   UNL     1      -8.488  10.166  68.559  1.00  0.00    -0.121 A  
HETATM   15  C   UNL     1     -10.469   8.679  69.185  1.00  0.00    -0.223 A  
HETATM   16  O   UNL     1     -10.329  10.994  69.834  1.00  0.00    -0.433 OA 
HETATM   17  H   UNL     1      -9.828  10.705  70.588  1.00  0.00     0.000 HD 
HETATM   18  C   UNL     1      -7.649  10.330  69.688  1.00  0.00    -0.167 A  
HETATM   19  C   UNL     1     -10.305   7.564  68.344  1.00  0.00    -0.226 A  
HETATM   20  C   UNL     1      -6.260  10.422  69.563  1.00  0.00    -0.054 A  
HETATM   21  C   UNL     1     -10.715   6.290  68.745  1.00  0.00    -0.352 A  
HETATM   22  C   UNL     1     -11.292   6.102  70.002  1.00  0.00    -0.443 A  
HETATM   23  C   UNL     1      -5.666  10.328  68.312  1.00  0.00    -0.041 A  
HETATM   24  C   UNL     1      -6.463  10.121  67.188  1.00  0.00    -0.068 A  
HETATM   25  C   UNL     1     -11.460   7.186  70.851  1.00  0.00    -0.333 A  
HETATM   26  C   UNL     1     -11.051   8.460  70.450  1.00  0.00    -0.240 A  
HETATM   27  C   UNL     1      -7.858  10.033  67.309  1.00  0.00    -0.102 A  
ENDBRANCH  10  11
ENDBRANCH   7  10
TORSDOF 2
ENDMDL
MODEL       58
REMARK 921   NORMALIZED FREE ENERGY PREDICTED BY IDOCK:   -5.16 KCAL/MOL
REMARK 922        TOTAL FREE ENERGY PREDICTED BY IDOCK:   -6.84 KCAL/MOL
REMARK 923 INTER-LIGAND FREE ENERGY PREDICTED BY IDOCK:   -6.52 KCAL/MOL
REMARK 924 INTRA-LIGAND FREE ENERGY PREDICTED BY IDOCK:   -0.32 KCAL/MOL
REMARK 927      BINDING AFFINITY PREDICTED BY RF-SCORE:    0.00 PKD
ROOT
HETATM    1  C   UNL     1     -10.057  19.824  68.903  1.00  0.00    -0.384 C  
HETATM    2  N   UNL     1      -9.229  19.008  67.922  1.00  0.00    -0.295 N  
HETATM    3  C   UNL     1      -8.444  19.939  66.993  1.00  0.00    -0.328 C  
HETATM    4  C   UNL     1      -7.645  19.085  66.005  1.00  0.00    -0.273 C  
HETATM    5  C   UNL     1      -7.838  17.582  66.277  1.00  0.00    -0.322 C  
HETATM    6  C   UNL     1      -7.408  17.306  67.723  1.00  0.00    -0.180 C  
HETATM    7  C   UNL     1      -9.334  17.228  66.119  1.00  0.00    -0.168 C  
HETATM    8  C   UNL     1      -8.235  18.136  68.704  1.00  0.00    -0.281 C  
HETATM    9  C   UNL     1     -10.174  18.115  67.069  1.00  0.00    -0.365 C  
ENDROOT
BRANCH   7  10
HETATM   10  O   UNL     1      -9.507  15.781  66.134  1.00  0.00    -0.284 OA 
BRANCH  10  11
HETATM   11  C   UNL     1     -10.556  15.094  66.693  1.00  0.00    -0.304 C  
HETATM   12  O   UNL     1     -11.690  15.125  66.226  1.00  0.00    -0.180 OA 
HETATM   13  C   UNL     1     -10.067  14.313  67.983  1.00  0.00    -0.227 C  
HETATM   14  C   UNL     1      -9.920  12.791  67.778  1.00  0.00    -0.219 A  
HETATM   15  C   UNL     1     -10.967  14.649  69.186  1.00  0.00    -0.277 A  
HETATM   16  O   UNL     1      -8.738  14.801  68.289  1.00  0.00    -0.157 OA 
HETATM   17  H   UNL     1      -8.444  14.333  69.061  1.00  0.00     0.000 HD 
HETATM   18  C   UNL     1      -9.000  12.064  68.571  1.00  0.00    -0.098 A  
HETATM   19  C   UNL     1     -12.331  14.304  69.199  1.00  0.00    -0.165 A  
HETATM   20  C   UNL     1      -8.823  10.686  68.413  1.00  0.00    -0.145 A  
HETATM   21  C   UNL     1     -13.142  14.610  70.295  1.00  0.00    -0.054 A  
HETATM   22  C   UNL     1     -12.605  15.259  71.407  1.00  0.00    -0.444 A  
HETATM   23  C   UNL     1      -9.576   9.991  67.477  1.00  0.00    -0.178 A  
HETATM   24  C   UNL     1     -10.522  10.672  66.714  1.00  0.00    -0.303 A  
HETATM   25  C   UNL     1     -11.261  15.604  71.420  1.00  0.00    -0.392 A  
HETATM   26  C   UNL     1     -10.450  15.301  70.324  1.00  0.00    -0.217 A  
HETATM   27  C   UNL     1     -10.699  12.056  66.867  1.00  0.00    -0.282 A  
ENDBRANCH  10  11
ENDBRANCH   7  10
TORSDOF 2
ENDMDL
MODEL       59
REMARK 921   NORMALIZED FREE ENERGY PREDICTED BY IDOCK:   -5.15 KCAL/MOL
REMARK 922        TOTAL FREE ENERGY PREDICTED BY IDOCK:   -6.84 KCAL/MOL
REMARK 923 INTER-LIGAND FREE ENERGY PREDICTED BY IDOCK:   -5.72 KCAL/MOL
REMARK 924 INTRA-LIGAND FREE ENERGY PREDICTED BY IDOCK:   -1.12 KCAL/MOL
REMARK 927      BINDING AFFINITY PREDICTED BY RF-SCORE:    0.00 PKD
ROOT
HETATM    1  C   UNL     1      -9.354   3.570  68.199  1.00  0.00    -0.180 C  
HETATM    2  N   UNL     1      -9.158   5.051  68.488  1.00  0.00    -0.107 N  
HETATM    3  C   UNL     1      -8.723   5.250  69.943  1.00  0.00    -0.105 C  
HETATM    4  C   UNL     1      -8.562   6.750  70.205  1.00  0.00    -0.140 C  
HETATM    5  C   UNL     1      -8.835   7.575  68.933  1.00  0.00    -0.135 C  
HETATM    6  C   UNL     1      -7.870   7.095  67.843  1.00  0.00    -0.114 C  
HETATM    7  C   UNL     1     -10.287   7.321  68.470  1.00  0.00    -0.189 C  
HETATM    8  C   UNL     1      -8.063   5.605  67.563  1.00  0.00    -0.102 C  
HETATM    9  C   UNL     1     -10.498   5.804  68.248  1.00  0.00    -0.220 C  
ENDROOT
BRANCH   7  10
HETATM   10  O   UNL     1     -10.646   8.266  67.419  1.00  0.00    -0.284 OA 
BRANCH  10  11
HETATM   11  C   UNL     1     -10.540   9.633  67.486  1.00  0.00    -0.277 C  
HETATM   12  O   UNL     1     -11.077  10.295  68.367  1.00  0.00    -0.253 OA 
HETATM   13  C   UNL     1      -9.660  10.169  66.280  1.00  0.00    -0.193 C  
HETATM   14  C   UNL     1      -8.238  10.607  66.686  1.00  0.00    -0.134 A  
HETATM   15  C   UNL     1     -10.411  11.278  65.522  1.00  0.00    -0.323 A  
HETATM   16  O   UNL     1      -9.487   9.060  65.364  1.00  0.00    -0.409 OA 
HETATM   17  H   UNL     1      -8.960   9.381  64.641  1.00  0.00     0.000 HD 
HETATM   18  C   UNL     1      -7.192  10.556  65.733  1.00  0.00    -0.135 A  
HETATM   19  C   UNL     1     -10.737  12.498  66.142  1.00  0.00    -0.290 A  
HETATM   20  C   UNL     1      -5.884  10.930  66.057  1.00  0.00    -0.143 A  
HETATM   21  C   UNL     1     -11.416  13.503  65.447  1.00  0.00    -0.318 A  
HETATM   22  C   UNL     1     -11.777  13.312  64.113  1.00  0.00    -0.470 A  
HETATM   23  C   UNL     1      -5.589  11.388  67.333  1.00  0.00    -0.060 A  
HETATM   24  C   UNL     1      -6.607  11.492  68.278  1.00  0.00    -0.061 A  
HETATM   25  C   UNL     1     -11.462  12.120  63.478  1.00  0.00    -0.544 A  
HETATM   26  C   UNL     1     -10.784  11.115  64.172  1.00  0.00    -0.415 A  
HETATM   27  C   UNL     1      -7.919  11.114  67.958  1.00  0.00    -0.117 A  
ENDBRANCH  10  11
ENDBRANCH   7  10
TORSDOF 2
ENDMDL
MODEL       60
REMARK 921   NORMALIZED FREE ENERGY PREDICTED BY IDOCK:   -5.15 KCAL/MOL
REMARK 922        TOTAL FREE ENERGY PREDICTED BY IDOCK:   -6.83 KCAL/MOL
REMARK 923 INTER-LIGAND FREE ENERGY PREDICTED BY IDOCK:   -6.32 KCAL/MOL
REMARK 924 INTRA-LIGAND FREE ENERGY PREDICTED BY IDOCK:   -0.51 KCAL/MOL
REMARK 927      BINDING AFFINITY PREDICTED BY RF-SCORE:    0.00 PKD
ROOT
HETATM    1  C   UNL     1     -13.073  11.824  72.174  1.00  0.00    -0.203 C  
HETATM    2  N   UNL     1     -12.981  13.276  71.730  1.00  0.00    -0.353 N  
HETATM    3  C   UNL     1     -14.334  13.971  71.920  1.00  0.00    -0.382 C  
HETATM    4  C   UNL     1     -14.211  15.419  71.438  1.00  0.00    -0.519 C  
HETATM    5  C   UNL     1     -12.779  15.736  70.966  1.00  0.00    -0.453 C  
HETATM    6  C   UNL     1     -11.826  15.457  72.134  1.00  0.00    -0.536 C  
HETATM    7  C   UNL     1     -12.420  14.805  69.786  1.00  0.00    -0.191 C  
HETATM    8  C   UNL     1     -11.929  14.000  72.584  1.00  0.00     0.728 C  
HETATM    9  C   UNL     1     -12.586  13.331  70.227  1.00  0.00    -0.090 C  
ENDROOT
BRANCH   7  10
HETATM   10  O   UNL     1     -11.173  15.243  69.170  1.00  0.00    -0.246 OA 
BRANCH  10  11
HETATM   11  C   UNL     1     -10.904  15.283  67.824  1.00  0.00    -0.295 C  
HETATM   12  O   UNL     1     -11.646  15.831  67.017  1.00  0.00     0.009 OA 
HETATM   13  C   UNL     1      -9.545  14.523  67.521  1.00  0.00    -0.210 C  
HETATM   14  C   UNL     1      -8.358  15.458  67.210  1.00  0.00    -0.224 A  
HETATM   15  C   UNL     1      -9.755  13.471  66.418  1.00  0.00    -0.296 A  
HETATM   16  O   UNL     1      -9.183  13.814  68.732  1.00  0.00    -0.367 OA 
HETATM   17  H   UNL     1      -8.369  13.359  68.551  1.00  0.00     0.000 HD 
HETATM   18  C   UNL     1      -7.037  15.026  67.479  1.00  0.00    -0.224 A  
HETATM   19  C   UNL     1     -10.120  13.842  65.111  1.00  0.00    -0.330 A  
HETATM   20  C   UNL     1      -5.931  15.842  67.226  1.00  0.00    -0.056 A  
HETATM   21  C   UNL     1     -10.306  12.882  64.113  1.00  0.00    -0.385 A  
HETATM   22  C   UNL     1     -10.123  11.529  64.398  1.00  0.00    -0.328 A  
HETATM   23  C   UNL     1      -6.110  17.103  66.675  1.00  0.00    -0.247 A  
HETATM   24  C   UNL     1      -7.394  17.538  66.357  1.00  0.00    -0.334 A  
HETATM   25  C   UNL     1      -9.758  11.138  65.678  1.00  0.00    -0.267 A  
HETATM   26  C   UNL     1      -9.573  12.097  66.677  1.00  0.00    -0.226 A  
HETATM   27  C   UNL     1      -8.507  16.723  66.613  1.00  0.00    -0.291 A  
ENDBRANCH  10  11
ENDBRANCH   7  10
TORSDOF 2
ENDMDL
MODEL       61
REMARK 921   NORMALIZED FREE ENERGY PREDICTED BY IDOCK:   -5.12 KCAL/MOL
REMARK 922        TOTAL FREE ENERGY PREDICTED BY IDOCK:   -6.80 KCAL/MOL
REMARK 923 INTER-LIGAND FREE ENERGY PREDICTED BY IDOCK:   -6.33 KCAL/MOL
REMARK 924 INTRA-LIGAND FREE ENERGY PREDICTED BY IDOCK:   -0.48 KCAL/MOL
REMARK 927      BINDING AFFINITY PREDICTED BY RF-SCORE:    0.00 PKD
ROOT
HETATM    1  C   UNL     1     -11.040  10.474  67.467  1.00  0.00    -0.290 C  
HETATM    2  N   UNL     1     -10.712  11.475  66.369  1.00  0.00    -0.264 N  
HETATM    3  C   UNL     1     -10.404  10.739  65.061  1.00  0.00    -0.287 C  
HETATM    4  C   UNL     1     -10.054  11.774  63.988  1.00  0.00    -0.360 C  
HETATM    5  C   UNL     1     -10.164  13.210  64.535  1.00  0.00    -0.333 C  
HETATM    6  C   UNL     1     -11.594  13.409  65.052  1.00  0.00    -0.339 C  
HETATM    7  C   UNL     1      -9.175  13.380  65.709  1.00  0.00     0.318 C  
HETATM    8  C   UNL     1     -11.923  12.394  66.147  1.00  0.00    -0.327 C  
HETATM    9  C   UNL     1      -9.470  12.311  66.789  1.00  0.00    -0.222 C  
ENDROOT
BRANCH   7  10
HETATM   10  O   UNL     1      -9.086  14.786  66.084  1.00  0.00    -0.246 OA 
BRANCH  10  11
HETATM   11  C   UNL     1      -9.041  15.284  67.363  1.00  0.00    -0.192 C  
HETATM   12  O   UNL     1      -8.167  14.970  68.164  1.00  0.00    -0.132 OA 
HETATM   13  C   UNL     1     -10.260  16.269  67.605  1.00  0.00    -0.272 C  
HETATM   14  C   UNL     1      -9.869  17.761  67.618  1.00  0.00    -0.299 A  
HETATM   15  C   UNL     1     -11.031  15.864  68.875  1.00  0.00    -0.290 A  
HETATM   16  O   UNL     1     -11.159  16.104  66.482  1.00  0.00    -0.125 OA 
HETATM   17  H   UNL     1     -11.890  16.695  66.627  1.00  0.00     0.000 HD 
HETATM   18  C   UNL     1     -10.827  18.738  67.254  1.00  0.00    -0.408 A  
HETATM   19  C   UNL     1     -10.428  15.910  70.144  1.00  0.00    -0.251 A  
HETATM   20  C   UNL     1     -10.516  20.101  67.238  1.00  0.00    -0.430 A  
HETATM   21  C   UNL     1     -11.135  15.544  71.293  1.00  0.00    -0.343 A  
HETATM   22  C   UNL     1     -12.464  15.130  71.198  1.00  0.00    -0.416 A  
HETATM   23  C   UNL     1      -9.249  20.529  67.608  1.00  0.00    -0.377 A  
HETATM   24  C   UNL     1      -8.300  19.594  68.015  1.00  0.00    -0.341 A  
HETATM   25  C   UNL     1     -13.082  15.081  69.957  1.00  0.00     0.094 A  
HETATM   26  C   UNL     1     -12.376  15.446  68.808  1.00  0.00     0.082 A  
HETATM   27  C   UNL     1      -8.607  18.225  68.029  1.00  0.00    -0.280 A  
ENDBRANCH  10  11
ENDBRANCH   7  10
TORSDOF 2
ENDMDL
MODEL       62
REMARK 921   NORMALIZED FREE ENERGY PREDICTED BY IDOCK:   -5.11 KCAL/MOL
REMARK 922        TOTAL FREE ENERGY PREDICTED BY IDOCK:   -6.78 KCAL/MOL
REMARK 923 INTER-LIGAND FREE ENERGY PREDICTED BY IDOCK:   -6.11 KCAL/MOL
REMARK 924 INTRA-LIGAND FREE ENERGY PREDICTED BY IDOCK:   -0.68 KCAL/MOL
REMARK 927      BINDING AFFINITY PREDICTED BY RF-SCORE:    0.00 PKD
ROOT
HETATM    1  C   UNL     1      -7.924   7.932  70.551  1.00  0.00    -0.097 C  
HETATM    2  N   UNL     1      -7.323   8.635  69.344  1.00  0.00    -0.071 N  
HETATM    3  C   UNL     1      -5.815   8.369  69.276  1.00  0.00    -0.034 C  
HETATM    4  C   UNL     1      -5.241   9.112  68.066  1.00  0.00    -0.034 C  
HETATM    5  C   UNL     1      -6.345   9.844  67.280  1.00  0.00    -0.068 C  
HETATM    6  C   UNL     1      -7.386   8.804  66.849  1.00  0.00    -0.079 C  
HETATM    7  C   UNL     1      -7.021  10.881  68.206  1.00  0.00    -0.069 C  
HETATM    8  C   UNL     1      -7.979   8.092  68.065  1.00  0.00    -0.127 C  
HETATM    9  C   UNL     1      -7.565  10.167  69.466  1.00  0.00    -0.139 C  
ENDROOT
BRANCH   7  10
HETATM   10  O   UNL     1      -7.896  11.746  67.425  1.00  0.00    -0.137 OA 
BRANCH  10  11
HETATM   11  C   UNL     1      -8.802  12.649  67.927  1.00  0.00    -0.182 C  
HETATM   12  O   UNL     1      -8.464  13.632  68.578  1.00  0.00    -0.161 OA 
HETATM   13  C   UNL     1     -10.276  12.207  67.545  1.00  0.00    -0.199 C  
HETATM   14  C   UNL     1     -10.915  13.050  66.423  1.00  0.00    -0.301 A  
HETATM   15  C   UNL     1     -11.162  12.156  68.803  1.00  0.00    -0.314 A  
HETATM   16  O   UNL     1     -10.187  10.858  67.025  1.00  0.00    -0.198 OA 
HETATM   17  H   UNL     1     -11.070  10.593  66.796  1.00  0.00     0.000 HD 
HETATM   18  C   UNL     1     -11.915  12.478  65.600  1.00  0.00    -0.492 A  
HETATM   19  C   UNL     1     -11.443  13.316  69.548  1.00  0.00    -0.299 A  
HETATM   20  C   UNL     1     -12.513  13.199  64.562  1.00  0.00    -0.406 A  
HETATM   21  C   UNL     1     -12.251  13.264  70.688  1.00  0.00    -0.417 A  
HETATM   22  C   UNL     1     -12.801  12.051  71.103  1.00  0.00    -0.331 A  
HETATM   23  C   UNL     1     -12.148  14.517  64.331  1.00  0.00    -0.492 A  
HETATM   24  C   UNL     1     -11.200  15.121  65.153  1.00  0.00    -0.392 A  
HETATM   25  C   UNL     1     -12.543  10.894  70.382  1.00  0.00    -0.376 A  
HETATM   26  C   UNL     1     -11.734  10.945  69.243  1.00  0.00    -0.395 A  
HETATM   27  C   UNL     1     -10.594  14.400  66.193  1.00  0.00    -0.298 A  
ENDBRANCH  10  11
ENDBRANCH   7  10
TORSDOF 2
ENDMDL
MODEL       63
REMARK 921   NORMALIZED FREE ENERGY PREDICTED BY IDOCK:   -5.11 KCAL/MOL
REMARK 922        TOTAL FREE ENERGY PREDICTED BY IDOCK:   -6.78 KCAL/MOL
REMARK 923 INTER-LIGAND FREE ENERGY PREDICTED BY IDOCK:   -5.89 KCAL/MOL
REMARK 924 INTRA-LIGAND FREE ENERGY PREDICTED BY IDOCK:   -0.89 KCAL/MOL
REMARK 927      BINDING AFFINITY PREDICTED BY RF-SCORE:    0.00 PKD
ROOT
HETATM    1  C   UNL     1      -8.853   3.859  64.965  1.00  0.00    -0.126 C  
HETATM    2  N   UNL     1      -9.037   4.147  66.447  1.00  0.00    -0.127 N  
HETATM    3  C   UNL     1      -9.054   2.836  67.240  1.00  0.00    -0.174 C  
HETATM    4  C   UNL     1      -9.267   3.163  68.721  1.00  0.00    -0.227 C  
HETATM    5  C   UNL     1      -9.349   4.683  68.955  1.00  0.00    -0.203 C  
HETATM    6  C   UNL     1      -8.053   5.311  68.430  1.00  0.00    -0.091 C  
HETATM    7  C   UNL     1     -10.546   5.252  68.160  1.00  0.00    -0.006 C  
HETATM    8  C   UNL     1      -7.867   5.010  66.943  1.00  0.00    -0.096 C  
HETATM    9  C   UNL     1     -10.386   4.891  66.664  1.00  0.00    -0.242 C  
ENDROOT
BRANCH   7  10
HETATM   10  O   UNL     1     -10.789   6.635  68.552  1.00  0.00    -0.239 OA 
BRANCH  10  11
HETATM   11  C   UNL     1     -11.277   7.061  69.763  1.00  0.00    -0.217 C  
HETATM   12  O   UNL     1     -12.260   6.557  70.295  1.00  0.00    -0.278 OA 
HETATM   13  C   UNL     1     -10.395   8.261  70.310  1.00  0.00    -0.209 C  
HETATM   14  C   UNL     1      -9.453   7.872  71.467  1.00  0.00    -0.184 A  
HETATM   15  C   UNL     1     -11.290   9.459  70.673  1.00  0.00    -0.352 A  
HETATM   16  O   UNL     1      -9.536   8.678  69.221  1.00  0.00    -0.156 OA 
HETATM   17  H   UNL     1      -9.007   9.397  69.548  1.00  0.00     0.000 HD 
HETATM   18  C   UNL     1      -8.257   8.603  71.671  1.00  0.00    -0.199 A  
HETATM   19  C   UNL     1     -12.246   9.374  71.702  1.00  0.00    -0.467 A  
HETATM   20  C   UNL     1      -7.365   8.280  72.698  1.00  0.00    -0.141 A  
HETATM   21  C   UNL     1     -13.054  10.467  72.029  1.00  0.00    -0.511 A  
HETATM   22  C   UNL     1     -12.917  11.673  71.339  1.00  0.00    -0.426 A  
HETATM   23  C   UNL     1      -7.652   7.235  73.564  1.00  0.00    -0.110 A  
HETATM   24  C   UNL     1      -8.842   6.527  73.416  1.00  0.00    -0.134 A  
HETATM   25  C   UNL     1     -11.978  11.782  70.324  1.00  0.00    -0.429 A  
HETATM   26  C   UNL     1     -11.171  10.690  69.996  1.00  0.00    -0.382 A  
HETATM   27  C   UNL     1      -9.738   6.845  72.385  1.00  0.00    -0.168 A  
ENDBRANCH  10  11
ENDBRANCH   7  10
TORSDOF 2
ENDMDL
MODEL       64
REMARK 921   NORMALIZED FREE ENERGY PREDICTED BY IDOCK:   -5.07 KCAL/MOL
REMARK 922        TOTAL FREE ENERGY PREDICTED BY IDOCK:   -6.75 KCAL/MOL
REMARK 923 INTER-LIGAND FREE ENERGY PREDICTED BY IDOCK:   -6.20 KCAL/MOL
REMARK 924 INTRA-LIGAND FREE ENERGY PREDICTED BY IDOCK:   -0.55 KCAL/MOL
REMARK 927      BINDING AFFINITY PREDICTED BY RF-SCORE:    0.00 PKD
ROOT
HETATM    1  C   UNL     1      -6.640   6.090  65.772  1.00  0.00    -0.047 C  
HETATM    2  N   UNL     1      -8.077   5.814  66.188  1.00  0.00    -0.106 N  
HETATM    3  C   UNL     1      -8.704   4.772  65.256  1.00  0.00    -0.142 C  
HETATM    4  C   UNL     1     -10.154   4.539  65.688  1.00  0.00    -0.261 C  
HETATM    5  C   UNL     1     -10.512   5.375  66.932  1.00  0.00    -0.337 C  
HETATM    6  C   UNL     1      -9.533   4.998  68.050  1.00  0.00    -0.165 C  
HETATM    7  C   UNL     1     -10.344   6.874  66.598  1.00  0.00    -0.144 C  
HETATM    8  C   UNL     1      -8.090   5.267  67.624  1.00  0.00    -0.100 C  
HETATM    9  C   UNL     1      -8.899   7.132  66.106  1.00  0.00    -0.150 C  
ENDROOT
BRANCH   7  10
HETATM   10  O   UNL     1     -10.902   7.688  67.671  1.00  0.00    -0.197 OA 
BRANCH  10  11
HETATM   11  C   UNL     1     -10.190   8.388  68.613  1.00  0.00    -0.201 C  
HETATM   12  O   UNL     1      -9.250   9.120  68.321  1.00  0.00    -0.132 OA 
HETATM   13  C   UNL     1     -10.762   8.086  70.060  1.00  0.00    -0.244 C  
HETATM   14  C   UNL     1     -11.596   9.237  70.660  1.00  0.00    -0.305 A  
HETATM   15  C   UNL     1      -9.627   7.645  71.003  1.00  0.00    -0.169 A  
HETATM   16  O   UNL     1     -11.671   6.966  69.925  1.00  0.00    -0.562 OA 
HETATM   17  H   UNL     1     -12.014   6.785  70.793  1.00  0.00     0.000 HD 
HETATM   18  C   UNL     1     -12.604   8.949  71.612  1.00  0.00    -0.403 A  
HETATM   19  C   UNL     1      -8.573   8.514  71.337  1.00  0.00    -0.224 A  
HETATM   20  C   UNL     1     -13.394   9.956  72.172  1.00  0.00    -0.498 A  
HETATM   21  C   UNL     1      -7.547   8.109  72.196  1.00  0.00    -0.142 A  
HETATM   22  C   UNL     1      -7.558   6.827  72.745  1.00  0.00    -0.091 A  
HETATM   23  C   UNL     1     -13.185  11.281  71.818  1.00  0.00    -0.480 A  
HETATM   24  C   UNL     1     -12.170  11.600  70.919  1.00  0.00    -0.401 A  
HETATM   25  C   UNL     1      -8.590   5.953  72.435  1.00  0.00    -0.120 A  
HETATM   26  C   UNL     1      -9.615   6.357  71.576  1.00  0.00    -0.169 A  
HETATM   27  C   UNL     1     -11.378  10.591  70.350  1.00  0.00    -0.411 A  
ENDBRANCH  10  11
ENDBRANCH   7  10
TORSDOF 2
ENDMDL
MODEL       65
REMARK 921   NORMALIZED FREE ENERGY PREDICTED BY IDOCK:   -5.02 KCAL/MOL
REMARK 922        TOTAL FREE ENERGY PREDICTED BY IDOCK:   -6.69 KCAL/MOL
REMARK 923 INTER-LIGAND FREE ENERGY PREDICTED BY IDOCK:   -6.52 KCAL/MOL
REMARK 924 INTRA-LIGAND FREE ENERGY PREDICTED BY IDOCK:   -0.17 KCAL/MOL
REMARK 927      BINDING AFFINITY PREDICTED BY RF-SCORE:    0.00 PKD
ROOT
HETATM    1  C   UNL     1     -11.454   5.518  72.546  1.00  0.00    -0.244 C  
HETATM    2  N   UNL     1     -11.158   6.924  72.044  1.00  0.00    -0.238 N  
HETATM    3  C   UNL     1     -12.270   7.883  72.482  1.00  0.00    -0.195 C  
HETATM    4  C   UNL     1     -11.953   9.279  71.938  1.00  0.00    -0.433 C  
HETATM    5  C   UNL     1     -10.616   9.295  71.174  1.00  0.00    -0.402 C  
HETATM    6  C   UNL     1      -9.521   8.812  72.132  1.00  0.00    -0.309 C  
HETATM    7  C   UNL     1     -10.706   8.322  69.978  1.00  0.00    -0.239 C  
HETATM    8  C   UNL     1      -9.827   7.403  72.642  1.00  0.00    -0.178 C  
HETATM    9  C   UNL     1     -11.078   6.910  70.491  1.00  0.00    -0.288 C  
ENDROOT
BRANCH   7  10
HETATM   10  O   UNL     1      -9.551   8.497  69.107  1.00  0.00    -0.164 OA 
BRANCH  10  11
HETATM   11  C   UNL     1      -9.006   9.695  68.713  1.00  0.00    -0.134 C  
HETATM   12  O   UNL     1      -7.981  10.150  69.208  1.00  0.00    -0.112 OA 
HETATM   13  C   UNL     1      -9.899  10.348  67.577  1.00  0.00    -0.172 C  
HETATM   14  C   UNL     1      -9.288  10.254  66.164  1.00  0.00    -0.211 A  
HETATM   15  C   UNL     1     -10.265  11.796  67.951  1.00  0.00    -0.203 A  
HETATM   16  O   UNL     1     -11.133   9.591  67.527  1.00  0.00    -0.450 OA 
HETATM   17  H   UNL     1     -11.668   9.982  66.846  1.00  0.00     0.000 HD 
HETATM   18  C   UNL     1     -10.139  10.249  65.032  1.00  0.00    -0.353 A  
HETATM   19  C   UNL     1      -9.278  12.790  68.083  1.00  0.00    -0.212 A  
HETATM   20  C   UNL     1      -9.633  10.151  63.733  1.00  0.00    -0.285 A  
HETATM   21  C   UNL     1      -9.617  14.104  68.421  1.00  0.00    -0.225 A  
HETATM   22  C   UNL     1     -10.952  14.454  68.625  1.00  0.00    -0.264 A  
HETATM   23  C   UNL     1      -8.263  10.081  63.524  1.00  0.00    -0.163 A  
HETATM   24  C   UNL     1      -7.398  10.130  64.616  1.00  0.00    -0.129 A  
HETATM   25  C   UNL     1     -11.944  13.493  68.495  1.00  0.00    -0.379 A  
HETATM   26  C   UNL     1     -11.606  12.179  68.159  1.00  0.00    -0.397 A  
HETATM   27  C   UNL     1      -7.903  10.223  65.922  1.00  0.00    -0.139 A  
ENDBRANCH  10  11
ENDBRANCH   7  10
TORSDOF 2
ENDMDL
MODEL       66
REMARK 921   NORMALIZED FREE ENERGY PREDICTED BY IDOCK:   -5.02 KCAL/MOL
REMARK 922        TOTAL FREE ENERGY PREDICTED BY IDOCK:   -6.68 KCAL/MOL
REMARK 923 INTER-LIGAND FREE ENERGY PREDICTED BY IDOCK:   -6.01 KCAL/MOL
REMARK 924 INTRA-LIGAND FREE ENERGY PREDICTED BY IDOCK:   -0.68 KCAL/MOL
REMARK 927      BINDING AFFINITY PREDICTED BY RF-SCORE:    0.00 PKD
ROOT
HETATM    1  C   UNL     1     -10.632  16.009  66.724  1.00  0.00    -0.297 C  
HETATM    2  N   UNL     1     -11.005  14.640  66.176  1.00  0.00    -0.323 N  
HETATM    3  C   UNL     1     -11.743  14.790  64.841  1.00  0.00    -0.390 C  
HETATM    4  C   UNL     1     -12.125  13.397  64.335  1.00  0.00    -0.468 C  
HETATM    5  C   UNL     1     -11.617  12.294  65.283  1.00  0.00    -0.405 C  
HETATM    6  C   UNL     1     -10.096  12.442  65.404  1.00  0.00    -0.289 C  
HETATM    7  C   UNL     1     -12.257  12.492  66.675  1.00  0.00     0.058 C  
HETATM    8  C   UNL     1      -9.725  13.823  65.945  1.00  0.00    -0.196 C  
HETATM    9  C   UNL     1     -11.932  13.914  67.192  1.00  0.00    -0.420 C  
ENDROOT
BRANCH   7  10
HETATM   10  O   UNL     1     -11.983  11.333  67.516  1.00  0.00    -0.612 OA 
BRANCH  10  11
HETATM   11  C   UNL     1     -11.198  11.315  68.643  1.00  0.00    -0.250 C  
HETATM   12  O   UNL     1      -9.987  11.503  68.608  1.00  0.00    -0.210 OA 
HETATM   13  C   UNL     1     -12.089  11.011  69.919  1.00  0.00    -0.361 C  
HETATM   14  C   UNL     1     -12.351  12.242  70.810  1.00  0.00    -0.383 A  
HETATM   15  C   UNL     1     -11.496   9.836  70.718  1.00  0.00    -0.417 A  
HETATM   16  O   UNL     1     -13.387  10.591  69.432  1.00  0.00    -0.160 OA 
HETATM   17  H   UNL     1     -13.922  10.409  70.197  1.00  0.00     0.000 HD 
HETATM   18  C   UNL     1     -13.522  12.294  71.606  1.00  0.00    -0.098 A  
HETATM   19  C   UNL     1     -10.230   9.928  71.324  1.00  0.00     0.384 A  
HETATM   20  C   UNL     1     -13.808  13.394  72.419  1.00  0.00    -0.665 A  
HETATM   21  C   UNL     1      -9.699   8.859  72.051  1.00  0.00    -0.304 A  
HETATM   22  C   UNL     1     -10.426   7.677  72.194  1.00  0.00    -0.270 A  
HETATM   23  C   UNL     1     -12.925  14.462  72.481  1.00  0.00    -0.501 A  
HETATM   24  C   UNL     1     -11.743  14.419  71.745  1.00  0.00     0.063 A  
HETATM   25  C   UNL     1     -11.679   7.564  71.610  1.00  0.00    -0.313 A  
HETATM   26  C   UNL     1     -12.211   8.632  70.882  1.00  0.00    -0.123 A  
HETATM   27  C   UNL     1     -11.453  13.319  70.924  1.00  0.00     0.944 A  
ENDBRANCH  10  11
ENDBRANCH   7  10
TORSDOF 2
ENDMDL
MODEL       67
REMARK 921   NORMALIZED FREE ENERGY PREDICTED BY IDOCK:   -5.01 KCAL/MOL
REMARK 922        TOTAL FREE ENERGY PREDICTED BY IDOCK:   -6.68 KCAL/MOL
REMARK 923 INTER-LIGAND FREE ENERGY PREDICTED BY IDOCK:   -6.18 KCAL/MOL
REMARK 924 INTRA-LIGAND FREE ENERGY PREDICTED BY IDOCK:   -0.50 KCAL/MOL
REMARK 927      BINDING AFFINITY PREDICTED BY RF-SCORE:    0.00 PKD
ROOT
HETATM    1  C   UNL     1      -9.970  10.219  65.163  1.00  0.00    -0.325 C  
HETATM    2  N   UNL     1      -9.102   9.206  65.895  1.00  0.00    -0.190 N  
HETATM    3  C   UNL     1      -8.316   8.361  64.888  1.00  0.00    -0.149 C  
HETATM    4  C   UNL     1      -7.477   7.337  65.657  1.00  0.00    -0.085 C  
HETATM    5  C   UNL     1      -7.644   7.504  67.180  1.00  0.00    -0.107 C  
HETATM    6  C   UNL     1      -7.241   8.937  67.544  1.00  0.00    -0.080 C  
HETATM    7  C   UNL     1      -9.128   7.286  67.551  1.00  0.00    -0.124 C  
HETATM    8  C   UNL     1      -8.108   9.952  66.798  1.00  0.00    -0.117 C  
HETATM    9  C   UNL     1     -10.009   8.272  66.747  1.00  0.00    -0.285 C  
ENDROOT
BRANCH   7  10
HETATM   10  O   UNL     1      -9.270   7.199  68.999  1.00  0.00    -0.137 OA 
BRANCH  10  11
HETATM   11  C   UNL     1     -10.364   6.727  69.681  1.00  0.00    -0.198 C  
HETATM   12  O   UNL     1     -11.174   5.956  69.178  1.00  0.00    -0.340 OA 
HETATM   13  C   UNL     1     -10.395   7.336  71.145  1.00  0.00    -0.198 C  
HETATM   14  C   UNL     1      -9.987   6.339  72.249  1.00  0.00    -0.182 A  
HETATM   15  C   UNL     1     -11.764   7.981  71.428  1.00  0.00    -0.320 A  
HETATM   16  O   UNL     1      -9.405   8.392  71.179  1.00  0.00    -0.154 OA 
HETATM   17  H   UNL     1      -9.422   8.757  72.057  1.00  0.00     0.000 HD 
HETATM   18  C   UNL     1      -9.423   6.822  73.455  1.00  0.00    -0.177 A  
HETATM   19  C   UNL     1     -12.942   7.213  71.461  1.00  0.00    -0.431 A  
HETATM   20  C   UNL     1      -9.026   5.957  74.478  1.00  0.00    -0.132 A  
HETATM   21  C   UNL     1     -14.182   7.804  71.721  1.00  0.00    -0.558 A  
HETATM   22  C   UNL     1     -14.269   9.175  71.962  1.00  0.00    -0.319 A  
HETATM   23  C   UNL     1      -9.202   4.588  74.338  1.00  0.00    -0.118 A  
HETATM   24  C   UNL     1      -9.796   4.086  73.182  1.00  0.00    -0.176 A  
HETATM   25  C   UNL     1     -13.121   9.953  71.939  1.00  0.00    -0.559 A  
HETATM   26  C   UNL     1     -11.881   9.363  71.678  1.00  0.00    -0.464 A  
HETATM   27  C   UNL     1     -10.192   4.951  72.151  1.00  0.00    -0.257 A  
ENDBRANCH  10  11
ENDBRANCH   7  10
TORSDOF 2
ENDMDL
MODEL       68
REMARK 921   NORMALIZED FREE ENERGY PREDICTED BY IDOCK:   -5.00 KCAL/MOL
REMARK 922        TOTAL FREE ENERGY PREDICTED BY IDOCK:   -6.66 KCAL/MOL
REMARK 923 INTER-LIGAND FREE ENERGY PREDICTED BY IDOCK:   -6.61 KCAL/MOL
REMARK 924 INTRA-LIGAND FREE ENERGY PREDICTED BY IDOCK:   -0.05 KCAL/MOL
REMARK 927      BINDING AFFINITY PREDICTED BY RF-SCORE:    0.00 PKD
ROOT
HETATM    1  C   UNL     1      -6.437  20.892  65.516  1.00  0.00    -0.156 C  
HETATM    2  N   UNL     1      -7.344  19.919  66.255  1.00  0.00    -0.273 N  
HETATM    3  C   UNL     1      -7.200  20.111  67.769  1.00  0.00    -0.294 C  
HETATM    4  C   UNL     1      -8.105  19.100  68.478  1.00  0.00    -0.394 C  
HETATM    5  C   UNL     1      -8.900  18.252  67.468  1.00  0.00    -0.256 C  
HETATM    6  C   UNL     1      -9.717  19.207  66.591  1.00  0.00    -0.401 C  
HETATM    7  C   UNL     1      -7.911  17.469  66.577  1.00  0.00    -0.276 C  
HETATM    8  C   UNL     1      -8.803  20.189  65.859  1.00  0.00    -0.039 C  
HETATM    9  C   UNL     1      -6.946  18.462  65.886  1.00  0.00    -0.271 C  
ENDROOT
BRANCH   7  10
HETATM   10  O   UNL     1      -8.632  16.483  65.781  1.00  0.00    -0.442 OA 
BRANCH  10  11
HETATM   11  C   UNL     1      -9.825  15.889  66.112  1.00  0.00    -0.317 C  
HETATM   12  O   UNL     1     -10.897  16.248  65.638  1.00  0.00    -0.297 OA 
HETATM   13  C   UNL     1      -9.578  14.731  67.168  1.00  0.00    -0.227 C  
HETATM   14  C   UNL     1      -9.684  13.310  66.579  1.00  0.00    -0.273 A  
HETATM   15  C   UNL     1     -10.495  14.919  68.391  1.00  0.00    -0.243 A  
HETATM   16  O   UNL     1      -8.211  14.869  67.628  1.00  0.00    -0.148 OA 
HETATM   17  H   UNL     1      -8.063  14.175  68.261  1.00  0.00     0.000 HD 
HETATM   18  C   UNL     1      -8.968  12.247  67.182  1.00  0.00    -0.192 A  
HETATM   19  C   UNL     1     -11.895  14.845  68.275  1.00  0.00    -0.308 A  
HETATM   20  C   UNL     1      -9.022  10.945  66.676  1.00  0.00    -0.173 A  
HETATM   21  C   UNL     1     -12.721  15.013  69.390  1.00  0.00     0.172 A  
HETATM   22  C   UNL     1     -12.165  15.251  70.647  1.00  0.00    -0.412 A  
HETATM   23  C   UNL     1      -9.811  10.661  65.571  1.00  0.00    -0.316 A  
HETATM   24  C   UNL     1     -10.563  11.677  64.984  1.00  0.00    -0.342 A  
HETATM   25  C   UNL     1     -10.787  15.322  70.788  1.00  0.00    -0.255 A  
HETATM   26  C   UNL     1      -9.959  15.156  69.674  1.00  0.00    -0.183 A  
HETATM   27  C   UNL     1     -10.508  12.986  65.487  1.00  0.00    -0.297 A  
ENDBRANCH  10  11
ENDBRANCH   7  10
TORSDOF 2
ENDMDL
MODEL       69
REMARK 921   NORMALIZED FREE ENERGY PREDICTED BY IDOCK:   -4.98 KCAL/MOL
REMARK 922        TOTAL FREE ENERGY PREDICTED BY IDOCK:   -6.65 KCAL/MOL
REMARK 923 INTER-LIGAND FREE ENERGY PREDICTED BY IDOCK:   -6.14 KCAL/MOL
REMARK 924 INTRA-LIGAND FREE ENERGY PREDICTED BY IDOCK:   -0.51 KCAL/MOL
REMARK 927      BINDING AFFINITY PREDICTED BY RF-SCORE:    0.00 PKD
ROOT
HETATM    1  C   UNL     1     -10.401   5.353  70.012  1.00  0.00    -0.296 C  
HETATM    2  N   UNL     1     -10.684   6.789  70.423  1.00  0.00    -0.230 N  
HETATM    3  C   UNL     1     -12.115   6.912  70.959  1.00  0.00    -0.380 C  
HETATM    4  C   UNL     1     -12.373   8.372  71.337  1.00  0.00    -0.328 C  
HETATM    5  C   UNL     1     -11.121   9.241  71.111  1.00  0.00    -0.411 C  
HETATM    6  C   UNL     1      -9.978   8.647  71.942  1.00  0.00    -0.392 C  
HETATM    7  C   UNL     1     -10.737   9.192  69.615  1.00  0.00    -0.225 C  
HETATM    8  C   UNL     1      -9.704   7.200  71.533  1.00  0.00    -0.164 C  
HETATM    9  C   UNL     1     -10.521   7.721  69.188  1.00  0.00    -0.211 C  
ENDROOT
BRANCH   7  10
HETATM   10  O   UNL     1      -9.710  10.188  69.333  1.00  0.00    -0.207 OA 
BRANCH  10  11
HETATM   11  C   UNL     1      -9.886  11.362  68.643  1.00  0.00    -0.193 C  
HETATM   12  O   UNL     1     -10.809  12.135  68.877  1.00  0.00    -0.219 OA 
HETATM   13  C   UNL     1      -8.754  11.519  67.543  1.00  0.00    -0.145 C  
HETATM   14  C   UNL     1      -7.669  12.554  67.901  1.00  0.00    -0.138 A  
HETATM   15  C   UNL     1      -9.382  11.795  66.164  1.00  0.00    -0.236 A  
HETATM   16  O   UNL     1      -8.073  10.243  67.460  1.00  0.00    -0.109 OA 
HETATM   17  H   UNL     1      -7.394  10.336  66.801  1.00  0.00     0.000 HD 
HETATM   18  C   UNL     1      -6.365  12.415  67.367  1.00  0.00    -0.157 A  
HETATM   19  C   UNL     1     -10.121  12.966  65.918  1.00  0.00    -0.295 A  
HETATM   20  C   UNL     1      -5.345  13.320  67.673  1.00  0.00    -0.039 A  
HETATM   21  C   UNL     1     -10.686  13.212  64.663  1.00  0.00    -0.398 A  
HETATM   22  C   UNL     1     -10.516  12.295  63.625  1.00  0.00    -0.483 A  
HETATM   23  C   UNL     1      -5.602  14.403  68.501  1.00  0.00    -0.098 A  
HETATM   24  C   UNL     1      -6.887  14.592  69.006  1.00  0.00    -0.109 A  
HETATM   25  C   UNL     1      -9.787  11.135  63.842  1.00  0.00    -0.354 A  
HETATM   26  C   UNL     1      -9.223  10.888  65.097  1.00  0.00    -0.240 A  
HETATM   27  C   UNL     1      -7.913  13.683  68.704  1.00  0.00    -0.083 A  
ENDBRANCH  10  11
ENDBRANCH   7  10
TORSDOF 2
ENDMDL
MODEL       70
REMARK 921   NORMALIZED FREE ENERGY PREDICTED BY IDOCK:   -4.98 KCAL/MOL
REMARK 922        TOTAL FREE ENERGY PREDICTED BY IDOCK:   -6.65 KCAL/MOL
REMARK 923 INTER-LIGAND FREE ENERGY PREDICTED BY IDOCK:   -5.70 KCAL/MOL
REMARK 924 INTRA-LIGAND FREE ENERGY PREDICTED BY IDOCK:   -0.94 KCAL/MOL
REMARK 927      BINDING AFFINITY PREDICTED BY RF-SCORE:    0.00 PKD
ROOT
HETATM    1  C   UNL     1     -12.112  12.709  63.109  1.00  0.00    -0.271 C  
HETATM    2  N   UNL     1     -11.727  13.452  64.379  1.00  0.00    -0.376 N  
HETATM    3  C   UNL     1     -12.562  12.944  65.559  1.00  0.00    -0.296 C  
HETATM    4  C   UNL     1     -12.168  13.731  66.812  1.00  0.00    -0.440 C  
HETATM    5  C   UNL     1     -11.041  14.738  66.512  1.00  0.00    -0.334 C  
HETATM    6  C   UNL     1      -9.848  13.956  65.950  1.00  0.00    -0.287 C  
HETATM    7  C   UNL     1     -11.533  15.744  65.447  1.00  0.00     0.086 C  
HETATM    8  C   UNL     1     -10.241  13.202  64.680  1.00  0.00    -0.306 C  
HETATM    9  C   UNL     1     -11.990  14.973  64.186  1.00  0.00    -0.201 C  
ENDROOT
BRANCH   7  10
HETATM   10  O   UNL     1     -10.582  16.841  65.324  1.00  0.00    -0.621 OA 
BRANCH  10  11
HETATM   11  C   UNL     1     -10.083  17.602  66.352  1.00  0.00    -0.356 C  
HETATM   12  O   UNL     1     -10.784  18.360  67.014  1.00  0.00    -0.380 OA 
HETATM   13  C   UNL     1      -8.526  17.347  66.510  1.00  0.00    -0.264 C  
HETATM   14  C   UNL     1      -8.151  16.478  67.727  1.00  0.00    -0.170 A  
HETATM   15  C   UNL     1      -7.761  18.684  66.498  1.00  0.00    -0.279 A  
HETATM   16  O   UNL     1      -8.105  16.599  65.343  1.00  0.00     0.425 OA 
HETATM   17  H   UNL     1      -7.172  16.446  65.437  1.00  0.00     0.000 HD 
HETATM   18  C   UNL     1      -6.963  15.708  67.698  1.00  0.00    -0.197 A  
HETATM   19  C   UNL     1      -7.951  19.644  67.508  1.00  0.00    -0.316 A  
HETATM   20  C   UNL     1      -6.588  14.894  68.771  1.00  0.00    -0.087 A  
HETATM   21  C   UNL     1      -7.252  20.855  67.494  1.00  0.00    -0.364 A  
HETATM   22  C   UNL     1      -6.341  21.127  66.473  1.00  0.00    -0.340 A  
HETATM   23  C   UNL     1      -7.375  14.844  69.913  1.00  0.00    -0.033 A  
HETATM   24  C   UNL     1      -8.526  15.626  69.989  1.00  0.00     0.471 A  
HETATM   25  C   UNL     1      -6.132  20.192  65.469  1.00  0.00    -0.236 A  
HETATM   26  C   UNL     1      -6.832  18.983  65.482  1.00  0.00    -0.274 A  
HETATM   27  C   UNL     1      -8.907  16.440  68.912  1.00  0.00    -0.256 A  
ENDBRANCH  10  11
ENDBRANCH   7  10
TORSDOF 2
ENDMDL
MODEL       71
REMARK 921   NORMALIZED FREE ENERGY PREDICTED BY IDOCK:   -4.95 KCAL/MOL
REMARK 922        TOTAL FREE ENERGY PREDICTED BY IDOCK:   -6.61 KCAL/MOL
REMARK 923 INTER-LIGAND FREE ENERGY PREDICTED BY IDOCK:   -6.40 KCAL/MOL
REMARK 924 INTRA-LIGAND FREE ENERGY PREDICTED BY IDOCK:   -0.21 KCAL/MOL
REMARK 927      BINDING AFFINITY PREDICTED BY RF-SCORE:    0.00 PKD
ROOT
HETATM    1  C   UNL     1     -12.099  14.272  66.179  1.00  0.00    -0.406 C  
HETATM    2  N   UNL     1     -11.257  13.006  66.220  1.00  0.00    -0.293 N  
HETATM    3  C   UNL     1     -11.490  12.176  64.953  1.00  0.00    -0.325 C  
HETATM    4  C   UNL     1     -10.649  10.900  65.042  1.00  0.00    -0.287 C  
HETATM    5  C   UNL     1      -9.808  10.870  66.332  1.00  0.00    -0.249 C  
HETATM    6  C   UNL     1      -8.921  12.120  66.346  1.00  0.00    -0.138 C  
HETATM    7  C   UNL     1     -10.754  10.907  67.553  1.00  0.00    -0.252 C  
HETATM    8  C   UNL     1      -9.771  13.390  66.294  1.00  0.00    -0.272 C  
HETATM    9  C   UNL     1     -11.657  12.161  67.464  1.00  0.00    -0.343 C  
ENDROOT
BRANCH   7  10
HETATM   10  O   UNL     1     -10.003  10.638  68.772  1.00  0.00    -0.176 OA 
BRANCH  10  11
HETATM   11  C   UNL     1      -9.166   9.572  68.990  1.00  0.00    -0.155 C  
HETATM   12  O   UNL     1      -7.958   9.626  68.783  1.00  0.00    -0.086 OA 
HETATM   13  C   UNL     1      -9.998   8.327  69.515  1.00  0.00    -0.187 C  
HETATM   14  C   UNL     1      -9.824   8.044  71.021  1.00  0.00    -0.200 A  
HETATM   15  C   UNL     1      -9.700   7.085  68.656  1.00  0.00    -0.139 A  
HETATM   16  O   UNL     1     -11.397   8.654  69.332  1.00  0.00    -0.428 OA 
HETATM   17  H   UNL     1     -11.896   7.909  69.646  1.00  0.00     0.000 HD 
HETATM   18  C   UNL     1     -10.861   7.398  71.736  1.00  0.00    -0.253 A  
HETATM   19  C   UNL     1      -8.415   6.514  68.614  1.00  0.00    -0.121 A  
HETATM   20  C   UNL     1     -10.755   7.132  73.104  1.00  0.00    -0.385 A  
HETATM   21  C   UNL     1      -8.152   5.384  67.835  1.00  0.00    -0.100 A  
HETATM   22  C   UNL     1      -9.171   4.794  67.086  1.00  0.00    -0.136 A  
HETATM   23  C   UNL     1      -9.601   7.481  73.792  1.00  0.00    -0.321 A  
HETATM   24  C   UNL     1      -8.546   8.077  73.106  1.00  0.00    -0.281 A  
HETATM   25  C   UNL     1     -10.449   5.336  67.116  1.00  0.00    -0.261 A  
HETATM   26  C   UNL     1     -10.712   6.466  67.894  1.00  0.00    -0.372 A  
HETATM   27  C   UNL     1      -8.650   8.349  71.733  1.00  0.00    -0.234 A  
ENDBRANCH  10  11
ENDBRANCH   7  10
TORSDOF 2
ENDMDL
MODEL       72
REMARK 921   NORMALIZED FREE ENERGY PREDICTED BY IDOCK:   -4.95 KCAL/MOL
REMARK 922        TOTAL FREE ENERGY PREDICTED BY IDOCK:   -6.61 KCAL/MOL
REMARK 923 INTER-LIGAND FREE ENERGY PREDICTED BY IDOCK:   -6.32 KCAL/MOL
REMARK 924 INTRA-LIGAND FREE ENERGY PREDICTED BY IDOCK:   -0.29 KCAL/MOL
REMARK 927      BINDING AFFINITY PREDICTED BY RF-SCORE:    0.00 PKD
ROOT
HETATM    1  C   UNL     1     -11.382   7.994  72.677  1.00  0.00    -0.405 C  
HETATM    2  N   UNL     1     -10.716   7.752  71.330  1.00  0.00    -0.221 N  
HETATM    3  C   UNL     1      -9.374   7.039  71.527  1.00  0.00    -0.154 C  
HETATM    4  C   UNL     1      -8.722   6.836  70.157  1.00  0.00    -0.141 C  
HETATM    5  C   UNL     1      -9.623   7.360  69.023  1.00  0.00    -0.148 C  
HETATM    6  C   UNL     1     -10.967   6.627  69.111  1.00  0.00    -0.338 C  
HETATM    7  C   UNL     1      -9.859   8.874  69.224  1.00  0.00    -0.176 C  
HETATM    8  C   UNL     1     -11.627   6.864  70.469  1.00  0.00    -0.346 C  
HETATM    9  C   UNL     1     -10.470   9.116  70.625  1.00  0.00    -0.245 C  
ENDROOT
BRANCH   7  10
HETATM   10  O   UNL     1     -10.503   9.437  68.043  1.00  0.00    -0.209 OA 
BRANCH  10  11
HETATM   11  C   UNL     1      -9.981   9.471  66.773  1.00  0.00    -0.233 C  
HETATM   12  O   UNL     1      -9.996   8.499  66.026  1.00  0.00    -0.191 OA 
HETATM   13  C   UNL     1      -9.380  10.907  66.473  1.00  0.00    -0.173 C  
HETATM   14  C   UNL     1     -10.246  11.766  65.529  1.00  0.00    -0.291 A  
HETATM   15  C   UNL     1      -7.929  10.786  65.973  1.00  0.00    -0.154 A  
HETATM   16  O   UNL     1      -9.345  11.618  67.735  1.00  0.00    -0.169 OA 
HETATM   17  H   UNL     1      -8.985  12.479  67.555  1.00  0.00     0.000 HD 
HETATM   18  C   UNL     1     -10.182  13.178  65.611  1.00  0.00    -0.294 A  
HETATM   19  C   UNL     1      -7.623  10.139  64.763  1.00  0.00    -0.139 A  
HETATM   20  C   UNL     1     -10.957  13.998  64.786  1.00  0.00    -0.410 A  
HETATM   21  C   UNL     1      -6.303  10.034  64.313  1.00  0.00    -0.132 A  
HETATM   22  C   UNL     1      -5.261  10.583  65.062  1.00  0.00    -0.139 A  
HETATM   23  C   UNL     1     -11.800  13.434  63.839  1.00  0.00    -0.492 A  
HETATM   24  C   UNL     1     -11.850  12.048  63.704  1.00  0.00    -0.602 A  
HETATM   25  C   UNL     1      -5.539  11.231  66.257  1.00  0.00    -0.131 A  
HETATM   26  C   UNL     1      -6.858  11.335  66.707  1.00  0.00    -0.140 A  
HETATM   27  C   UNL     1     -11.076  11.222  64.533  1.00  0.00    -0.245 A  
ENDBRANCH  10  11
ENDBRANCH   7  10
TORSDOF 2
ENDMDL
MODEL       73
REMARK 921   NORMALIZED FREE ENERGY PREDICTED BY IDOCK:   -4.94 KCAL/MOL
REMARK 922        TOTAL FREE ENERGY PREDICTED BY IDOCK:   -6.60 KCAL/MOL
REMARK 923 INTER-LIGAND FREE ENERGY PREDICTED BY IDOCK:   -6.21 KCAL/MOL
REMARK 924 INTRA-LIGAND FREE ENERGY PREDICTED BY IDOCK:   -0.39 KCAL/MOL
REMARK 927      BINDING AFFINITY PREDICTED BY RF-SCORE:    0.00 PKD
ROOT
HETATM    1  C   UNL     1      -6.200   9.705  67.993  1.00  0.00    -0.056 C  
HETATM    2  N   UNL     1      -7.412  10.527  67.583  1.00  0.00    -0.091 N  
HETATM    3  C   UNL     1      -8.040   9.942  66.314  1.00  0.00    -0.114 C  
HETATM    4  C   UNL     1      -9.238  10.808  65.917  1.00  0.00    -0.214 C  
HETATM    5  C   UNL     1      -9.465  11.951  66.925  1.00  0.00    -0.205 C  
HETATM    6  C   UNL     1      -9.669  11.324  68.309  1.00  0.00    -0.199 C  
HETATM    7  C   UNL     1      -8.210  12.852  66.958  1.00  0.00    -0.080 C  
HETATM    8  C   UNL     1      -8.453  10.490  68.713  1.00  0.00    -0.141 C  
HETATM    9  C   UNL     1      -6.971  11.992  67.305  1.00  0.00    -0.146 C  
ENDROOT
BRANCH   7  10
HETATM   10  O   UNL     1      -8.489  14.064  67.717  1.00  0.00    -0.160 OA 
BRANCH  10  11
HETATM   11  C   UNL     1      -9.541  14.924  67.514  1.00  0.00    -0.204 C  
HETATM   12  O   UNL     1     -10.227  14.902  66.499  1.00  0.00    -0.262 OA 
HETATM   13  C   UNL     1      -9.687  15.902  68.755  1.00  0.00    -0.216 C  
HETATM   14  C   UNL     1     -10.876  15.569  69.680  1.00  0.00    -0.285 A  
HETATM   15  C   UNL     1      -9.718  17.366  68.281  1.00  0.00    -0.299 A  
HETATM   16  O   UNL     1      -8.497  15.734  69.563  1.00  0.00    -0.246 OA 
HETATM   17  H   UNL     1      -8.585  16.319  70.306  1.00  0.00     0.000 HD 
HETATM   18  C   UNL     1     -10.820  15.931  71.048  1.00  0.00    -0.028 A  
HETATM   19  C   UNL     1     -10.758  17.851  67.467  1.00  0.00    -0.333 A  
HETATM   20  C   UNL     1     -11.867  15.640  71.927  1.00  0.00    -0.536 A  
HETATM   21  C   UNL     1     -10.781  19.183  67.043  1.00  0.00    -0.542 A  
HETATM   22  C   UNL     1      -9.768  20.061  67.429  1.00  0.00    -0.550 A  
HETATM   23  C   UNL     1     -13.007  15.001  71.463  1.00  0.00    -0.434 A  
HETATM   24  C   UNL     1     -13.110  14.673  70.113  1.00  0.00     0.065 A  
HETATM   25  C   UNL     1      -8.734  19.607  68.236  1.00  0.00    -0.361 A  
HETATM   26  C   UNL     1      -8.710  18.276  68.660  1.00  0.00    -0.290 A  
HETATM   27  C   UNL     1     -12.060  14.961  69.228  1.00  0.00    -0.286 A  
ENDBRANCH  10  11
ENDBRANCH   7  10
TORSDOF 2
ENDMDL
MODEL       74
REMARK 921   NORMALIZED FREE ENERGY PREDICTED BY IDOCK:   -4.93 KCAL/MOL
REMARK 922        TOTAL FREE ENERGY PREDICTED BY IDOCK:   -6.59 KCAL/MOL
REMARK 923 INTER-LIGAND FREE ENERGY PREDICTED BY IDOCK:   -6.11 KCAL/MOL
REMARK 924 INTRA-LIGAND FREE ENERGY PREDICTED BY IDOCK:   -0.48 KCAL/MOL
REMARK 927      BINDING AFFINITY PREDICTED BY RF-SCORE:    0.00 PKD
ROOT
HETATM    1  C   UNL     1     -11.946  13.064  63.314  1.00  0.00    -0.421 C  
HETATM    2  N   UNL     1     -11.261  12.861  64.657  1.00  0.00    -0.306 N  
HETATM    3  C   UNL     1     -10.325  14.037  64.954  1.00  0.00    -0.409 C  
HETATM    4  C   UNL     1      -9.635  13.786  66.297  1.00  0.00    -0.265 C  
HETATM    5  C   UNL     1     -10.123  12.476  66.944  1.00  0.00    -0.232 C  
HETATM    6  C   UNL     1     -11.643  12.571  67.111  1.00  0.00    -0.437 C  
HETATM    7  C   UNL     1      -9.790  11.295  66.004  1.00  0.00    -0.229 C  
HETATM    8  C   UNL     1     -12.327  12.786  65.761  1.00  0.00    -0.323 C  
HETATM    9  C   UNL     1     -10.431  11.546  64.618  1.00  0.00    -0.301 C  
ENDROOT
BRANCH   7  10
HETATM   10  O   UNL     1     -10.022  10.032  66.693  1.00  0.00    -0.195 OA 
BRANCH  10  11
HETATM   11  C   UNL     1      -9.070   9.259  67.313  1.00  0.00    -0.126 C  
HETATM   12  O   UNL     1      -7.970   9.696  67.634  1.00  0.00    -0.105 OA 
HETATM   13  C   UNL     1      -9.616   7.784  67.513  1.00  0.00    -0.148 C  
HETATM   14  C   UNL     1     -10.014   7.452  68.965  1.00  0.00    -0.176 A  
HETATM   15  C   UNL     1      -8.616   6.762  66.941  1.00  0.00    -0.116 A  
HETATM   16  O   UNL     1     -10.833   7.679  66.734  1.00  0.00    -0.453 OA 
HETATM   17  H   UNL     1     -11.160   6.795  66.854  1.00  0.00     0.000 HD 
HETATM   18  C   UNL     1     -11.000   6.466  69.212  1.00  0.00    -0.418 A  
HETATM   19  C   UNL     1      -7.326   6.617  67.483  1.00  0.00    -0.095 A  
HETATM   20  C   UNL     1     -11.404   6.141  70.511  1.00  0.00    -0.381 A  
HETATM   21  C   UNL     1      -6.424   5.685  66.962  1.00  0.00    -0.044 A  
HETATM   22  C   UNL     1      -6.796   4.871  65.891  1.00  0.00    -0.061 A  
HETATM   23  C   UNL     1     -10.819   6.771  71.599  1.00  0.00    -0.259 A  
HETATM   24  C   UNL     1      -9.813   7.713  71.389  1.00  0.00    -0.195 A  
HETATM   25  C   UNL     1      -8.064   4.992  65.343  1.00  0.00    -0.116 A  
HETATM   26  C   UNL     1      -8.967   5.924  65.863  1.00  0.00    -0.149 A  
HETATM   27  C   UNL     1      -9.408   8.045  70.087  1.00  0.00    -0.156 A  
ENDBRANCH  10  11
ENDBRANCH   7  10
TORSDOF 2
ENDMDL
MODEL       75
REMARK 921   NORMALIZED FREE ENERGY PREDICTED BY IDOCK:   -4.91 KCAL/MOL
REMARK 922        TOTAL FREE ENERGY PREDICTED BY IDOCK:   -6.57 KCAL/MOL
REMARK 923 INTER-LIGAND FREE ENERGY PREDICTED BY IDOCK:   -5.45 KCAL/MOL
REMARK 924 INTRA-LIGAND FREE ENERGY PREDICTED BY IDOCK:   -1.12 KCAL/MOL
REMARK 927      BINDING AFFINITY PREDICTED BY RF-SCORE:    0.00 PKD
ROOT
HETATM    1  C   UNL     1      -9.745   3.344  64.714  1.00  0.00    -0.152 C  
HETATM    2  N   UNL     1      -9.359   4.446  65.689  1.00  0.00    -0.149 N  
HETATM    3  C   UNL     1      -8.606   3.853  66.884  1.00  0.00    -0.107 C  
HETATM    4  C   UNL     1      -8.258   4.985  67.854  1.00  0.00    -0.097 C  
HETATM    5  C   UNL     1      -8.724   6.351  67.315  1.00  0.00    -0.106 C  
HETATM    6  C   UNL     1      -8.062   6.568  65.949  1.00  0.00    -0.125 C  
HETATM    7  C   UNL     1     -10.258   6.326  67.134  1.00  0.00    -0.196 C  
HETATM    8  C   UNL     1      -8.443   5.453  64.976  1.00  0.00    -0.150 C  
HETATM    9  C   UNL     1     -10.646   5.156  66.199  1.00  0.00    -0.236 C  
ENDROOT
BRANCH   7  10
HETATM   10  O   UNL     1     -10.747   7.671  66.857  1.00  0.00    -0.351 OA 
BRANCH  10  11
HETATM   11  C   UNL     1     -10.487   8.797  67.599  1.00  0.00    -0.244 C  
HETATM   12  O   UNL     1     -10.753   8.879  68.793  1.00  0.00    -0.187 OA 
HETATM   13  C   UNL     1      -9.833   9.912  66.679  1.00  0.00    -0.207 C  
HETATM   14  C   UNL     1      -8.319  10.104  66.905  1.00  0.00    -0.122 A  
HETATM   15  C   UNL     1     -10.608  11.236  66.810  1.00  0.00    -0.305 A  
HETATM   16  O   UNL     1      -9.976   9.461  65.310  1.00  0.00    -0.434 OA 
HETATM   17  H   UNL     1      -9.583  10.129  64.759  1.00  0.00     0.000 HD 
HETATM   18  C   UNL     1      -7.511  10.591  65.849  1.00  0.00    -0.147 A  
HETATM   19  C   UNL     1     -10.665  11.933  68.030  1.00  0.00    -0.242 A  
HETATM   20  C   UNL     1      -6.133  10.769  66.002  1.00  0.00    -0.133 A  
HETATM   21  C   UNL     1     -11.368  13.137  68.141  1.00  0.00    -0.328 A  
HETATM   22  C   UNL     1     -12.022  13.673  67.032  1.00  0.00    -0.448 A  
HETATM   23  C   UNL     1      -5.526  10.489  67.218  1.00  0.00    -0.041 A  
HETATM   24  C   UNL     1      -6.303  10.052  68.288  1.00  0.00    -0.053 A  
HETATM   25  C   UNL     1     -11.975  13.006  65.816  1.00  0.00    -0.482 A  
HETATM   26  C   UNL     1     -11.274  11.802  65.704  1.00  0.00    -0.324 A  
HETATM   27  C   UNL     1      -7.686   9.868  68.138  1.00  0.00    -0.082 A  
ENDBRANCH  10  11
ENDBRANCH   7  10
TORSDOF 2
ENDMDL
MODEL       76
REMARK 921   NORMALIZED FREE ENERGY PREDICTED BY IDOCK:   -4.89 KCAL/MOL
REMARK 922        TOTAL FREE ENERGY PREDICTED BY IDOCK:   -6.55 KCAL/MOL
REMARK 923 INTER-LIGAND FREE ENERGY PREDICTED BY IDOCK:   -5.50 KCAL/MOL
REMARK 924 INTRA-LIGAND FREE ENERGY PREDICTED BY IDOCK:   -1.05 KCAL/MOL
REMARK 927      BINDING AFFINITY PREDICTED BY RF-SCORE:    0.00 PKD
ROOT
HETATM    1  C   UNL     1     -10.547   4.267  74.446  1.00  0.00    -0.218 C  
HETATM    2  N   UNL     1      -9.726   5.006  73.400  1.00  0.00    -0.142 N  
HETATM    3  C   UNL     1      -8.281   4.497  73.408  1.00  0.00    -0.099 C  
HETATM    4  C   UNL     1      -7.480   5.280  72.365  1.00  0.00    -0.096 C  
HETATM    5  C   UNL     1      -8.371   6.285  71.611  1.00  0.00    -0.129 C  
HETATM    6  C   UNL     1      -9.516   5.503  70.958  1.00  0.00    -0.203 C  
HETATM    7  C   UNL     1      -8.960   7.295  72.622  1.00  0.00    -0.131 C  
HETATM    8  C   UNL     1     -10.332   4.753  72.011  1.00  0.00    -0.179 C  
HETATM    9  C   UNL     1      -9.732   6.528  73.722  1.00  0.00    -0.208 C  
ENDROOT
BRANCH   7  10
HETATM   10  O   UNL     1      -9.605   8.391  71.911  1.00  0.00    -0.202 OA 
BRANCH  10  11
HETATM   11  C   UNL     1      -9.091   9.077  70.838  1.00  0.00    -0.250 C  
HETATM   12  O   UNL     1      -7.985   9.606  70.861  1.00  0.00    -0.307 OA 
HETATM   13  C   UNL     1     -10.132   9.073  69.642  1.00  0.00    -0.197 C  
HETATM   14  C   UNL     1      -9.758   8.121  68.488  1.00  0.00    -0.170 A  
HETATM   15  C   UNL     1     -10.384  10.509  69.147  1.00  0.00    -0.240 A  
HETATM   16  O   UNL     1     -11.382   8.575  70.178  1.00  0.00    -0.410 OA 
HETATM   17  H   UNL     1     -12.006   8.572  69.461  1.00  0.00     0.000 HD 
HETATM   18  C   UNL     1     -10.780   7.576  67.671  1.00  0.00    -0.266 A  
HETATM   19  C   UNL     1      -9.355  11.275  68.569  1.00  0.00    -0.182 A  
HETATM   20  C   UNL     1     -10.491   6.699  66.622  1.00  0.00    -0.222 A  
HETATM   21  C   UNL     1      -9.591  12.577  68.118  1.00  0.00    -0.215 A  
HETATM   22  C   UNL     1     -10.863  13.138  68.229  1.00  0.00    -0.274 A  
HETATM   23  C   UNL     1      -9.176   6.359  66.342  1.00  0.00    -0.176 A  
HETATM   24  C   UNL     1      -8.147   6.914  67.099  1.00  0.00    -0.117 A  
HETATM   25  C   UNL     1     -11.895  12.400  68.791  1.00  0.00    -0.358 A  
HETATM   26  C   UNL     1     -11.660  11.099  69.242  1.00  0.00    -0.388 A  
HETATM   27  C   UNL     1      -8.432   7.792  68.155  1.00  0.00    -0.124 A  
ENDBRANCH  10  11
ENDBRANCH   7  10
TORSDOF 2
ENDMDL
MODEL       77
REMARK 921   NORMALIZED FREE ENERGY PREDICTED BY IDOCK:   -4.89 KCAL/MOL
REMARK 922        TOTAL FREE ENERGY PREDICTED BY IDOCK:   -6.54 KCAL/MOL
REMARK 923 INTER-LIGAND FREE ENERGY PREDICTED BY IDOCK:   -5.52 KCAL/MOL
REMARK 924 INTRA-LIGAND FREE ENERGY PREDICTED BY IDOCK:   -1.02 KCAL/MOL
REMARK 927      BINDING AFFINITY PREDICTED BY RF-SCORE:    0.00 PKD
ROOT
HETATM    1  C   UNL     1     -10.240   5.691  74.558  1.00  0.00    -0.268 C  
HETATM    2  N   UNL     1      -9.476   6.151  73.325  1.00  0.00    -0.142 N  
HETATM    3  C   UNL     1      -8.047   5.598  73.355  1.00  0.00    -0.113 C  
HETATM    4  C   UNL     1      -7.302   6.101  72.116  1.00  0.00    -0.093 C  
HETATM    5  C   UNL     1      -8.218   6.952  71.216  1.00  0.00    -0.114 C  
HETATM    6  C   UNL     1      -9.425   6.093  70.825  1.00  0.00    -0.184 C  
HETATM    7  C   UNL     1      -8.709   8.181  72.014  1.00  0.00    -0.164 C  
HETATM    8  C   UNL     1     -10.184   5.624  72.067  1.00  0.00    -0.205 C  
HETATM    9  C   UNL     1      -9.421   7.705  73.302  1.00  0.00    -0.259 C  
ENDROOT
BRANCH   7  10
HETATM   10  O   UNL     1      -9.376   9.120  71.119  1.00  0.00    -0.253 OA 
BRANCH  10  11
HETATM   11  C   UNL     1      -8.941   9.502  69.874  1.00  0.00    -0.212 C  
HETATM   12  O   UNL     1      -7.828   9.981  69.680  1.00  0.00    -0.133 OA 
HETATM   13  C   UNL     1     -10.077   9.241  68.799  1.00  0.00    -0.195 C  
HETATM   14  C   UNL     1      -9.816   8.022  67.892  1.00  0.00    -0.204 A  
HETATM   15  C   UNL     1     -10.346  10.519  67.984  1.00  0.00    -0.212 A  
HETATM   16  O   UNL     1     -11.287   8.936  69.536  1.00  0.00    -0.436 OA 
HETATM   17  H   UNL     1     -11.968   8.779  68.892  1.00  0.00     0.000 HD 
HETATM   18  C   UNL     1     -10.910   7.331  67.316  1.00  0.00    -0.354 A  
HETATM   19  C   UNL     1      -9.358  11.082  67.157  1.00  0.00    -0.177 A  
HETATM   20  C   UNL     1     -10.724   6.213  66.499  1.00  0.00    -0.207 A  
HETATM   21  C   UNL     1      -9.609  12.241  66.418  1.00  0.00    -0.242 A  
HETATM   22  C   UNL     1     -10.859  12.858  66.483  1.00  0.00    -0.290 A  
HETATM   23  C   UNL     1      -9.442   5.767  66.212  1.00  0.00    -0.166 A  
HETATM   24  C   UNL     1      -8.344   6.454  66.727  1.00  0.00    -0.111 A  
HETATM   25  C   UNL     1     -11.852  12.319  67.287  1.00  0.00    -0.330 A  
HETATM   26  C   UNL     1     -11.601  11.161  68.028  1.00  0.00    -0.337 A  
HETATM   27  C   UNL     1      -8.527   7.574  67.551  1.00  0.00    -0.119 A  
ENDBRANCH  10  11
ENDBRANCH   7  10
TORSDOF 2
ENDMDL
MODEL       78
REMARK 921   NORMALIZED FREE ENERGY PREDICTED BY IDOCK:   -4.85 KCAL/MOL
REMARK 922        TOTAL FREE ENERGY PREDICTED BY IDOCK:   -6.50 KCAL/MOL
REMARK 923 INTER-LIGAND FREE ENERGY PREDICTED BY IDOCK:   -5.79 KCAL/MOL
REMARK 924 INTRA-LIGAND FREE ENERGY PREDICTED BY IDOCK:   -0.71 KCAL/MOL
REMARK 927      BINDING AFFINITY PREDICTED BY RF-SCORE:    0.00 PKD
ROOT
HETATM    1  C   UNL     1     -11.008   3.474  73.515  1.00  0.00    -0.236 C  
HETATM    2  N   UNL     1      -9.658   4.124  73.255  1.00  0.00    -0.114 N  
HETATM    3  C   UNL     1      -8.711   3.859  74.430  1.00  0.00    -0.094 C  
HETATM    4  C   UNL     1      -7.374   4.549  74.145  1.00  0.00    -0.073 C  
HETATM    5  C   UNL     1      -7.381   5.243  72.770  1.00  0.00    -0.095 C  
HETATM    6  C   UNL     1      -7.693   4.182  71.709  1.00  0.00    -0.074 C  
HETATM    7  C   UNL     1      -8.490   6.318  72.752  1.00  0.00    -0.122 C  
HETATM    8  C   UNL     1      -9.046   3.523  71.980  1.00  0.00    -0.108 C  
HETATM    9  C   UNL     1      -9.849   5.659  73.090  1.00  0.00    -0.167 C  
ENDROOT
BRANCH   7  10
HETATM   10  O   UNL     1      -8.360   7.146  71.559  1.00  0.00    -0.110 OA 
BRANCH  10  11
HETATM   11  C   UNL     1      -9.251   7.211  70.516  1.00  0.00    -0.158 C  
HETATM   12  O   UNL     1      -9.369   6.311  69.691  1.00  0.00    -0.143 OA 
HETATM   13  C   UNL     1     -10.041   8.585  70.562  1.00  0.00    -0.192 C  
HETATM   14  C   UNL     1     -11.497   8.457  71.052  1.00  0.00    -0.302 A  
HETATM   15  C   UNL     1      -9.951   9.299  69.201  1.00  0.00    -0.181 A  
HETATM   16  O   UNL     1      -9.367   9.422  71.534  1.00  0.00    -0.271 OA 
HETATM   17  H   UNL     1      -9.841  10.245  71.562  1.00  0.00     0.000 HD 
HETATM   18  C   UNL     1     -12.125   9.561  71.679  1.00  0.00    -0.474 A  
HETATM   19  C   UNL     1     -10.513   8.737  68.041  1.00  0.00    -0.260 A  
HETATM   20  C   UNL     1     -13.438   9.488  72.151  1.00  0.00    -0.535 A  
HETATM   21  C   UNL     1     -10.431   9.392  66.808  1.00  0.00    -0.265 A  
HETATM   22  C   UNL     1      -9.792  10.628  66.712  1.00  0.00    -0.240 A  
HETATM   23  C   UNL     1     -14.171   8.321  71.991  1.00  0.00    -0.507 A  
HETATM   24  C   UNL     1     -13.596   7.233  71.338  1.00  0.00    -0.399 A  
HETATM   25  C   UNL     1      -9.234  11.206  67.843  1.00  0.00    -0.154 A  
HETATM   26  C   UNL     1      -9.315  10.551  69.076  1.00  0.00    -0.205 A  
HETATM   27  C   UNL     1     -12.276   7.301  70.866  1.00  0.00    -0.308 A  
ENDBRANCH  10  11
ENDBRANCH   7  10
TORSDOF 2
ENDMDL
MODEL       79
REMARK 921   NORMALIZED FREE ENERGY PREDICTED BY IDOCK:   -4.84 KCAL/MOL
REMARK 922        TOTAL FREE ENERGY PREDICTED BY IDOCK:   -6.48 KCAL/MOL
REMARK 923 INTER-LIGAND FREE ENERGY PREDICTED BY IDOCK:   -6.04 KCAL/MOL
REMARK 924 INTRA-LIGAND FREE ENERGY PREDICTED BY IDOCK:   -0.44 KCAL/MOL
REMARK 927      BINDING AFFINITY PREDICTED BY RF-SCORE:    0.00 PKD
ROOT
HETATM    1  C   UNL     1      -7.536  19.862  68.907  1.00  0.00    -0.198 C  
HETATM    2  N   UNL     1      -8.579  19.259  67.978  1.00  0.00    -0.310 N  
HETATM    3  C   UNL     1      -9.346  20.370  67.255  1.00  0.00    -0.413 C  
HETATM    4  C   UNL     1     -10.402  19.729  66.352  1.00  0.00    -0.619 C  
HETATM    5  C   UNL     1     -10.335  18.191  66.413  1.00  0.00    -0.404 C  
HETATM    6  C   UNL     1      -8.921  17.765  66.002  1.00  0.00    -0.023 C  
HETATM    7  C   UNL     1     -10.600  17.731  67.864  1.00  0.00    -0.382 C  
HETATM    8  C   UNL     1      -7.875  18.381  66.931  1.00  0.00    -0.234 C  
HETATM    9  C   UNL     1      -9.579  18.407  68.811  1.00  0.00    -0.321 C  
ENDROOT
BRANCH   7  10
HETATM   10  O   UNL     1     -10.779  16.285  67.901  1.00  0.00    -0.310 OA 
BRANCH  10  11
HETATM   11  C   UNL     1     -10.138  15.409  68.743  1.00  0.00    -0.213 C  
HETATM   12  O   UNL     1     -10.210  15.493  69.964  1.00  0.00    -0.301 OA 
HETATM   13  C   UNL     1      -9.326  14.342  67.897  1.00  0.00    -0.198 C  
HETATM   14  C   UNL     1      -9.975  12.943  67.860  1.00  0.00    -0.233 A  
HETATM   15  C   UNL     1      -7.862  14.285  68.371  1.00  0.00    -0.140 A  
HETATM   16  O   UNL     1      -9.318  14.812  66.527  1.00  0.00    -0.261 OA 
HETATM   17  H   UNL     1      -8.832  14.172  66.020  1.00  0.00     0.000 HD 
HETATM   18  C   UNL     1      -9.733  12.088  66.757  1.00  0.00    -0.218 A  
HETATM   19  C   UNL     1      -7.530  13.866  69.672  1.00  0.00     0.393 A  
HETATM   20  C   UNL     1     -10.310  10.818  66.672  1.00  0.00    -0.294 A  
HETATM   21  C   UNL     1      -6.198  13.813  70.095  1.00  0.00    -0.110 A  
HETATM   22  C   UNL     1      -5.170  14.173  69.224  1.00  0.00    -0.081 A  
HETATM   23  C   UNL     1     -11.125  10.355  67.695  1.00  0.00    -0.361 A  
HETATM   24  C   UNL     1     -11.345  11.156  68.814  1.00  0.00    -0.342 A  
HETATM   25  C   UNL     1      -5.473  14.585  67.934  1.00  0.00    -0.093 A  
HETATM   26  C   UNL     1      -6.803  14.638  67.510  1.00  0.00    -0.174 A  
HETATM   27  C   UNL     1     -10.771  12.433  68.901  1.00  0.00    -0.202 A  
ENDBRANCH  10  11
ENDBRANCH   7  10
TORSDOF 2
ENDMDL
MODEL       80
REMARK 921   NORMALIZED FREE ENERGY PREDICTED BY IDOCK:   -4.80 KCAL/MOL
REMARK 922        TOTAL FREE ENERGY PREDICTED BY IDOCK:   -6.45 KCAL/MOL
REMARK 923 INTER-LIGAND FREE ENERGY PREDICTED BY IDOCK:   -5.93 KCAL/MOL
REMARK 924 INTRA-LIGAND FREE ENERGY PREDICTED BY IDOCK:   -0.51 KCAL/MOL
REMARK 927      BINDING AFFINITY PREDICTED BY RF-SCORE:    0.00 PKD
ROOT
HETATM    1  C   UNL     1      -7.199   4.652  66.777  1.00  0.00    -0.080 C  
HETATM    2  N   UNL     1      -8.313   5.400  67.493  1.00  0.00    -0.104 N  
HETATM    3  C   UNL     1      -8.999   4.477  68.507  1.00  0.00    -0.112 C  
HETATM    4  C   UNL     1     -10.129   5.254  69.188  1.00  0.00    -0.289 C  
HETATM    5  C   UNL     1     -10.194   6.709  68.686  1.00  0.00    -0.184 C  
HETATM    6  C   UNL     1      -8.833   7.361  68.955  1.00  0.00    -0.132 C  
HETATM    7  C   UNL     1     -10.461   6.706  67.164  1.00  0.00    -0.288 C  
HETATM    8  C   UNL     1      -7.715   6.600  68.242  1.00  0.00    -0.105 C  
HETATM    9  C   UNL     1      -9.362   5.882  66.451  1.00  0.00    -0.157 C  
ENDROOT
BRANCH   7  10
HETATM   10  O   UNL     1     -10.765   8.058  66.711  1.00  0.00    -0.289 OA 
BRANCH  10  11
HETATM   11  C   UNL     1      -9.882   8.937  66.133  1.00  0.00    -0.256 C  
HETATM   12  O   UNL     1      -9.083   8.599  65.267  1.00  0.00    -0.153 OA 
HETATM   13  C   UNL     1     -10.066  10.382  66.762  1.00  0.00    -0.214 C  
HETATM   14  C   UNL     1     -10.789  11.383  65.837  1.00  0.00    -0.292 A  
HETATM   15  C   UNL     1      -8.713  10.927  67.255  1.00  0.00    -0.131 A  
HETATM   16  O   UNL     1     -10.919  10.227  67.922  1.00  0.00    -0.267 OA 
HETATM   17  H   UNL     1     -11.030  11.093  68.299  1.00  0.00     0.000 HD 
HETATM   18  C   UNL     1     -11.517  12.458  66.403  1.00  0.00    -0.427 A  
HETATM   19  C   UNL     1      -7.658  11.185  66.362  1.00  0.00    -0.109 A  
HETATM   20  C   UNL     1     -12.199  13.382  65.606  1.00  0.00    -0.510 A  
HETATM   21  C   UNL     1      -6.433  11.682  66.816  1.00  0.00    -0.106 A  
HETATM   22  C   UNL     1      -6.240  11.940  68.173  1.00  0.00    -0.051 A  
HETATM   23  C   UNL     1     -12.155  13.274  64.224  1.00  0.00    -0.475 A  
HETATM   24  C   UNL     1     -11.409  12.254  63.638  1.00  0.00    -0.547 A  
HETATM   25  C   UNL     1      -7.267  11.698  69.073  1.00  0.00    -0.094 A  
HETATM   26  C   UNL     1      -8.492  11.199  68.621  1.00  0.00    -0.153 A  
HETATM   27  C   UNL     1     -10.727  11.322  64.434  1.00  0.00    -0.407 A  
ENDBRANCH  10  11
ENDBRANCH   7  10
TORSDOF 2
ENDMDL
MODEL       81
REMARK 921   NORMALIZED FREE ENERGY PREDICTED BY IDOCK:   -4.80 KCAL/MOL
REMARK 922        TOTAL FREE ENERGY PREDICTED BY IDOCK:   -6.45 KCAL/MOL
REMARK 923 INTER-LIGAND FREE ENERGY PREDICTED BY IDOCK:   -5.98 KCAL/MOL
REMARK 924 INTRA-LIGAND FREE ENERGY PREDICTED BY IDOCK:   -0.46 KCAL/MOL
REMARK 927      BINDING AFFINITY PREDICTED BY RF-SCORE:    0.00 PKD
ROOT
HETATM    1  C   UNL     1      -9.467  16.111  65.835  1.00  0.00    -0.302 C  
HETATM    2  N   UNL     1     -10.250  14.862  66.211  1.00  0.00    -0.282 N  
HETATM    3  C   UNL     1     -11.273  15.190  67.303  1.00  0.00    -0.324 C  
HETATM    4  C   UNL     1     -12.022  13.908  67.674  1.00  0.00    -0.403 C  
HETATM    5  C   UNL     1     -11.556  12.716  66.816  1.00  0.00    -0.438 C  
HETATM    6  C   UNL     1     -11.776  13.081  65.344  1.00  0.00    -0.401 C  
HETATM    7  C   UNL     1     -10.048  12.480  67.058  1.00  0.00    -0.216 C  
HETATM    8  C   UNL     1     -10.997  14.342  64.973  1.00  0.00    -0.389 C  
HETATM    9  C   UNL     1      -9.268  13.779  66.742  1.00  0.00    -0.244 C  
ENDROOT
BRANCH   7  10
HETATM   10  O   UNL     1      -9.639  11.220  66.449  1.00  0.00    -0.189 OA 
BRANCH  10  11
HETATM   11  C   UNL     1      -8.717  10.337  66.954  1.00  0.00    -0.126 C  
HETATM   12  O   UNL     1      -7.761  10.694  67.634  1.00  0.00    -0.096 OA 
HETATM   13  C   UNL     1      -9.085   8.859  66.512  1.00  0.00    -0.166 C  
HETATM   14  C   UNL     1      -9.687   7.996  67.640  1.00  0.00    -0.198 A  
HETATM   15  C   UNL     1      -7.870   8.180  65.853  1.00  0.00    -0.094 A  
HETATM   16  O   UNL     1     -10.118   8.969  65.503  1.00  0.00    -0.369 OA 
HETATM   17  H   UNL     1     -10.339   8.083  65.238  1.00  0.00     0.000 HD 
HETATM   18  C   UNL     1     -10.559   6.929  67.315  1.00  0.00    -0.393 A  
HETATM   19  C   UNL     1      -6.690   7.928  66.576  1.00  0.00    -0.058 A  
HETATM   20  C   UNL     1     -11.139   6.128  68.303  1.00  0.00    -0.336 A  
HETATM   21  C   UNL     1      -5.592   7.308  65.973  1.00  0.00    -0.031 A  
HETATM   22  C   UNL     1      -5.653   6.919  64.634  1.00  0.00    -0.032 A  
HETATM   23  C   UNL     1     -10.848   6.354  69.641  1.00  0.00    -0.380 A  
HETATM   24  C   UNL     1      -9.958   7.369  69.988  1.00  0.00    -0.185 A  
HETATM   25  C   UNL     1      -6.808   7.152  63.902  1.00  0.00    -0.048 A  
HETATM   26  C   UNL     1      -7.906   7.772  64.504  1.00  0.00    -0.138 A  
HETATM   27  C   UNL     1      -9.377   8.177  69.000  1.00  0.00    -0.147 A  
ENDBRANCH  10  11
ENDBRANCH   7  10
TORSDOF 2
ENDMDL
MODEL       82
REMARK 921   NORMALIZED FREE ENERGY PREDICTED BY IDOCK:   -4.77 KCAL/MOL
REMARK 922        TOTAL FREE ENERGY PREDICTED BY IDOCK:   -6.41 KCAL/MOL
REMARK 923 INTER-LIGAND FREE ENERGY PREDICTED BY IDOCK:   -5.85 KCAL/MOL
REMARK 924 INTRA-LIGAND FREE ENERGY PREDICTED BY IDOCK:   -0.56 KCAL/MOL
REMARK 927      BINDING AFFINITY PREDICTED BY RF-SCORE:    0.00 PKD
ROOT
HETATM    1  C   UNL     1     -11.106  15.411  65.074  1.00  0.00    -0.418 C  
HETATM    2  N   UNL     1     -10.850  14.928  66.494  1.00  0.00    -0.317 N  
HETATM    3  C   UNL     1     -10.407  16.099  67.377  1.00  0.00    -0.294 C  
HETATM    4  C   UNL     1     -10.133  15.571  68.788  1.00  0.00    -0.211 C  
HETATM    5  C   UNL     1     -10.428  14.063  68.892  1.00  0.00    -0.210 C  
HETATM    6  C   UNL     1     -11.891  13.841  68.491  1.00  0.00    -0.406 C  
HETATM    7  C   UNL     1      -9.513  13.301  67.907  1.00  0.00    -0.214 C  
HETATM    8  C   UNL     1     -12.147  14.338  67.068  1.00  0.00    -0.390 C  
HETATM    9  C   UNL     1      -9.728  13.850  66.477  1.00  0.00    -0.294 C  
ENDROOT
BRANCH   7  10
HETATM   10  O   UNL     1      -9.601  11.867  68.157  1.00  0.00    -0.184 OA 
BRANCH  10  11
HETATM   11  C   UNL     1      -8.669  10.923  67.801  1.00  0.00    -0.129 C  
HETATM   12  O   UNL     1      -7.491  11.000  68.131  1.00  0.00    -0.086 OA 
HETATM   13  C   UNL     1      -9.352   9.791  66.925  1.00  0.00    -0.149 C  
HETATM   14  C   UNL     1      -9.576   8.464  67.677  1.00  0.00    -0.188 A  
HETATM   15  C   UNL     1      -8.572   9.587  65.613  1.00  0.00    -0.154 A  
HETATM   16  O   UNL     1     -10.671  10.275  66.572  1.00  0.00    -0.176 OA 
HETATM   17  H   UNL     1     -11.081   9.597  66.047  1.00  0.00     0.000 HD 
HETATM   18  C   UNL     1     -10.627   7.602  67.278  1.00  0.00    -0.388 A  
HETATM   19  C   UNL     1      -7.245   9.121  65.615  1.00  0.00    -0.082 A  
HETATM   20  C   UNL     1     -10.877   6.395  67.937  1.00  0.00    -0.404 A  
HETATM   21  C   UNL     1      -6.543   8.934  64.421  1.00  0.00    -0.071 A  
HETATM   22  C   UNL     1      -7.157   9.201  63.197  1.00  0.00    -0.088 A  
HETATM   23  C   UNL     1     -10.073   6.002  68.996  1.00  0.00    -0.223 A  
HETATM   24  C   UNL     1      -9.003   6.807  69.382  1.00  0.00    -0.137 A  
HETATM   25  C   UNL     1      -8.467   9.656  63.169  1.00  0.00    -0.189 A  
HETATM   26  C   UNL     1      -9.169   9.844  64.362  1.00  0.00    -0.317 A  
HETATM   27  C   UNL     1      -8.751   8.021  68.726  1.00  0.00    -0.131 A  
ENDBRANCH  10  11
ENDBRANCH   7  10
TORSDOF 2
ENDMDL
MODEL       83
REMARK 921   NORMALIZED FREE ENERGY PREDICTED BY IDOCK:   -4.74 KCAL/MOL
REMARK 922        TOTAL FREE ENERGY PREDICTED BY IDOCK:   -6.38 KCAL/MOL
REMARK 923 INTER-LIGAND FREE ENERGY PREDICTED BY IDOCK:   -5.27 KCAL/MOL
REMARK 924 INTRA-LIGAND FREE ENERGY PREDICTED BY IDOCK:   -1.11 KCAL/MOL
REMARK 927      BINDING AFFINITY PREDICTED BY RF-SCORE:    0.00 PKD
ROOT
HETATM    1  C   UNL     1     -11.753  15.113  68.131  1.00  0.00    -0.302 C  
HETATM    2  N   UNL     1     -11.455  13.855  67.330  1.00  0.00    -0.326 N  
HETATM    3  C   UNL     1     -12.330  13.811  66.073  1.00  0.00    -0.457 C  
HETATM    4  C   UNL     1     -12.023  12.522  65.307  1.00  0.00    -0.490 C  
HETATM    5  C   UNL     1     -10.915  11.707  66.000  1.00  0.00    -0.338 C  
HETATM    6  C   UNL     1      -9.672  12.598  66.107  1.00  0.00    -0.253 C  
HETATM    7  C   UNL     1     -11.384  11.321  67.420  1.00  0.00    -0.276 C  
HETATM    8  C   UNL     1      -9.978  13.866  66.904  1.00  0.00    -0.264 C  
HETATM    9  C   UNL     1     -11.754  12.603  68.204  1.00  0.00    -0.347 C  
ENDROOT
BRANCH   7  10
HETATM   10  O   UNL     1     -10.462  10.354  68.003  1.00  0.00    -0.172 OA 
BRANCH  10  11
HETATM   11  C   UNL     1     -10.021   9.196  67.411  1.00  0.00    -0.206 C  
HETATM   12  O   UNL     1     -10.785   8.327  67.008  1.00  0.00    -0.307 OA 
HETATM   13  C   UNL     1      -8.435   9.184  67.362  1.00  0.00    -0.115 C  
HETATM   14  C   UNL     1      -7.848   9.452  65.961  1.00  0.00    -0.099 A  
HETATM   15  C   UNL     1      -7.891   7.881  67.975  1.00  0.00    -0.127 A  
HETATM   16  O   UNL     1      -7.982  10.277  68.198  1.00  0.00    -0.106 OA 
HETATM   17  H   UNL     1      -7.032  10.270  68.168  1.00  0.00     0.000 HD 
HETATM   18  C   UNL     1      -6.559  10.026  65.841  1.00  0.00    -0.098 A  
HETATM   19  C   UNL     1      -8.160   6.629  67.392  1.00  0.00    -0.121 A  
HETATM   20  C   UNL     1      -5.991  10.300  64.593  1.00  0.00    -0.130 A  
HETATM   21  C   UNL     1      -7.661   5.450  67.952  1.00  0.00    -0.088 A  
HETATM   22  C   UNL     1      -6.874   5.497  69.103  1.00  0.00    -0.058 A  
HETATM   23  C   UNL     1      -6.681   9.987  63.431  1.00  0.00    -0.134 A  
HETATM   24  C   UNL     1      -7.932   9.381  63.518  1.00  0.00    -0.141 A  
HETATM   25  C   UNL     1      -6.590   6.721  69.693  1.00  0.00    -0.048 A  
HETATM   26  C   UNL     1      -7.090   7.900  69.135  1.00  0.00    -0.069 A  
HETATM   27  C   UNL     1      -8.508   9.108  64.768  1.00  0.00    -0.194 A  
ENDBRANCH  10  11
ENDBRANCH   7  10
TORSDOF 2
ENDMDL
MODEL       84
REMARK 921   NORMALIZED FREE ENERGY PREDICTED BY IDOCK:   -4.71 KCAL/MOL
REMARK 922        TOTAL FREE ENERGY PREDICTED BY IDOCK:   -6.34 KCAL/MOL
REMARK 923 INTER-LIGAND FREE ENERGY PREDICTED BY IDOCK:   -5.43 KCAL/MOL
REMARK 924 INTRA-LIGAND FREE ENERGY PREDICTED BY IDOCK:   -0.91 KCAL/MOL
REMARK 927      BINDING AFFINITY PREDICTED BY RF-SCORE:    0.00 PKD
ROOT
HETATM    1  C   UNL     1      -6.628  21.367  67.232  1.00  0.00    -0.262 C  
HETATM    2  N   UNL     1      -6.774  19.901  66.854  1.00  0.00    -0.205 N  
HETATM    3  C   UNL     1      -5.967  19.601  65.587  1.00  0.00    -0.183 C  
HETATM    4  C   UNL     1      -6.159  18.126  65.223  1.00  0.00    -0.150 C  
HETATM    5  C   UNL     1      -7.049  17.404  66.252  1.00  0.00    -0.330 C  
HETATM    6  C   UNL     1      -6.393  17.554  67.629  1.00  0.00    -0.163 C  
HETATM    7  C   UNL     1      -8.439  18.077  66.278  1.00  0.00    -0.184 C  
HETATM    8  C   UNL     1      -6.239  19.029  68.000  1.00  0.00    -0.216 C  
HETATM    9  C   UNL     1      -8.274  19.583  66.591  1.00  0.00    -0.311 C  
ENDROOT
BRANCH   7  10
HETATM   10  O   UNL     1      -9.367  17.270  67.060  1.00  0.00    -0.240 OA 
BRANCH  10  11
HETATM   11  C   UNL     1      -9.464  15.900  67.043  1.00  0.00    -0.222 C  
HETATM   12  O   UNL     1      -9.748  15.269  66.031  1.00  0.00    -0.288 OA 
HETATM   13  C   UNL     1      -9.172  15.319  68.490  1.00  0.00    -0.200 C  
HETATM   14  C   UNL     1      -7.789  14.653  68.632  1.00  0.00    -0.138 A  
HETATM   15  C   UNL     1     -10.312  14.381  68.929  1.00  0.00    -0.233 A  
HETATM   16  O   UNL     1      -9.165  16.446  69.399  1.00  0.00    -0.201 OA 
HETATM   17  H   UNL     1      -8.990  16.098  70.266  1.00  0.00     0.000 HD 
HETATM   18  C   UNL     1      -7.160  14.611  69.901  1.00  0.00    -0.056 A  
HETATM   19  C   UNL     1     -10.583  13.186  68.240  1.00  0.00    -0.260 A  
HETATM   20  C   UNL     1      -5.901  14.030  70.077  1.00  0.00    -0.133 A  
HETATM   21  C   UNL     1     -11.617  12.337  68.645  1.00  0.00    -0.372 A  
HETATM   22  C   UNL     1     -12.398  12.662  69.755  1.00  0.00    -0.090 A  
HETATM   23  C   UNL     1      -5.244  13.453  68.999  1.00  0.00    -0.069 A  
HETATM   24  C   UNL     1      -5.858  13.439  67.748  1.00  0.00    -0.128 A  
HETATM   25  C   UNL     1     -12.145  13.833  70.455  1.00  0.00    -0.416 A  
HETATM   26  C   UNL     1     -11.112  14.683  70.049  1.00  0.00    -0.204 A  
HETATM   27  C   UNL     1      -7.120  14.025  67.567  1.00  0.00    -0.179 A  
ENDBRANCH  10  11
ENDBRANCH   7  10
TORSDOF 2
ENDMDL
MODEL       85
REMARK 921   NORMALIZED FREE ENERGY PREDICTED BY IDOCK:   -4.70 KCAL/MOL
REMARK 922        TOTAL FREE ENERGY PREDICTED BY IDOCK:   -6.33 KCAL/MOL
REMARK 923 INTER-LIGAND FREE ENERGY PREDICTED BY IDOCK:   -5.75 KCAL/MOL
REMARK 924 INTRA-LIGAND FREE ENERGY PREDICTED BY IDOCK:   -0.58 KCAL/MOL
REMARK 927      BINDING AFFINITY PREDICTED BY RF-SCORE:    0.00 PKD
ROOT
HETATM    1  C   UNL     1      -9.874  12.550  66.907  1.00  0.00    -0.227 C  
HETATM    2  N   UNL     1      -9.428  11.263  66.229  1.00  0.00    -0.198 N  
HETATM    3  C   UNL     1      -9.577  11.389  64.710  1.00  0.00    -0.210 C  
HETATM    4  C   UNL     1      -9.145  10.069  64.065  1.00  0.00    -0.296 C  
HETATM    5  C   UNL     1      -8.658   9.060  65.121  1.00  0.00    -0.204 C  
HETATM    6  C   UNL     1      -7.500   9.706  65.891  1.00  0.00    -0.099 C  
HETATM    7  C   UNL     1      -9.813   8.760  66.103  1.00  0.00    -0.227 C  
HETATM    8  C   UNL     1      -7.950  11.004  66.561  1.00  0.00    -0.158 C  
HETATM    9  C   UNL     1     -10.308  10.084  66.733  1.00  0.00    -0.217 C  
ENDROOT
BRANCH   7  10
HETATM   10  O   UNL     1      -9.456   7.636  66.960  1.00  0.00    -0.146 OA 
BRANCH  10  11
HETATM   11  C   UNL     1     -10.307   6.944  67.787  1.00  0.00    -0.203 C  
HETATM   12  O   UNL     1     -11.387   6.505  67.407  1.00  0.00    -0.304 OA 
HETATM   13  C   UNL     1      -9.681   6.837  69.240  1.00  0.00    -0.151 C  
HETATM   14  C   UNL     1      -9.125   5.440  69.583  1.00  0.00    -0.145 A  
HETATM   15  C   UNL     1     -10.689   7.331  70.294  1.00  0.00    -0.252 A  
HETATM   16  O   UNL     1      -8.546   7.735  69.274  1.00  0.00    -0.136 OA 
HETATM   17  H   UNL     1      -8.170   7.670  70.145  1.00  0.00     0.000 HD 
HETATM   18  C   UNL     1      -8.078   5.316  70.529  1.00  0.00    -0.104 A  
HETATM   19  C   UNL     1     -11.910   6.666  70.508  1.00  0.00    -0.430 A  
HETATM   20  C   UNL     1      -7.533   4.073  70.862  1.00  0.00    -0.044 A  
HETATM   21  C   UNL     1     -12.820   7.118  71.469  1.00  0.00    -0.434 A  
HETATM   22  C   UNL     1     -12.524   8.240  72.243  1.00  0.00    -0.384 A  
HETATM   23  C   UNL     1      -8.032   2.916  70.280  1.00  0.00    -0.051 A  
HETATM   24  C   UNL     1      -9.092   3.002  69.381  1.00  0.00    -0.198 A  
HETATM   25  C   UNL     1     -11.323   8.909  72.054  1.00  0.00    -0.427 A  
HETATM   26  C   UNL     1     -10.414   8.459  71.093  1.00  0.00    -0.263 A  
HETATM   27  C   UNL     1      -9.640   4.249  69.041  1.00  0.00    -0.240 A  
ENDBRANCH  10  11
ENDBRANCH   7  10
TORSDOF 2
ENDMDL
MODEL       86
REMARK 921   NORMALIZED FREE ENERGY PREDICTED BY IDOCK:   -4.70 KCAL/MOL
REMARK 922        TOTAL FREE ENERGY PREDICTED BY IDOCK:   -6.33 KCAL/MOL
REMARK 923 INTER-LIGAND FREE ENERGY PREDICTED BY IDOCK:   -5.83 KCAL/MOL
REMARK 924 INTRA-LIGAND FREE ENERGY PREDICTED BY IDOCK:   -0.50 KCAL/MOL
REMARK 927      BINDING AFFINITY PREDICTED BY RF-SCORE:    0.00 PKD
ROOT
HETATM    1  C   UNL     1      -9.117   9.525  69.972  1.00  0.00    -0.227 C  
HETATM    2  N   UNL     1      -8.930  10.123  68.585  1.00  0.00    -0.130 N  
HETATM    3  C   UNL     1      -8.254   9.106  67.660  1.00  0.00    -0.108 C  
HETATM    4  C   UNL     1      -8.059   9.750  66.285  1.00  0.00    -0.113 C  
HETATM    5  C   UNL     1      -8.634  11.178  66.246  1.00  0.00    -0.180 C  
HETATM    6  C   UNL     1     -10.120  11.097  66.614  1.00  0.00    -0.256 C  
HETATM    7  C   UNL     1      -7.901  12.047  67.293  1.00  0.00    -0.170 C  
HETATM    8  C   UNL     1     -10.305  10.486  68.003  1.00  0.00    -0.181 C  
HETATM    9  C   UNL     1      -8.036  11.392  68.688  1.00  0.00    -0.141 C  
ENDROOT
BRANCH   7  10
HETATM   10  O   UNL     1      -8.256  13.449  67.111  1.00  0.00    -0.174 OA 
BRANCH  10  11
HETATM   11  C   UNL     1      -8.491  14.362  68.109  1.00  0.00    -0.160 C  
HETATM   12  O   UNL     1      -7.717  14.532  69.045  1.00  0.00    -0.130 OA 
HETATM   13  C   UNL     1      -9.869  15.104  67.851  1.00  0.00    -0.216 C  
HETATM   14  C   UNL     1      -9.719  16.551  67.340  1.00  0.00    -0.246 A  
HETATM   15  C   UNL     1     -10.761  15.024  69.104  1.00  0.00    -0.249 A  
HETATM   16  O   UNL     1     -10.543  14.378  66.794  1.00  0.00    -0.277 OA 
HETATM   17  H   UNL     1     -11.369  14.822  66.640  1.00  0.00     0.000 HD 
HETATM   18  C   UNL     1     -10.745  17.124  66.550  1.00  0.00    -0.074 A  
HETATM   19  C   UNL     1     -10.381  15.635  70.313  1.00  0.00    -0.205 A  
HETATM   20  C   UNL     1     -10.647  18.427  66.053  1.00  0.00    -0.339 A  
HETATM   21  C   UNL     1     -11.197  15.562  71.446  1.00  0.00    -0.410 A  
HETATM   22  C   UNL     1     -12.414  14.883  71.392  1.00  0.00    -0.403 A  
HETATM   23  C   UNL     1      -9.536  19.203  66.349  1.00  0.00    -0.402 A  
HETATM   24  C   UNL     1      -8.531  18.682  67.161  1.00  0.00    -0.272 A  
HETATM   25  C   UNL     1     -12.813  14.278  70.209  1.00  0.00    -0.207 A  
HETATM   26  C   UNL     1     -11.998  14.349  69.076  1.00  0.00    -0.342 A  
HETATM   27  C   UNL     1      -8.623  17.373  67.659  1.00  0.00    -0.217 A  
ENDBRANCH  10  11
ENDBRANCH   7  10
TORSDOF 2
ENDMDL
MODEL       87
REMARK 921   NORMALIZED FREE ENERGY PREDICTED BY IDOCK:   -4.69 KCAL/MOL
REMARK 922        TOTAL FREE ENERGY PREDICTED BY IDOCK:   -6.32 KCAL/MOL
REMARK 923 INTER-LIGAND FREE ENERGY PREDICTED BY IDOCK:   -6.17 KCAL/MOL
REMARK 924 INTRA-LIGAND FREE ENERGY PREDICTED BY IDOCK:   -0.16 KCAL/MOL
REMARK 927      BINDING AFFINITY PREDICTED BY RF-SCORE:    0.00 PKD
ROOT
HETATM    1  C   UNL     1     -13.074   7.253  71.207  1.00  0.00    -0.307 C  
HETATM    2  N   UNL     1     -11.608   7.644  71.317  1.00  0.00    -0.273 N  
HETATM    3  C   UNL     1     -11.136   7.515  72.769  1.00  0.00    -0.366 C  
HETATM    4  C   UNL     1      -9.668   7.941  72.845  1.00  0.00    -0.339 C  
HETATM    5  C   UNL     1      -9.117   8.314  71.456  1.00  0.00    -0.229 C  
HETATM    6  C   UNL     1      -9.295   7.100  70.538  1.00  0.00    -0.158 C  
HETATM    7  C   UNL     1      -9.932   9.499  70.891  1.00  0.00    -0.238 C  
HETATM    8  C   UNL     1     -10.768   6.704  70.438  1.00  0.00    -0.250 C  
HETATM    9  C   UNL     1     -11.432   9.117  70.851  1.00  0.00    -0.296 C  
ENDROOT
BRANCH   7  10
HETATM   10  O   UNL     1      -9.284  10.022  69.696  1.00  0.00    -0.210 OA 
BRANCH  10  11
HETATM   11  C   UNL     1      -9.782   9.979  68.417  1.00  0.00    -0.146 C  
HETATM   12  O   UNL     1     -10.666   9.200  68.078  1.00  0.00    -0.218 OA 
HETATM   13  C   UNL     1      -9.041  11.048  67.510  1.00  0.00    -0.137 C  
HETATM   14  C   UNL     1      -9.888  12.297  67.190  1.00  0.00    -0.207 A  
HETATM   15  C   UNL     1      -8.494  10.381  66.234  1.00  0.00    -0.145 A  
HETATM   16  O   UNL     1      -7.903  11.524  68.270  1.00  0.00    -0.122 OA 
HETATM   17  H   UNL     1      -7.459  12.165  67.726  1.00  0.00     0.000 HD 
HETATM   18  C   UNL     1      -9.244  13.528  66.916  1.00  0.00    -0.254 A  
HETATM   19  C   UNL     1      -9.356   9.810  65.280  1.00  0.00    -0.315 A  
HETATM   20  C   UNL     1      -9.969  14.689  66.634  1.00  0.00    -0.281 A  
HETATM   21  C   UNL     1      -8.853   9.208  64.122  1.00  0.00    -0.127 A  
HETATM   22  C   UNL     1      -7.478   9.171  63.891  1.00  0.00    -0.110 A  
HETATM   23  C   UNL     1     -11.355  14.651  66.595  1.00  0.00    -0.358 A  
HETATM   24  C   UNL     1     -12.015  13.444  66.816  1.00  0.00    -0.447 A  
HETATM   25  C   UNL     1      -6.609   9.732  64.816  1.00  0.00    -0.110 A  
HETATM   26  C   UNL     1      -7.110  10.333  65.973  1.00  0.00    -0.128 A  
HETATM   27  C   UNL     1     -11.291  12.277  67.102  1.00  0.00    -0.398 A  
ENDBRANCH  10  11
ENDBRANCH   7  10
TORSDOF 2
ENDMDL
MODEL       88
REMARK 921   NORMALIZED FREE ENERGY PREDICTED BY IDOCK:   -4.67 KCAL/MOL
REMARK 922        TOTAL FREE ENERGY PREDICTED BY IDOCK:   -6.30 KCAL/MOL
REMARK 923 INTER-LIGAND FREE ENERGY PREDICTED BY IDOCK:   -5.18 KCAL/MOL
REMARK 924 INTRA-LIGAND FREE ENERGY PREDICTED BY IDOCK:   -1.11 KCAL/MOL
REMARK 927      BINDING AFFINITY PREDICTED BY RF-SCORE:    0.00 PKD
ROOT
HETATM    1  C   UNL     1      -6.041  10.238  65.042  1.00  0.00    -0.130 C  
HETATM    2  N   UNL     1      -6.558   9.244  66.071  1.00  0.00    -0.071 N  
HETATM    3  C   UNL     1      -5.917   7.871  65.845  1.00  0.00    -0.038 C  
HETATM    4  C   UNL     1      -6.479   6.892  66.879  1.00  0.00    -0.046 C  
HETATM    5  C   UNL     1      -7.462   7.591  67.839  1.00  0.00    -0.105 C  
HETATM    6  C   UNL     1      -6.716   8.746  68.516  1.00  0.00    -0.060 C  
HETATM    7  C   UNL     1      -8.644   8.161  67.023  1.00  0.00    -0.123 C  
HETATM    8  C   UNL     1      -6.189   9.737  67.478  1.00  0.00    -0.059 C  
HETATM    9  C   UNL     1      -8.102   9.115  65.932  1.00  0.00    -0.111 C  
ENDROOT
BRANCH   7  10
HETATM   10  O   UNL     1      -9.697   8.611  67.925  1.00  0.00    -0.152 OA 
BRANCH  10  11
HETATM   11  C   UNL     1     -10.334   7.850  68.874  1.00  0.00    -0.213 C  
HETATM   12  O   UNL     1     -10.934   6.817  68.598  1.00  0.00    -0.234 OA 
HETATM   13  C   UNL     1     -10.172   8.518  70.303  1.00  0.00    -0.193 C  
HETATM   14  C   UNL     1      -9.163   7.799  71.222  1.00  0.00    -0.158 A  
HETATM   15  C   UNL     1     -11.547   8.683  70.975  1.00  0.00    -0.325 A  
HETATM   16  O   UNL     1      -9.635   9.845  70.085  1.00  0.00    -0.290 OA 
HETATM   17  H   UNL     1      -9.537  10.246  70.942  1.00  0.00     0.000 HD 
HETATM   18  C   UNL     1      -8.494   8.530  72.233  1.00  0.00    -0.216 A  
HETATM   19  C   UNL     1     -12.334   7.569  71.317  1.00  0.00    -0.356 A  
HETATM   20  C   UNL     1      -7.562   7.926  73.081  1.00  0.00    -0.165 A  
HETATM   21  C   UNL     1     -13.581   7.726  71.930  1.00  0.00    -0.333 A  
HETATM   22  C   UNL     1     -14.064   9.002  72.221  1.00  0.00    -0.485 A  
HETATM   23  C   UNL     1      -7.288   6.571  72.961  1.00  0.00    -0.085 A  
HETATM   24  C   UNL     1      -7.965   5.816  72.005  1.00  0.00    -0.107 A  
HETATM   25  C   UNL     1     -13.304  10.117  71.897  1.00  0.00    -0.505 A  
HETATM   26  C   UNL     1     -12.058   9.960  71.283  1.00  0.00    -0.485 A  
HETATM   27  C   UNL     1      -8.898   6.420  71.149  1.00  0.00    -0.138 A  
ENDBRANCH  10  11
ENDBRANCH   7  10
TORSDOF 2
ENDMDL
MODEL       89
REMARK 921   NORMALIZED FREE ENERGY PREDICTED BY IDOCK:   -4.66 KCAL/MOL
REMARK 922        TOTAL FREE ENERGY PREDICTED BY IDOCK:   -6.29 KCAL/MOL
REMARK 923 INTER-LIGAND FREE ENERGY PREDICTED BY IDOCK:   -5.17 KCAL/MOL
REMARK 924 INTRA-LIGAND FREE ENERGY PREDICTED BY IDOCK:   -1.12 KCAL/MOL
REMARK 927      BINDING AFFINITY PREDICTED BY RF-SCORE:    0.00 PKD
ROOT
HETATM    1  C   UNL     1      -9.908   3.306  62.640  1.00  0.00    -0.098 C  
HETATM    2  N   UNL     1      -9.573   3.767  64.050  1.00  0.00    -0.150 N  
HETATM    3  C   UNL     1      -9.004   2.600  64.864  1.00  0.00    -0.126 C  
HETATM    4  C   UNL     1      -8.705   3.093  66.282  1.00  0.00    -0.131 C  
HETATM    5  C   UNL     1      -9.017   4.594  66.434  1.00  0.00    -0.114 C  
HETATM    6  C   UNL     1      -8.186   5.355  65.395  1.00  0.00    -0.130 C  
HETATM    7  C   UNL     1     -10.518   4.828  66.150  1.00  0.00    -0.290 C  
HETATM    8  C   UNL     1      -8.518   4.882  63.980  1.00  0.00    -0.137 C  
HETATM    9  C   UNL     1     -10.864   4.290  64.741  1.00  0.00    -0.076 C  
ENDROOT
BRANCH   7  10
HETATM   10  O   UNL     1     -10.886   6.189  66.519  1.00  0.00    -0.242 OA 
BRANCH  10  11
HETATM   11  C   UNL     1     -10.710   6.772  67.750  1.00  0.00    -0.268 C  
HETATM   12  O   UNL     1     -11.196   6.311  68.777  1.00  0.00    -0.363 OA 
HETATM   13  C   UNL     1      -9.826   8.082  67.607  1.00  0.00    -0.167 C  
HETATM   14  C   UNL     1      -8.376   7.919  68.107  1.00  0.00    -0.124 A  
HETATM   15  C   UNL     1     -10.533   9.279  68.269  1.00  0.00    -0.260 A  
HETATM   16  O   UNL     1      -9.727   8.367  66.191  1.00  0.00    -0.366 OA 
HETATM   17  H   UNL     1      -9.198   9.152  66.105  1.00  0.00     0.000 HD 
HETATM   18  C   UNL     1      -7.352   8.728  67.558  1.00  0.00    -0.081 A  
HETATM   19  C   UNL     1     -10.785   9.308  69.652  1.00  0.00    -0.244 A  
HETATM   20  C   UNL     1      -6.021   8.608  67.969  1.00  0.00    -0.047 A  
HETATM   21  C   UNL     1     -11.425  10.399  70.247  1.00  0.00    -0.406 A  
HETATM   22  C   UNL     1     -11.820  11.489  69.472  1.00  0.00    -0.419 A  
HETATM   23  C   UNL     1      -5.679   7.696  68.957  1.00  0.00    -0.026 A  
HETATM   24  C   UNL     1      -6.672   6.918  69.548  1.00  0.00    -0.050 A  
HETATM   25  C   UNL     1     -11.578  11.486  68.106  1.00  0.00    -0.378 A  
HETATM   26  C   UNL     1     -10.939  10.395  67.510  1.00  0.00    -0.358 A  
HETATM   27  C   UNL     1      -8.008   7.033  69.135  1.00  0.00    -0.119 A  
ENDBRANCH  10  11
ENDBRANCH   7  10
TORSDOF 2
ENDMDL
MODEL       90
REMARK 921   NORMALIZED FREE ENERGY PREDICTED BY IDOCK:   -4.66 KCAL/MOL
REMARK 922        TOTAL FREE ENERGY PREDICTED BY IDOCK:   -6.29 KCAL/MOL
REMARK 923 INTER-LIGAND FREE ENERGY PREDICTED BY IDOCK:   -5.79 KCAL/MOL
REMARK 924 INTRA-LIGAND FREE ENERGY PREDICTED BY IDOCK:   -0.50 KCAL/MOL
REMARK 927      BINDING AFFINITY PREDICTED BY RF-SCORE:    0.00 PKD
ROOT
HETATM    1  C   UNL     1     -12.165  14.453  68.710  1.00  0.00    -0.165 C  
HETATM    2  N   UNL     1     -11.633  13.464  67.684  1.00  0.00    -0.319 N  
HETATM    3  C   UNL     1     -12.494  13.506  66.417  1.00  0.00    -0.292 C  
HETATM    4  C   UNL     1     -11.947  12.482  65.419  1.00  0.00    -0.492 C  
HETATM    5  C   UNL     1     -10.695  11.774  65.970  1.00  0.00    -0.324 C  
HETATM    6  C   UNL     1      -9.649  12.848  66.291  1.00  0.00    -0.245 C  
HETATM    7  C   UNL     1     -11.068  11.027  67.270  1.00  0.00    -0.294 C  
HETATM    8  C   UNL     1     -10.191  13.845  67.315  1.00  0.00    -0.249 C  
HETATM    9  C   UNL     1     -11.675  12.028  68.281  1.00  0.00    -0.334 C  
ENDROOT
BRANCH   7  10
HETATM   10  O   UNL     1      -9.970  10.159  67.676  1.00  0.00    -0.169 OA 
BRANCH  10  11
HETATM   11  C   UNL     1     -10.066   8.829  68.006  1.00  0.00    -0.196 C  
HETATM   12  O   UNL     1     -10.775   8.044  67.386  1.00  0.00    -0.269 OA 
HETATM   13  C   UNL     1      -9.156   8.517  69.267  1.00  0.00    -0.153 C  
HETATM   14  C   UNL     1      -7.857   7.756  68.932  1.00  0.00    -0.122 A  
HETATM   15  C   UNL     1      -9.979   7.802  70.355  1.00  0.00    -0.188 A  
HETATM   16  O   UNL     1      -8.740   9.794  69.809  1.00  0.00    -0.181 OA 
HETATM   17  H   UNL     1      -8.195   9.607  70.565  1.00  0.00     0.000 HD 
HETATM   18  C   UNL     1      -6.726   7.900  69.772  1.00  0.00    -0.038 A  
HETATM   19  C   UNL     1     -10.533   6.528  70.136  1.00  0.00    -0.259 A  
HETATM   20  C   UNL     1      -5.523   7.242  69.502  1.00  0.00    -0.015 A  
HETATM   21  C   UNL     1     -11.276   5.884  71.129  1.00  0.00    -0.281 A  
HETATM   22  C   UNL     1     -11.474   6.496  72.367  1.00  0.00    -0.306 A  
HETATM   23  C   UNL     1      -5.421   6.403  68.402  1.00  0.00    -0.008 A  
HETATM   24  C   UNL     1      -6.531   6.205  67.584  1.00  0.00    -0.046 A  
HETATM   25  C   UNL     1     -10.932   7.751  72.609  1.00  0.00    -0.422 A  
HETATM   26  C   UNL     1     -10.190   8.396  71.616  1.00  0.00    -0.310 A  
HETATM   27  C   UNL     1      -7.739   6.868  67.849  1.00  0.00    -0.112 A  
ENDBRANCH  10  11
ENDBRANCH   7  10
TORSDOF 2
ENDMDL
MODEL       91
REMARK 921   NORMALIZED FREE ENERGY PREDICTED BY IDOCK:   -4.66 KCAL/MOL
REMARK 922        TOTAL FREE ENERGY PREDICTED BY IDOCK:   -6.28 KCAL/MOL
REMARK 923 INTER-LIGAND FREE ENERGY PREDICTED BY IDOCK:   -5.97 KCAL/MOL
REMARK 924 INTRA-LIGAND FREE ENERGY PREDICTED BY IDOCK:   -0.31 KCAL/MOL
REMARK 927      BINDING AFFINITY PREDICTED BY RF-SCORE:    0.00 PKD
ROOT
HETATM    1  C   UNL     1     -10.836  15.670  66.076  1.00  0.00    -0.275 C  
HETATM    2  N   UNL     1     -11.127  14.224  65.704  1.00  0.00    -0.308 N  
HETATM    3  C   UNL     1     -12.434  14.138  64.910  1.00  0.00    -0.401 C  
HETATM    4  C   UNL     1     -12.708  12.669  64.576  1.00  0.00    -0.439 C  
HETATM    5  C   UNL     1     -11.581  11.756  65.092  1.00  0.00    -0.211 C  
HETATM    6  C   UNL     1     -10.265  12.231  64.465  1.00  0.00    -0.322 C  
HETATM    7  C   UNL     1     -11.485  11.891  66.629  1.00  0.00    -0.314 C  
HETATM    8  C   UNL     1      -9.982  13.687  64.832  1.00  0.00    -0.152 C  
HETATM    9  C   UNL     1     -11.262  13.376  67.001  1.00  0.00    -0.305 C  
ENDROOT
BRANCH   7  10
HETATM   10  O   UNL     1     -10.597  10.866  67.163  1.00  0.00    -0.227 OA 
BRANCH  10  11
HETATM   11  C   UNL     1     -10.076  10.825  68.433  1.00  0.00    -0.169 C  
HETATM   12  O   UNL     1      -9.389  11.729  68.895  1.00  0.00    -0.068 OA 
HETATM   13  C   UNL     1     -10.489   9.469  69.144  1.00  0.00    -0.210 C  
HETATM   14  C   UNL     1     -11.590   9.630  70.212  1.00  0.00    -0.255 A  
HETATM   15  C   UNL     1      -9.244   8.757  69.702  1.00  0.00    -0.150 A  
HETATM   16  O   UNL     1     -11.053   8.614  68.120  1.00  0.00    -0.459 OA 
HETATM   17  H   UNL     1     -11.301   7.801  68.546  1.00  0.00     0.000 HD 
HETATM   18  C   UNL     1     -12.443   8.538  70.508  1.00  0.00     0.398 A  
HETATM   19  C   UNL     1      -8.464   9.335  70.720  1.00  0.00    -0.244 A  
HETATM   20  C   UNL     1     -13.463   8.640  71.459  1.00  0.00    -0.344 A  
HETATM   21  C   UNL     1      -7.336   8.682  71.225  1.00  0.00    -0.105 A  
HETATM   22  C   UNL     1      -6.967   7.432  70.728  1.00  0.00    -0.055 A  
HETATM   23  C   UNL     1     -13.646   9.824  72.158  1.00  0.00    -0.432 A  
HETATM   24  C   UNL     1     -12.794  10.901  71.921  1.00  0.00    -0.432 A  
HETATM   25  C   UNL     1      -7.724   6.838  69.728  1.00  0.00    -0.113 A  
HETATM   26  C   UNL     1      -8.851   7.491  69.222  1.00  0.00    -0.136 A  
HETATM   27  C   UNL     1     -11.771  10.804  70.965  1.00  0.00    -0.242 A  
ENDBRANCH  10  11
ENDBRANCH   7  10
TORSDOF 2
ENDMDL
MODEL       92
REMARK 921   NORMALIZED FREE ENERGY PREDICTED BY IDOCK:   -4.60 KCAL/MOL
REMARK 922        TOTAL FREE ENERGY PREDICTED BY IDOCK:   -6.22 KCAL/MOL
REMARK 923 INTER-LIGAND FREE ENERGY PREDICTED BY IDOCK:   -5.66 KCAL/MOL
REMARK 924 INTRA-LIGAND FREE ENERGY PREDICTED BY IDOCK:   -0.56 KCAL/MOL
REMARK 927      BINDING AFFINITY PREDICTED BY RF-SCORE:    0.00 PKD
ROOT
HETATM    1  C   UNL     1      -7.631  11.915  66.715  1.00  0.00    -0.034 C  
HETATM    2  N   UNL     1      -9.002  11.509  67.235  1.00  0.00    -0.159 N  
HETATM    3  C   UNL     1     -10.058  12.522  66.780  1.00  0.00    -0.223 C  
HETATM    4  C   UNL     1     -11.417  12.098  67.342  1.00  0.00    -0.415 C  
HETATM    5  C   UNL     1     -11.311  10.781  68.136  1.00  0.00    -0.377 C  
HETATM    6  C   UNL     1     -10.740   9.711  67.199  1.00  0.00    -0.258 C  
HETATM    7  C   UNL     1     -10.342  10.984  69.322  1.00  0.00    -0.154 C  
HETATM    8  C   UNL     1      -9.367  10.128  66.671  1.00  0.00    -0.162 C  
HETATM    9  C   UNL     1      -8.972  11.466  68.789  1.00  0.00    -0.080 C  
ENDROOT
BRANCH   7  10
HETATM   10  O   UNL     1     -10.410   9.837  70.220  1.00  0.00    -0.258 OA 
BRANCH  10  11
HETATM   11  C   UNL     1      -9.594   8.733  70.189  1.00  0.00    -0.173 C  
HETATM   12  O   UNL     1      -8.371   8.816  70.160  1.00  0.00    -0.115 OA 
HETATM   13  C   UNL     1     -10.471   7.412  70.185  1.00  0.00    -0.220 C  
HETATM   14  C   UNL     1     -10.483   6.662  71.533  1.00  0.00    -0.242 A  
HETATM   15  C   UNL     1     -10.053   6.496  69.020  1.00  0.00    -0.186 A  
HETATM   16  O   UNL     1     -11.840   7.819  69.946  1.00  0.00    -0.387 OA 
HETATM   17  H   UNL     1     -12.366   7.027  69.944  1.00  0.00     0.000 HD 
HETATM   18  C   UNL     1     -11.594   5.852  71.873  1.00  0.00    -0.255 A  
HETATM   19  C   UNL     1      -8.766   5.932  68.957  1.00  0.00    -0.114 A  
HETATM   20  C   UNL     1     -11.657   5.164  73.088  1.00  0.00    -0.281 A  
HETATM   21  C   UNL     1      -8.394   5.099  67.897  1.00  0.00    -0.097 A  
HETATM   22  C   UNL     1      -9.305   4.806  66.882  1.00  0.00    -0.141 A  
HETATM   23  C   UNL     1     -10.603   5.244  73.987  1.00  0.00    -0.321 A  
HETATM   24  C   UNL     1      -9.477   5.996  73.661  1.00  0.00    -0.141 A  
HETATM   25  C   UNL     1     -10.582   5.347  66.925  1.00  0.00    -0.320 A  
HETATM   26  C   UNL     1     -10.954   6.180  67.983  1.00  0.00    -0.399 A  
HETATM   27  C   UNL     1      -9.412   6.692  72.444  1.00  0.00    -0.154 A  
ENDBRANCH  10  11
ENDBRANCH   7  10
TORSDOF 2
ENDMDL
MODEL       93
REMARK 921   NORMALIZED FREE ENERGY PREDICTED BY IDOCK:   -4.60 KCAL/MOL
REMARK 922        TOTAL FREE ENERGY PREDICTED BY IDOCK:   -6.22 KCAL/MOL
REMARK 923 INTER-LIGAND FREE ENERGY PREDICTED BY IDOCK:   -6.42 KCAL/MOL
REMARK 924 INTRA-LIGAND FREE ENERGY PREDICTED BY IDOCK:    0.20 KCAL/MOL
REMARK 927      BINDING AFFINITY PREDICTED BY RF-SCORE:    0.00 PKD
ROOT
HETATM    1  C   UNL     1      -7.877  19.169  66.315  1.00  0.00    -0.293 C  
HETATM    2  N   UNL     1      -7.243  18.024  67.090  1.00  0.00    -0.191 N  
HETATM    3  C   UNL     1      -5.833  17.745  66.558  1.00  0.00    -0.182 C  
HETATM    4  C   UNL     1      -5.238  16.572  67.341  1.00  0.00    -0.163 C  
HETATM    5  C   UNL     1      -6.205  16.076  68.433  1.00  0.00    -0.106 C  
HETATM    6  C   UNL     1      -6.518  17.258  69.357  1.00  0.00    -0.235 C  
HETATM    7  C   UNL     1      -7.514  15.595  67.767  1.00  0.00    -0.145 C  
HETATM    8  C   UNL     1      -7.145  18.411  68.573  1.00  0.00    -0.273 C  
HETATM    9  C   UNL     1      -8.113  16.745  66.923  1.00  0.00    -0.211 C  
ENDROOT
BRANCH   7  10
HETATM   10  O   UNL     1      -8.344  14.904  68.746  1.00  0.00    -0.155 OA 
BRANCH  10  11
HETATM   11  C   UNL     1      -9.251  13.907  68.481  1.00  0.00    -0.154 C  
HETATM   12  O   UNL     1      -8.935  12.724  68.423  1.00  0.00    -0.184 OA 
HETATM   13  C   UNL     1     -10.693  14.530  68.264  1.00  0.00    -0.240 C  
HETATM   14  C   UNL     1     -11.657  14.313  69.448  1.00  0.00    -0.354 A  
HETATM   15  C   UNL     1     -11.294  14.038  66.934  1.00  0.00    -0.343 A  
HETATM   16  O   UNL     1     -10.517  15.964  68.154  1.00  0.00    -0.255 OA 
HETATM   17  H   UNL     1     -11.381  16.338  68.024  1.00  0.00     0.000 HD 
HETATM   18  C   UNL     1     -12.709  15.234  69.673  1.00  0.00     0.023 A  
HETATM   19  C   UNL     1     -11.584  12.679  66.721  1.00  0.00    -0.438 A  
HETATM   20  C   UNL     1     -13.599  15.087  70.740  1.00  0.00    -0.266 A  
HETATM   21  C   UNL     1     -12.132  12.238  65.513  1.00  0.00    -0.326 A  
HETATM   22  C   UNL     1     -12.409  13.151  64.494  1.00  0.00    -0.447 A  
HETATM   23  C   UNL     1     -13.480  14.004  71.600  1.00  0.00    -0.438 A  
HETATM   24  C   UNL     1     -12.483  13.057  71.378  1.00  0.00    -0.248 A  
HETATM   25  C   UNL     1     -12.137  14.498  64.683  1.00  0.00    -0.486 A  
HETATM   26  C   UNL     1     -11.588  14.938  65.890  1.00  0.00    -0.228 A  
HETATM   27  C   UNL     1     -11.585  13.204  70.309  1.00  0.00    -0.079 A  
ENDBRANCH  10  11
ENDBRANCH   7  10
TORSDOF 2
ENDMDL
MODEL       94
REMARK 921   NORMALIZED FREE ENERGY PREDICTED BY IDOCK:   -4.60 KCAL/MOL
REMARK 922        TOTAL FREE ENERGY PREDICTED BY IDOCK:   -6.22 KCAL/MOL
REMARK 923 INTER-LIGAND FREE ENERGY PREDICTED BY IDOCK:   -5.68 KCAL/MOL
REMARK 924 INTRA-LIGAND FREE ENERGY PREDICTED BY IDOCK:   -0.53 KCAL/MOL
REMARK 927      BINDING AFFINITY PREDICTED BY RF-SCORE:    0.00 PKD
ROOT
HETATM    1  C   UNL     1      -6.590  12.411  67.405  1.00  0.00    -0.157 C  
HETATM    2  N   UNL     1      -7.628  11.301  67.315  1.00  0.00    -0.123 N  
HETATM    3  C   UNL     1      -8.805  11.751  66.443  1.00  0.00    -0.170 C  
HETATM    4  C   UNL     1      -9.838  10.622  66.397  1.00  0.00    -0.259 C  
HETATM    5  C   UNL     1      -9.361   9.390  67.188  1.00  0.00    -0.172 C  
HETATM    6  C   UNL     1      -8.021   8.939  66.595  1.00  0.00    -0.103 C  
HETATM    7  C   UNL     1      -9.150   9.789  68.666  1.00  0.00    -0.130 C  
HETATM    8  C   UNL     1      -6.985  10.060  66.677  1.00  0.00    -0.087 C  
HETATM    9  C   UNL     1      -8.149  10.966  68.742  1.00  0.00    -0.145 C  
ENDROOT
BRANCH   7  10
HETATM   10  O   UNL     1      -8.933   8.597  69.476  1.00  0.00    -0.142 OA 
BRANCH  10  11
HETATM   11  C   UNL     1      -9.217   8.462  70.813  1.00  0.00    -0.159 C  
HETATM   12  O   UNL     1      -8.667   9.135  71.677  1.00  0.00    -0.343 OA 
HETATM   13  C   UNL     1     -10.311   7.333  71.023  1.00  0.00    -0.199 C  
HETATM   14  C   UNL     1     -11.715   7.873  71.361  1.00  0.00    -0.311 A  
HETATM   15  C   UNL     1      -9.825   6.303  72.060  1.00  0.00    -0.173 A  
HETATM   16  O   UNL     1     -10.446   6.641  69.758  1.00  0.00    -0.191 OA 
HETATM   17  H   UNL     1     -11.102   5.964  69.883  1.00  0.00     0.000 HD 
HETATM   18  C   UNL     1     -12.859   7.109  71.023  1.00  0.00    -0.268 A  
HETATM   19  C   UNL     1      -9.592   6.666  73.399  1.00  0.00    -0.183 A  
HETATM   20  C   UNL     1     -14.152   7.564  71.297  1.00  0.00    -0.410 A  
HETATM   21  C   UNL     1      -9.154   5.726  74.336  1.00  0.00    -0.126 A  
HETATM   22  C   UNL     1      -8.946   4.400  73.955  1.00  0.00    -0.101 A  
HETATM   23  C   UNL     1     -14.341   8.780  71.936  1.00  0.00    -0.441 A  
HETATM   24  C   UNL     1     -13.234   9.533  72.321  1.00  0.00    -0.507 A  
HETATM   25  C   UNL     1      -9.173   4.017  72.642  1.00  0.00    -0.138 A  
HETATM   26  C   UNL     1      -9.611   4.956  71.704  1.00  0.00    -0.214 A  
HETATM   27  C   UNL     1     -11.934   9.082  72.045  1.00  0.00    -0.433 A  
ENDBRANCH  10  11
ENDBRANCH   7  10
TORSDOF 2
ENDMDL
MODEL       95
REMARK 921   NORMALIZED FREE ENERGY PREDICTED BY IDOCK:   -4.58 KCAL/MOL
REMARK 922        TOTAL FREE ENERGY PREDICTED BY IDOCK:   -6.20 KCAL/MOL
REMARK 923 INTER-LIGAND FREE ENERGY PREDICTED BY IDOCK:   -5.24 KCAL/MOL
REMARK 924 INTRA-LIGAND FREE ENERGY PREDICTED BY IDOCK:   -0.96 KCAL/MOL
REMARK 927      BINDING AFFINITY PREDICTED BY RF-SCORE:    0.00 PKD
ROOT
HETATM    1  C   UNL     1     -10.290  13.291  65.668  1.00  0.00    -0.287 C  
HETATM    2  N   UNL     1     -10.383  12.469  66.945  1.00  0.00    -0.228 N  
HETATM    3  C   UNL     1     -11.244  13.201  67.981  1.00  0.00    -0.277 C  
HETATM    4  C   UNL     1     -11.293  12.359  69.258  1.00  0.00    -0.315 C  
HETATM    5  C   UNL     1     -10.516  11.040  69.093  1.00  0.00    -0.238 C  
HETATM    6  C   UNL     1     -11.121  10.282  67.906  1.00  0.00    -0.341 C  
HETATM    7  C   UNL     1      -9.036  11.361  68.786  1.00  0.00    -0.089 C  
HETATM    8  C   UNL     1     -11.035  11.115  66.628  1.00  0.00    -0.228 C  
HETATM    9  C   UNL     1      -8.956  12.257  67.527  1.00  0.00    -0.180 C  
ENDROOT
BRANCH   7  10
HETATM   10  O   UNL     1      -8.237  10.144  68.864  1.00  0.00    -0.107 OA 
BRANCH  10  11
HETATM   11  C   UNL     1      -8.001   9.400  69.993  1.00  0.00    -0.137 C  
HETATM   12  O   UNL     1      -7.349   9.824  70.941  1.00  0.00    -0.321 OA 
HETATM   13  C   UNL     1      -8.674   7.970  69.850  1.00  0.00    -0.139 C  
HETATM   14  C   UNL     1      -9.956   7.793  70.689  1.00  0.00    -0.186 A  
HETATM   15  C   UNL     1      -7.642   6.863  70.132  1.00  0.00    -0.099 A  
HETATM   16  O   UNL     1      -9.083   7.837  68.467  1.00  0.00    -0.133 OA 
HETATM   17  H   UNL     1      -9.487   6.981  68.381  1.00  0.00     0.000 HD 
HETATM   18  C   UNL     1     -10.946   6.872  70.268  1.00  0.00    -0.322 A  
HETATM   19  C   UNL     1      -7.046   6.723  71.398  1.00  0.00    -0.075 A  
HETATM   20  C   UNL     1     -12.130   6.686  70.987  1.00  0.00    -0.384 A  
HETATM   21  C   UNL     1      -6.112   5.713  71.649  1.00  0.00    -0.030 A  
HETATM   22  C   UNL     1      -5.760   4.816  70.640  1.00  0.00    -0.016 A  
HETATM   23  C   UNL     1     -12.349   7.395  72.159  1.00  0.00    -0.239 A  
HETATM   24  C   UNL     1     -11.374   8.274  72.623  1.00  0.00    -0.421 A  
HETATM   25  C   UNL     1      -6.339   4.931  69.384  1.00  0.00    -0.031 A  
HETATM   26  C   UNL     1      -7.272   5.941  69.133  1.00  0.00    -0.078 A  
HETATM   27  C   UNL     1     -10.186   8.467  71.902  1.00  0.00    -0.340 A  
ENDBRANCH  10  11
ENDBRANCH   7  10
TORSDOF 2
ENDMDL
MODEL       96
REMARK 921   NORMALIZED FREE ENERGY PREDICTED BY IDOCK:   -4.52 KCAL/MOL
REMARK 922        TOTAL FREE ENERGY PREDICTED BY IDOCK:   -6.13 KCAL/MOL
REMARK 923 INTER-LIGAND FREE ENERGY PREDICTED BY IDOCK:   -5.58 KCAL/MOL
REMARK 924 INTRA-LIGAND FREE ENERGY PREDICTED BY IDOCK:   -0.55 KCAL/MOL
REMARK 927      BINDING AFFINITY PREDICTED BY RF-SCORE:    0.00 PKD
ROOT
HETATM    1  C   UNL     1      -5.242   7.993  67.121  1.00  0.00    -0.032 C  
HETATM    2  N   UNL     1      -6.651   7.503  66.821  1.00  0.00    -0.056 N  
HETATM    3  C   UNL     1      -6.768   7.107  65.346  1.00  0.00    -0.051 C  
HETATM    4  C   UNL     1      -8.202   6.645  65.075  1.00  0.00    -0.105 C  
HETATM    5  C   UNL     1      -9.055   6.678  66.358  1.00  0.00    -0.172 C  
HETATM    6  C   UNL     1      -8.372   5.784  67.400  1.00  0.00    -0.104 C  
HETATM    7  C   UNL     1      -9.108   8.127  66.892  1.00  0.00    -0.154 C  
HETATM    8  C   UNL     1      -6.953   6.273  67.690  1.00  0.00    -0.075 C  
HETATM    9  C   UNL     1      -7.667   8.641  67.125  1.00  0.00    -0.096 C  
ENDROOT
BRANCH   7  10
HETATM   10  O   UNL     1     -10.097   8.227  67.958  1.00  0.00    -0.182 OA 
BRANCH  10  11
HETATM   11  C   UNL     1      -9.839   8.226  69.307  1.00  0.00    -0.186 C  
HETATM   12  O   UNL     1      -8.961   8.915  69.813  1.00  0.00    -0.140 OA 
HETATM   13  C   UNL     1     -10.817   7.219  70.045  1.00  0.00    -0.253 C  
HETATM   14  C   UNL     1     -11.947   7.907  70.837  1.00  0.00    -0.211 A  
HETATM   15  C   UNL     1     -10.015   6.237  70.919  1.00  0.00    -0.219 A  
HETATM   16  O   UNL     1     -11.473   6.441  69.013  1.00  0.00    -0.580 OA 
HETATM   17  H   UNL     1     -12.060   5.838  69.455  1.00  0.00     0.000 HD 
HETATM   18  C   UNL     1     -13.168   7.223  71.053  1.00  0.00    -0.176 A  
HETATM   19  C   UNL     1      -9.258   6.685  72.016  1.00  0.00    -0.142 A  
HETATM   20  C   UNL     1     -14.226   7.811  71.753  1.00  0.00    -0.558 A  
HETATM   21  C   UNL     1      -8.534   5.789  72.808  1.00  0.00    -0.119 A  
HETATM   22  C   UNL     1      -8.559   4.423  72.524  1.00  0.00    -0.112 A  
HETATM   23  C   UNL     1     -14.087   9.087  72.279  1.00  0.00    -0.485 A  
HETATM   24  C   UNL     1     -12.881   9.767  72.122  1.00  0.00    -0.448 A  
HETATM   25  C   UNL     1      -9.303   3.957  71.450  1.00  0.00    -0.208 A  
HETATM   26  C   UNL     1     -10.026   4.852  70.657  1.00  0.00    -0.305 A  
HETATM   27  C   UNL     1     -11.819   9.182  71.416  1.00  0.00    -0.415 A  
ENDBRANCH  10  11
ENDBRANCH   7  10
TORSDOF 2
ENDMDL
MODEL       97
REMARK 921   NORMALIZED FREE ENERGY PREDICTED BY IDOCK:   -4.46 KCAL/MOL
REMARK 922        TOTAL FREE ENERGY PREDICTED BY IDOCK:   -6.06 KCAL/MOL
REMARK 923 INTER-LIGAND FREE ENERGY PREDICTED BY IDOCK:   -5.51 KCAL/MOL
REMARK 924 INTRA-LIGAND FREE ENERGY PREDICTED BY IDOCK:   -0.56 KCAL/MOL
REMARK 927      BINDING AFFINITY PREDICTED BY RF-SCORE:    0.00 PKD
ROOT
HETATM    1  C   UNL     1      -7.867   9.921  70.068  1.00  0.00    -0.180 C  
HETATM    2  N   UNL     1      -7.396  10.802  68.920  1.00  0.00    -0.095 N  
HETATM    3  C   UNL     1      -6.139  10.203  68.279  1.00  0.00    -0.045 C  
HETATM    4  C   UNL     1      -5.679  11.127  67.148  1.00  0.00    -0.067 C  
HETATM    5  C   UNL     1      -6.633  12.325  66.978  1.00  0.00    -0.046 C  
HETATM    6  C   UNL     1      -8.038  11.774  66.707  1.00  0.00    -0.133 C  
HETATM    7  C   UNL     1      -6.655  13.143  68.289  1.00  0.00    -0.097 C  
HETATM    8  C   UNL     1      -8.503  10.881  67.858  1.00  0.00    -0.129 C  
HETATM    9  C   UNL     1      -7.065  12.221  69.462  1.00  0.00     0.223 C  
ENDROOT
BRANCH   7  10
HETATM   10  O   UNL     1      -7.355  14.404  68.076  1.00  0.00    -0.114 OA 
BRANCH  10  11
HETATM   11  C   UNL     1      -8.707  14.612  68.199  1.00  0.00    -0.168 C  
HETATM   12  O   UNL     1      -9.354  14.204  69.158  1.00  0.00     0.008 OA 
HETATM   13  C   UNL     1      -9.248  15.417  66.945  1.00  0.00    -0.233 C  
HETATM   14  C   UNL     1      -9.568  16.897  67.237  1.00  0.00    -0.246 A  
HETATM   15  C   UNL     1     -10.445  14.682  66.314  1.00  0.00    -0.302 A  
HETATM   16  O   UNL     1      -8.183  15.428  65.964  1.00  0.00    -0.175 OA 
HETATM   17  H   UNL     1      -8.507  15.910  65.212  1.00  0.00     0.000 HD 
HETATM   18  C   UNL     1      -9.500  17.848  66.190  1.00  0.00    -0.169 A  
HETATM   19  C   UNL     1     -11.648  14.500  67.021  1.00  0.00    -0.402 A  
HETATM   20  C   UNL     1      -9.768  19.202  66.410  1.00  0.00    -0.412 A  
HETATM   21  C   UNL     1     -12.732  13.835  66.441  1.00  0.00    -0.172 A  
HETATM   22  C   UNL     1     -12.640  13.344  65.139  1.00  0.00    -0.495 A  
HETATM   23  C   UNL     1     -10.134  19.642  67.674  1.00  0.00    -0.544 A  
HETATM   24  C   UNL     1     -10.254  18.723  68.713  1.00  0.00    -0.318 A  
HETATM   25  C   UNL     1     -11.466  13.516  64.420  1.00  0.00    -0.422 A  
HETATM   26  C   UNL     1     -10.381  14.180  64.998  1.00  0.00    -0.443 A  
HETATM   27  C   UNL     1      -9.982  17.363  68.498  1.00  0.00    -0.331 A  
ENDBRANCH  10  11
ENDBRANCH   7  10
TORSDOF 2
ENDMDL
MODEL       98
REMARK 921   NORMALIZED FREE ENERGY PREDICTED BY IDOCK:   -4.44 KCAL/MOL
REMARK 922        TOTAL FREE ENERGY PREDICTED BY IDOCK:   -6.04 KCAL/MOL
REMARK 923 INTER-LIGAND FREE ENERGY PREDICTED BY IDOCK:   -5.36 KCAL/MOL
REMARK 924 INTRA-LIGAND FREE ENERGY PREDICTED BY IDOCK:   -0.68 KCAL/MOL
REMARK 927      BINDING AFFINITY PREDICTED BY RF-SCORE:    0.00 PKD
ROOT
HETATM    1  C   UNL     1      -7.689   5.748  68.341  1.00  0.00    -0.096 C  
HETATM    2  N   UNL     1      -8.847   6.376  69.101  1.00  0.00    -0.127 N  
HETATM    3  C   UNL     1      -9.896   5.311  69.437  1.00  0.00    -0.195 C  
HETATM    4  C   UNL     1     -11.056   5.982  70.176  1.00  0.00    -0.432 C  
HETATM    5  C   UNL     1     -10.792   7.484  70.392  1.00  0.00    -0.255 C  
HETATM    6  C   UNL     1      -9.481   7.624  71.173  1.00  0.00    -0.163 C  
HETATM    7  C   UNL     1     -10.636   8.171  69.016  1.00  0.00    -0.151 C  
HETATM    8  C   UNL     1      -8.321   6.983  70.411  1.00  0.00    -0.129 C  
HETATM    9  C   UNL     1      -9.504   7.478  68.222  1.00  0.00    -0.144 C  
ENDROOT
BRANCH   7  10
HETATM   10  O   UNL     1     -10.626   9.619  69.183  1.00  0.00    -0.209 OA 
BRANCH  10  11
HETATM   11  C   UNL     1      -9.634  10.476  68.775  1.00  0.00    -0.179 C  
HETATM   12  O   UNL     1      -8.632  10.696  69.448  1.00  0.00    -0.130 OA 
HETATM   13  C   UNL     1     -10.005  11.103  67.366  1.00  0.00    -0.179 C  
HETATM   14  C   UNL     1      -9.202  10.518  66.187  1.00  0.00    -0.197 A  
HETATM   15  C   UNL     1      -9.910  12.639  67.423  1.00  0.00    -0.205 A  
HETATM   16  O   UNL     1     -11.390  10.765  67.110  1.00  0.00    -0.372 OA 
HETATM   17  H   UNL     1     -11.612  11.140  66.265  1.00  0.00     0.000 HD 
HETATM   18  C   UNL     1      -9.763  10.523  64.887  1.00  0.00    -0.360 A  
HETATM   19  C   UNL     1      -8.686  13.289  67.662  1.00  0.00    -0.195 A  
HETATM   20  C   UNL     1      -9.079   9.992  63.790  1.00  0.00    -0.302 A  
HETATM   21  C   UNL     1      -8.606  14.684  67.709  1.00  0.00    -0.175 A  
HETATM   22  C   UNL     1      -9.749  15.459  67.510  1.00  0.00    -0.208 A  
HETATM   23  C   UNL     1      -7.807   9.464  63.953  1.00  0.00    -0.129 A  
HETATM   24  C   UNL     1      -7.210   9.487  65.212  1.00  0.00    -0.104 A  
HETATM   25  C   UNL     1     -10.967  14.841  67.268  1.00  0.00    -0.318 A  
HETATM   26  C   UNL     1     -11.048  13.447  67.222  1.00  0.00    -0.300 A  
HETATM   27  C   UNL     1      -7.895  10.015  66.316  1.00  0.00    -0.111 A  
ENDBRANCH  10  11
ENDBRANCH   7  10
TORSDOF 2
ENDMDL
MODEL       99
REMARK 921   NORMALIZED FREE ENERGY PREDICTED BY IDOCK:   -4.43 KCAL/MOL
REMARK 922        TOTAL FREE ENERGY PREDICTED BY IDOCK:   -6.03 KCAL/MOL
REMARK 923 INTER-LIGAND FREE ENERGY PREDICTED BY IDOCK:   -5.54 KCAL/MOL
REMARK 924 INTRA-LIGAND FREE ENERGY PREDICTED BY IDOCK:   -0.49 KCAL/MOL
REMARK 927      BINDING AFFINITY PREDICTED BY RF-SCORE:    0.00 PKD
ROOT
HETATM    1  C   UNL     1     -10.066   3.684  64.141  1.00  0.00    -0.212 C  
HETATM    2  N   UNL     1      -9.029   4.477  64.921  1.00  0.00    -0.147 N  
HETATM    3  C   UNL     1      -7.960   3.535  65.485  1.00  0.00    -0.093 C  
HETATM    4  C   UNL     1      -6.951   4.362  66.284  1.00  0.00    -0.066 C  
HETATM    5  C   UNL     1      -7.289   5.864  66.234  1.00  0.00    -0.081 C  
HETATM    6  C   UNL     1      -7.316   6.292  64.762  1.00  0.00    -0.075 C  
HETATM    7  C   UNL     1      -8.689   6.087  66.850  1.00  0.00    -0.112 C  
HETATM    8  C   UNL     1      -8.352   5.485  63.980  1.00  0.00    -0.091 C  
HETATM    9  C   UNL     1      -9.725   5.220  66.096  1.00  0.00    -0.161 C  
ENDROOT
BRANCH   7  10
HETATM   10  O   UNL     1      -8.929   7.513  67.033  1.00  0.00    -0.123 OA 
BRANCH  10  11
HETATM   11  C   UNL     1      -8.746   8.224  68.193  1.00  0.00    -0.136 C  
HETATM   12  O   UNL     1      -7.655   8.321  68.745  1.00  0.00    -0.097 OA 
HETATM   13  C   UNL     1     -10.124   8.850  68.669  1.00  0.00    -0.188 C  
HETATM   14  C   UNL     1     -10.242  10.368  68.426  1.00  0.00    -0.186 A  
HETATM   15  C   UNL     1     -10.402   8.478  70.137  1.00  0.00    -0.214 A  
HETATM   16  O   UNL     1     -11.161   8.238  67.864  1.00  0.00    -0.469 OA 
HETATM   17  H   UNL     1     -11.986   8.613  68.148  1.00  0.00     0.000 HD 
HETATM   18  C   UNL     1     -11.520  10.952  68.250  1.00  0.00    -0.376 A  
HETATM   19  C   UNL     1      -9.564   8.921  71.176  1.00  0.00    -0.342 A  
HETATM   20  C   UNL     1     -11.676  12.321  68.014  1.00  0.00    -0.417 A  
HETATM   21  C   UNL     1      -9.824   8.582  72.507  1.00  0.00    -0.324 A  
HETATM   22  C   UNL     1     -10.933   7.798  72.828  1.00  0.00    -0.447 A  
HETATM   23  C   UNL     1     -10.565  13.150  67.971  1.00  0.00    -0.246 A  
HETATM   24  C   UNL     1      -9.298  12.612  68.186  1.00  0.00    -0.210 A  
HETATM   25  C   UNL     1     -11.777   7.353  71.821  1.00  0.00    -0.319 A  
HETATM   26  C   UNL     1     -11.517   7.691  70.490  1.00  0.00    -0.236 A  
HETATM   27  C   UNL     1      -9.136  11.238  68.419  1.00  0.00    -0.170 A  
ENDBRANCH  10  11
ENDBRANCH   7  10
TORSDOF 2
ENDMDL
MODEL      100
REMARK 921   NORMALIZED FREE ENERGY PREDICTED BY IDOCK:   -4.39 KCAL/MOL
REMARK 922        TOTAL FREE ENERGY PREDICTED BY IDOCK:   -5.99 KCAL/MOL
REMARK 923 INTER-LIGAND FREE ENERGY PREDICTED BY IDOCK:   -5.47 KCAL/MOL
REMARK 924 INTRA-LIGAND FREE ENERGY PREDICTED BY IDOCK:   -0.52 KCAL/MOL
REMARK 927      BINDING AFFINITY PREDICTED BY RF-SCORE:    0.00 PKD
ROOT
HETATM    1  C   UNL     1     -10.165  10.386  65.011  1.00  0.00    -0.264 C  
HETATM    2  N   UNL     1      -9.824  10.742  66.450  1.00  0.00    -0.201 N  
HETATM    3  C   UNL     1      -9.505  12.237  66.562  1.00  0.00    -0.236 C  
HETATM    4  C   UNL     1      -9.142  12.552  68.015  1.00  0.00    -0.200 C  
HETATM    5  C   UNL     1      -9.253  11.301  68.907  1.00  0.00    -0.076 C  
HETATM    6  C   UNL     1     -10.687  10.770  68.797  1.00  0.00    -0.243 C  
HETATM    7  C   UNL     1      -8.274  10.223  68.389  1.00  0.00    -0.114 C  
HETATM    8  C   UNL     1     -11.029  10.424  67.348  1.00  0.00    -0.270 C  
HETATM    9  C   UNL     1      -8.583   9.921  66.903  1.00  0.00    -0.128 C  
ENDROOT
BRANCH   7  10
HETATM   10  O   UNL     1      -8.185   9.131  69.350  1.00  0.00    -0.110 OA 
BRANCH  10  11
HETATM   11  C   UNL     1      -9.110   8.131  69.530  1.00  0.00    -0.151 C  
HETATM   12  O   UNL     1      -9.585   7.494  68.597  1.00  0.00    -0.149 OA 
HETATM   13  C   UNL     1      -9.441   7.972  71.073  1.00  0.00    -0.157 C  
HETATM   14  C   UNL     1      -8.808   6.727  71.726  1.00  0.00    -0.128 A  
HETATM   15  C   UNL     1     -10.963   8.033  71.302  1.00  0.00    -0.269 A  
HETATM   16  O   UNL     1      -8.857   9.114  71.746  1.00  0.00    -0.341 OA 
HETATM   17  H   UNL     1      -9.055   9.018  72.671  1.00  0.00     0.000 HD 
HETATM   18  C   UNL     1      -8.520   6.734  73.113  1.00  0.00    -0.130 A  
HETATM   19  C   UNL     1     -11.823   7.057  70.768  1.00  0.00    -0.401 A  
HETATM   20  C   UNL     1      -7.935   5.635  73.747  1.00  0.00    -0.108 A  
HETATM   21  C   UNL     1     -13.203   7.116  70.983  1.00  0.00    -0.158 A  
HETATM   22  C   UNL     1     -13.752   8.149  71.742  1.00  0.00    -0.422 A  
HETATM   23  C   UNL     1      -7.642   4.489  73.022  1.00  0.00    -0.086 A  
HETATM   24  C   UNL     1      -7.956   4.435  71.666  1.00  0.00    -0.091 A  
HETATM   25  C   UNL     1     -12.923   9.121  72.284  1.00  0.00    -0.492 A  
HETATM   26  C   UNL     1     -11.543   9.063  72.069  1.00  0.00    -0.413 A  
HETATM   27  C   UNL     1      -8.540   5.538  71.025  1.00  0.00    -0.126 A  
ENDBRANCH  10  11
ENDBRANCH   7  10
TORSDOF 2
ENDMDL
MODEL      101
REMARK 921   NORMALIZED FREE ENERGY PREDICTED BY IDOCK:   -4.34 KCAL/MOL
REMARK 922        TOTAL FREE ENERGY PREDICTED BY IDOCK:   -5.93 KCAL/MOL
REMARK 923 INTER-LIGAND FREE ENERGY PREDICTED BY IDOCK:   -5.36 KCAL/MOL
REMARK 924 INTRA-LIGAND FREE ENERGY PREDICTED BY IDOCK:   -0.57 KCAL/MOL
REMARK 927      BINDING AFFINITY PREDICTED BY RF-SCORE:    0.00 PKD
ROOT
HETATM    1  C   UNL     1      -8.059  12.211  67.671  1.00  0.00    -0.158 C  
HETATM    2  N   UNL     1      -8.472  11.026  66.812  1.00  0.00    -0.142 N  
HETATM    3  C   UNL     1      -9.304  11.506  65.618  1.00  0.00    -0.204 C  
HETATM    4  C   UNL     1      -9.724  10.288  64.792  1.00  0.00    -0.397 C  
HETATM    5  C   UNL     1      -9.151   8.985  65.381  1.00  0.00    -0.250 C  
HETATM    6  C   UNL     1      -7.625   9.122  65.431  1.00  0.00    -0.097 C  
HETATM    7  C   UNL     1      -9.689   8.801  66.818  1.00  0.00    -0.221 C  
HETATM    8  C   UNL     1      -7.213  10.320  66.286  1.00  0.00    -0.117 C  
HETATM    9  C   UNL     1      -9.325  10.044  67.665  1.00  0.00    -0.144 C  
ENDROOT
BRANCH   7  10
HETATM   10  O   UNL     1      -9.358   7.468  67.305  1.00  0.00    -0.133 OA 
BRANCH  10  11
HETATM   11  C   UNL     1      -8.893   7.154  68.559  1.00  0.00    -0.125 C  
HETATM   12  O   UNL     1      -7.792   7.508  68.964  1.00  0.00    -0.115 OA 
HETATM   13  C   UNL     1      -9.973   6.290  69.336  1.00  0.00    -0.159 C  
HETATM   14  C   UNL     1     -10.731   7.067  70.430  1.00  0.00    -0.259 A  
HETATM   15  C   UNL     1      -9.332   5.000  69.882  1.00  0.00    -0.198 A  
HETATM   16  O   UNL     1     -10.972   5.897  68.363  1.00  0.00    -0.274 OA 
HETATM   17  H   UNL     1     -11.619   5.379  68.829  1.00  0.00     0.000 HD 
HETATM   18  C   UNL     1     -12.039   6.665  70.796  1.00  0.00    -0.364 A  
HETATM   19  C   UNL     1      -8.314   5.043  70.852  1.00  0.00    -0.112 A  
HETATM   20  C   UNL     1     -12.771   7.347  71.772  1.00  0.00    -0.367 A  
HETATM   21  C   UNL     1      -7.739   3.868  71.346  1.00  0.00    -0.060 A  
HETATM   22  C   UNL     1      -8.176   2.625  70.887  1.00  0.00    -0.072 A  
HETATM   23  C   UNL     1     -12.210   8.432  72.430  1.00  0.00    -0.430 A  
HETATM   24  C   UNL     1     -10.908   8.823  72.124  1.00  0.00    -0.400 A  
HETATM   25  C   UNL     1      -9.183   2.558  69.935  1.00  0.00    -0.195 A  
HETATM   26  C   UNL     1      -9.758   3.731  69.439  1.00  0.00    -0.131 A  
HETATM   27  C   UNL     1     -10.172   8.144  71.141  1.00  0.00    -0.234 A  
ENDBRANCH  10  11
ENDBRANCH   7  10
TORSDOF 2
ENDMDL
MODEL      102
REMARK 921   NORMALIZED FREE ENERGY PREDICTED BY IDOCK:   -4.30 KCAL/MOL
REMARK 922        TOTAL FREE ENERGY PREDICTED BY IDOCK:   -5.88 KCAL/MOL
REMARK 923 INTER-LIGAND FREE ENERGY PREDICTED BY IDOCK:   -5.33 KCAL/MOL
REMARK 924 INTRA-LIGAND FREE ENERGY PREDICTED BY IDOCK:   -0.55 KCAL/MOL
REMARK 927      BINDING AFFINITY PREDICTED BY RF-SCORE:    0.00 PKD
ROOT
HETATM    1  C   UNL     1     -11.640  12.302  66.289  1.00  0.00    -0.385 C  
HETATM    2  N   UNL     1     -10.430  11.733  67.015  1.00  0.00    -0.214 N  
HETATM    3  C   UNL     1      -9.367  12.821  67.198  1.00  0.00    -0.216 C  
HETATM    4  C   UNL     1      -8.156  12.208  67.906  1.00  0.00    -0.153 C  
HETATM    5  C   UNL     1      -8.398  10.726  68.251  1.00  0.00    -0.125 C  
HETATM    6  C   UNL     1      -9.652  10.644  69.127  1.00  0.00    -0.193 C  
HETATM    7  C   UNL     1      -8.641   9.937  66.945  1.00  0.00    -0.128 C  
HETATM    8  C   UNL     1     -10.864  11.226  68.399  1.00  0.00    -0.205 C  
HETATM    9  C   UNL     1      -9.828  10.568  66.178  1.00  0.00    -0.217 C  
ENDROOT
BRANCH   7  10
HETATM   10  O   UNL     1      -8.632   8.506  67.220  1.00  0.00    -0.121 OA 
BRANCH  10  11
HETATM   11  C   UNL     1      -9.690   7.762  67.681  1.00  0.00    -0.155 C  
HETATM   12  O   UNL     1     -10.798   7.792  67.157  1.00  0.00    -0.313 OA 
HETATM   13  C   UNL     1      -9.247   6.917  68.949  1.00  0.00    -0.132 C  
HETATM   14  C   UNL     1      -9.048   5.415  68.665  1.00  0.00    -0.130 A  
HETATM   15  C   UNL     1     -10.218   7.160  70.119  1.00  0.00    -0.204 A  
HETATM   16  O   UNL     1      -7.950   7.420  69.353  1.00  0.00    -0.119 OA 
HETATM   17  H   UNL     1      -7.684   6.914  70.112  1.00  0.00     0.000 HD 
HETATM   18  C   UNL     1      -8.150   4.665  69.462  1.00  0.00    -0.065 A  
HETATM   19  C   UNL     1     -11.570   6.781  70.038  1.00  0.00    -0.367 A  
HETATM   20  C   UNL     1      -7.926   3.304  69.235  1.00  0.00    -0.058 A  
HETATM   21  C   UNL     1     -12.446   7.001  71.105  1.00  0.00    -0.407 A  
HETATM   22  C   UNL     1     -11.986   7.597  72.280  1.00  0.00    -0.329 A  
HETATM   23  C   UNL     1      -8.610   2.647  68.222  1.00  0.00    -0.109 A  
HETATM   24  C   UNL     1      -9.533   3.348  67.450  1.00  0.00    -0.220 A  
HETATM   25  C   UNL     1     -10.655   7.974  72.385  1.00  0.00    -0.373 A  
HETATM   26  C   UNL     1      -9.779   7.756  71.318  1.00  0.00    -0.179 A  
HETATM   27  C   UNL     1      -9.757   4.715  67.672  1.00  0.00    -0.207 A  
ENDBRANCH  10  11
ENDBRANCH   7  10
TORSDOF 2
ENDMDL
MODEL      103
REMARK 921   NORMALIZED FREE ENERGY PREDICTED BY IDOCK:   -4.25 KCAL/MOL
REMARK 922        TOTAL FREE ENERGY PREDICTED BY IDOCK:   -5.83 KCAL/MOL
REMARK 923 INTER-LIGAND FREE ENERGY PREDICTED BY IDOCK:   -4.76 KCAL/MOL
REMARK 924 INTRA-LIGAND FREE ENERGY PREDICTED BY IDOCK:   -1.08 KCAL/MOL
REMARK 927      BINDING AFFINITY PREDICTED BY RF-SCORE:    0.00 PKD
ROOT
HETATM    1  C   UNL     1      -6.103   2.658  67.190  1.00  0.00    -0.024 C  
HETATM    2  N   UNL     1      -7.299   3.357  67.819  1.00  0.00    -0.058 N  
HETATM    3  C   UNL     1      -8.352   2.326  68.237  1.00  0.00    -0.059 C  
HETATM    4  C   UNL     1      -9.549   3.066  68.839  1.00  0.00    -0.070 C  
HETATM    5  C   UNL     1      -9.307   4.587  68.881  1.00  0.00    -0.209 C  
HETATM    6  C   UNL     1      -8.033   4.839  69.694  1.00  0.00    -0.066 C  
HETATM    7  C   UNL     1      -9.098   5.104  67.440  1.00  0.00    -0.113 C  
HETATM    8  C   UNL     1      -6.836   4.126  69.066  1.00  0.00    -0.046 C  
HETATM    9  C   UNL     1      -7.926   4.336  66.784  1.00  0.00    -0.098 C  
ENDROOT
BRANCH   7  10
HETATM   10  O   UNL     1      -9.107   6.562  67.429  1.00  0.00    -0.114 OA 
BRANCH  10  11
HETATM   11  C   UNL     1     -10.148   7.369  67.817  1.00  0.00    -0.184 C  
HETATM   12  O   UNL     1     -11.266   7.291  67.321  1.00  0.00    -0.190 OA 
HETATM   13  C   UNL     1      -9.664   8.370  68.948  1.00  0.00    -0.167 C  
HETATM   14  C   UNL     1     -10.163   8.010  70.362  1.00  0.00    -0.201 A  
HETATM   15  C   UNL     1     -10.015   9.820  68.565  1.00  0.00    -0.177 A  
HETATM   16  O   UNL     1      -8.220   8.276  69.000  1.00  0.00    -0.116 OA 
HETATM   17  H   UNL     1      -7.930   8.875  69.678  1.00  0.00     0.000 HD 
HETATM   18  C   UNL     1      -9.409   8.409  71.493  1.00  0.00    -0.263 A  
HETATM   19  C   UNL     1     -11.351  10.238  68.428  1.00  0.00    -0.244 A  
HETATM   20  C   UNL     1      -9.813   8.094  72.793  1.00  0.00    -0.353 A  
HETATM   21  C   UNL     1     -11.664  11.556  68.083  1.00  0.00    -0.357 A  
HETATM   22  C   UNL     1     -10.646  12.487  67.875  1.00  0.00    -0.233 A  
HETATM   23  C   UNL     1     -10.992   7.394  73.004  1.00  0.00    -0.422 A  
HETATM   24  C   UNL     1     -11.778   7.028  71.914  1.00  0.00    -0.333 A  
HETATM   25  C   UNL     1      -9.320  12.100  68.009  1.00  0.00    -0.197 A  
HETATM   26  C   UNL     1      -9.007  10.782  68.353  1.00  0.00    -0.153 A  
HETATM   27  C   UNL     1     -11.374   7.338  70.607  1.00  0.00    -0.311 A  
ENDBRANCH  10  11
ENDBRANCH   7  10
TORSDOF 2
ENDMDL
MODEL      104
REMARK 921   NORMALIZED FREE ENERGY PREDICTED BY IDOCK:   -4.22 KCAL/MOL
REMARK 922        TOTAL FREE ENERGY PREDICTED BY IDOCK:   -5.79 KCAL/MOL
REMARK 923 INTER-LIGAND FREE ENERGY PREDICTED BY IDOCK:   -6.48 KCAL/MOL
REMARK 924 INTRA-LIGAND FREE ENERGY PREDICTED BY IDOCK:    0.69 KCAL/MOL
REMARK 927      BINDING AFFINITY PREDICTED BY RF-SCORE:    0.00 PKD
ROOT
HETATM    1  C   UNL     1      -8.376  16.225  66.311  1.00  0.00    -0.308 C  
HETATM    2  N   UNL     1      -9.440  15.229  66.749  1.00  0.00    -0.232 N  
HETATM    3  C   UNL     1     -10.688  15.973  67.235  1.00  0.00    -0.295 C  
HETATM    4  C   UNL     1     -11.724  14.943  67.692  1.00  0.00    -0.329 C  
HETATM    5  C   UNL     1     -11.218  13.504  67.480  1.00  0.00    -0.307 C  
HETATM    6  C   UNL     1     -10.886  13.335  65.993  1.00  0.00    -0.284 C  
HETATM    7  C   UNL     1      -9.932  13.294  68.311  1.00  0.00    -0.236 C  
HETATM    8  C   UNL     1      -9.825  14.344  65.554  1.00  0.00    -0.266 C  
HETATM    9  C   UNL     1      -8.882  14.357  67.909  1.00  0.00    -0.179 C  
ENDROOT
BRANCH   7  10
HETATM   10  O   UNL     1      -9.571  11.882  68.319  1.00  0.00    -0.192 OA 
BRANCH  10  11
HETATM   11  C   UNL     1     -10.199  10.880  67.621  1.00  0.00    -0.183 C  
HETATM   12  O   UNL     1     -11.418  10.747  67.608  1.00  0.00    -0.477 OA 
HETATM   13  C   UNL     1      -9.124   9.972  66.890  1.00  0.00    -0.139 C  
HETATM   14  C   UNL     1      -9.038  10.202  65.367  1.00  0.00    -0.227 A  
HETATM   15  C   UNL     1      -9.352   8.489  67.236  1.00  0.00    -0.184 A  
HETATM   16  O   UNL     1      -7.830  10.346  67.422  1.00  0.00    -0.102 OA 
HETATM   17  H   UNL     1      -7.185   9.802  66.983  1.00  0.00     0.000 HD 
HETATM   18  C   UNL     1      -7.824   9.938  64.687  1.00  0.00    -0.142 A  
HETATM   19  C   UNL     1     -10.530   7.821  66.856  1.00  0.00    -0.388 A  
HETATM   20  C   UNL     1      -7.693  10.144  63.311  1.00  0.00    -0.151 A  
HETATM   21  C   UNL     1     -10.729   6.473  67.171  1.00  0.00    -0.438 A  
HETATM   22  C   UNL     1      -9.750   5.763  67.866  1.00  0.00    -0.134 A  
HETATM   23  C   UNL     1      -8.775  10.597  62.570  1.00  0.00    -0.294 A  
HETATM   24  C   UNL     1      -9.995  10.822  63.204  1.00  0.00    -0.341 A  
HETATM   25  C   UNL     1      -8.577   6.399  68.247  1.00  0.00    -0.114 A  
HETATM   26  C   UNL     1      -8.378   7.746  67.934  1.00  0.00    -0.123 A  
HETATM   27  C   UNL     1     -10.130  10.620  64.586  1.00  0.00    -0.417 A  
ENDBRANCH  10  11
ENDBRANCH   7  10
TORSDOF 2
ENDMDL
MODEL      105
REMARK 921   NORMALIZED FREE ENERGY PREDICTED BY IDOCK:   -4.21 KCAL/MOL
REMARK 922        TOTAL FREE ENERGY PREDICTED BY IDOCK:   -5.78 KCAL/MOL
REMARK 923 INTER-LIGAND FREE ENERGY PREDICTED BY IDOCK:   -5.14 KCAL/MOL
REMARK 924 INTRA-LIGAND FREE ENERGY PREDICTED BY IDOCK:   -0.65 KCAL/MOL
REMARK 927      BINDING AFFINITY PREDICTED BY RF-SCORE:    0.00 PKD
ROOT
HETATM    1  C   UNL     1      -9.498   3.468  68.932  1.00  0.00    -0.140 C  
HETATM    2  N   UNL     1      -8.817   4.263  67.829  1.00  0.00    -0.106 N  
HETATM    3  C   UNL     1      -7.588   3.505  67.316  1.00  0.00    -0.078 C  
HETATM    4  C   UNL     1      -6.914   4.346  66.228  1.00  0.00    -0.066 C  
HETATM    5  C   UNL     1      -7.693   5.647  65.959  1.00  0.00    -0.095 C  
HETATM    6  C   UNL     1      -9.123   5.265  65.558  1.00  0.00    -0.145 C  
HETATM    7  C   UNL     1      -7.739   6.486  67.256  1.00  0.00    -0.101 C  
HETATM    8  C   UNL     1      -9.800   4.456  66.665  1.00  0.00    -0.226 C  
HETATM    9  C   UNL     1      -8.368   5.642  68.391  1.00  0.00    -0.106 C  
ENDROOT
BRANCH   7  10
HETATM   10  O   UNL     1      -8.257   7.817  66.967  1.00  0.00    -0.114 OA 
BRANCH  10  11
HETATM   11  C   UNL     1      -9.461   8.328  67.386  1.00  0.00    -0.151 C  
HETATM   12  O   UNL     1     -10.521   8.061  66.831  1.00  0.00    -0.330 OA 
HETATM   13  C   UNL     1      -9.240   9.280  68.636  1.00  0.00    -0.135 C  
HETATM   14  C   UNL     1      -9.679   8.664  69.980  1.00  0.00    -0.176 A  
HETATM   15  C   UNL     1      -9.898  10.650  68.387  1.00  0.00    -0.170 A  
HETATM   16  O   UNL     1      -7.813   9.500  68.747  1.00  0.00    -0.082 OA 
HETATM   17  H   UNL     1      -7.681  10.070  69.496  1.00  0.00     0.000 HD 
HETATM   18  C   UNL     1      -9.061   9.092  71.180  1.00  0.00    -0.316 A  
HETATM   19  C   UNL     1     -11.290  10.776  68.230  1.00  0.00    -0.376 A  
HETATM   20  C   UNL     1      -9.415   8.554  72.421  1.00  0.00    -0.350 A  
HETATM   21  C   UNL     1     -11.881  12.023  68.007  1.00  0.00    -0.338 A  
HETATM   22  C   UNL     1     -11.093  13.173  67.944  1.00  0.00    -0.288 A  
HETATM   23  C   UNL     1     -10.412   7.593  72.502  1.00  0.00    -0.323 A  
HETATM   24  C   UNL     1     -11.070   7.185  71.344  1.00  0.00    -0.267 A  
HETATM   25  C   UNL     1      -9.718  13.074  68.101  1.00  0.00    -0.228 A  
HETATM   26  C   UNL     1      -9.126  11.828  68.323  1.00  0.00    -0.187 A  
HETATM   27  C   UNL     1     -10.714   7.720  70.096  1.00  0.00    -0.242 A  
ENDBRANCH  10  11
ENDBRANCH   7  10
TORSDOF 2
ENDMDL
MODEL      106
REMARK 921   NORMALIZED FREE ENERGY PREDICTED BY IDOCK:   -4.15 KCAL/MOL
REMARK 922        TOTAL FREE ENERGY PREDICTED BY IDOCK:   -5.71 KCAL/MOL
REMARK 923 INTER-LIGAND FREE ENERGY PREDICTED BY IDOCK:   -6.13 KCAL/MOL
REMARK 924 INTRA-LIGAND FREE ENERGY PREDICTED BY IDOCK:    0.42 KCAL/MOL
REMARK 927      BINDING AFFINITY PREDICTED BY RF-SCORE:    0.00 PKD
ROOT
HETATM    1  C   UNL     1     -10.037  19.601  68.577  1.00  0.00    -0.453 C  
HETATM    2  N   UNL     1      -9.064  18.850  67.681  1.00  0.00    -0.281 N  
HETATM    3  C   UNL     1      -8.244  19.840  66.847  1.00  0.00    -0.307 C  
HETATM    4  C   UNL     1      -7.297  19.050  65.941  1.00  0.00    -0.268 C  
HETATM    5  C   UNL     1      -7.425  17.533  66.179  1.00  0.00    -0.334 C  
HETATM    6  C   UNL     1      -7.132  17.262  67.659  1.00  0.00    -0.179 C  
HETATM    7  C   UNL     1      -8.872  17.093  65.862  1.00  0.00     0.027 C  
HETATM    8  C   UNL     1      -8.105  18.027  68.556  1.00  0.00    -0.298 C  
HETATM    9  C   UNL     1      -9.859  17.914  66.726  1.00  0.00    -0.333 C  
ENDROOT
BRANCH   7  10
HETATM   10  O   UNL     1      -8.956  15.638  65.847  1.00  0.00    -0.320 OA 
BRANCH  10  11
HETATM   11  C   UNL     1      -8.752  14.802  66.917  1.00  0.00    -0.236 C  
HETATM   12  O   UNL     1      -7.643  14.605  67.399  1.00  0.00    -0.182 OA 
HETATM   13  C   UNL     1     -10.130  14.166  67.378  1.00  0.00    -0.240 C  
HETATM   14  C   UNL     1     -10.695  14.767  68.681  1.00  0.00    -0.253 A  
HETATM   15  C   UNL     1     -10.013  12.633  67.454  1.00  0.00    -0.204 A  
HETATM   16  O   UNL     1     -11.099  14.475  66.346  1.00  0.00    -0.318 OA 
HETATM   17  H   UNL     1     -11.925  14.094  66.623  1.00  0.00     0.000 HD 
HETATM   18  C   UNL     1     -12.092  14.750  68.912  1.00  0.00    -0.240 A  
HETATM   19  C   UNL     1      -9.142  12.009  68.366  1.00  0.00    -0.158 A  
HETATM   20  C   UNL     1     -12.652  15.294  70.071  1.00  0.00    -0.277 A  
HETATM   21  C   UNL     1      -9.043  10.617  68.432  1.00  0.00    -0.156 A  
HETATM   22  C   UNL     1      -9.818   9.817  67.592  1.00  0.00    -0.202 A  
HETATM   23  C   UNL     1     -11.833  15.850  71.044  1.00  0.00    -0.468 A  
HETATM   24  C   UNL     1     -10.451  15.840  70.866  1.00  0.00     0.290 A  
HETATM   25  C   UNL     1     -10.688  10.409  66.688  1.00  0.00    -0.198 A  
HETATM   26  C   UNL     1     -10.787  11.801  66.620  1.00  0.00    -0.318 A  
HETATM   27  C   UNL     1      -9.886  15.298  69.701  1.00  0.00    -0.224 A  
ENDBRANCH  10  11
ENDBRANCH   7  10
TORSDOF 2
ENDMDL
MODEL      107
REMARK 921   NORMALIZED FREE ENERGY PREDICTED BY IDOCK:   -4.13 KCAL/MOL
REMARK 922        TOTAL FREE ENERGY PREDICTED BY IDOCK:   -5.69 KCAL/MOL
REMARK 923 INTER-LIGAND FREE ENERGY PREDICTED BY IDOCK:   -5.51 KCAL/MOL
REMARK 924 INTRA-LIGAND FREE ENERGY PREDICTED BY IDOCK:   -0.18 KCAL/MOL
REMARK 927      BINDING AFFINITY PREDICTED BY RF-SCORE:    0.00 PKD
ROOT
HETATM    1  C   UNL     1      -7.050  18.277  68.818  1.00  0.00    -0.280 C  
HETATM    2  N   UNL     1      -8.438  18.244  68.197  1.00  0.00    -0.270 N  
HETATM    3  C   UNL     1      -9.205  19.522  68.553  1.00  0.00    -0.356 C  
HETATM    4  C   UNL     1     -10.604  19.442  67.935  1.00  0.00    -0.501 C  
HETATM    5  C   UNL     1     -10.785  18.146  67.121  1.00  0.00    -0.309 C  
HETATM    6  C   UNL     1      -9.699  18.112  66.041  1.00  0.00    -0.115 C  
HETATM    7  C   UNL     1     -10.604  16.932  68.059  1.00  0.00    -0.367 C  
HETATM    8  C   UNL     1      -8.306  18.156  66.668  1.00  0.00    -0.263 C  
HETATM    9  C   UNL     1      -9.217  17.013  68.742  1.00  0.00    -0.252 C  
ENDROOT
BRANCH   7  10
HETATM   10  O   UNL     1     -11.005  15.710  67.373  1.00  0.00    -0.314 OA 
BRANCH  10  11
HETATM   11  C   UNL     1     -10.172  14.832  66.725  1.00  0.00    -0.266 C  
HETATM   12  O   UNL     1      -9.913  14.927  65.530  1.00  0.00    -0.341 OA 
HETATM   13  C   UNL     1      -9.649  13.731  67.740  1.00  0.00    -0.219 C  
HETATM   14  C   UNL     1      -8.181  13.922  68.171  1.00  0.00    -0.158 A  
HETATM   15  C   UNL     1      -9.907  12.321  67.179  1.00  0.00    -0.207 A  
HETATM   16  O   UNL     1     -10.438  13.867  68.947  1.00  0.00    -0.274 OA 
HETATM   17  H   UNL     1     -10.124  13.208  69.555  1.00  0.00     0.000 HD 
HETATM   18  C   UNL     1      -7.751  13.429  69.427  1.00  0.00     0.527 A  
HETATM   19  C   UNL     1      -9.283  11.877  65.999  1.00  0.00    -0.176 A  
HETATM   20  C   UNL     1      -6.434  13.589  69.868  1.00  0.00    -0.013 A  
HETATM   21  C   UNL     1      -9.519  10.594  65.496  1.00  0.00    -0.261 A  
HETATM   22  C   UNL     1     -10.379   9.724  66.168  1.00  0.00    -0.215 A  
HETATM   23  C   UNL     1      -5.503  14.223  69.058  1.00  0.00    -0.084 A  
HETATM   24  C   UNL     1      -5.885  14.679  67.798  1.00  0.00    -0.099 A  
HETATM   25  C   UNL     1     -11.002  10.138  67.337  1.00  0.00    -0.295 A  
HETATM   26  C   UNL     1     -10.767  11.420  67.839  1.00  0.00    -0.242 A  
HETATM   27  C   UNL     1      -7.207  14.523  67.354  1.00  0.00    -0.165 A  
ENDBRANCH  10  11
ENDBRANCH   7  10
TORSDOF 2
ENDMDL
MODEL      108
REMARK 921   NORMALIZED FREE ENERGY PREDICTED BY IDOCK:   -4.13 KCAL/MOL
REMARK 922        TOTAL FREE ENERGY PREDICTED BY IDOCK:   -5.69 KCAL/MOL
REMARK 923 INTER-LIGAND FREE ENERGY PREDICTED BY IDOCK:   -5.23 KCAL/MOL
REMARK 924 INTRA-LIGAND FREE ENERGY PREDICTED BY IDOCK:   -0.46 KCAL/MOL
REMARK 927      BINDING AFFINITY PREDICTED BY RF-SCORE:    0.00 PKD
ROOT
HETATM    1  C   UNL     1     -11.151  15.803  66.711  1.00  0.00    -0.116 C  
HETATM    2  N   UNL     1     -11.364  14.524  65.915  1.00  0.00    -0.338 N  
HETATM    3  C   UNL     1     -12.653  14.624  65.093  1.00  0.00    -0.139 C  
HETATM    4  C   UNL     1     -12.848  13.312  64.328  1.00  0.00    -0.013 C  
HETATM    5  C   UNL     1     -11.684  12.335  64.582  1.00  0.00    -0.420 C  
HETATM    6  C   UNL     1     -10.384  13.032  64.164  1.00  0.00    -0.345 C  
HETATM    7  C   UNL     1     -11.620  12.007  66.091  1.00  0.00    -0.304 C  
HETATM    8  C   UNL     1     -10.180  14.322  64.958  1.00  0.00    -0.372 C  
HETATM    9  C   UNL     1     -11.476  13.321  66.895  1.00  0.00    -0.338 C  
ENDROOT
BRANCH   7  10
HETATM   10  O   UNL     1     -10.690  10.909  66.321  1.00  0.00    -0.243 OA 
BRANCH  10  11
HETATM   11  C   UNL     1     -10.711  10.037  67.382  1.00  0.00    -0.274 C  
HETATM   12  O   UNL     1     -11.626  10.010  68.198  1.00  0.00    -0.144 OA 
HETATM   13  C   UNL     1      -9.408   9.133  67.367  1.00  0.00    -0.134 C  
HETATM   14  C   UNL     1      -9.653   7.684  66.902  1.00  0.00    -0.249 A  
HETATM   15  C   UNL     1      -8.703   9.189  68.734  1.00  0.00    -0.132 A  
HETATM   16  O   UNL     1      -8.507   9.715  66.393  1.00  0.00    -0.121 OA 
HETATM   17  H   UNL     1      -7.726   9.174  66.383  1.00  0.00     0.000 HD 
HETATM   18  C   UNL     1      -8.599   6.954  66.301  1.00  0.00    -0.138 A  
HETATM   19  C   UNL     1      -9.322   8.699  69.898  1.00  0.00    -0.160 A  
HETATM   20  C   UNL     1      -8.777   5.642  65.851  1.00  0.00    -0.147 A  
HETATM   21  C   UNL     1      -8.675   8.749  71.136  1.00  0.00    -0.265 A  
HETATM   22  C   UNL     1      -7.391   9.285  71.236  1.00  0.00    -0.000 A  
HETATM   23  C   UNL     1     -10.003   5.013  66.011  1.00  0.00    -0.220 A  
HETATM   24  C   UNL     1     -11.045   5.690  66.640  1.00  0.00    -0.013 A  
HETATM   25  C   UNL     1      -6.757   9.770  70.101  1.00  0.00    -0.100 A  
HETATM   26  C   UNL     1      -7.403   9.721  68.863  1.00  0.00    -0.073 A  
HETATM   27  C   UNL     1     -10.872   7.008  67.089  1.00  0.00    -0.427 A  
ENDBRANCH  10  11
ENDBRANCH   7  10
TORSDOF 2
ENDMDL
MODEL      109
REMARK 921   NORMALIZED FREE ENERGY PREDICTED BY IDOCK:   -4.10 KCAL/MOL
REMARK 922        TOTAL FREE ENERGY PREDICTED BY IDOCK:   -5.67 KCAL/MOL
REMARK 923 INTER-LIGAND FREE ENERGY PREDICTED BY IDOCK:   -5.69 KCAL/MOL
REMARK 924 INTRA-LIGAND FREE ENERGY PREDICTED BY IDOCK:    0.02 KCAL/MOL
REMARK 927      BINDING AFFINITY PREDICTED BY RF-SCORE:    0.00 PKD
ROOT
HETATM    1  C   UNL     1      -9.314   5.346  70.366  1.00  0.00    -0.159 C  
HETATM    2  N   UNL     1      -9.636   6.783  70.746  1.00  0.00    -0.169 N  
HETATM    3  C   UNL     1     -10.355   6.822  72.099  1.00  0.00    -0.200 C  
HETATM    4  C   UNL     1     -10.687   8.278  72.435  1.00  0.00    -0.411 C  
HETATM    5  C   UNL     1     -10.162   9.239  71.352  1.00  0.00    -0.371 C  
HETATM    6  C   UNL     1      -8.648   9.029  71.229  1.00  0.00    -0.221 C  
HETATM    7  C   UNL     1     -10.830   8.893  70.002  1.00  0.00    -0.227 C  
HETATM    8  C   UNL     1      -8.328   7.581  70.858  1.00  0.00    -0.114 C  
HETATM    9  C   UNL     1     -10.558   7.408  69.660  1.00  0.00    -0.236 C  
ENDROOT
BRANCH   7  10
HETATM   10  O   UNL     1     -10.537   9.930  69.022  1.00  0.00    -0.203 OA 
BRANCH  10  11
HETATM   11  C   UNL     1      -9.452   9.968  68.181  1.00  0.00    -0.138 C  
HETATM   12  O   UNL     1      -8.770   8.979  67.936  1.00  0.00    -0.128 OA 
HETATM   13  C   UNL     1      -9.246  11.440  67.627  1.00  0.00    -0.158 C  
HETATM   14  C   UNL     1      -9.676  11.625  66.158  1.00  0.00    -0.253 A  
HETATM   15  C   UNL     1      -7.798  11.904  67.867  1.00  0.00    -0.138 A  
HETATM   16  O   UNL     1     -10.110  12.304  68.405  1.00  0.00    -0.214 OA 
HETATM   17  H   UNL     1      -9.988  13.186  68.074  1.00  0.00     0.000 HD 
HETATM   18  C   UNL     1     -10.093  12.901  65.706  1.00  0.00    -0.294 A  
HETATM   19  C   UNL     1      -6.711  11.260  67.249  1.00  0.00    -0.104 A  
HETATM   20  C   UNL     1     -10.504  13.115  64.387  1.00  0.00    -0.427 A  
HETATM   21  C   UNL     1      -5.398  11.688  67.468  1.00  0.00    -0.068 A  
HETATM   22  C   UNL     1      -5.145  12.775  68.305  1.00  0.00    -0.069 A  
HETATM   23  C   UNL     1     -10.488  12.069  63.476  1.00  0.00    -0.505 A  
HETATM   24  C   UNL     1     -10.040  10.813  63.880  1.00  0.00    -0.397 A  
HETATM   25  C   UNL     1      -6.201  13.430  68.922  1.00  0.00    -0.090 A  
HETATM   26  C   UNL     1      -7.513  13.002  68.704  1.00  0.00    -0.093 A  
HETATM   27  C   UNL     1      -9.631  10.593  65.204  1.00  0.00    -0.304 A  
ENDBRANCH  10  11
ENDBRANCH   7  10
TORSDOF 2
ENDMDL
MODEL      110
REMARK 921   NORMALIZED FREE ENERGY PREDICTED BY IDOCK:   -4.08 KCAL/MOL
REMARK 922        TOTAL FREE ENERGY PREDICTED BY IDOCK:   -5.64 KCAL/MOL
REMARK 923 INTER-LIGAND FREE ENERGY PREDICTED BY IDOCK:   -5.17 KCAL/MOL
REMARK 924 INTRA-LIGAND FREE ENERGY PREDICTED BY IDOCK:   -0.47 KCAL/MOL
REMARK 927      BINDING AFFINITY PREDICTED BY RF-SCORE:    0.00 PKD
ROOT
HETATM    1  C   UNL     1     -12.620  12.491  64.857  1.00  0.00    -0.390 C  
HETATM    2  N   UNL     1     -11.341  12.562  65.678  1.00  0.00    -0.320 N  
HETATM    3  C   UNL     1     -10.817  14.001  65.714  1.00  0.00    -0.291 C  
HETATM    4  C   UNL     1      -9.519  14.030  66.524  1.00  0.00    -0.295 C  
HETATM    5  C   UNL     1      -9.174  12.636  67.083  1.00  0.00    -0.214 C  
HETATM    6  C   UNL     1     -10.354  12.168  67.942  1.00  0.00    -0.216 C  
HETATM    7  C   UNL     1      -8.985  11.653  65.906  1.00  0.00    -0.108 C  
HETATM    8  C   UNL     1     -11.639  12.108  67.116  1.00  0.00    -0.335 C  
HETATM    9  C   UNL     1     -10.264  11.643  65.035  1.00  0.00    -0.275 C  
ENDROOT
BRANCH   7  10
HETATM   10  O   UNL     1      -8.426  10.398  66.392  1.00  0.00    -0.131 OA 
BRANCH  10  11
HETATM   11  C   UNL     1      -9.138   9.312  66.840  1.00  0.00    -0.131 C  
HETATM   12  O   UNL     1     -10.164   8.923  66.293  1.00  0.00    -0.284 OA 
HETATM   13  C   UNL     1      -8.440   8.699  68.126  1.00  0.00    -0.131 C  
HETATM   14  C   UNL     1      -7.686   7.380  67.863  1.00  0.00    -0.116 A  
HETATM   15  C   UNL     1      -9.458   8.563  69.273  1.00  0.00    -0.158 A  
HETATM   16  O   UNL     1      -7.436   9.653  68.551  1.00  0.00    -0.078 OA 
HETATM   17  H   UNL     1      -7.017   9.286  69.321  1.00  0.00     0.000 HD 
HETATM   18  C   UNL     1      -6.591   7.024  68.687  1.00  0.00    -0.054 A  
HETATM   19  C   UNL     1     -10.568   7.705  69.169  1.00  0.00    -0.195 A  
HETATM   20  C   UNL     1      -5.869   5.846  68.479  1.00  0.00    -0.016 A  
HETATM   21  C   UNL     1     -11.487   7.583  70.215  1.00  0.00    -0.173 A  
HETATM   22  C   UNL     1     -11.311   8.311  71.392  1.00  0.00    -0.309 A  
HETATM   23  C   UNL     1      -6.232   4.978  67.460  1.00  0.00    -0.039 A  
HETATM   24  C   UNL     1      -7.333   5.279  66.661  1.00  0.00    -0.086 A  
HETATM   25  C   UNL     1     -10.221   9.160  71.521  1.00  0.00    -0.403 A  
HETATM   26  C   UNL     1      -9.303   9.283  70.474  1.00  0.00    -0.316 A  
HETATM   27  C   UNL     1      -8.058   6.463  66.864  1.00  0.00    -0.109 A  
ENDBRANCH  10  11
ENDBRANCH   7  10
TORSDOF 2
ENDMDL
MODEL      111
REMARK 921   NORMALIZED FREE ENERGY PREDICTED BY IDOCK:   -4.08 KCAL/MOL
REMARK 922        TOTAL FREE ENERGY PREDICTED BY IDOCK:   -5.64 KCAL/MOL
REMARK 923 INTER-LIGAND FREE ENERGY PREDICTED BY IDOCK:   -4.93 KCAL/MOL
REMARK 924 INTRA-LIGAND FREE ENERGY PREDICTED BY IDOCK:   -0.71 KCAL/MOL
REMARK 927      BINDING AFFINITY PREDICTED BY RF-SCORE:    0.00 PKD
ROOT
HETATM    1  C   UNL     1     -11.053  15.182  67.479  1.00  0.00    -0.319 C  
HETATM    2  N   UNL     1     -10.749  13.704  67.279  1.00  0.00    -0.277 N  
HETATM    3  C   UNL     1     -11.744  13.092  66.288  1.00  0.00    -0.387 C  
HETATM    4  C   UNL     1     -11.425  11.603  66.132  1.00  0.00    -0.198 C  
HETATM    5  C   UNL     1     -10.196  11.200  66.969  1.00  0.00    -0.251 C  
HETATM    6  C   UNL     1      -9.015  12.069  66.521  1.00  0.00    -0.193 C  
HETATM    7  C   UNL     1     -10.489  11.476  68.461  1.00  0.00    -0.208 C  
HETATM    8  C   UNL     1      -9.329  13.553  66.713  1.00  0.00    -0.257 C  
HETATM    9  C   UNL     1     -10.867  12.965  68.643  1.00  0.00    -0.258 C  
ENDROOT
BRANCH   7  10
HETATM   10  O   UNL     1      -9.445  10.885  69.289  1.00  0.00    -0.148 OA 
BRANCH  10  11
HETATM   11  C   UNL     1      -9.494   9.657  69.902  1.00  0.00    -0.231 C  
HETATM   12  O   UNL     1     -10.228   9.422  70.855  1.00  0.00    -0.273 OA 
HETATM   13  C   UNL     1      -8.476   8.662  69.203  1.00  0.00    -0.124 C  
HETATM   14  C   UNL     1      -9.148   7.606  68.302  1.00  0.00    -0.136 A  
HETATM   15  C   UNL     1      -7.550   8.019  70.252  1.00  0.00    -0.081 A  
HETATM   16  O   UNL     1      -7.646   9.461  68.325  1.00  0.00    -0.082 OA 
HETATM   17  H   UNL     1      -7.036   8.865  67.906  1.00  0.00     0.000 HD 
HETATM   18  C   UNL     1      -8.429   7.054  67.214  1.00  0.00    -0.121 A  
HETATM   19  C   UNL     1      -8.057   7.178  71.258  1.00  0.00    -0.107 A  
HETATM   20  C   UNL     1      -9.000   6.104  66.362  1.00  0.00    -0.156 A  
HETATM   21  C   UNL     1      -7.210   6.595  72.206  1.00  0.00    -0.084 A  
HETATM   22  C   UNL     1      -5.837   6.835  72.162  1.00  0.00    -0.038 A  
HETATM   23  C   UNL     1     -10.296   5.661  66.585  1.00  0.00    -0.311 A  
HETATM   24  C   UNL     1     -11.012   6.152  67.674  1.00  0.00    -0.400 A  
HETATM   25  C   UNL     1      -5.312   7.657  71.175  1.00  0.00    -0.027 A  
HETATM   26  C   UNL     1      -6.158   8.241  70.228  1.00  0.00    -0.031 A  
HETATM   27  C   UNL     1     -10.444   7.108  68.529  1.00  0.00    -0.229 A  
ENDBRANCH  10  11
ENDBRANCH   7  10
TORSDOF 2
ENDMDL
MODEL      112
REMARK 921   NORMALIZED FREE ENERGY PREDICTED BY IDOCK:   -4.08 KCAL/MOL
REMARK 922        TOTAL FREE ENERGY PREDICTED BY IDOCK:   -5.64 KCAL/MOL
REMARK 923 INTER-LIGAND FREE ENERGY PREDICTED BY IDOCK:   -5.18 KCAL/MOL
REMARK 924 INTRA-LIGAND FREE ENERGY PREDICTED BY IDOCK:   -0.46 KCAL/MOL
REMARK 927      BINDING AFFINITY PREDICTED BY RF-SCORE:    0.00 PKD
ROOT
HETATM    1  C   UNL     1      -5.672  17.926  69.588  1.00  0.00    -0.233 C  
HETATM    2  N   UNL     1      -6.791  17.284  68.782  1.00  0.00    -0.208 N  
HETATM    3  C   UNL     1      -7.970  18.255  68.652  1.00  0.00    -0.289 C  
HETATM    4  C   UNL     1      -9.085  17.568  67.859  1.00  0.00    -0.261 C  
HETATM    5  C   UNL     1      -8.665  16.157  67.406  1.00  0.00    -0.194 C  
HETATM    6  C   UNL     1      -7.390  16.292  66.566  1.00  0.00    -0.118 C  
HETATM    7  C   UNL     1      -8.360  15.296  68.652  1.00  0.00    -0.162 C  
HETATM    8  C   UNL     1      -6.271  16.947  67.376  1.00  0.00    -0.158 C  
HETATM    9  C   UNL     1      -7.272  15.993  69.504  1.00  0.00    -0.162 C  
ENDROOT
BRANCH   7  10
HETATM   10  O   UNL     1      -8.196  13.901  68.264  1.00  0.00    -0.144 OA 
BRANCH  10  11
HETATM   11  C   UNL     1      -9.201  12.977  68.114  1.00  0.00    -0.212 C  
HETATM   12  O   UNL     1     -10.388  13.277  68.166  1.00  0.00    -0.231 OA 
HETATM   13  C   UNL     1      -8.581  11.534  67.889  1.00  0.00    -0.143 C  
HETATM   14  C   UNL     1      -8.673  11.030  66.435  1.00  0.00    -0.174 A  
HETATM   15  C   UNL     1      -9.187  10.530  68.887  1.00  0.00    -0.188 A  
HETATM   16  O   UNL     1      -7.167  11.636  68.185  1.00  0.00    -0.076 OA 
HETATM   17  H   UNL     1      -6.795  10.772  68.050  1.00  0.00     0.000 HD 
HETATM   18  C   UNL     1      -7.721  10.098  65.956  1.00  0.00    -0.120 A  
HETATM   19  C   UNL     1     -10.557  10.211  68.864  1.00  0.00    -0.237 A  
HETATM   20  C   UNL     1      -7.756   9.622  64.642  1.00  0.00    -0.130 A  
HETATM   21  C   UNL     1     -11.100   9.296  69.770  1.00  0.00    -0.168 A  
HETATM   22  C   UNL     1     -10.284   8.675  70.716  1.00  0.00    -0.250 A  
HETATM   23  C   UNL     1      -8.755  10.044  63.776  1.00  0.00    -0.228 A  
HETATM   24  C   UNL     1      -9.732  10.925  64.233  1.00  0.00    -0.347 A  
HETATM   25  C   UNL     1      -8.929   8.970  70.755  1.00  0.00    -0.286 A  
HETATM   26  C   UNL     1      -8.384   9.885  69.850  1.00  0.00    -0.200 A  
HETATM   27  C   UNL     1      -9.699  11.408  65.550  1.00  0.00    -0.263 A  
ENDBRANCH  10  11
ENDBRANCH   7  10
TORSDOF 2
ENDMDL
MODEL      113
REMARK 921   NORMALIZED FREE ENERGY PREDICTED BY IDOCK:   -4.05 KCAL/MOL
REMARK 922        TOTAL FREE ENERGY PREDICTED BY IDOCK:   -5.60 KCAL/MOL
REMARK 923 INTER-LIGAND FREE ENERGY PREDICTED BY IDOCK:   -5.69 KCAL/MOL
REMARK 924 INTRA-LIGAND FREE ENERGY PREDICTED BY IDOCK:    0.09 KCAL/MOL
REMARK 927      BINDING AFFINITY PREDICTED BY RF-SCORE:    0.00 PKD
ROOT
HETATM    1  C   UNL     1     -11.727  15.088  65.467  1.00  0.00    -0.145 C  
HETATM    2  N   UNL     1     -11.485  13.722  64.842  1.00  0.00    -0.330 N  
HETATM    3  C   UNL     1     -12.290  13.586  63.545  1.00  0.00    -0.274 C  
HETATM    4  C   UNL     1     -12.043  12.194  62.960  1.00  0.00    -0.126 C  
HETATM    5  C   UNL     1     -11.043  11.393  63.815  1.00  0.00    -0.417 C  
HETATM    6  C   UNL     1      -9.742  12.199  63.896  1.00  0.00    -0.143 C  
HETATM    7  C   UNL     1     -11.620  11.221  65.238  1.00  0.00     0.322 C  
HETATM    8  C   UNL     1      -9.991  13.575  64.515  1.00  0.00     0.016 C  
HETATM    9  C   UNL     1     -11.931  12.614  65.838  1.00  0.00    -0.438 C  
ENDROOT
BRANCH   7  10
HETATM   10  O   UNL     1     -10.812  10.270  65.991  1.00  0.00    -0.011 OA 
BRANCH  10  11
HETATM   11  C   UNL     1      -9.885  10.578  66.956  1.00  0.00    -0.183 C  
HETATM   12  O   UNL     1      -8.681  10.621  66.728  1.00  0.00    -0.128 OA 
HETATM   13  C   UNL     1     -10.613  10.840  68.341  1.00  0.00    -0.197 C  
HETATM   14  C   UNL     1     -10.686  12.328  68.741  1.00  0.00    -0.247 A  
HETATM   15  C   UNL     1      -9.982   9.976  69.448  1.00  0.00    -0.239 A  
HETATM   16  O   UNL     1     -11.985  10.404  68.182  1.00  0.00    -0.756 OA 
HETATM   17  H   UNL     1     -12.421  10.561  69.011  1.00  0.00     0.000 HD 
HETATM   18  C   UNL     1     -11.735  12.776  69.581  1.00  0.00    -0.372 A  
HETATM   19  C   UNL     1      -8.643  10.152  69.842  1.00  0.00    -0.100 A  
HETATM   20  C   UNL     1     -11.851  14.116  69.959  1.00  0.00    -0.388 A  
HETATM   21  C   UNL     1      -8.077   9.366  70.850  1.00  0.00    -0.100 A  
HETATM   22  C   UNL     1      -8.841   8.391  71.492  1.00  0.00    -0.239 A  
HETATM   23  C   UNL     1     -10.911  15.043  69.532  1.00  0.00    -0.281 A  
HETATM   24  C   UNL     1      -9.843  14.623  68.743  1.00  0.00    -0.227 A  
HETATM   25  C   UNL     1     -10.166   8.202  71.125  1.00  0.00    -0.234 A  
HETATM   26  C   UNL     1     -10.732   8.986  70.116  1.00  0.00    -0.258 A  
HETATM   27  C   UNL     1      -9.725  13.280  68.357  1.00  0.00    -0.198 A  
ENDBRANCH  10  11
ENDBRANCH   7  10
TORSDOF 2
ENDMDL
MODEL      114
REMARK 921   NORMALIZED FREE ENERGY PREDICTED BY IDOCK:   -4.04 KCAL/MOL
REMARK 922        TOTAL FREE ENERGY PREDICTED BY IDOCK:   -5.59 KCAL/MOL
REMARK 923 INTER-LIGAND FREE ENERGY PREDICTED BY IDOCK:   -5.40 KCAL/MOL
REMARK 924 INTRA-LIGAND FREE ENERGY PREDICTED BY IDOCK:   -0.19 KCAL/MOL
REMARK 927      BINDING AFFINITY PREDICTED BY RF-SCORE:    0.00 PKD
ROOT
HETATM    1  C   UNL     1     -12.534  15.351  74.195  1.00  0.00    -0.642 C  
HETATM    2  N   UNL     1     -12.749  14.818  72.787  1.00  0.00    -0.383 N  
HETATM    3  C   UNL     1     -13.063  13.319  72.833  1.00  0.00     0.308 C  
HETATM    4  C   UNL     1     -13.246  12.813  71.400  1.00  0.00    -0.240 C  
HETATM    5  C   UNL     1     -13.108  13.957  70.378  1.00  0.00     0.041 C  
HETATM    6  C   UNL     1     -14.149  15.028  70.725  1.00  0.00     0.024 C  
HETATM    7  C   UNL     1     -11.695  14.570  70.494  1.00  0.00    -0.276 C  
HETATM    8  C   UNL     1     -13.936  15.553  72.145  1.00  0.00    -0.524 C  
HETATM    9  C   UNL     1     -11.459  15.043  71.948  1.00  0.00    -0.289 C  
ENDROOT
BRANCH   7  10
HETATM   10  O   UNL     1     -11.458  15.485  69.384  1.00  0.00    -0.290 OA 
BRANCH  10  11
HETATM   11  C   UNL     1     -10.662  16.604  69.411  1.00  0.00    -0.331 C  
HETATM   12  O   UNL     1     -10.687  17.411  70.334  1.00  0.00     0.408 OA 
HETATM   13  C   UNL     1      -9.769  16.666  68.102  1.00  0.00    -0.244 C  
HETATM   14  C   UNL     1      -8.289  16.302  68.333  1.00  0.00    -0.190 A  
HETATM   15  C   UNL     1      -9.926  18.033  67.412  1.00  0.00    -0.328 A  
HETATM   16  O   UNL     1     -10.287  15.663  67.195  1.00  0.00    -0.272 OA 
HETATM   17  H   UNL     1      -9.752  15.699  66.411  1.00  0.00     0.000 HD 
HETATM   18  C   UNL     1      -7.526  15.764  67.269  1.00  0.00    -0.252 A  
HETATM   19  C   UNL     1      -9.514  19.222  68.040  1.00  0.00    -0.400 A  
HETATM   20  C   UNL     1      -6.184  15.407  67.434  1.00  0.00    -0.035 A  
HETATM   21  C   UNL     1      -9.656  20.461  67.407  1.00  0.00    -0.584 A  
HETATM   22  C   UNL     1     -10.206  20.535  66.127  1.00  0.00    -0.098 A  
HETATM   23  C   UNL     1      -5.560  15.598  68.657  1.00  0.00    -0.099 A  
HETATM   24  C   UNL     1      -6.272  16.167  69.711  1.00  0.00    -0.184 A  
HETATM   25  C   UNL     1     -10.615  19.376  65.484  1.00  0.00    -0.236 A  
HETATM   26  C   UNL     1     -10.474  18.137  66.117  1.00  0.00    -0.377 A  
HETATM   27  C   UNL     1      -7.619  16.524  69.550  1.00  0.00     0.088 A  
ENDBRANCH  10  11
ENDBRANCH   7  10
TORSDOF 2
ENDMDL
MODEL      115
REMARK 921   NORMALIZED FREE ENERGY PREDICTED BY IDOCK:   -4.03 KCAL/MOL
REMARK 922        TOTAL FREE ENERGY PREDICTED BY IDOCK:   -5.58 KCAL/MOL
REMARK 923 INTER-LIGAND FREE ENERGY PREDICTED BY IDOCK:   -5.40 KCAL/MOL
REMARK 924 INTRA-LIGAND FREE ENERGY PREDICTED BY IDOCK:   -0.19 KCAL/MOL
REMARK 927      BINDING AFFINITY PREDICTED BY RF-SCORE:    0.00 PKD
ROOT
HETATM    1  C   UNL     1     -10.239   4.637  71.137  1.00  0.00    -0.129 C  
HETATM    2  N   UNL     1     -10.123   6.119  71.465  1.00  0.00    -0.190 N  
HETATM    3  C   UNL     1     -10.840   6.423  72.785  1.00  0.00    -0.248 C  
HETATM    4  C   UNL     1     -10.726   7.923  73.069  1.00  0.00    -0.408 C  
HETATM    5  C   UNL     1      -9.901   8.640  71.983  1.00  0.00    -0.396 C  
HETATM    6  C   UNL     1      -8.518   7.979  71.929  1.00  0.00    -0.176 C  
HETATM    7  C   UNL     1     -10.600   8.460  70.617  1.00  0.00    -0.208 C  
HETATM    8  C   UNL     1      -8.639   6.489  71.610  1.00  0.00    -0.128 C  
HETATM    9  C   UNL     1     -10.778   6.951  70.326  1.00  0.00    -0.242 C  
ENDROOT
BRANCH   7  10
HETATM   10  O   UNL     1      -9.975   9.323  69.622  1.00  0.00    -0.175 OA 
BRANCH  10  11
HETATM   11  C   UNL     1      -8.992   8.960  68.735  1.00  0.00    -0.134 C  
HETATM   12  O   UNL     1      -7.798   9.073  68.989  1.00  0.00    -0.088 OA 
HETATM   13  C   UNL     1      -9.645   8.414  67.397  1.00  0.00    -0.157 C  
HETATM   14  C   UNL     1      -9.564   6.882  67.238  1.00  0.00    -0.173 A  
HETATM   15  C   UNL     1      -9.062   9.151  66.178  1.00  0.00    -0.234 A  
HETATM   16  O   UNL     1     -11.057   8.732  67.460  1.00  0.00    -0.454 OA 
HETATM   17  H   UNL     1     -11.448   8.405  66.658  1.00  0.00     0.000 HD 
HETATM   18  C   UNL     1     -10.538   6.206  66.463  1.00  0.00    -0.214 A  
HETATM   19  C   UNL     1      -7.700   9.047  65.841  1.00  0.00    -0.094 A  
HETATM   20  C   UNL     1     -10.514   4.818  66.301  1.00  0.00    -0.311 A  
HETATM   21  C   UNL     1      -7.177   9.717  64.731  1.00  0.00    -0.119 A  
HETATM   22  C   UNL     1      -8.008  10.499  63.928  1.00  0.00     0.000 A  
HETATM   23  C   UNL     1      -9.506   4.067  66.887  1.00  0.00    -0.220 A  
HETATM   24  C   UNL     1      -8.509   4.709  67.619  1.00  0.00    -0.103 A  
HETATM   25  C   UNL     1      -9.356  10.613  64.236  1.00  0.00    -0.298 A  
HETATM   26  C   UNL     1      -9.879   9.944  65.347  1.00  0.00    -0.384 A  
HETATM   27  C   UNL     1      -8.531   6.101  67.787  1.00  0.00    -0.115 A  
ENDBRANCH  10  11
ENDBRANCH   7  10
TORSDOF 2
ENDMDL
MODEL      116
REMARK 921   NORMALIZED FREE ENERGY PREDICTED BY IDOCK:   -3.98 KCAL/MOL
REMARK 922        TOTAL FREE ENERGY PREDICTED BY IDOCK:   -5.53 KCAL/MOL
REMARK 923 INTER-LIGAND FREE ENERGY PREDICTED BY IDOCK:   -5.00 KCAL/MOL
REMARK 924 INTRA-LIGAND FREE ENERGY PREDICTED BY IDOCK:   -0.53 KCAL/MOL
REMARK 927      BINDING AFFINITY PREDICTED BY RF-SCORE:    0.00 PKD
ROOT
HETATM    1  C   UNL     1     -13.537   7.884  71.727  1.00  0.00    -0.342 C  
HETATM    2  N   UNL     1     -12.025   7.952  71.573  1.00  0.00    -0.292 N  
HETATM    3  C   UNL     1     -11.356   7.977  72.951  1.00  0.00    -0.298 C  
HETATM    4  C   UNL     1      -9.840   8.072  72.757  1.00  0.00    -0.351 C  
HETATM    5  C   UNL     1      -9.463   8.066  71.263  1.00  0.00    -0.190 C  
HETATM    6  C   UNL     1     -10.022   6.781  70.642  1.00  0.00    -0.201 C  
HETATM    7  C   UNL     1     -10.114   9.285  70.573  1.00  0.00    -0.255 C  
HETATM    8  C   UNL     1     -11.540   6.711  70.809  1.00  0.00    -0.376 C  
HETATM    9  C   UNL     1     -11.644   9.246  70.798  1.00  0.00    -0.285 C  
ENDROOT
BRANCH   7  10
HETATM   10  O   UNL     1      -9.581   9.436  69.225  1.00  0.00    -0.161 OA 
BRANCH  10  11
HETATM   11  C   UNL     1      -9.962   8.719  68.117  1.00  0.00    -0.173 C  
HETATM   12  O   UNL     1     -11.133   8.611  67.770  1.00  0.00     0.038 OA 
HETATM   13  C   UNL     1      -8.688   8.084  67.418  1.00  0.00    -0.124 C  
HETATM   14  C   UNL     1      -8.267   8.792  66.114  1.00  0.00    -0.117 A  
HETATM   15  C   UNL     1      -8.888   6.571  67.213  1.00  0.00    -0.112 A  
HETATM   16  O   UNL     1      -7.580   8.252  68.336  1.00  0.00    -0.097 OA 
HETATM   17  H   UNL     1      -6.816   7.872  67.917  1.00  0.00     0.000 HD 
HETATM   18  C   UNL     1      -6.914   8.748  65.698  1.00  0.00    -0.079 A  
HETATM   19  C   UNL     1      -9.899   6.074  66.370  1.00  0.00    -0.155 A  
HETATM   20  C   UNL     1      -6.483   9.386  64.532  1.00  0.00    -0.084 A  
HETATM   21  C   UNL     1     -10.074   4.699  66.186  1.00  0.00    -0.291 A  
HETATM   22  C   UNL     1      -9.237   3.792  66.836  1.00  0.00    -0.198 A  
HETATM   23  C   UNL     1      -7.393  10.065  63.734  1.00  0.00    -0.134 A  
HETATM   24  C   UNL     1      -8.739  10.087  64.093  1.00  0.00    -0.221 A  
HETATM   25  C   UNL     1      -8.229   4.258  67.668  1.00  0.00    -0.098 A  
HETATM   26  C   UNL     1      -8.054   5.632  67.853  1.00  0.00    -0.101 A  
HETATM   27  C   UNL     1      -9.175   9.452  65.266  1.00  0.00    -0.299 A  
ENDBRANCH  10  11
ENDBRANCH   7  10
TORSDOF 2
ENDMDL
MODEL      117
REMARK 921   NORMALIZED FREE ENERGY PREDICTED BY IDOCK:   -3.95 KCAL/MOL
REMARK 922        TOTAL FREE ENERGY PREDICTED BY IDOCK:   -5.50 KCAL/MOL
REMARK 923 INTER-LIGAND FREE ENERGY PREDICTED BY IDOCK:   -5.26 KCAL/MOL
REMARK 924 INTRA-LIGAND FREE ENERGY PREDICTED BY IDOCK:   -0.24 KCAL/MOL
REMARK 927      BINDING AFFINITY PREDICTED BY RF-SCORE:    0.00 PKD
ROOT
HETATM    1  C   UNL     1      -9.482   9.635  65.216  1.00  0.00    -0.275 C  
HETATM    2  N   UNL     1      -9.557  10.450  66.498  1.00  0.00    -0.174 N  
HETATM    3  C   UNL     1      -9.041  11.871  66.251  1.00  0.00    -0.188 C  
HETATM    4  C   UNL     1      -9.106  12.651  67.566  1.00  0.00    -0.192 C  
HETATM    5  C   UNL     1      -9.704  11.795  68.699  1.00  0.00    -0.135 C  
HETATM    6  C   UNL     1     -11.098  11.336  68.257  1.00  0.00    -0.297 C  
HETATM    7  C   UNL     1      -8.810  10.555  68.919  1.00  0.00    -0.165 C  
HETATM    8  C   UNL     1     -11.020  10.528  66.962  1.00  0.00    -0.180 C  
HETATM    9  C   UNL     1      -8.681   9.772  67.590  1.00  0.00    -0.125 C  
ENDROOT
BRANCH   7  10
HETATM   10  O   UNL     1      -9.215   9.860  70.135  1.00  0.00    -0.228 OA 
BRANCH  10  11
HETATM   11  C   UNL     1     -10.180   8.888  70.231  1.00  0.00    -0.201 C  
HETATM   12  O   UNL     1     -11.373   9.149  70.343  1.00  0.00    -0.255 OA 
HETATM   13  C   UNL     1      -9.509   7.452  70.186  1.00  0.00    -0.165 C  
HETATM   14  C   UNL     1      -9.699   6.710  68.847  1.00  0.00    -0.136 A  
HETATM   15  C   UNL     1      -9.975   6.606  71.385  1.00  0.00    -0.198 A  
HETATM   16  O   UNL     1      -8.081   7.653  70.329  1.00  0.00    -0.110 OA 
HETATM   17  H   UNL     1      -7.678   6.793  70.302  1.00  0.00     0.000 HD 
HETATM   18  C   UNL     1      -8.744   5.747  68.439  1.00  0.00    -0.111 A  
HETATM   19  C   UNL     1     -11.323   6.237  71.541  1.00  0.00    -0.352 A  
HETATM   20  C   UNL     1      -8.866   5.059  67.228  1.00  0.00    -0.102 A  
HETATM   21  C   UNL     1     -11.739   5.466  72.630  1.00  0.00    -0.214 A  
HETATM   22  C   UNL     1     -10.814   5.041  73.584  1.00  0.00    -0.369 A  
HETATM   23  C   UNL     1      -9.956   5.294  66.403  1.00  0.00    -0.227 A  
HETATM   24  C   UNL     1     -10.935   6.203  66.799  1.00  0.00    -0.322 A  
HETATM   25  C   UNL     1      -9.478   5.388  73.449  1.00  0.00    -0.137 A  
HETATM   26  C   UNL     1      -9.061   6.159  72.361  1.00  0.00    -0.136 A  
HETATM   27  C   UNL     1     -10.814   6.898  68.011  1.00  0.00    -0.266 A  
ENDBRANCH  10  11
ENDBRANCH   7  10
TORSDOF 2
ENDMDL
MODEL      118
REMARK 921   NORMALIZED FREE ENERGY PREDICTED BY IDOCK:   -3.93 KCAL/MOL
REMARK 922        TOTAL FREE ENERGY PREDICTED BY IDOCK:   -5.48 KCAL/MOL
REMARK 923 INTER-LIGAND FREE ENERGY PREDICTED BY IDOCK:   -5.00 KCAL/MOL
REMARK 924 INTRA-LIGAND FREE ENERGY PREDICTED BY IDOCK:   -0.47 KCAL/MOL
REMARK 927      BINDING AFFINITY PREDICTED BY RF-SCORE:    0.00 PKD
ROOT
HETATM    1  C   UNL     1     -11.034  12.784  67.531  1.00  0.00    -0.249 C  
HETATM    2  N   UNL     1     -10.395  11.445  67.195  1.00  0.00    -0.206 N  
HETATM    3  C   UNL     1     -10.621  11.109  65.717  1.00  0.00    -0.227 C  
HETATM    4  C   UNL     1      -9.990   9.746  65.423  1.00  0.00    -0.302 C  
HETATM    5  C   UNL     1      -9.294   9.168  66.670  1.00  0.00    -0.228 C  
HETATM    6  C   UNL     1      -8.239  10.179  67.133  1.00  0.00    -0.121 C  
HETATM    7  C   UNL     1     -10.341   8.980  67.790  1.00  0.00    -0.246 C  
HETATM    8  C   UNL     1      -8.884  11.526  67.459  1.00  0.00    -0.155 C  
HETATM    9  C   UNL     1     -11.037  10.333  68.074  1.00  0.00    -0.274 C  
ENDROOT
BRANCH   7  10
HETATM   10  O   UNL     1      -9.762   8.217  68.888  1.00  0.00    -0.152 OA 
BRANCH  10  11
HETATM   11  C   UNL     1     -10.330   7.132  69.511  1.00  0.00    -0.215 C  
HETATM   12  O   UNL     1     -11.535   6.908  69.479  1.00  0.00    -0.205 OA 
HETATM   13  C   UNL     1      -9.211   6.281  70.245  1.00  0.00    -0.157 C  
HETATM   14  C   UNL     1      -8.850   4.965  69.527  1.00  0.00    -0.120 A  
HETATM   15  C   UNL     1      -9.596   6.049  71.717  1.00  0.00    -0.168 A  
HETATM   16  O   UNL     1      -8.004   7.082  70.235  1.00  0.00    -0.113 OA 
HETATM   17  H   UNL     1      -7.333   6.572  70.675  1.00  0.00     0.000 HD 
HETATM   18  C   UNL     1      -7.560   4.407  69.695  1.00  0.00    -0.054 A  
HETATM   19  C   UNL     1     -10.735   5.302  72.067  1.00  0.00    -0.261 A  
HETATM   20  C   UNL     1      -7.182   3.223  69.055  1.00  0.00    -0.049 A  
HETATM   21  C   UNL     1     -11.077   5.092  73.406  1.00  0.00    -0.404 A  
HETATM   22  C   UNL     1     -10.282   5.618  74.425  1.00  0.00    -0.295 A  
HETATM   23  C   UNL     1      -8.089   2.549  68.249  1.00  0.00    -0.068 A  
HETATM   24  C   UNL     1      -9.381   3.049  68.101  1.00  0.00    -0.254 A  
HETATM   25  C   UNL     1      -9.151   6.354  74.105  1.00  0.00    -0.172 A  
HETATM   26  C   UNL     1      -8.808   6.566  72.766  1.00  0.00    -0.127 A  
HETATM   27  C   UNL     1      -9.762   4.240  68.739  1.00  0.00    -0.184 A  
ENDBRANCH  10  11
ENDBRANCH   7  10
TORSDOF 2
ENDMDL
MODEL      119
REMARK 921   NORMALIZED FREE ENERGY PREDICTED BY IDOCK:   -3.90 KCAL/MOL
REMARK 922        TOTAL FREE ENERGY PREDICTED BY IDOCK:   -5.43 KCAL/MOL
REMARK 923 INTER-LIGAND FREE ENERGY PREDICTED BY IDOCK:   -4.74 KCAL/MOL
REMARK 924 INTRA-LIGAND FREE ENERGY PREDICTED BY IDOCK:   -0.70 KCAL/MOL
REMARK 927      BINDING AFFINITY PREDICTED BY RF-SCORE:    0.00 PKD
ROOT
HETATM    1  C   UNL     1      -9.160  10.850  64.654  1.00  0.00    -0.170 C  
HETATM    2  N   UNL     1      -9.640  11.500  65.943  1.00  0.00    -0.225 N  
HETATM    3  C   UNL     1      -9.425  13.016  65.880  1.00  0.00    -0.032 C  
HETATM    4  C   UNL     1      -9.893  13.632  67.201  1.00  0.00    -0.242 C  
HETATM    5  C   UNL     1     -10.468  12.561  68.148  1.00  0.00    -0.238 C  
HETATM    6  C   UNL     1     -11.623  11.862  67.422  1.00  0.00    -0.367 C  
HETATM    7  C   UNL     1      -9.368  11.524  68.464  1.00  0.00    -0.170 C  
HETATM    8  C   UNL     1     -11.140  11.219  66.122  1.00  0.00    -0.143 C  
HETATM    9  C   UNL     1      -8.836  10.921  67.142  1.00  0.00    -0.135 C  
ENDROOT
BRANCH   7  10
HETATM   10  O   UNL     1      -9.810  10.643  69.538  1.00  0.00    -0.187 OA 
BRANCH  10  11
HETATM   11  C   UNL     1      -9.950   9.279  69.464  1.00  0.00    -0.187 C  
HETATM   12  O   UNL     1     -10.775   8.738  68.737  1.00  0.00    -0.181 OA 
HETATM   13  C   UNL     1      -8.919   8.575  70.442  1.00  0.00    -0.152 C  
HETATM   14  C   UNL     1      -7.719   7.922  69.727  1.00  0.00    -0.099 A  
HETATM   15  C   UNL     1      -9.650   7.583  71.365  1.00  0.00    -0.168 A  
HETATM   16  O   UNL     1      -8.362   9.615  71.282  1.00  0.00    -0.297 OA 
HETATM   17  H   UNL     1      -7.744   9.193  71.868  1.00  0.00     0.000 HD 
HETATM   18  C   UNL     1      -6.489   7.775  70.414  1.00  0.00    -0.038 A  
HETATM   19  C   UNL     1     -10.306   6.450  70.849  1.00  0.00    -0.246 A  
HETATM   20  C   UNL     1      -5.370   7.202  69.804  1.00  0.00    -0.015 A  
HETATM   21  C   UNL     1     -10.965   5.551  71.693  1.00  0.00    -0.238 A  
HETATM   22  C   UNL     1     -10.976   5.761  73.072  1.00  0.00    -0.314 A  
HETATM   23  C   UNL     1      -5.453   6.736  68.499  1.00  0.00    -0.016 A  
HETATM   24  C   UNL     1      -6.662   6.825  67.813  1.00  0.00    -0.068 A  
HETATM   25  C   UNL     1     -10.332   6.869  73.605  1.00  0.00    -0.397 A  
HETATM   26  C   UNL     1      -9.673   7.769  72.762  1.00  0.00    -0.292 A  
HETATM   27  C   UNL     1      -7.786   7.404  68.421  1.00  0.00    -0.122 A  
ENDBRANCH  10  11
ENDBRANCH   7  10
TORSDOF 2
ENDMDL
MODEL      120
REMARK 921   NORMALIZED FREE ENERGY PREDICTED BY IDOCK:   -3.87 KCAL/MOL
REMARK 922        TOTAL FREE ENERGY PREDICTED BY IDOCK:   -5.41 KCAL/MOL
REMARK 923 INTER-LIGAND FREE ENERGY PREDICTED BY IDOCK:   -4.63 KCAL/MOL
REMARK 924 INTRA-LIGAND FREE ENERGY PREDICTED BY IDOCK:   -0.77 KCAL/MOL
REMARK 927      BINDING AFFINITY PREDICTED BY RF-SCORE:    0.00 PKD
ROOT
HETATM    1  C   UNL     1      -8.450   1.637  64.484  1.00  0.00    -0.084 C  
HETATM    2  N   UNL     1      -8.635   3.105  64.836  1.00  0.00    -0.099 N  
HETATM    3  C   UNL     1      -7.864   3.986  63.848  1.00  0.00    -0.084 C  
HETATM    4  C   UNL     1      -8.051   5.451  64.248  1.00  0.00    -0.123 C  
HETATM    5  C   UNL     1      -8.979   5.586  65.471  1.00  0.00    -0.133 C  
HETATM    6  C   UNL     1     -10.320   4.932  65.118  1.00  0.00     0.150 C  
HETATM    7  C   UNL     1      -8.350   4.837  66.667  1.00  0.00    -0.106 C  
HETATM    8  C   UNL     1     -10.128   3.460  64.754  1.00  0.00    -0.037 C  
HETATM    9  C   UNL     1      -8.098   3.362  66.274  1.00  0.00    -0.092 C  
ENDROOT
BRANCH   7  10
HETATM   10  O   UNL     1      -9.082   5.149  67.888  1.00  0.00    -0.109 OA 
BRANCH  10  11
HETATM   11  C   UNL     1      -8.793   6.161  68.770  1.00  0.00    -0.121 C  
HETATM   12  O   UNL     1      -7.772   6.177  69.448  1.00  0.00    -0.095 OA 
HETATM   13  C   UNL     1      -9.960   7.235  68.762  1.00  0.00    -0.166 C  
HETATM   14  C   UNL     1      -9.606   8.543  68.026  1.00  0.00    -0.168 A  
HETATM   15  C   UNL     1     -10.456   7.497  70.196  1.00  0.00    -0.226 A  
HETATM   16  O   UNL     1     -11.061   6.651  68.024  1.00  0.00    -0.450 OA 
HETATM   17  H   UNL     1     -11.761   7.295  68.019  1.00  0.00     0.000 HD 
HETATM   18  C   UNL     1     -10.637   9.321  67.444  1.00  0.00    -0.324 A  
HETATM   19  C   UNL     1      -9.614   8.063  71.170  1.00  0.00    -0.189 A  
HETATM   20  C   UNL     1     -10.363  10.506  66.756  1.00  0.00    -0.301 A  
HETATM   21  C   UNL     1     -10.071   8.301  72.470  1.00  0.00    -0.376 A  
HETATM   22  C   UNL     1     -11.384   7.985  72.821  1.00  0.00    -0.439 A  
HETATM   23  C   UNL     1      -9.058  10.962  66.649  1.00  0.00    -0.175 A  
HETATM   24  C   UNL     1      -8.027  10.243  67.251  1.00  0.00    -0.107 A  
HETATM   25  C   UNL     1     -12.235   7.430  71.876  1.00  0.00    -0.344 A  
HETATM   26  C   UNL     1     -11.779   7.191  70.577  1.00  0.00    -0.314 A  
HETATM   27  C   UNL     1      -8.297   9.050  67.939  1.00  0.00    -0.117 A  
ENDBRANCH  10  11
ENDBRANCH   7  10
TORSDOF 2
ENDMDL
MODEL      121
REMARK 921   NORMALIZED FREE ENERGY PREDICTED BY IDOCK:   -3.87 KCAL/MOL
REMARK 922        TOTAL FREE ENERGY PREDICTED BY IDOCK:   -5.40 KCAL/MOL
REMARK 923 INTER-LIGAND FREE ENERGY PREDICTED BY IDOCK:   -4.72 KCAL/MOL
REMARK 924 INTRA-LIGAND FREE ENERGY PREDICTED BY IDOCK:   -0.68 KCAL/MOL
REMARK 927      BINDING AFFINITY PREDICTED BY RF-SCORE:    0.00 PKD
ROOT
HETATM    1  C   UNL     1      -7.954  11.975  67.572  1.00  0.00    -0.159 C  
HETATM    2  N   UNL     1      -9.352  11.692  68.099  1.00  0.00    -0.182 N  
HETATM    3  C   UNL     1     -10.100  13.007  68.342  1.00  0.00    -0.225 C  
HETATM    4  C   UNL     1     -11.490  12.685  68.896  1.00  0.00    -0.354 C  
HETATM    5  C   UNL     1     -11.719  11.164  68.991  1.00  0.00    -0.408 C  
HETATM    6  C   UNL     1     -11.529  10.571  67.590  1.00  0.00    -0.078 C  
HETATM    7  C   UNL     1     -10.667  10.554  69.945  1.00  0.00    -0.247 C  
HETATM    8  C   UNL     1     -10.126  10.867  67.060  1.00  0.00    -0.205 C  
HETATM    9  C   UNL     1      -9.249  10.910  69.440  1.00  0.00     0.112 C  
ENDROOT
BRANCH   7  10
HETATM   10  O   UNL     1     -11.008   9.168  70.239  1.00  0.00    -0.233 OA 
BRANCH  10  11
HETATM   11  C   UNL     1     -10.144   8.101  70.233  1.00  0.00    -0.192 C  
HETATM   12  O   UNL     1      -9.771   7.557  69.200  1.00  0.00    -0.163 OA 
HETATM   13  C   UNL     1      -9.750   7.716  71.721  1.00  0.00    -0.161 C  
HETATM   14  C   UNL     1      -8.324   8.141  72.124  1.00  0.00    -0.209 A  
HETATM   15  C   UNL     1      -9.995   6.216  71.967  1.00  0.00    -0.194 A  
HETATM   16  O   UNL     1     -10.644   8.448  72.593  1.00  0.00    -0.332 OA 
HETATM   17  H   UNL     1     -10.408   8.218  73.484  1.00  0.00     0.000 HD 
HETATM   18  C   UNL     1      -8.028   8.397  73.485  1.00  0.00    -0.166 A  
HETATM   19  C   UNL     1      -9.277   5.231  71.265  1.00  0.00    -0.178 A  
HETATM   20  C   UNL     1      -6.754   8.798  73.897  1.00  0.00    -0.006 A  
HETATM   21  C   UNL     1      -9.502   3.871  71.495  1.00  0.00    -0.226 A  
HETATM   22  C   UNL     1     -10.445   3.466  72.440  1.00  0.00    -0.089 A  
HETATM   23  C   UNL     1      -5.733   8.932  72.967  1.00  0.00    -0.075 A  
HETATM   24  C   UNL     1      -5.982   8.644  71.627  1.00  0.00    -0.054 A  
HETATM   25  C   UNL     1     -11.163   4.418  73.149  1.00  0.00    -0.309 A  
HETATM   26  C   UNL     1     -10.939   5.778  72.918  1.00  0.00    -0.312 A  
HETATM   27  C   UNL     1      -7.261   8.245  71.209  1.00  0.00    -0.073 A  
ENDBRANCH  10  11
ENDBRANCH   7  10
TORSDOF 2
ENDMDL
MODEL      122
REMARK 921   NORMALIZED FREE ENERGY PREDICTED BY IDOCK:   -3.86 KCAL/MOL
REMARK 922        TOTAL FREE ENERGY PREDICTED BY IDOCK:   -5.40 KCAL/MOL
REMARK 923 INTER-LIGAND FREE ENERGY PREDICTED BY IDOCK:   -4.90 KCAL/MOL
REMARK 924 INTRA-LIGAND FREE ENERGY PREDICTED BY IDOCK:   -0.50 KCAL/MOL
REMARK 927      BINDING AFFINITY PREDICTED BY RF-SCORE:    0.00 PKD
ROOT
HETATM    1  C   UNL     1      -8.412   5.518  74.362  1.00  0.00    -0.109 C  
HETATM    2  N   UNL     1      -9.580   5.785  73.424  1.00  0.00    -0.142 N  
HETATM    3  C   UNL     1     -10.751   4.858  73.765  1.00  0.00    -0.301 C  
HETATM    4  C   UNL     1     -11.895   5.135  72.786  1.00  0.00    -0.116 C  
HETATM    5  C   UNL     1     -11.538   6.273  71.811  1.00  0.00    -0.358 C  
HETATM    6  C   UNL     1     -11.204   7.517  72.641  1.00  0.00    -0.399 C  
HETATM    7  C   UNL     1     -10.293   5.862  70.992  1.00  0.00    -0.223 C  
HETATM    8  C   UNL     1     -10.037   7.242  73.589  1.00  0.00    -0.340 C  
HETATM    9  C   UNL     1      -9.133   5.523  71.958  1.00  0.00    -0.141 C  
ENDROOT
BRANCH   7  10
HETATM   10  O   UNL     1     -10.080   6.809  69.904  1.00  0.00    -0.177 OA 
BRANCH  10  11
HETATM   11  C   UNL     1     -10.287   6.569  68.568  1.00  0.00    -0.192 C  
HETATM   12  O   UNL     1     -11.379   6.241  68.116  1.00  0.00    -0.278 OA 
HETATM   13  C   UNL     1      -8.934   6.770  67.766  1.00  0.00    -0.116 C  
HETATM   14  C   UNL     1      -8.878   8.072  66.943  1.00  0.00    -0.146 A  
HETATM   15  C   UNL     1      -8.635   5.529  66.904  1.00  0.00    -0.110 A  
HETATM   16  O   UNL     1      -7.876   6.877  68.750  1.00  0.00    -0.113 OA 
HETATM   17  H   UNL     1      -7.065   6.997  68.270  1.00  0.00     0.000 HD 
HETATM   18  C   UNL     1      -7.625   8.668  66.659  1.00  0.00    -0.089 A  
HETATM   19  C   UNL     1      -9.485   5.147  65.851  1.00  0.00    -0.168 A  
HETATM   20  C   UNL     1      -7.524   9.855  65.929  1.00  0.00    -0.108 A  
HETATM   21  C   UNL     1      -9.206   4.022  65.070  1.00  0.00    -0.151 A  
HETATM   22  C   UNL     1      -8.066   3.258  65.321  1.00  0.00    -0.093 A  
HETATM   23  C   UNL     1      -8.668  10.469  65.439  1.00  0.00    -0.195 A  
HETATM   24  C   UNL     1      -9.912   9.882  65.663  1.00  0.00    -0.353 A  
HETATM   25  C   UNL     1      -7.209   3.618  66.351  1.00  0.00    -0.064 A  
HETATM   26  C   UNL     1      -7.487   4.743  67.133  1.00  0.00    -0.086 A  
HETATM   27  C   UNL     1     -10.017   8.692  66.399  1.00  0.00    -0.331 A  
ENDBRANCH  10  11
ENDBRANCH   7  10
TORSDOF 2
ENDMDL
MODEL      123
REMARK 921   NORMALIZED FREE ENERGY PREDICTED BY IDOCK:   -3.85 KCAL/MOL
REMARK 922        TOTAL FREE ENERGY PREDICTED BY IDOCK:   -5.39 KCAL/MOL
REMARK 923 INTER-LIGAND FREE ENERGY PREDICTED BY IDOCK:   -5.38 KCAL/MOL
REMARK 924 INTRA-LIGAND FREE ENERGY PREDICTED BY IDOCK:   -0.01 KCAL/MOL
REMARK 927      BINDING AFFINITY PREDICTED BY RF-SCORE:    0.00 PKD
ROOT
HETATM    1  C   UNL     1     -12.777  13.856  65.253  1.00  0.00    -0.449 C  
HETATM    2  N   UNL     1     -11.539  13.754  66.131  1.00  0.00    -0.339 N  
HETATM    3  C   UNL     1     -10.948  15.147  66.372  1.00  0.00    -0.329 C  
HETATM    4  C   UNL     1      -9.692  15.002  67.235  1.00  0.00    -0.220 C  
HETATM    5  C   UNL     1      -9.444  13.533  67.626  1.00  0.00    -0.222 C  
HETATM    6  C   UNL     1     -10.687  13.027  68.367  1.00  0.00    -0.273 C  
HETATM    7  C   UNL     1      -9.245  12.696  66.343  1.00  0.00    -0.160 C  
HETATM    8  C   UNL     1     -11.930  13.141  67.485  1.00  0.00    -0.317 C  
HETATM    9  C   UNL     1     -10.478  12.864  65.423  1.00  0.00    -0.292 C  
ENDROOT
BRANCH   7  10
HETATM   10  O   UNL     1      -8.773  11.361  66.689  1.00  0.00    -0.167 OA 
BRANCH  10  11
HETATM   11  C   UNL     1      -9.328  10.173  66.280  1.00  0.00    -0.172 C  
HETATM   12  O   UNL     1     -10.385  10.115  65.662  1.00  0.00    -0.240 OA 
HETATM   13  C   UNL     1      -8.413   8.961  66.739  1.00  0.00    -0.115 C  
HETATM   14  C   UNL     1      -7.599   8.321  65.596  1.00  0.00    -0.083 A  
HETATM   15  C   UNL     1      -9.249   7.920  67.506  1.00  0.00    -0.152 A  
HETATM   16  O   UNL     1      -7.439   9.500  67.665  1.00  0.00    -0.090 OA 
HETATM   17  H   UNL     1      -6.890   8.775  67.940  1.00  0.00     0.000 HD 
HETATM   18  C   UNL     1      -6.376   7.669  65.887  1.00  0.00    -0.042 A  
HETATM   19  C   UNL     1     -10.290   7.212  66.879  1.00  0.00    -0.349 A  
HETATM   20  C   UNL     1      -5.598   7.085  64.884  1.00  0.00    -0.032 A  
HETATM   21  C   UNL     1     -11.043   6.266  67.580  1.00  0.00    -0.379 A  
HETATM   22  C   UNL     1     -10.765   6.001  68.921  1.00  0.00    -0.384 A  
HETATM   23  C   UNL     1      -6.028   7.114  63.565  1.00  0.00    -0.044 A  
HETATM   24  C   UNL     1      -7.249   7.708  63.254  1.00  0.00    -0.083 A  
HETATM   25  C   UNL     1      -9.739   6.683  69.560  1.00  0.00    -0.156 A  
HETATM   26  C   UNL     1      -8.987   7.630  68.860  1.00  0.00    -0.137 A  
HETATM   27  C   UNL     1      -8.032   8.299  64.258  1.00  0.00    -0.148 A  
ENDBRANCH  10  11
ENDBRANCH   7  10
TORSDOF 2
ENDMDL
MODEL      124
REMARK 921   NORMALIZED FREE ENERGY PREDICTED BY IDOCK:   -3.81 KCAL/MOL
REMARK 922        TOTAL FREE ENERGY PREDICTED BY IDOCK:   -5.34 KCAL/MOL
REMARK 923 INTER-LIGAND FREE ENERGY PREDICTED BY IDOCK:   -4.83 KCAL/MOL
REMARK 924 INTRA-LIGAND FREE ENERGY PREDICTED BY IDOCK:   -0.51 KCAL/MOL
REMARK 927      BINDING AFFINITY PREDICTED BY RF-SCORE:    0.00 PKD
ROOT
HETATM    1  C   UNL     1      -7.214   5.181  72.959  1.00  0.00    -0.090 C  
HETATM    2  N   UNL     1      -8.592   5.755  72.665  1.00  0.00    -0.120 N  
HETATM    3  C   UNL     1      -9.677   4.746  73.057  1.00  0.00    -0.140 C  
HETATM    4  C   UNL     1     -11.045   5.345  72.723  1.00  0.00    -0.349 C  
HETATM    5  C   UNL     1     -10.911   6.769  72.150  1.00  0.00    -0.270 C  
HETATM    6  C   UNL     1     -10.169   7.625  73.183  1.00  0.00    -0.401 C  
HETATM    7  C   UNL     1     -10.080   6.713  70.849  1.00  0.00    -0.187 C  
HETATM    8  C   UNL     1      -8.789   7.039  73.484  1.00  0.00    -0.143 C  
HETATM    9  C   UNL     1      -8.707   6.062  71.144  1.00  0.00    -0.132 C  
ENDROOT
BRANCH   7  10
HETATM   10  O   UNL     1     -10.142   7.999  70.165  1.00  0.00    -0.190 OA 
BRANCH  10  11
HETATM   11  C   UNL     1     -10.165   8.195  68.806  1.00  0.00    -0.207 C  
HETATM   12  O   UNL     1     -10.870   7.530  68.054  1.00  0.00    -0.144 OA 
HETATM   13  C   UNL     1      -9.164   9.358  68.409  1.00  0.00    -0.127 C  
HETATM   14  C   UNL     1      -9.857  10.686  68.040  1.00  0.00    -0.177 A  
HETATM   15  C   UNL     1      -8.203   8.883  67.303  1.00  0.00    -0.104 A  
HETATM   16  O   UNL     1      -8.364   9.641  69.583  1.00  0.00    -0.134 OA 
HETATM   17  H   UNL     1      -7.764  10.339  69.345  1.00  0.00     0.000 HD 
HETATM   18  C   UNL     1      -9.168  11.909  68.222  1.00  0.00    -0.187 A  
HETATM   19  C   UNL     1      -8.675   8.525  66.027  1.00  0.00    -0.188 A  
HETATM   20  C   UNL     1      -9.759  13.138  67.915  1.00  0.00    -0.221 A  
HETATM   21  C   UNL     1      -7.798   8.098  65.027  1.00  0.00    -0.128 A  
HETATM   22  C   UNL     1      -6.427   8.026  65.278  1.00  0.00    -0.048 A  
HETATM   23  C   UNL     1     -11.045  13.180  67.396  1.00  0.00    -0.301 A  
HETATM   24  C   UNL     1     -11.731  11.990  67.164  1.00  0.00    -0.344 A  
HETATM   25  C   UNL     1      -5.937   8.379  66.527  1.00  0.00    -0.049 A  
HETATM   26  C   UNL     1      -6.814   8.806  67.529  1.00  0.00    -0.071 A  
HETATM   27  C   UNL     1     -11.143  10.755  67.474  1.00  0.00    -0.374 A  
ENDBRANCH  10  11
ENDBRANCH   7  10
TORSDOF 2
ENDMDL
MODEL      125
REMARK 921   NORMALIZED FREE ENERGY PREDICTED BY IDOCK:   -3.80 KCAL/MOL
REMARK 922        TOTAL FREE ENERGY PREDICTED BY IDOCK:   -5.33 KCAL/MOL
REMARK 923 INTER-LIGAND FREE ENERGY PREDICTED BY IDOCK:   -4.67 KCAL/MOL
REMARK 924 INTRA-LIGAND FREE ENERGY PREDICTED BY IDOCK:   -0.66 KCAL/MOL
REMARK 927      BINDING AFFINITY PREDICTED BY RF-SCORE:    0.00 PKD
ROOT
HETATM    1  C   UNL     1     -10.171  15.664  66.478  1.00  0.00    -0.283 C  
HETATM    2  N   UNL     1     -10.782  14.361  65.985  1.00  0.00    -0.295 N  
HETATM    3  C   UNL     1     -12.284  14.541  65.744  1.00  0.00    -0.261 C  
HETATM    4  C   UNL     1     -12.868  13.206  65.275  1.00  0.00    -0.332 C  
HETATM    5  C   UNL     1     -11.775  12.128  65.148  1.00  0.00    -0.366 C  
HETATM    6  C   UNL     1     -10.716  12.644  64.167  1.00  0.00    -0.435 C  
HETATM    7  C   UNL     1     -11.120  11.907  66.530  1.00  0.00    -0.306 C  
HETATM    8  C   UNL     1     -10.113  13.959  64.661  1.00  0.00    -0.109 C  
HETATM    9  C   UNL     1     -10.566  13.253  67.055  1.00  0.00    -0.259 C  
ENDROOT
BRANCH   7  10
HETATM   10  O   UNL     1     -10.258  10.733  66.489  1.00  0.00    -0.220 OA 
BRANCH  10  11
HETATM   11  C   UNL     1      -9.365  10.348  67.458  1.00  0.00    -0.149 C  
HETATM   12  O   UNL     1      -9.718   9.955  68.565  1.00  0.00    -0.149 OA 
HETATM   13  C   UNL     1      -7.881  10.508  66.922  1.00  0.00    -0.117 C  
HETATM   14  C   UNL     1      -7.195   9.175  66.562  1.00  0.00    -0.085 A  
HETATM   15  C   UNL     1      -7.042  11.340  67.910  1.00  0.00    -0.078 A  
HETATM   16  O   UNL     1      -7.962  11.259  65.686  1.00  0.00    -0.369 OA 
HETATM   17  H   UNL     1      -7.073  11.355  65.364  1.00  0.00     0.000 HD 
HETATM   18  C   UNL     1      -6.170   9.156  65.585  1.00  0.00    -0.056 A  
HETATM   19  C   UNL     1      -6.779  10.881  69.213  1.00  0.00    -0.086 A  
HETATM   20  C   UNL     1      -5.529   7.970  65.216  1.00  0.00    -0.032 A  
HETATM   21  C   UNL     1      -6.014  11.639  70.104  1.00  0.00    -0.161 A  
HETATM   22  C   UNL     1      -5.488  12.869  69.708  1.00  0.00    -0.095 A  
HETATM   23  C   UNL     1      -5.875   6.774  65.827  1.00  0.00    -0.034 A  
HETATM   24  C   UNL     1      -6.848   6.768  66.824  1.00  0.00    -0.061 A  
HETATM   25  C   UNL     1      -5.730  13.340  68.425  1.00  0.00    -0.084 A  
HETATM   26  C   UNL     1      -6.495  12.583  67.534  1.00  0.00    -0.153 A  
HETATM   27  C   UNL     1      -7.497   7.955  67.194  1.00  0.00    -0.092 A  
ENDBRANCH  10  11
ENDBRANCH   7  10
TORSDOF 2
ENDMDL
MODEL      126
REMARK 921   NORMALIZED FREE ENERGY PREDICTED BY IDOCK:   -3.80 KCAL/MOL
REMARK 922        TOTAL FREE ENERGY PREDICTED BY IDOCK:   -5.32 KCAL/MOL
REMARK 923 INTER-LIGAND FREE ENERGY PREDICTED BY IDOCK:   -4.95 KCAL/MOL
REMARK 924 INTRA-LIGAND FREE ENERGY PREDICTED BY IDOCK:   -0.38 KCAL/MOL
REMARK 927      BINDING AFFINITY PREDICTED BY RF-SCORE:    0.00 PKD
ROOT
HETATM    1  C   UNL     1      -7.661   7.186  67.823  1.00  0.00    -0.111 C  
HETATM    2  N   UNL     1      -8.694   7.916  68.667  1.00  0.00    -0.128 N  
HETATM    3  C   UNL     1      -9.419   6.927  69.586  1.00  0.00    -0.147 C  
HETATM    4  C   UNL     1     -10.466   7.691  70.399  1.00  0.00    -0.221 C  
HETATM    5  C   UNL     1     -10.435   9.198  70.081  1.00  0.00    -0.249 C  
HETATM    6  C   UNL     1      -9.021   9.712  70.377  1.00  0.00    -0.239 C  
HETATM    7  C   UNL     1     -10.745   9.405  68.582  1.00  0.00    -0.160 C  
HETATM    8  C   UNL     1      -7.985   8.968  69.534  1.00  0.00    -0.099 C  
HETATM    9  C   UNL     1      -9.733   8.599  67.733  1.00  0.00    -0.165 C  
ENDROOT
BRANCH   7  10
HETATM   10  O   UNL     1     -10.958  10.821  68.309  1.00  0.00    -0.215 OA 
BRANCH  10  11
HETATM   11  C   UNL     1     -10.083  11.664  67.669  1.00  0.00    -0.188 C  
HETATM   12  O   UNL     1      -9.212  12.290  68.263  1.00  0.00    -0.196 OA 
HETATM   13  C   UNL     1     -10.397  11.690  66.114  1.00  0.00    -0.241 C  
HETATM   14  C   UNL     1      -9.383  10.907  65.255  1.00  0.00    -0.246 A  
HETATM   15  C   UNL     1     -10.567  13.141  65.627  1.00  0.00    -0.289 A  
HETATM   16  O   UNL     1     -11.669  11.022  65.933  1.00  0.00     0.153 OA 
HETATM   17  H   UNL     1     -11.857  11.037  65.001  1.00  0.00     0.000 HD 
HETATM   18  C   UNL     1      -9.791  10.360  64.015  1.00  0.00    -0.355 A  
HETATM   19  C   UNL     1      -9.501  14.058  65.673  1.00  0.00     0.027 A  
HETATM   20  C   UNL     1      -8.912   9.632  63.208  1.00  0.00    -0.251 A  
HETATM   21  C   UNL     1      -9.661  15.373  65.227  1.00  0.00    -0.145 A  
HETATM   22  C   UNL     1     -10.888  15.797  64.716  1.00  0.00    -0.365 A  
HETATM   23  C   UNL     1      -7.595   9.450  63.604  1.00  0.00    -0.116 A  
HETATM   24  C   UNL     1      -7.152  10.015  64.798  1.00  0.00    -0.137 A  
HETATM   25  C   UNL     1     -11.952  14.909  64.655  1.00  0.00    -0.407 A  
HETATM   26  C   UNL     1     -11.794  13.594  65.102  1.00  0.00    -0.364 A  
HETATM   27  C   UNL     1      -8.032  10.743  65.612  1.00  0.00    -0.095 A  
ENDBRANCH  10  11
ENDBRANCH   7  10
TORSDOF 2
ENDMDL
MODEL      127
REMARK 921   NORMALIZED FREE ENERGY PREDICTED BY IDOCK:   -3.79 KCAL/MOL
REMARK 922        TOTAL FREE ENERGY PREDICTED BY IDOCK:   -5.32 KCAL/MOL
REMARK 923 INTER-LIGAND FREE ENERGY PREDICTED BY IDOCK:   -5.15 KCAL/MOL
REMARK 924 INTRA-LIGAND FREE ENERGY PREDICTED BY IDOCK:   -0.17 KCAL/MOL
REMARK 927      BINDING AFFINITY PREDICTED BY RF-SCORE:    0.00 PKD
ROOT
HETATM    1  C   UNL     1     -10.271  19.907  68.428  1.00  0.00    -0.433 C  
HETATM    2  N   UNL     1      -9.005  19.307  67.836  1.00  0.00    -0.303 N  
HETATM    3  C   UNL     1      -8.865  19.717  66.367  1.00  0.00    -0.377 C  
HETATM    4  C   UNL     1      -7.597  19.075  65.798  1.00  0.00    -0.127 C  
HETATM    5  C   UNL     1      -6.843  18.270  66.874  1.00  0.00    -0.212 C  
HETATM    6  C   UNL     1      -6.513  19.221  68.029  1.00  0.00    -0.249 C  
HETATM    7  C   UNL     1      -7.762  17.142  67.394  1.00  0.00    -0.171 C  
HETATM    8  C   UNL     1      -7.787  19.830  68.614  1.00  0.00    -0.249 C  
HETATM    9  C   UNL     1      -9.078  17.756  67.928  1.00  0.00    -0.259 C  
ENDROOT
BRANCH   7  10
HETATM   10  O   UNL     1      -6.996  16.225  68.230  1.00  0.00    -0.123 OA 
BRANCH  10  11
HETATM   11  C   UNL     1      -7.475  15.092  68.841  1.00  0.00    -0.143 C  
HETATM   12  O   UNL     1      -7.524  14.968  70.060  1.00  0.00    -0.124 OA 
HETATM   13  C   UNL     1      -7.915  14.031  67.747  1.00  0.00    -0.171 C  
HETATM   14  C   UNL     1      -9.442  13.899  67.577  1.00  0.00    -0.216 A  
HETATM   15  C   UNL     1      -7.245  12.672  68.021  1.00  0.00    -0.112 A  
HETATM   16  O   UNL     1      -7.414  14.510  66.475  1.00  0.00    -0.026 OA 
HETATM   17  H   UNL     1      -7.677  13.874  65.819  1.00  0.00     0.000 HD 
HETATM   18  C   UNL     1      -9.973  13.475  66.335  1.00  0.00    -0.296 A  
HETATM   19  C   UNL     1      -7.524  11.941  69.191  1.00  0.00     0.066 A  
HETATM   20  C   UNL     1     -11.350  13.353  66.129  1.00  0.00    -0.324 A  
HETATM   21  C   UNL     1      -6.915  10.706  69.433  1.00  0.00    -0.106 A  
HETATM   22  C   UNL     1      -6.021  10.171  68.506  1.00  0.00    -0.041 A  
HETATM   23  C   UNL     1     -12.235  13.627  67.162  1.00  0.00    -0.340 A  
HETATM   24  C   UNL     1     -11.739  14.003  68.409  1.00  0.00    -0.389 A  
HETATM   25  C   UNL     1      -5.734  10.870  67.342  1.00  0.00    -0.046 A  
HETATM   26  C   UNL     1      -6.341  12.105  67.100  1.00  0.00    -0.139 A  
HETATM   27  C   UNL     1     -10.358  14.130  68.618  1.00  0.00    -0.243 A  
ENDBRANCH  10  11
ENDBRANCH   7  10
TORSDOF 2
ENDMDL
MODEL      128
REMARK 921   NORMALIZED FREE ENERGY PREDICTED BY IDOCK:   -3.78 KCAL/MOL
REMARK 922        TOTAL FREE ENERGY PREDICTED BY IDOCK:   -5.31 KCAL/MOL
REMARK 923 INTER-LIGAND FREE ENERGY PREDICTED BY IDOCK:   -4.93 KCAL/MOL
REMARK 924 INTRA-LIGAND FREE ENERGY PREDICTED BY IDOCK:   -0.38 KCAL/MOL
REMARK 927      BINDING AFFINITY PREDICTED BY RF-SCORE:    0.00 PKD
ROOT
HETATM    1  C   UNL     1     -10.759  16.845  67.535  1.00  0.00    -0.270 C  
HETATM    2  N   UNL     1      -9.398  16.248  67.861  1.00  0.00    -0.209 N  
HETATM    3  C   UNL     1      -8.290  17.257  67.544  1.00  0.00    -0.196 C  
HETATM    4  C   UNL     1      -6.937  16.613  67.859  1.00  0.00    -0.157 C  
HETATM    5  C   UNL     1      -7.109  15.194  68.431  1.00  0.00    -0.107 C  
HETATM    6  C   UNL     1      -7.981  15.295  69.688  1.00  0.00    -0.130 C  
HETATM    7  C   UNL     1      -7.830  14.312  67.386  1.00  0.00    -0.187 C  
HETATM    8  C   UNL     1      -9.343  15.906  69.358  1.00  0.00    -0.250 C  
HETATM    9  C   UNL     1      -9.180  14.966  67.007  1.00  0.00    -0.234 C  
ENDROOT
BRANCH   7  10
HETATM   10  O   UNL     1      -7.790  12.916  67.803  1.00  0.00    -0.131 OA 
BRANCH  10  11
HETATM   11  C   UNL     1      -7.445  11.844  67.016  1.00  0.00    -0.126 C  
HETATM   12  O   UNL     1      -6.297  11.647  66.634  1.00  0.00    -0.137 OA 
HETATM   13  C   UNL     1      -8.729  10.969  66.700  1.00  0.00    -0.160 C  
HETATM   14  C   UNL     1      -8.797   9.645  67.488  1.00  0.00    -0.129 A  
HETATM   15  C   UNL     1      -8.863  10.745  65.183  1.00  0.00    -0.199 A  
HETATM   16  O   UNL     1      -9.878  11.742  67.126  1.00  0.00    -0.191 OA 
HETATM   17  H   UNL     1     -10.647  11.217  66.937  1.00  0.00     0.000 HD 
HETATM   18  C   UNL     1     -10.055   9.058  67.764  1.00  0.00    -0.260 A  
HETATM   19  C   UNL     1      -7.896  10.023  64.461  1.00  0.00    -0.145 A  
HETATM   20  C   UNL     1     -10.168   7.866  68.486  1.00  0.00    -0.229 A  
HETATM   21  C   UNL     1      -8.025   9.821  63.084  1.00  0.00    -0.145 A  
HETATM   22  C   UNL     1      -9.130  10.329  62.400  1.00  0.00    -0.311 A  
HETATM   23  C   UNL     1      -9.027   7.213  68.930  1.00  0.00    -0.129 A  
HETATM   24  C   UNL     1      -7.773   7.742  68.634  1.00  0.00    -0.118 A  
HETATM   25  C   UNL     1     -10.100  11.040  63.091  1.00  0.00    -0.350 A  
HETATM   26  C   UNL     1      -9.971  11.244  64.468  1.00  0.00    -0.334 A  
HETATM   27  C   UNL     1      -7.656   8.940  67.914  1.00  0.00    -0.093 A  
ENDBRANCH  10  11
ENDBRANCH   7  10
TORSDOF 2
ENDMDL
MODEL      129
REMARK 921   NORMALIZED FREE ENERGY PREDICTED BY IDOCK:   -3.77 KCAL/MOL
REMARK 922        TOTAL FREE ENERGY PREDICTED BY IDOCK:   -5.29 KCAL/MOL
REMARK 923 INTER-LIGAND FREE ENERGY PREDICTED BY IDOCK:   -4.45 KCAL/MOL
REMARK 924 INTRA-LIGAND FREE ENERGY PREDICTED BY IDOCK:   -0.84 KCAL/MOL
REMARK 927      BINDING AFFINITY PREDICTED BY RF-SCORE:    0.00 PKD
ROOT
HETATM    1  C   UNL     1      -8.493   3.426  65.514  1.00  0.00    -0.108 C  
HETATM    2  N   UNL     1      -8.888   4.144  66.795  1.00  0.00    -0.115 N  
HETATM    3  C   UNL     1      -9.300   3.126  67.864  1.00  0.00    -0.201 C  
HETATM    4  C   UNL     1      -9.716   3.884  69.127  1.00  0.00    -0.143 C  
HETATM    5  C   UNL     1      -9.548   5.405  68.951  1.00  0.00    -0.188 C  
HETATM    6  C   UNL     1      -8.082   5.680  68.597  1.00  0.00    -0.100 C  
HETATM    7  C   UNL     1     -10.446   5.881  67.787  1.00  0.00    -0.238 C  
HETATM    8  C   UNL     1      -7.686   4.948  67.315  1.00  0.00    -0.091 C  
HETATM    9  C   UNL     1     -10.086   5.093  66.505  1.00  0.00    -0.239 C  
ENDROOT
BRANCH   7  10
HETATM   10  O   UNL     1     -10.490   7.338  67.757  1.00  0.00    -0.201 OA 
BRANCH  10  11
HETATM   11  C   UNL     1     -10.702   8.166  68.832  1.00  0.00    -0.064 C  
HETATM   12  O   UNL     1     -11.524   7.915  69.707  1.00  0.00     0.015 OA 
HETATM   13  C   UNL     1      -9.758   9.436  68.732  1.00  0.00    -0.156 C  
HETATM   14  C   UNL     1      -8.566   9.411  69.710  1.00  0.00    -0.182 A  
HETATM   15  C   UNL     1     -10.585  10.729  68.863  1.00  0.00    -0.246 A  
HETATM   16  O   UNL     1      -9.181   9.425  67.403  1.00  0.00    -0.126 OA 
HETATM   17  H   UNL     1      -8.615  10.186  67.343  1.00  0.00     0.000 HD 
HETATM   18  C   UNL     1      -7.379  10.111  69.384  1.00  0.00    -0.106 A  
HETATM   19  C   UNL     1     -11.279  11.037  70.047  1.00  0.00    -0.303 A  
HETATM   20  C   UNL     1      -6.267  10.107  70.232  1.00  0.00    -0.103 A  
HETATM   21  C   UNL     1     -12.025  12.213  70.161  1.00  0.00    -0.394 A  
HETATM   22  C   UNL     1     -12.087  13.112  69.095  1.00  0.00    -0.261 A  
HETATM   23  C   UNL     1      -6.317   9.426  71.439  1.00  0.00    -0.020 A  
HETATM   24  C   UNL     1      -7.487   8.766  71.808  1.00  0.00    -0.080 A  
HETATM   25  C   UNL     1     -11.406  12.832  67.919  1.00  0.00    -0.339 A  
HETATM   26  C   UNL     1     -10.660  11.656  67.804  1.00  0.00    -0.227 A  
HETATM   27  C   UNL     1      -8.604   8.764  70.958  1.00  0.00    -0.236 A  
ENDBRANCH  10  11
ENDBRANCH   7  10
TORSDOF 2
ENDMDL
MODEL      130
REMARK 921   NORMALIZED FREE ENERGY PREDICTED BY IDOCK:   -3.74 KCAL/MOL
REMARK 922        TOTAL FREE ENERGY PREDICTED BY IDOCK:   -5.26 KCAL/MOL
REMARK 923 INTER-LIGAND FREE ENERGY PREDICTED BY IDOCK:   -4.27 KCAL/MOL
REMARK 924 INTRA-LIGAND FREE ENERGY PREDICTED BY IDOCK:   -0.99 KCAL/MOL
REMARK 927      BINDING AFFINITY PREDICTED BY RF-SCORE:    0.00 PKD
ROOT
HETATM    1  C   UNL     1      -6.849   5.968  74.565  1.00  0.00    -0.076 C  
HETATM    2  N   UNL     1      -8.008   6.101  73.588  1.00  0.00    -0.102 N  
HETATM    3  C   UNL     1      -8.905   4.861  73.663  1.00  0.00    -0.108 C  
HETATM    4  C   UNL     1     -10.041   5.018  72.650  1.00  0.00    -0.227 C  
HETATM    5  C   UNL     1      -9.959   6.370  71.917  1.00  0.00    -0.193 C  
HETATM    6  C   UNL     1     -10.000   7.481  72.972  1.00  0.00    -0.321 C  
HETATM    7  C   UNL     1      -8.619   6.448  71.152  1.00  0.00    -0.128 C  
HETATM    8  C   UNL     1      -8.841   7.338  73.958  1.00  0.00    -0.218 C  
HETATM    9  C   UNL     1      -7.449   6.239  72.143  1.00  0.00    -0.094 C  
ENDROOT
BRANCH   7  10
HETATM   10  O   UNL     1      -8.621   7.604  70.263  1.00  0.00    -0.139 OA 
BRANCH  10  11
HETATM   11  C   UNL     1      -9.644   7.985  69.430  1.00  0.00    -0.160 C  
HETATM   12  O   UNL     1     -10.044   7.281  68.510  1.00  0.00    -0.161 OA 
HETATM   13  C   UNL     1     -10.173   9.422  69.844  1.00  0.00    -0.222 C  
HETATM   14  C   UNL     1     -11.532   9.406  70.573  1.00  0.00    -0.317 A  
HETATM   15  C   UNL     1     -10.185  10.359  68.622  1.00  0.00    -0.196 A  
HETATM   16  O   UNL     1      -9.220   9.961  70.792  1.00  0.00    -0.322 OA 
HETATM   17  H   UNL     1      -9.536  10.822  71.040  1.00  0.00     0.000 HD 
HETATM   18  C   UNL     1     -11.854  10.450  71.475  1.00  0.00    -0.208 A  
HETATM   19  C   UNL     1     -11.014  10.107  67.514  1.00  0.00    -0.319 A  
HETATM   20  C   UNL     1     -13.067  10.472  72.169  1.00  0.00    -0.413 A  
HETATM   21  C   UNL     1     -11.022  10.964  66.409  1.00  0.00    -0.156 A  
HETATM   22  C   UNL     1     -10.207  12.096  66.393  1.00  0.00    -0.245 A  
HETATM   23  C   UNL     1     -14.003   9.467  71.965  1.00  0.00    -0.275 A  
HETATM   24  C   UNL     1     -13.732   8.452  71.050  1.00  0.00     0.071 A  
HETATM   25  C   UNL     1      -9.385  12.369  67.476  1.00  0.00    -0.181 A  
HETATM   26  C   UNL     1      -9.375  11.512  68.581  1.00  0.00    -0.142 A  
HETATM   27  C   UNL     1     -12.514   8.424  70.355  1.00  0.00     0.584 A  
ENDBRANCH  10  11
ENDBRANCH   7  10
TORSDOF 2
ENDMDL
MODEL      131
REMARK 921   NORMALIZED FREE ENERGY PREDICTED BY IDOCK:   -3.73 KCAL/MOL
REMARK 922        TOTAL FREE ENERGY PREDICTED BY IDOCK:   -5.25 KCAL/MOL
REMARK 923 INTER-LIGAND FREE ENERGY PREDICTED BY IDOCK:   -4.69 KCAL/MOL
REMARK 924 INTRA-LIGAND FREE ENERGY PREDICTED BY IDOCK:   -0.56 KCAL/MOL
REMARK 927      BINDING AFFINITY PREDICTED BY RF-SCORE:    0.00 PKD
ROOT
HETATM    1  C   UNL     1      -7.044  10.579  62.552  1.00  0.00    -0.118 C  
HETATM    2  N   UNL     1      -7.038   9.329  63.419  1.00  0.00    -0.089 N  
HETATM    3  C   UNL     1      -6.842   8.085  62.547  1.00  0.00    -0.086 C  
HETATM    4  C   UNL     1      -6.868   6.847  63.448  1.00  0.00    -0.048 C  
HETATM    5  C   UNL     1      -7.033   7.234  64.930  1.00  0.00    -0.051 C  
HETATM    6  C   UNL     1      -5.877   8.168  65.305  1.00  0.00    -0.044 C  
HETATM    7  C   UNL     1      -8.370   7.987  65.109  1.00  0.00    -0.130 C  
HETATM    8  C   UNL     1      -5.880   9.417  64.424  1.00  0.00    -0.072 C  
HETATM    9  C   UNL     1      -8.396   9.217  64.170  1.00  0.00    -0.178 C  
ENDROOT
BRANCH   7  10
HETATM   10  O   UNL     1      -8.661   8.150  66.528  1.00  0.00    -0.130 OA 
BRANCH  10  11
HETATM   11  C   UNL     1      -9.790   8.719  67.064  1.00  0.00    -0.216 C  
HETATM   12  O   UNL     1     -10.906   8.554  66.584  1.00  0.00    -0.090 OA 
HETATM   13  C   UNL     1      -9.408   9.589  68.334  1.00  0.00    -0.133 C  
HETATM   14  C   UNL     1      -9.785   8.937  69.680  1.00  0.00    -0.175 A  
HETATM   15  C   UNL     1      -9.983  11.011  68.201  1.00  0.00    -0.190 A  
HETATM   16  O   UNL     1      -7.964   9.706  68.341  1.00  0.00    -0.095 OA 
HETATM   17  H   UNL     1      -7.735  10.227  69.102  1.00  0.00     0.000 HD 
HETATM   18  C   UNL     1      -9.048   9.260  70.845  1.00  0.00    -0.288 A  
HETATM   19  C   UNL     1     -11.371  11.239  68.162  1.00  0.00    -0.372 A  
HETATM   20  C   UNL     1      -9.344   8.684  72.084  1.00  0.00    -0.343 A  
HETATM   21  C   UNL     1     -11.887  12.533  68.044  1.00  0.00    -0.382 A  
HETATM   22  C   UNL     1     -11.025  13.628  67.971  1.00  0.00    -0.270 A  
HETATM   23  C   UNL     1     -10.399   7.790  72.201  1.00  0.00    -0.279 A  
HETATM   24  C   UNL     1     -11.170   7.488  71.081  1.00  0.00    -0.277 A  
HETATM   25  C   UNL     1      -9.653  13.429  68.013  1.00  0.00    -0.219 A  
HETATM   26  C   UNL     1      -9.136  12.136  68.130  1.00  0.00    -0.196 A  
HETATM   27  C   UNL     1     -10.874   8.060  69.835  1.00  0.00    -0.217 A  
ENDBRANCH  10  11
ENDBRANCH   7  10
TORSDOF 2
ENDMDL
MODEL      132
REMARK 921   NORMALIZED FREE ENERGY PREDICTED BY IDOCK:   -3.73 KCAL/MOL
REMARK 922        TOTAL FREE ENERGY PREDICTED BY IDOCK:   -5.25 KCAL/MOL
REMARK 923 INTER-LIGAND FREE ENERGY PREDICTED BY IDOCK:   -4.13 KCAL/MOL
REMARK 924 INTRA-LIGAND FREE ENERGY PREDICTED BY IDOCK:   -1.12 KCAL/MOL
REMARK 927      BINDING AFFINITY PREDICTED BY RF-SCORE:    0.00 PKD
ROOT
HETATM    1  C   UNL     1     -11.452   2.616  73.541  1.00  0.00    -0.133 C  
HETATM    2  N   UNL     1     -10.425   3.686  73.205  1.00  0.00    -0.167 N  
HETATM    3  C   UNL     1      -9.268   3.639  74.208  1.00  0.00    -0.088 C  
HETATM    4  C   UNL     1      -8.269   4.744  73.855  1.00  0.00    -0.105 C  
HETATM    5  C   UNL     1      -8.706   5.516  72.595  1.00  0.00    -0.123 C  
HETATM    6  C   UNL     1      -8.844   4.507  71.450  1.00  0.00    -0.153 C  
HETATM    7  C   UNL     1     -10.079   6.174  72.857  1.00  0.00    -0.182 C  
HETATM    8  C   UNL     1      -9.869   3.427  71.796  1.00  0.00    -0.159 C  
HETATM    9  C   UNL     1     -11.099   5.086  73.269  1.00  0.00    -0.337 C  
ENDROOT
BRANCH   7  10
HETATM   10  O   UNL     1     -10.400   7.100  71.778  1.00  0.00    -0.197 OA 
BRANCH  10  11
HETATM   11  C   UNL     1      -9.605   8.124  71.325  1.00  0.00    -0.162 C  
HETATM   12  O   UNL     1      -9.225   9.036  72.050  1.00  0.00    -0.373 OA 
HETATM   13  C   UNL     1      -9.300   7.930  69.781  1.00  0.00    -0.153 C  
HETATM   14  C   UNL     1      -7.867   7.445  69.480  1.00  0.00    -0.121 A  
HETATM   15  C   UNL     1      -9.650   9.211  69.001  1.00  0.00    -0.156 A  
HETATM   16  O   UNL     1     -10.181   6.883  69.308  1.00  0.00    -0.175 OA 
HETATM   17  H   UNL     1      -9.998   6.766  68.383  1.00  0.00     0.000 HD 
HETATM   18  C   UNL     1      -7.613   6.703  68.300  1.00  0.00    -0.104 A  
HETATM   19  C   UNL     1      -8.967  10.419  69.233  1.00  0.00    -0.176 A  
HETATM   20  C   UNL     1      -6.334   6.231  67.991  1.00  0.00    -0.040 A  
HETATM   21  C   UNL     1      -9.288  11.578  68.520  1.00  0.00    -0.171 A  
HETATM   22  C   UNL     1     -10.294  11.552  67.553  1.00  0.00    -0.220 A  
HETATM   23  C   UNL     1      -5.269   6.505  68.837  1.00  0.00    -0.012 A  
HETATM   24  C   UNL     1      -5.480   7.271  69.981  1.00  0.00    -0.023 A  
HETATM   25  C   UNL     1     -10.978  10.371  67.304  1.00  0.00    -0.306 A  
HETATM   26  C   UNL     1     -10.659   9.212  68.017  1.00  0.00    -0.253 A  
HETATM   27  C   UNL     1      -6.762   7.744  70.297  1.00  0.00    -0.038 A  
ENDBRANCH  10  11
ENDBRANCH   7  10
TORSDOF 2
ENDMDL
MODEL      133
REMARK 921   NORMALIZED FREE ENERGY PREDICTED BY IDOCK:   -3.69 KCAL/MOL
REMARK 922        TOTAL FREE ENERGY PREDICTED BY IDOCK:   -5.21 KCAL/MOL
REMARK 923 INTER-LIGAND FREE ENERGY PREDICTED BY IDOCK:   -4.23 KCAL/MOL
REMARK 924 INTRA-LIGAND FREE ENERGY PREDICTED BY IDOCK:   -0.97 KCAL/MOL
REMARK 927      BINDING AFFINITY PREDICTED BY RF-SCORE:    0.00 PKD
ROOT
HETATM    1  C   UNL     1     -10.731   5.487  73.374  1.00  0.00    -0.278 C  
HETATM    2  N   UNL     1      -9.766   5.566  72.201  1.00  0.00    -0.156 N  
HETATM    3  C   UNL     1      -8.469   4.822  72.535  1.00  0.00    -0.116 C  
HETATM    4  C   UNL     1      -7.514   4.944  71.344  1.00  0.00    -0.078 C  
HETATM    5  C   UNL     1      -8.160   5.723  70.183  1.00  0.00    -0.108 C  
HETATM    6  C   UNL     1      -9.449   4.995  69.787  1.00  0.00    -0.215 C  
HETATM    7  C   UNL     1      -8.512   7.148  70.666  1.00  0.00    -0.138 C  
HETATM    8  C   UNL     1     -10.411   4.908  70.971  1.00  0.00    -0.094 C  
HETATM    9  C   UNL     1      -9.436   7.057  71.904  1.00  0.00    -0.140 C  
ENDROOT
BRANCH   7  10
HETATM   10  O   UNL     1      -8.900   7.976  69.530  1.00  0.00    -0.142 OA 
BRANCH  10  11
HETATM   11  C   UNL     1      -8.290   8.001  68.299  1.00  0.00    -0.123 C  
HETATM   12  O   UNL     1      -7.094   8.227  68.158  1.00  0.00    -0.078 OA 
HETATM   13  C   UNL     1      -9.357   7.714  67.161  1.00  0.00    -0.146 C  
HETATM   14  C   UNL     1      -9.259   6.302  66.549  1.00  0.00    -0.169 A  
HETATM   15  C   UNL     1      -9.299   8.814  66.085  1.00  0.00    -0.297 A  
HETATM   16  O   UNL     1     -10.663   7.788  67.783  1.00  0.00    -0.402 OA 
HETATM   17  H   UNL     1     -11.302   7.616  67.101  1.00  0.00     0.000 HD 
HETATM   18  C   UNL     1     -10.412   5.703  65.985  1.00  0.00     0.021 A  
HETATM   19  C   UNL     1      -8.150   9.007  65.296  1.00  0.00    -0.126 A  
HETATM   20  C   UNL     1     -10.376   4.420  65.431  1.00  0.00    -0.238 A  
HETATM   21  C   UNL     1      -8.105  10.006  64.319  1.00  0.00    -0.156 A  
HETATM   22  C   UNL     1      -9.211  10.828  64.103  1.00  0.00    -0.251 A  
HETATM   23  C   UNL     1      -9.185   3.709  65.402  1.00  0.00    -0.153 A  
HETATM   24  C   UNL     1      -8.024   4.291  65.908  1.00  0.00    -0.095 A  
HETATM   25  C   UNL     1     -10.358  10.653  64.865  1.00  0.00    -0.347 A  
HETATM   26  C   UNL     1     -10.403   9.656  65.843  1.00  0.00    -0.103 A  
HETATM   27  C   UNL     1      -8.057   5.576  66.468  1.00  0.00    -0.105 A  
ENDBRANCH  10  11
ENDBRANCH   7  10
TORSDOF 2
ENDMDL
MODEL      134
REMARK 921   NORMALIZED FREE ENERGY PREDICTED BY IDOCK:   -3.69 KCAL/MOL
REMARK 922        TOTAL FREE ENERGY PREDICTED BY IDOCK:   -5.21 KCAL/MOL
REMARK 923 INTER-LIGAND FREE ENERGY PREDICTED BY IDOCK:   -4.87 KCAL/MOL
REMARK 924 INTRA-LIGAND FREE ENERGY PREDICTED BY IDOCK:   -0.34 KCAL/MOL
REMARK 927      BINDING AFFINITY PREDICTED BY RF-SCORE:    0.00 PKD
ROOT
HETATM    1  C   UNL     1      -7.845  17.888  68.612  1.00  0.00    -0.290 C  
HETATM    2  N   UNL     1      -8.875  16.897  68.091  1.00  0.00    -0.217 N  
HETATM    3  C   UNL     1     -10.248  17.194  68.703  1.00  0.00    -0.336 C  
HETATM    4  C   UNL     1     -11.251  16.163  68.178  1.00  0.00    -0.311 C  
HETATM    5  C   UNL     1     -10.591  15.194  67.179  1.00  0.00    -0.295 C  
HETATM    6  C   UNL     1     -10.001  16.027  66.035  1.00  0.00    -0.365 C  
HETATM    7  C   UNL     1      -9.450  14.435  67.891  1.00  0.00    -0.214 C  
HETATM    8  C   UNL     1      -8.975  17.029  66.564  1.00  0.00    -0.269 C  
HETATM    9  C   UNL     1      -8.445  15.454  68.481  1.00  0.00    -0.163 C  
ENDROOT
BRANCH   7  10
HETATM   10  O   UNL     1      -8.971  13.349  67.045  1.00  0.00    -0.217 OA 
BRANCH  10  11
HETATM   11  C   UNL     1      -8.128  12.335  67.426  1.00  0.00    -0.175 C  
HETATM   12  O   UNL     1      -7.133  12.526  68.117  1.00  0.00    -0.084 OA 
HETATM   13  C   UNL     1      -8.636  10.955  66.831  1.00  0.00    -0.136 C  
HETATM   14  C   UNL     1      -9.299  10.029  67.871  1.00  0.00    -0.151 A  
HETATM   15  C   UNL     1      -7.499  10.249  66.071  1.00  0.00    -0.128 A  
HETATM   16  O   UNL     1      -9.669  11.271  65.866  1.00  0.00    -0.207 OA 
HETATM   17  H   UNL     1      -9.975  10.445  65.510  1.00  0.00     0.000 HD 
HETATM   18  C   UNL     1     -10.270   9.087  67.451  1.00  0.00    -0.308 A  
HETATM   19  C   UNL     1      -6.337   9.812  66.732  1.00  0.00    -0.065 A  
HETATM   20  C   UNL     1     -10.907   8.235  68.358  1.00  0.00     0.036 A  
HETATM   21  C   UNL     1      -5.309   9.168  66.037  1.00  0.00    -0.040 A  
HETATM   22  C   UNL     1      -5.425   8.940  64.666  1.00  0.00    -0.051 A  
HETATM   23  C   UNL     1     -10.577   8.282  69.705  1.00  0.00    -0.222 A  
HETATM   24  C   UNL     1      -9.593   9.167  70.141  1.00  0.00    -0.235 A  
HETATM   25  C   UNL     1      -6.564   9.356  63.992  1.00  0.00    -0.095 A  
HETATM   26  C   UNL     1      -7.592  10.001  64.686  1.00  0.00    -0.143 A  
HETATM   27  C   UNL     1      -8.954  10.026  69.234  1.00  0.00    -0.186 A  
ENDBRANCH  10  11
ENDBRANCH   7  10
TORSDOF 2
ENDMDL
MODEL      135
REMARK 921   NORMALIZED FREE ENERGY PREDICTED BY IDOCK:   -3.66 KCAL/MOL
REMARK 922        TOTAL FREE ENERGY PREDICTED BY IDOCK:   -5.17 KCAL/MOL
REMARK 923 INTER-LIGAND FREE ENERGY PREDICTED BY IDOCK:   -4.72 KCAL/MOL
REMARK 924 INTRA-LIGAND FREE ENERGY PREDICTED BY IDOCK:   -0.46 KCAL/MOL
REMARK 927      BINDING AFFINITY PREDICTED BY RF-SCORE:    0.00 PKD
ROOT
HETATM    1  C   UNL     1      -8.086  15.971  66.792  1.00  0.00    -0.267 C  
HETATM    2  N   UNL     1      -9.454  15.347  67.019  1.00  0.00    -0.214 N  
HETATM    3  C   UNL     1     -10.335  16.294  67.840  1.00  0.00    -0.285 C  
HETATM    4  C   UNL     1     -11.691  15.623  68.072  1.00  0.00    -0.162 C  
HETATM    5  C   UNL     1     -11.765  14.249  67.379  1.00  0.00    -0.422 C  
HETATM    6  C   UNL     1     -11.499  14.460  65.884  1.00  0.00    -0.341 C  
HETATM    7  C   UNL     1     -10.668  13.330  67.963  1.00  0.00    -0.240 C  
HETATM    8  C   UNL     1     -10.127  15.098  65.661  1.00  0.00    -0.363 C  
HETATM    9  C   UNL     1      -9.287  14.007  67.792  1.00  0.00    -0.205 C  
ENDROOT
BRANCH   7  10
HETATM   10  O   UNL     1     -10.869  11.962  67.502  1.00  0.00    -0.219 OA 
BRANCH  10  11
HETATM   11  C   UNL     1      -9.890  11.094  67.087  1.00  0.00    -0.187 C  
HETATM   12  O   UNL     1      -9.596  10.943  65.907  1.00  0.00    -0.198 OA 
HETATM   13  C   UNL     1      -9.256  10.354  68.339  1.00  0.00    -0.147 C  
HETATM   14  C   UNL     1      -7.852  10.861  68.724  1.00  0.00    -0.132 A  
HETATM   15  C   UNL     1      -9.282   8.829  68.129  1.00  0.00    -0.145 A  
HETATM   16  O   UNL     1     -10.108  10.648  69.474  1.00  0.00    -0.330 OA 
HETATM   17  H   UNL     1      -9.728  10.205  70.224  1.00  0.00     0.000 HD 
HETATM   18  C   UNL     1      -7.409  10.747  70.064  1.00  0.00     0.110 A  
HETATM   19  C   UNL     1      -8.550   8.220  67.094  1.00  0.00    -0.123 A  
HETATM   20  C   UNL     1      -6.150  11.203  70.463  1.00  0.00    -0.084 A  
HETATM   21  C   UNL     1      -8.575   6.835  66.910  1.00  0.00    -0.116 A  
HETATM   22  C   UNL     1      -9.327   6.027  67.763  1.00  0.00    -0.106 A  
HETATM   23  C   UNL     1      -5.287  11.764  69.532  1.00  0.00    -0.063 A  
HETATM   24  C   UNL     1      -5.676  11.848  68.197  1.00  0.00    -0.048 A  
HETATM   25  C   UNL     1     -10.053   6.604  68.795  1.00  0.00    -0.168 A  
HETATM   26  C   UNL     1     -10.030   7.989  68.979  1.00  0.00    -0.186 A  
HETATM   27  C   UNL     1      -6.941  11.394  67.794  1.00  0.00    -0.076 A  
ENDBRANCH  10  11
ENDBRANCH   7  10
TORSDOF 2
ENDMDL
MODEL      136
REMARK 921   NORMALIZED FREE ENERGY PREDICTED BY IDOCK:   -3.65 KCAL/MOL
REMARK 922        TOTAL FREE ENERGY PREDICTED BY IDOCK:   -5.16 KCAL/MOL
REMARK 923 INTER-LIGAND FREE ENERGY PREDICTED BY IDOCK:   -4.55 KCAL/MOL
REMARK 924 INTRA-LIGAND FREE ENERGY PREDICTED BY IDOCK:   -0.60 KCAL/MOL
REMARK 927      BINDING AFFINITY PREDICTED BY RF-SCORE:    0.00 PKD
ROOT
HETATM    1  C   UNL     1     -12.587  13.170  64.257  1.00  0.00    -0.209 C  
HETATM    2  N   UNL     1     -11.630  13.801  65.257  1.00  0.00    -0.313 N  
HETATM    3  C   UNL     1     -11.137  15.154  64.732  1.00  0.00    -0.382 C  
HETATM    4  C   UNL     1     -10.159  15.746  65.750  1.00  0.00    -0.399 C  
HETATM    5  C   UNL     1     -10.013  14.837  66.985  1.00  0.00    -0.238 C  
HETATM    6  C   UNL     1     -11.406  14.650  67.599  1.00  0.00    -0.350 C  
HETATM    7  C   UNL     1      -9.469  13.462  66.538  1.00  0.00    -0.245 C  
HETATM    8  C   UNL     1     -12.366  14.025  66.587  1.00  0.00    -0.371 C  
HETATM    9  C   UNL     1     -10.410  12.860  65.468  1.00  0.00    -0.291 C  
ENDROOT
BRANCH   7  10
HETATM   10  O   UNL     1      -9.097  12.673  67.706  1.00  0.00    -0.176 OA 
BRANCH  10  11
HETATM   11  C   UNL     1      -9.190  11.308  67.826  1.00  0.00    -0.156 C  
HETATM   12  O   UNL     1     -10.243  10.738  68.090  1.00  0.00    -0.163 OA 
HETATM   13  C   UNL     1      -7.770  10.644  67.588  1.00  0.00    -0.097 C  
HETATM   14  C   UNL     1      -7.623   9.945  66.221  1.00  0.00    -0.102 A  
HETATM   15  C   UNL     1      -7.415   9.706  68.756  1.00  0.00    -0.075 A  
HETATM   16  O   UNL     1      -6.800  11.720  67.588  1.00  0.00    -0.082 OA 
HETATM   17  H   UNL     1      -5.949  11.323  67.446  1.00  0.00     0.000 HD 
HETATM   18  C   UNL     1      -6.342   9.823  65.631  1.00  0.00    -0.074 A  
HETATM   19  C   UNL     1      -8.176   8.555  69.028  1.00  0.00    -0.116 A  
HETATM   20  C   UNL     1      -6.161   9.209  64.388  1.00  0.00    -0.071 A  
HETATM   21  C   UNL     1      -7.848   7.706  70.088  1.00  0.00    -0.097 A  
HETATM   22  C   UNL     1      -6.745   7.985  70.895  1.00  0.00    -0.037 A  
HETATM   23  C   UNL     1      -7.249   8.679  63.710  1.00  0.00    -0.097 A  
HETATM   24  C   UNL     1      -8.516   8.744  64.286  1.00  0.00    -0.130 A  
HETATM   25  C   UNL     1      -5.975   9.112  70.644  1.00  0.00    -0.044 A  
HETATM   26  C   UNL     1      -6.304   9.962  69.585  1.00  0.00    -0.049 A  
HETATM   27  C   UNL     1      -8.702   9.363  65.531  1.00  0.00    -0.190 A  
ENDBRANCH  10  11
ENDBRANCH   7  10
TORSDOF 2
ENDMDL
MODEL      137
REMARK 921   NORMALIZED FREE ENERGY PREDICTED BY IDOCK:   -3.65 KCAL/MOL
REMARK 922        TOTAL FREE ENERGY PREDICTED BY IDOCK:   -5.15 KCAL/MOL
REMARK 923 INTER-LIGAND FREE ENERGY PREDICTED BY IDOCK:   -4.56 KCAL/MOL
REMARK 924 INTRA-LIGAND FREE ENERGY PREDICTED BY IDOCK:   -0.59 KCAL/MOL
REMARK 927      BINDING AFFINITY PREDICTED BY RF-SCORE:    0.00 PKD
ROOT
HETATM    1  C   UNL     1     -12.155  12.734  64.222  1.00  0.00    -0.425 C  
HETATM    2  N   UNL     1     -11.400  13.381  65.373  1.00  0.00    -0.290 N  
HETATM    3  C   UNL     1     -11.377  14.903  65.199  1.00  0.00    -0.379 C  
HETATM    4  C   UNL     1     -10.588  15.516  66.358  1.00  0.00    -0.312 C  
HETATM    5  C   UNL     1     -10.110  14.436  67.347  1.00  0.00    -0.243 C  
HETATM    6  C   UNL     1     -11.346  13.683  67.855  1.00  0.00    -0.325 C  
HETATM    7  C   UNL     1      -9.185  13.446  66.605  1.00  0.00    -0.214 C  
HETATM    8  C   UNL     1     -12.108  13.044  66.694  1.00  0.00    -0.319 C  
HETATM    9  C   UNL     1      -9.938  12.848  65.393  1.00  0.00    -0.194 C  
ENDROOT
BRANCH   7  10
HETATM   10  O   UNL     1      -8.533  12.562  67.564  1.00  0.00    -0.157 OA 
BRANCH  10  11
HETATM   11  C   UNL     1      -8.019  11.316  67.300  1.00  0.00    -0.141 C  
HETATM   12  O   UNL     1      -7.265  11.098  66.358  1.00  0.00    -0.138 OA 
HETATM   13  C   UNL     1      -8.558  10.271  68.364  1.00  0.00    -0.125 C  
HETATM   14  C   UNL     1      -7.514   9.855  69.420  1.00  0.00    -0.108 A  
HETATM   15  C   UNL     1      -9.176   9.054  67.653  1.00  0.00    -0.150 A  
HETATM   16  O   UNL     1      -9.620  10.930  69.096  1.00  0.00    -0.317 OA 
HETATM   17  H   UNL     1      -9.943  10.304  69.734  1.00  0.00     0.000 HD 
HETATM   18  C   UNL     1      -7.944   9.425  70.699  1.00  0.00    -0.189 A  
HETATM   19  C   UNL     1      -8.397   8.201  66.851  1.00  0.00    -0.115 A  
HETATM   20  C   UNL     1      -7.036   9.050  71.693  1.00  0.00    -0.011 A  
HETATM   21  C   UNL     1      -8.963   7.095  66.210  1.00  0.00    -0.181 A  
HETATM   22  C   UNL     1     -10.321   6.814  66.365  1.00  0.00     0.014 A  
HETATM   23  C   UNL     1      -5.673   9.070  71.432  1.00  0.00    -0.055 A  
HETATM   24  C   UNL     1      -5.221   9.445  70.168  1.00  0.00    -0.028 A  
HETATM   25  C   UNL     1     -11.109   7.638  67.155  1.00  0.00     0.129 A  
HETATM   26  C   UNL     1     -10.544   8.744  67.795  1.00  0.00    -0.256 A  
HETATM   27  C   UNL     1      -6.130   9.826  69.169  1.00  0.00    -0.037 A  
ENDBRANCH  10  11
ENDBRANCH   7  10
TORSDOF 2
ENDMDL
MODEL      138
REMARK 921   NORMALIZED FREE ENERGY PREDICTED BY IDOCK:   -3.63 KCAL/MOL
REMARK 922        TOTAL FREE ENERGY PREDICTED BY IDOCK:   -5.14 KCAL/MOL
REMARK 923 INTER-LIGAND FREE ENERGY PREDICTED BY IDOCK:   -4.11 KCAL/MOL
REMARK 924 INTRA-LIGAND FREE ENERGY PREDICTED BY IDOCK:   -1.03 KCAL/MOL
REMARK 927      BINDING AFFINITY PREDICTED BY RF-SCORE:    0.00 PKD
ROOT
HETATM    1  C   UNL     1      -6.191   7.420  74.134  1.00  0.00    -0.077 C  
HETATM    2  N   UNL     1      -7.399   7.428  73.210  1.00  0.00    -0.072 N  
HETATM    3  C   UNL     1      -8.639   7.915  73.967  1.00  0.00    -0.264 C  
HETATM    4  C   UNL     1      -9.837   7.885  73.015  1.00  0.00    -0.355 C  
HETATM    5  C   UNL     1      -9.423   7.427  71.604  1.00  0.00    -0.163 C  
HETATM    6  C   UNL     1      -8.337   8.384  71.098  1.00  0.00    -0.163 C  
HETATM    7  C   UNL     1      -8.839   5.999  71.688  1.00  0.00    -0.139 C  
HETATM    8  C   UNL     1      -7.130   8.381  72.035  1.00  0.00    -0.093 C  
HETATM    9  C   UNL     1      -7.656   5.986  72.686  1.00  0.00    -0.099 C  
ENDROOT
BRANCH   7  10
HETATM   10  O   UNL     1      -8.664   5.454  70.347  1.00  0.00    -0.124 OA 
BRANCH  10  11
HETATM   11  C   UNL     1      -9.569   5.529  69.317  1.00  0.00    -0.136 C  
HETATM   12  O   UNL     1     -10.731   5.155  69.428  1.00  0.00    -0.166 OA 
HETATM   13  C   UNL     1      -8.873   6.138  68.028  1.00  0.00    -0.111 C  
HETATM   14  C   UNL     1      -9.271   7.598  67.730  1.00  0.00    -0.141 A  
HETATM   15  C   UNL     1      -9.099   5.219  66.813  1.00  0.00    -0.118 A  
HETATM   16  O   UNL     1      -7.449   6.161  68.293  1.00  0.00    -0.083 OA 
HETATM   17  H   UNL     1      -7.032   6.527  67.522  1.00  0.00     0.000 HD 
HETATM   18  C   UNL     1      -8.373   8.438  67.026  1.00  0.00    -0.114 A  
HETATM   19  C   UNL     1     -10.388   4.984  66.303  1.00  0.00    -0.332 A  
HETATM   20  C   UNL     1      -8.684   9.771  66.744  1.00  0.00    -0.140 A  
HETATM   21  C   UNL     1     -10.586   4.151  65.198  1.00  0.00    -0.139 A  
HETATM   22  C   UNL     1      -9.497   3.541  64.574  1.00  0.00    -0.154 A  
HETATM   23  C   UNL     1      -9.907  10.298  67.134  1.00  0.00    -0.228 A  
HETATM   24  C   UNL     1     -10.828   9.483  67.788  1.00  0.00    -0.258 A  
HETATM   25  C   UNL     1      -8.215   3.762  65.056  1.00  0.00    -0.097 A  
HETATM   26  C   UNL     1      -8.016   4.594  66.162  1.00  0.00    -0.103 A  
HETATM   27  C   UNL     1     -10.519   8.145  68.076  1.00  0.00    -0.242 A  
ENDBRANCH  10  11
ENDBRANCH   7  10
TORSDOF 2
ENDMDL
MODEL      139
REMARK 921   NORMALIZED FREE ENERGY PREDICTED BY IDOCK:   -3.61 KCAL/MOL
REMARK 922        TOTAL FREE ENERGY PREDICTED BY IDOCK:   -5.11 KCAL/MOL
REMARK 923 INTER-LIGAND FREE ENERGY PREDICTED BY IDOCK:   -4.86 KCAL/MOL
REMARK 924 INTRA-LIGAND FREE ENERGY PREDICTED BY IDOCK:   -0.25 KCAL/MOL
REMARK 927      BINDING AFFINITY PREDICTED BY RF-SCORE:    0.00 PKD
ROOT
HETATM    1  C   UNL     1      -7.025   8.262  64.806  1.00  0.00    -0.075 C  
HETATM    2  N   UNL     1      -7.431   9.086  66.019  1.00  0.00    -0.093 N  
HETATM    3  C   UNL     1      -8.747   8.557  66.598  1.00  0.00    -0.125 C  
HETATM    4  C   UNL     1      -9.137   9.424  67.798  1.00  0.00    -0.134 C  
HETATM    5  C   UNL     1      -8.080  10.510  68.074  1.00  0.00    -0.111 C  
HETATM    6  C   UNL     1      -6.737   9.810  68.310  1.00  0.00    -0.060 C  
HETATM    7  C   UNL     1      -7.963  11.427  66.836  1.00  0.00    -0.158 C  
HETATM    8  C   UNL     1      -6.337   8.975  67.093  1.00  0.00    -0.060 C  
HETATM    9  C   UNL     1      -7.621  10.570  65.594  1.00  0.00    -0.134 C  
ENDROOT
BRANCH   7  10
HETATM   10  O   UNL     1      -7.153  12.595  67.158  1.00  0.00    -0.129 OA 
BRANCH  10  11
HETATM   11  C   UNL     1      -7.429  13.533  68.122  1.00  0.00    -0.132 C  
HETATM   12  O   UNL     1      -7.046  13.423  69.282  1.00  0.00    -0.056 OA 
HETATM   13  C   UNL     1      -8.295  14.708  67.502  1.00  0.00    -0.190 C  
HETATM   14  C   UNL     1      -7.507  16.012  67.265  1.00  0.00    -0.236 A  
HETATM   15  C   UNL     1      -9.560  14.945  68.348  1.00  0.00    -0.209 A  
HETATM   16  O   UNL     1      -8.728  14.263  66.193  1.00  0.00    -0.412 OA 
HETATM   17  H   UNL     1      -9.247  14.967  65.821  1.00  0.00     0.000 HD 
HETATM   18  C   UNL     1      -7.924  16.907  66.250  1.00  0.00    -0.350 A  
HETATM   19  C   UNL     1      -9.477  15.384  69.681  1.00  0.00    -0.220 A  
HETATM   20  C   UNL     1      -7.234  18.095  65.989  1.00  0.00    -0.305 A  
HETATM   21  C   UNL     1     -10.629  15.600  70.443  1.00  0.00    -0.287 A  
HETATM   22  C   UNL     1     -11.890  15.388  69.885  1.00  0.00    -0.373 A  
HETATM   23  C   UNL     1      -6.124  18.435  66.748  1.00  0.00    -0.179 A  
HETATM   24  C   UNL     1      -5.717  17.596  67.784  1.00  0.00    -0.143 A  
HETATM   25  C   UNL     1     -11.997  14.960  68.569  1.00  0.00    -0.275 A  
HETATM   26  C   UNL     1     -10.846  14.743  67.807  1.00  0.00    -0.278 A  
HETATM   27  C   UNL     1      -6.404  16.401  68.046  1.00  0.00    -0.137 A  
ENDBRANCH  10  11
ENDBRANCH   7  10
TORSDOF 2
ENDMDL
MODEL      140
REMARK 921   NORMALIZED FREE ENERGY PREDICTED BY IDOCK:   -3.59 KCAL/MOL
REMARK 922        TOTAL FREE ENERGY PREDICTED BY IDOCK:   -5.09 KCAL/MOL
REMARK 923 INTER-LIGAND FREE ENERGY PREDICTED BY IDOCK:   -4.47 KCAL/MOL
REMARK 924 INTRA-LIGAND FREE ENERGY PREDICTED BY IDOCK:   -0.62 KCAL/MOL
REMARK 927      BINDING AFFINITY PREDICTED BY RF-SCORE:    0.00 PKD
ROOT
HETATM    1  C   UNL     1     -12.238  13.325  64.956  1.00  0.00    -0.432 C  
HETATM    2  N   UNL     1     -11.581  13.398  66.327  1.00  0.00    -0.330 N  
HETATM    3  C   UNL     1     -11.947  14.717  67.016  1.00  0.00    -0.276 C  
HETATM    4  C   UNL     1     -11.248  14.767  68.377  1.00  0.00    -0.298 C  
HETATM    5  C   UNL     1     -10.447  13.479  68.647  1.00  0.00    -0.242 C  
HETATM    6  C   UNL     1     -11.418  12.295  68.565  1.00  0.00    -0.349 C  
HETATM    7  C   UNL     1      -9.364  13.321  67.556  1.00  0.00    -0.218 C  
HETATM    8  C   UNL     1     -12.084  12.231  67.190  1.00  0.00     0.057 C  
HETATM    9  C   UNL     1     -10.036  13.321  66.162  1.00  0.00    -0.293 C  
ENDROOT
BRANCH   7  10
HETATM   10  O   UNL     1      -8.446  12.249  67.920  1.00  0.00    -0.146 OA 
BRANCH  10  11
HETATM   11  C   UNL     1      -7.491  11.688  67.108  1.00  0.00    -0.146 C  
HETATM   12  O   UNL     1      -6.474  12.285  66.772  1.00  0.00    -0.092 OA 
HETATM   13  C   UNL     1      -7.926  10.219  66.696  1.00  0.00    -0.116 C  
HETATM   14  C   UNL     1      -7.147   9.106  67.425  1.00  0.00    -0.079 A  
HETATM   15  C   UNL     1      -7.872  10.054  65.166  1.00  0.00    -0.136 A  
HETATM   16  O   UNL     1      -9.309  10.065  67.098  1.00  0.00    -0.146 OA 
HETATM   17  H   UNL     1      -9.570   9.184  66.852  1.00  0.00     0.000 HD 
HETATM   18  C   UNL     1      -7.752   7.840  67.618  1.00  0.00    -0.121 A  
HETATM   19  C   UNL     1      -6.658  10.153  64.462  1.00  0.00    -0.118 A  
HETATM   20  C   UNL     1      -7.091   6.804  68.285  1.00  0.00    -0.086 A  
HETATM   21  C   UNL     1      -6.615   9.999  63.073  1.00  0.00    -0.130 A  
HETATM   22  C   UNL     1      -7.785   9.735  62.359  1.00  0.00    -0.128 A  
HETATM   23  C   UNL     1      -5.800   6.993  68.755  1.00  0.00    -0.019 A  
HETATM   24  C   UNL     1      -5.162   8.213  68.540  1.00  0.00    -0.032 A  
HETATM   25  C   UNL     1      -8.993   9.628  63.033  1.00  0.00    -0.257 A  
HETATM   26  C   UNL     1      -9.037   9.783  64.421  1.00  0.00    -0.296 A  
HETATM   27  C   UNL     1      -5.823   9.256  67.875  1.00  0.00    -0.041 A  
ENDBRANCH  10  11
ENDBRANCH   7  10
TORSDOF 2
ENDMDL
MODEL      141
REMARK 921   NORMALIZED FREE ENERGY PREDICTED BY IDOCK:   -3.58 KCAL/MOL
REMARK 922        TOTAL FREE ENERGY PREDICTED BY IDOCK:   -5.08 KCAL/MOL
REMARK 923 INTER-LIGAND FREE ENERGY PREDICTED BY IDOCK:   -4.87 KCAL/MOL
REMARK 924 INTRA-LIGAND FREE ENERGY PREDICTED BY IDOCK:   -0.20 KCAL/MOL
REMARK 927      BINDING AFFINITY PREDICTED BY RF-SCORE:    0.00 PKD
ROOT
HETATM    1  C   UNL     1      -7.154   7.612  65.396  1.00  0.00    -0.063 C  
HETATM    2  N   UNL     1      -7.060   9.059  65.856  1.00  0.00    -0.087 N  
HETATM    3  C   UNL     1      -5.683   9.634  65.510  1.00  0.00    -0.059 C  
HETATM    4  C   UNL     1      -5.616  11.079  66.011  1.00  0.00    -0.143 C  
HETATM    5  C   UNL     1      -6.947  11.514  66.653  1.00  0.00    -0.069 C  
HETATM    6  C   UNL     1      -8.054  11.340  65.607  1.00  0.00     0.179 C  
HETATM    7  C   UNL     1      -7.246  10.599  67.862  1.00  0.00    -0.087 C  
HETATM    8  C   UNL     1      -8.137   9.888  65.139  1.00  0.00    -0.138 C  
HETATM    9  C   UNL     1      -7.267   9.123  67.397  1.00  0.00    -0.080 C  
ENDROOT
BRANCH   7  10
HETATM   10  O   UNL     1      -8.365  11.136  68.626  1.00  0.00    -0.146 OA 
BRANCH  10  11
HETATM   11  C   UNL     1      -9.615  11.429  68.138  1.00  0.00    -0.190 C  
HETATM   12  O   UNL     1     -10.346  10.581  67.640  1.00  0.00    -0.193 OA 
HETATM   13  C   UNL     1      -9.915  12.977  68.312  1.00  0.00    -0.235 C  
HETATM   14  C   UNL     1     -10.905  13.301  69.449  1.00  0.00     0.012 A  
HETATM   15  C   UNL     1     -10.356  13.591  66.970  1.00  0.00    -0.252 A  
HETATM   16  O   UNL     1      -8.664  13.606  68.684  1.00  0.00    -0.309 OA 
HETATM   17  H   UNL     1      -8.844  14.534  68.788  1.00  0.00     0.000 HD 
HETATM   18  C   UNL     1     -10.842  14.560  70.094  1.00  0.00     0.022 A  
HETATM   19  C   UNL     1     -11.544  13.185  66.335  1.00  0.00    -0.394 A  
HETATM   20  C   UNL     1     -11.710  14.895  71.138  1.00  0.00    -0.377 A  
HETATM   21  C   UNL     1     -11.941  13.748  65.119  1.00  0.00    -0.393 A  
HETATM   22  C   UNL     1     -11.162  14.735  64.515  1.00  0.00    -0.283 A  
HETATM   23  C   UNL     1     -12.679  13.993  71.552  1.00  0.00    -0.443 A  
HETATM   24  C   UNL     1     -12.794  12.764  70.906  1.00  0.00    -0.187 A  
HETATM   25  C   UNL     1      -9.989  15.156  65.125  1.00  0.00    -0.267 A  
HETATM   26  C   UNL     1      -9.591  14.593  66.341  1.00  0.00    -0.323 A  
HETATM   27  C   UNL     1     -11.923  12.423  69.861  1.00  0.00    -0.369 A  
ENDBRANCH  10  11
ENDBRANCH   7  10
TORSDOF 2
ENDMDL
MODEL      142
REMARK 921   NORMALIZED FREE ENERGY PREDICTED BY IDOCK:   -3.57 KCAL/MOL
REMARK 922        TOTAL FREE ENERGY PREDICTED BY IDOCK:   -5.07 KCAL/MOL
REMARK 923 INTER-LIGAND FREE ENERGY PREDICTED BY IDOCK:   -4.30 KCAL/MOL
REMARK 924 INTRA-LIGAND FREE ENERGY PREDICTED BY IDOCK:   -0.77 KCAL/MOL
REMARK 927      BINDING AFFINITY PREDICTED BY RF-SCORE:    0.00 PKD
ROOT
HETATM    1  C   UNL     1     -12.137   7.888  72.475  1.00  0.00    -0.246 C  
HETATM    2  N   UNL     1     -10.803   8.046  71.761  1.00  0.00    -0.232 N  
HETATM    3  C   UNL     1      -9.664   8.119  72.783  1.00  0.00    -0.281 C  
HETATM    4  C   UNL     1      -8.344   8.304  72.031  1.00  0.00    -0.219 C  
HETATM    5  C   UNL     1      -8.561   8.310  70.506  1.00  0.00    -0.131 C  
HETATM    6  C   UNL     1      -9.238   6.990  70.121  1.00  0.00    -0.152 C  
HETATM    7  C   UNL     1      -9.494   9.484  70.134  1.00  0.00    -0.246 C  
HETATM    8  C   UNL     1     -10.573   6.831  70.849  1.00  0.00    -0.220 C  
HETATM    9  C   UNL     1     -10.820   9.355  70.921  1.00  0.00    -0.322 C  
ENDROOT
BRANCH   7  10
HETATM   10  O   UNL     1      -9.522   9.657  68.687  1.00  0.00    -0.143 OA 
BRANCH  10  11
HETATM   11  C   UNL     1      -8.461   9.494  67.830  1.00  0.00    -0.119 C  
HETATM   12  O   UNL     1      -7.353   9.970  68.051  1.00  0.00    -0.085 OA 
HETATM   13  C   UNL     1      -8.909   8.641  66.570  1.00  0.00    -0.138 C  
HETATM   14  C   UNL     1      -8.392   7.188  66.580  1.00  0.00    -0.117 A  
HETATM   15  C   UNL     1      -8.540   9.375  65.268  1.00  0.00    -0.182 A  
HETATM   16  O   UNL     1     -10.354   8.548  66.620  1.00  0.00    -0.298 OA 
HETATM   17  H   UNL     1     -10.622   8.037  65.866  1.00  0.00     0.000 HD 
HETATM   18  C   UNL     1      -9.120   6.182  65.899  1.00  0.00    -0.101 A  
HETATM   19  C   UNL     1      -7.200   9.628  64.924  1.00  0.00    -0.118 A  
HETATM   20  C   UNL     1      -8.699   4.849  65.890  1.00  0.00    -0.127 A  
HETATM   21  C   UNL     1      -6.872  10.292  63.739  1.00  0.00    -0.061 A  
HETATM   22  C   UNL     1      -7.878  10.712  62.868  1.00  0.00    -0.064 A  
HETATM   23  C   UNL     1      -7.528   4.486  66.540  1.00  0.00    -0.082 A  
HETATM   24  C   UNL     1      -6.767   5.462  67.180  1.00  0.00    -0.059 A  
HETATM   25  C   UNL     1      -9.207  10.469  63.183  1.00  0.00    -0.309 A  
HETATM   26  C   UNL     1      -9.536   9.806  64.368  1.00  0.00    -0.160 A  
HETATM   27  C   UNL     1      -7.188   6.800  67.195  1.00  0.00    -0.085 A  
ENDBRANCH  10  11
ENDBRANCH   7  10
TORSDOF 2
ENDMDL
MODEL      143
REMARK 921   NORMALIZED FREE ENERGY PREDICTED BY IDOCK:   -3.56 KCAL/MOL
REMARK 922        TOTAL FREE ENERGY PREDICTED BY IDOCK:   -5.06 KCAL/MOL
REMARK 923 INTER-LIGAND FREE ENERGY PREDICTED BY IDOCK:   -4.61 KCAL/MOL
REMARK 924 INTRA-LIGAND FREE ENERGY PREDICTED BY IDOCK:   -0.46 KCAL/MOL
REMARK 927      BINDING AFFINITY PREDICTED BY RF-SCORE:    0.00 PKD
ROOT
HETATM    1  C   UNL     1     -11.981  14.255  68.867  1.00  0.00    -0.320 C  
HETATM    2  N   UNL     1     -11.448  13.267  67.840  1.00  0.00    -0.287 N  
HETATM    3  C   UNL     1     -12.262  13.364  66.545  1.00  0.00    -0.356 C  
HETATM    4  C   UNL     1     -11.716  12.340  65.547  1.00  0.00    -0.433 C  
HETATM    5  C   UNL     1     -10.510  11.577  66.126  1.00  0.00    -0.296 C  
HETATM    6  C   UNL     1      -9.439  12.607  66.505  1.00  0.00    -0.247 C  
HETATM    7  C   UNL     1     -10.955  10.819  67.397  1.00  0.00    -0.300 C  
HETATM    8  C   UNL     1      -9.982  13.604  67.529  1.00  0.00    -0.230 C  
HETATM    9  C   UNL     1     -11.561  11.823  68.407  1.00  0.00    -0.318 C  
ENDROOT
BRANCH   7  10
HETATM   10  O   UNL     1      -9.903   9.905  67.824  1.00  0.00    -0.148 OA 
BRANCH  10  11
HETATM   11  C   UNL     1     -10.056   8.574  68.123  1.00  0.00    -0.200 C  
HETATM   12  O   UNL     1     -11.156   8.043  68.229  1.00  0.00     0.140 OA 
HETATM   13  C   UNL     1      -8.636   7.893  68.307  1.00  0.00    -0.124 C  
HETATM   14  C   UNL     1      -8.211   6.995  67.127  1.00  0.00    -0.118 A  
HETATM   15  C   UNL     1      -8.572   7.145  69.652  1.00  0.00    -0.137 A  
HETATM   16  O   UNL     1      -7.663   8.964  68.362  1.00  0.00    -0.096 OA 
HETATM   17  H   UNL     1      -6.811   8.556  68.472  1.00  0.00     0.000 HD 
HETATM   18  C   UNL     1      -6.835   6.794  66.861  1.00  0.00    -0.065 A  
HETATM   19  C   UNL     1      -9.405   6.043  69.917  1.00  0.00    -0.165 A  
HETATM   20  C   UNL     1      -6.401   6.001  65.795  1.00  0.00    -0.042 A  
HETATM   21  C   UNL     1      -9.340   5.367  71.139  1.00  0.00    -0.186 A  
HETATM   22  C   UNL     1      -8.435   5.774  72.119  1.00  0.00    -0.122 A  
HETATM   23  C   UNL     1      -7.327   5.366  64.980  1.00  0.00    -0.068 A  
HETATM   24  C   UNL     1      -8.687   5.508  65.245  1.00  0.00    -0.136 A  
HETATM   25  C   UNL     1      -7.599   6.855  71.879  1.00  0.00    -0.093 A  
HETATM   26  C   UNL     1      -7.664   7.532  70.658  1.00  0.00    -0.090 A  
HETATM   27  C   UNL     1      -9.127   6.307  66.311  1.00  0.00    -0.166 A  
ENDBRANCH  10  11
ENDBRANCH   7  10
TORSDOF 2
ENDMDL
MODEL      144
REMARK 921   NORMALIZED FREE ENERGY PREDICTED BY IDOCK:   -3.56 KCAL/MOL
REMARK 922        TOTAL FREE ENERGY PREDICTED BY IDOCK:   -5.05 KCAL/MOL
REMARK 923 INTER-LIGAND FREE ENERGY PREDICTED BY IDOCK:   -4.38 KCAL/MOL
REMARK 924 INTRA-LIGAND FREE ENERGY PREDICTED BY IDOCK:   -0.68 KCAL/MOL
REMARK 927      BINDING AFFINITY PREDICTED BY RF-SCORE:    0.00 PKD
ROOT
HETATM    1  C   UNL     1      -9.020   9.575  63.312  1.00  0.00    -0.182 C  
HETATM    2  N   UNL     1      -8.273   9.945  64.585  1.00  0.00    -0.144 N  
HETATM    3  C   UNL     1      -6.826  10.326  64.254  1.00  0.00    -0.057 C  
HETATM    4  C   UNL     1      -6.100  10.666  65.558  1.00  0.00    -0.105 C  
HETATM    5  C   UNL     1      -7.044  10.567  66.771  1.00  0.00    -0.109 C  
HETATM    6  C   UNL     1      -8.222  11.518  66.529  1.00  0.00    -0.129 C  
HETATM    7  C   UNL     1      -7.576   9.120  66.879  1.00  0.00    -0.091 C  
HETATM    8  C   UNL     1      -8.964  11.149  65.244  1.00  0.00    -0.121 C  
HETATM    9  C   UNL     1      -8.271   8.728  65.553  1.00  0.00    -0.132 C  
ENDROOT
BRANCH   7  10
HETATM   10  O   UNL     1      -8.275   8.942  68.146  1.00  0.00    -0.112 OA 
BRANCH  10  11
HETATM   11  C   UNL     1      -9.479   8.308  68.326  1.00  0.00    -0.138 C  
HETATM   12  O   UNL     1     -10.553   8.845  68.080  1.00  0.00    -0.221 OA 
HETATM   13  C   UNL     1      -9.242   6.844  68.891  1.00  0.00    -0.132 C  
HETATM   14  C   UNL     1      -9.454   5.727  67.850  1.00  0.00    -0.114 A  
HETATM   15  C   UNL     1     -10.085   6.618  70.160  1.00  0.00    -0.200 A  
HETATM   16  O   UNL     1      -7.849   6.767  69.278  1.00  0.00    -0.106 OA 
HETATM   17  H   UNL     1      -7.706   5.890  69.616  1.00  0.00     0.000 HD 
HETATM   18  C   UNL     1      -8.766   4.498  67.992  1.00  0.00    -0.115 A  
HETATM   19  C   UNL     1     -11.490   6.635  70.118  1.00  0.00    -0.444 A  
HETATM   20  C   UNL     1      -8.915   3.460  67.067  1.00  0.00    -0.174 A  
HETATM   21  C   UNL     1     -12.250   6.425  71.273  1.00  0.00    -0.168 A  
HETATM   22  C   UNL     1     -11.619   6.186  72.494  1.00  0.00    -0.294 A  
HETATM   23  C   UNL     1      -9.773   3.611  65.987  1.00  0.00    -0.093 A  
HETATM   24  C   UNL     1     -10.499   4.791  65.845  1.00  0.00    -0.313 A  
HETATM   25  C   UNL     1     -10.233   6.159  72.559  1.00  0.00    -0.206 A  
HETATM   26  C   UNL     1      -9.473   6.369  71.405  1.00  0.00    -0.164 A  
HETATM   27  C   UNL     1     -10.348   5.836  66.770  1.00  0.00    -0.312 A  
ENDBRANCH  10  11
ENDBRANCH   7  10
TORSDOF 2
ENDMDL
MODEL      145
REMARK 921   NORMALIZED FREE ENERGY PREDICTED BY IDOCK:   -3.45 KCAL/MOL
REMARK 922        TOTAL FREE ENERGY PREDICTED BY IDOCK:   -4.94 KCAL/MOL
REMARK 923 INTER-LIGAND FREE ENERGY PREDICTED BY IDOCK:   -5.12 KCAL/MOL
REMARK 924 INTRA-LIGAND FREE ENERGY PREDICTED BY IDOCK:    0.19 KCAL/MOL
REMARK 927      BINDING AFFINITY PREDICTED BY RF-SCORE:    0.00 PKD
ROOT
HETATM    1  C   UNL     1     -13.642   8.420  72.077  1.00  0.00    -0.357 C  
HETATM    2  N   UNL     1     -12.493   9.040  71.296  1.00  0.00    -0.307 N  
HETATM    3  C   UNL     1     -11.208   9.001  72.130  1.00  0.00    -0.216 C  
HETATM    4  C   UNL     1     -10.083   9.656  71.325  1.00  0.00    -0.026 C  
HETATM    5  C   UNL     1     -10.572  10.099  69.933  1.00  0.00    -0.331 C  
HETATM    6  C   UNL     1     -11.123   8.864  69.212  1.00  0.00     0.070 C  
HETATM    7  C   UNL     1     -11.706  11.134  70.102  1.00  0.00    -0.353 C  
HETATM    8  C   UNL     1     -12.270   8.238  70.005  1.00  0.00     0.911 C  
HETATM    9  C   UNL     1     -12.838  10.519  70.959  1.00  0.00    -0.407 C  
ENDROOT
BRANCH   7  10
HETATM   10  O   UNL     1     -12.019  11.744  68.816  1.00  0.00    -0.315 OA 
BRANCH  10  11
HETATM   11  C   UNL     1     -11.311  11.585  67.650  1.00  0.00    -0.291 C  
HETATM   12  O   UNL     1     -11.550  10.690  66.847  1.00  0.00    -0.174 OA 
HETATM   13  C   UNL     1     -10.185  12.698  67.544  1.00  0.00    -0.215 C  
HETATM   14  C   UNL     1     -10.502  13.819  66.533  1.00  0.00    -0.282 A  
HETATM   15  C   UNL     1      -8.816  12.049  67.274  1.00  0.00    -0.183 A  
HETATM   16  O   UNL     1     -10.110  13.342  68.839  1.00  0.00    -0.412 OA 
HETATM   17  H   UNL     1      -9.436  14.009  68.776  1.00  0.00     0.000 HD 
HETATM   18  C   UNL     1      -9.943  15.106  66.717  1.00  0.00    -0.246 A  
HETATM   19  C   UNL     1      -8.564  11.337  66.087  1.00  0.00    -0.156 A  
HETATM   20  C   UNL     1     -10.212  16.157  65.836  1.00  0.00    -0.381 A  
HETATM   21  C   UNL     1      -7.317  10.752  65.847  1.00  0.00    -0.094 A  
HETATM   22  C   UNL     1      -6.292  10.874  66.785  1.00  0.00    -0.097 A  
HETATM   23  C   UNL     1     -11.026  15.947  64.732  1.00  0.00    -0.392 A  
HETATM   24  C   UNL     1     -11.554  14.679  64.499  1.00  0.00    -0.377 A  
HETATM   25  C   UNL     1      -6.515  11.576  67.961  1.00  0.00    -0.054 A  
HETATM   26  C   UNL     1      -7.761  12.160  68.203  1.00  0.00    -0.129 A  
HETATM   27  C   UNL     1     -11.290  13.623  65.384  1.00  0.00    -0.311 A  
ENDBRANCH  10  11
ENDBRANCH   7  10
TORSDOF 2
ENDMDL
MODEL      146
REMARK 921   NORMALIZED FREE ENERGY PREDICTED BY IDOCK:   -3.43 KCAL/MOL
REMARK 922        TOTAL FREE ENERGY PREDICTED BY IDOCK:   -4.91 KCAL/MOL
REMARK 923 INTER-LIGAND FREE ENERGY PREDICTED BY IDOCK:   -4.44 KCAL/MOL
REMARK 924 INTRA-LIGAND FREE ENERGY PREDICTED BY IDOCK:   -0.47 KCAL/MOL
REMARK 927      BINDING AFFINITY PREDICTED BY RF-SCORE:    0.00 PKD
ROOT
HETATM    1  C   UNL     1      -6.790   8.508  64.420  1.00  0.00    -0.070 C  
HETATM    2  N   UNL     1      -7.309   7.132  64.810  1.00  0.00    -0.076 N  
HETATM    3  C   UNL     1      -7.492   6.265  63.560  1.00  0.00    -0.080 C  
HETATM    4  C   UNL     1      -8.039   4.900  63.987  1.00  0.00    -0.116 C  
HETATM    5  C   UNL     1      -8.188   4.808  65.517  1.00  0.00    -0.117 C  
HETATM    6  C   UNL     1      -6.813   5.074  66.141  1.00  0.00    -0.061 C  
HETATM    7  C   UNL     1      -9.178   5.894  65.995  1.00  0.00    -0.128 C  
HETATM    8  C   UNL     1      -6.290   6.453  65.738  1.00  0.00    -0.039 C  
HETATM    9  C   UNL     1      -8.679   7.283  65.531  1.00  0.00    -0.024 C  
ENDROOT
BRANCH   7  10
HETATM   10  O   UNL     1      -9.518   5.674  67.395  1.00  0.00    -0.112 OA 
BRANCH  10  11
HETATM   11  C   UNL     1      -9.068   6.409  68.464  1.00  0.00    -0.126 C  
HETATM   12  O   UNL     1      -7.995   6.187  69.014  1.00  0.00    -0.105 OA 
HETATM   13  C   UNL     1     -10.133   7.521  68.844  1.00  0.00    -0.192 C  
HETATM   14  C   UNL     1      -9.730   8.948  68.420  1.00  0.00    -0.175 A  
HETATM   15  C   UNL     1     -10.479   7.440  70.342  1.00  0.00    -0.230 A  
HETATM   16  O   UNL     1     -11.340   7.214  68.105  1.00  0.00    -0.479 OA 
HETATM   17  H   UNL     1     -11.978   7.881  68.332  1.00  0.00     0.000 HD 
HETATM   18  C   UNL     1     -10.735   9.911  68.160  1.00  0.00    -0.279 A  
HETATM   19  C   UNL     1      -9.510   7.686  71.332  1.00  0.00    -0.166 A  
HETATM   20  C   UNL     1     -10.419  11.213  67.760  1.00  0.00    -0.225 A  
HETATM   21  C   UNL     1      -9.832   7.615  72.690  1.00  0.00    -0.262 A  
HETATM   22  C   UNL     1     -11.132   7.303  73.089  1.00  0.00    -0.336 A  
HETATM   23  C   UNL     1      -9.092  11.598  67.633  1.00  0.00    -0.174 A  
HETATM   24  C   UNL     1      -8.081  10.686  67.927  1.00  0.00    -0.111 A  
HETATM   25  C   UNL     1     -12.107   7.062  72.131  1.00  0.00    -0.281 A  
HETATM   26  C   UNL     1     -11.786   7.132  70.772  1.00  0.00    -0.363 A  
HETATM   27  C   UNL     1      -8.394   9.377  68.324  1.00  0.00    -0.119 A  
ENDBRANCH  10  11
ENDBRANCH   7  10
TORSDOF 2
ENDMDL
MODEL      147
REMARK 921   NORMALIZED FREE ENERGY PREDICTED BY IDOCK:   -3.42 KCAL/MOL
REMARK 922        TOTAL FREE ENERGY PREDICTED BY IDOCK:   -4.90 KCAL/MOL
REMARK 923 INTER-LIGAND FREE ENERGY PREDICTED BY IDOCK:   -4.34 KCAL/MOL
REMARK 924 INTRA-LIGAND FREE ENERGY PREDICTED BY IDOCK:   -0.57 KCAL/MOL
REMARK 927      BINDING AFFINITY PREDICTED BY RF-SCORE:    0.00 PKD
ROOT
HETATM    1  C   UNL     1      -7.140  10.397  62.331  1.00  0.00    -0.144 C  
HETATM    2  N   UNL     1      -7.119   9.440  63.514  1.00  0.00    -0.095 N  
HETATM    3  C   UNL     1      -6.406   8.140  63.126  1.00  0.00    -0.081 C  
HETATM    4  C   UNL     1      -6.427   7.193  64.329  1.00  0.00    -0.040 C  
HETATM    5  C   UNL     1      -7.103   7.848  65.548  1.00  0.00    -0.060 C  
HETATM    6  C   UNL     1      -6.343   9.139  65.872  1.00  0.00    -0.060 C  
HETATM    7  C   UNL     1      -8.564   8.199  65.187  1.00  0.00    -0.071 C  
HETATM    8  C   UNL     1      -6.358  10.093  64.678  1.00  0.00    -0.130 C  
HETATM    9  C   UNL     1      -8.579   9.114  63.939  1.00  0.00    -0.170 C  
ENDROOT
BRANCH   7  10
HETATM   10  O   UNL     1      -9.291   8.595  66.387  1.00  0.00    -0.178 OA 
BRANCH  10  11
HETATM   11  C   UNL     1      -9.409   9.871  66.880  1.00  0.00    -0.152 C  
HETATM   12  O   UNL     1      -9.747  10.821  66.183  1.00  0.00    -0.193 OA 
HETATM   13  C   UNL     1      -9.037   9.893  68.422  1.00  0.00    -0.123 C  
HETATM   14  C   UNL     1     -10.253  10.026  69.360  1.00  0.00    -0.239 A  
HETATM   15  C   UNL     1      -7.973  10.970  68.700  1.00  0.00    -0.143 A  
HETATM   16  O   UNL     1      -8.440   8.608  68.726  1.00  0.00    -0.127 OA 
HETATM   17  H   UNL     1      -8.218   8.621  69.650  1.00  0.00     0.000 HD 
HETATM   18  C   UNL     1     -10.183   9.506  70.676  1.00  0.00    -0.364 A  
HETATM   19  C   UNL     1      -8.243  12.336  68.499  1.00  0.00    -0.096 A  
HETATM   20  C   UNL     1     -11.264   9.591  71.558  1.00  0.00    -0.437 A  
HETATM   21  C   UNL     1      -7.274  13.310  68.756  1.00  0.00    -0.088 A  
HETATM   22  C   UNL     1      -6.015  12.939  69.229  1.00  0.00    -0.093 A  
HETATM   23  C   UNL     1     -12.436  10.219  71.162  1.00  0.00    -0.495 A  
HETATM   24  C   UNL     1     -12.519  10.780  69.890  1.00  0.00    -0.277 A  
HETATM   25  C   UNL     1      -5.726  11.599  69.441  1.00  0.00    -0.065 A  
HETATM   26  C   UNL     1      -6.694  10.624  69.183  1.00  0.00    -0.073 A  
HETATM   27  C   UNL     1     -11.438  10.693  69.000  1.00  0.00    -0.342 A  
ENDBRANCH  10  11
ENDBRANCH   7  10
TORSDOF 2
ENDMDL
MODEL      148
REMARK 921   NORMALIZED FREE ENERGY PREDICTED BY IDOCK:   -3.33 KCAL/MOL
REMARK 922        TOTAL FREE ENERGY PREDICTED BY IDOCK:   -4.81 KCAL/MOL
REMARK 923 INTER-LIGAND FREE ENERGY PREDICTED BY IDOCK:   -4.71 KCAL/MOL
REMARK 924 INTRA-LIGAND FREE ENERGY PREDICTED BY IDOCK:   -0.10 KCAL/MOL
REMARK 927      BINDING AFFINITY PREDICTED BY RF-SCORE:    0.00 PKD
ROOT
HETATM    1  C   UNL     1      -7.184  17.768  68.598  1.00  0.00    -0.260 C  
HETATM    2  N   UNL     1      -8.493  17.045  68.321  1.00  0.00    -0.225 N  
HETATM    3  C   UNL     1      -9.677  17.920  68.746  1.00  0.00    -0.323 C  
HETATM    4  C   UNL     1     -10.974  17.152  68.478  1.00  0.00    -0.204 C  
HETATM    5  C   UNL     1     -10.693  15.782  67.831  1.00  0.00    -0.302 C  
HETATM    6  C   UNL     1      -9.914  16.025  66.533  1.00  0.00    -0.293 C  
HETATM    7  C   UNL     1      -9.825  14.939  68.792  1.00  0.00    -0.225 C  
HETATM    8  C   UNL     1      -8.604  16.760  66.815  1.00  0.00    -0.232 C  
HETATM    9  C   UNL     1      -8.528  15.714  69.125  1.00  0.00    -0.253 C  
ENDROOT
BRANCH   7  10
HETATM   10  O   UNL     1      -9.748  13.564  68.314  1.00  0.00    -0.218 OA 
BRANCH  10  11
HETATM   11  C   UNL     1      -8.678  12.986  67.676  1.00  0.00    -0.189 C  
HETATM   12  O   UNL     1      -7.987  13.591  66.863  1.00  0.00    -0.028 OA 
HETATM   13  C   UNL     1      -8.519  11.479  68.143  1.00  0.00    -0.154 C  
HETATM   14  C   UNL     1      -7.342  11.243  69.112  1.00  0.00    -0.104 A  
HETATM   15  C   UNL     1      -8.457  10.544  66.922  1.00  0.00    -0.125 A  
HETATM   16  O   UNL     1      -9.717  11.142  68.885  1.00  0.00    -0.250 OA 
HETATM   17  H   UNL     1      -9.621  10.239  69.165  1.00  0.00     0.000 HD 
HETATM   18  C   UNL     1      -7.398  10.167  70.031  1.00  0.00    -0.172 A  
HETATM   19  C   UNL     1      -7.403  10.621  65.993  1.00  0.00    -0.132 A  
HETATM   20  C   UNL     1      -6.362   9.921  70.937  1.00  0.00    -0.056 A  
HETATM   21  C   UNL     1      -7.350   9.767  64.888  1.00  0.00    -0.129 A  
HETATM   22  C   UNL     1      -8.347   8.811  64.692  1.00  0.00    -0.175 A  
HETATM   23  C   UNL     1      -5.232  10.726  70.936  1.00  0.00    -0.105 A  
HETATM   24  C   UNL     1      -5.129  11.764  70.013  1.00  0.00    -0.075 A  
HETATM   25  C   UNL     1      -9.394   8.712  65.597  1.00  0.00    -0.173 A  
HETATM   26  C   UNL     1      -9.448   9.566  66.702  1.00  0.00    -0.222 A  
HETATM   27  C   UNL     1      -6.168  12.016  69.105  1.00  0.00    -0.087 A  
ENDBRANCH  10  11
ENDBRANCH   7  10
TORSDOF 2
ENDMDL
MODEL      149
REMARK 921   NORMALIZED FREE ENERGY PREDICTED BY IDOCK:   -3.33 KCAL/MOL
REMARK 922        TOTAL FREE ENERGY PREDICTED BY IDOCK:   -4.80 KCAL/MOL
REMARK 923 INTER-LIGAND FREE ENERGY PREDICTED BY IDOCK:   -4.25 KCAL/MOL
REMARK 924 INTRA-LIGAND FREE ENERGY PREDICTED BY IDOCK:   -0.56 KCAL/MOL
REMARK 927      BINDING AFFINITY PREDICTED BY RF-SCORE:    0.00 PKD
ROOT
HETATM    1  C   UNL     1      -6.103   8.536  63.515  1.00  0.00    -0.077 C  
HETATM    2  N   UNL     1      -6.691   7.684  64.630  1.00  0.00    -0.050 N  
HETATM    3  C   UNL     1      -6.519   6.197  64.303  1.00  0.00    -0.033 C  
HETATM    4  C   UNL     1      -7.145   5.373  65.431  1.00  0.00    -0.066 C  
HETATM    5  C   UNL     1      -7.701   6.278  66.547  1.00  0.00    -0.099 C  
HETATM    6  C   UNL     1      -6.549   7.145  67.068  1.00  0.00    -0.059 C  
HETATM    7  C   UNL     1      -8.796   7.193  65.956  1.00  0.00    -0.131 C  
HETATM    8  C   UNL     1      -5.954   7.991  65.942  1.00  0.00    -0.038 C  
HETATM    9  C   UNL     1      -8.207   8.002  64.776  1.00  0.00    -0.121 C  
ENDROOT
BRANCH   7  10
HETATM   10  O   UNL     1      -9.500   7.883  67.030  1.00  0.00    -0.154 OA 
BRANCH  10  11
HETATM   11  C   UNL     1      -9.079   9.017  67.678  1.00  0.00    -0.133 C  
HETATM   12  O   UNL     1      -8.672  10.008  67.081  1.00  0.00    -0.128 OA 
HETATM   13  C   UNL     1      -9.194   8.819  69.248  1.00  0.00    -0.149 C  
HETATM   14  C   UNL     1     -10.375   9.574  69.892  1.00  0.00    -0.265 A  
HETATM   15  C   UNL     1      -7.855   9.154  69.929  1.00  0.00    -0.091 A  
HETATM   16  O   UNL     1      -9.453   7.412  69.473  1.00  0.00    -0.156 OA 
HETATM   17  H   UNL     1      -9.523   7.292  70.413  1.00  0.00     0.000 HD 
HETATM   18  C   UNL     1     -10.951   9.082  71.088  1.00  0.00    -0.371 A  
HETATM   19  C   UNL     1      -7.319  10.454  69.890  1.00  0.00    -0.149 A  
HETATM   20  C   UNL     1     -12.031   9.724  71.702  1.00  0.00    -0.454 A  
HETATM   21  C   UNL     1      -6.104  10.753  70.513  1.00  0.00    -0.109 A  
HETATM   22  C   UNL     1      -5.403   9.760  71.197  1.00  0.00    -0.066 A  
HETATM   23  C   UNL     1     -12.551  10.887  71.152  1.00  0.00    -0.532 A  
HETATM   24  C   UNL     1     -11.976  11.419  70.000  1.00  0.00    -0.442 A  
HETATM   25  C   UNL     1      -5.914   8.471  71.255  1.00  0.00    -0.040 A  
HETATM   26  C   UNL     1      -7.128   8.171  70.631  1.00  0.00    -0.045 A  
HETATM   27  C   UNL     1     -10.895  10.776  69.380  1.00  0.00    -0.289 A  
ENDBRANCH  10  11
ENDBRANCH   7  10
TORSDOF 2
ENDMDL
MODEL      150
REMARK 921   NORMALIZED FREE ENERGY PREDICTED BY IDOCK:   -3.32 KCAL/MOL
REMARK 922        TOTAL FREE ENERGY PREDICTED BY IDOCK:   -4.79 KCAL/MOL
REMARK 923 INTER-LIGAND FREE ENERGY PREDICTED BY IDOCK:   -4.27 KCAL/MOL
REMARK 924 INTRA-LIGAND FREE ENERGY PREDICTED BY IDOCK:   -0.52 KCAL/MOL
REMARK 927      BINDING AFFINITY PREDICTED BY RF-SCORE:    0.00 PKD
ROOT
HETATM    1  C   UNL     1      -7.361   9.894  65.516  1.00  0.00    -0.122 C  
HETATM    2  N   UNL     1      -7.570  10.264  66.977  1.00  0.00    -0.098 N  
HETATM    3  C   UNL     1      -6.941  11.631  67.269  1.00  0.00    -0.131 C  
HETATM    4  C   UNL     1      -7.146  11.957  68.750  1.00  0.00    -0.111 C  
HETATM    5  C   UNL     1      -7.949  10.852  69.464  1.00  0.00     0.052 C  
HETATM    6  C   UNL     1      -9.291  10.702  68.738  1.00  0.00    -0.183 C  
HETATM    7  C   UNL     1      -7.170   9.521  69.368  1.00  0.00    -0.064 C  
HETATM    8  C   UNL     1      -9.077  10.341  67.268  1.00  0.00    -0.138 C  
HETATM    9  C   UNL     1      -6.900   9.190  67.881  1.00  0.00    -0.069 C  
ENDROOT
BRANCH   7  10
HETATM   10  O   UNL     1      -7.785   8.523  70.234  1.00  0.00    -0.071 OA 
BRANCH  10  11
HETATM   11  C   UNL     1      -7.887   7.178  69.978  1.00  0.00    -0.113 C  
HETATM   12  O   UNL     1      -6.909   6.468  69.772  1.00  0.00    -0.054 OA 
HETATM   13  C   UNL     1      -9.412   6.740  69.982  1.00  0.00    -0.157 C  
HETATM   14  C   UNL     1      -9.837   5.955  71.239  1.00  0.00    -0.215 A  
HETATM   15  C   UNL     1      -9.754   5.982  68.685  1.00  0.00    -0.149 A  
HETATM   16  O   UNL     1     -10.197   7.957  69.990  1.00  0.00    -0.200 OA 
HETATM   17  H   UNL     1     -11.110   7.695  69.993  1.00  0.00     0.000 HD 
HETATM   18  C   UNL     1     -11.187   5.993  71.665  1.00  0.00    -0.328 A  
HETATM   19  C   UNL     1      -9.150   4.750  68.376  1.00  0.00    -0.148 A  
HETATM   20  C   UNL     1     -11.616   5.309  72.806  1.00  0.00    -0.270 A  
HETATM   21  C   UNL     1      -9.467   4.066  67.200  1.00  0.00    -0.224 A  
HETATM   22  C   UNL     1     -10.402   4.595  66.310  1.00  0.00    -0.293 A  
HETATM   23  C   UNL     1     -10.718   4.548  73.539  1.00  0.00    -0.333 A  
HETATM   24  C   UNL     1      -9.393   4.454  73.119  1.00  0.00    -0.136 A  
HETATM   25  C   UNL     1     -11.015   5.806  66.595  1.00  0.00    -0.208 A  
HETATM   26  C   UNL     1     -10.698   6.492  67.771  1.00  0.00    -0.368 A  
HETATM   27  C   UNL     1      -8.957   5.142  71.977  1.00  0.00    -0.145 A  
ENDBRANCH  10  11
ENDBRANCH   7  10
TORSDOF 2
ENDMDL
MODEL      151
REMARK 921   NORMALIZED FREE ENERGY PREDICTED BY IDOCK:   -3.26 KCAL/MOL
REMARK 922        TOTAL FREE ENERGY PREDICTED BY IDOCK:   -4.72 KCAL/MOL
REMARK 923 INTER-LIGAND FREE ENERGY PREDICTED BY IDOCK:   -3.74 KCAL/MOL
REMARK 924 INTRA-LIGAND FREE ENERGY PREDICTED BY IDOCK:   -0.98 KCAL/MOL
REMARK 927      BINDING AFFINITY PREDICTED BY RF-SCORE:    0.00 PKD
ROOT
HETATM    1  C   UNL     1      -9.257  13.832  68.202  1.00  0.00    -0.199 C  
HETATM    2  N   UNL     1      -9.273  12.538  67.403  1.00  0.00    -0.179 N  
HETATM    3  C   UNL     1      -9.939  12.767  66.042  1.00  0.00    -0.271 C  
HETATM    4  C   UNL     1      -9.960  11.440  65.279  1.00  0.00    -0.303 C  
HETATM    5  C   UNL     1      -9.276  10.318  66.082  1.00  0.00    -0.192 C  
HETATM    6  C   UNL     1      -7.839  10.761  66.381  1.00  0.00    -0.148 C  
HETATM    7  C   UNL     1     -10.031  10.118  67.415  1.00  0.00    -0.195 C  
HETATM    8  C   UNL     1      -7.828  12.068  67.174  1.00  0.00    -0.168 C  
HETATM    9  C   UNL     1     -10.073  11.458  68.187  1.00  0.00    -0.189 C  
ENDROOT
BRANCH   7  10
HETATM   10  O   UNL     1      -9.556   8.911  68.079  1.00  0.00    -0.144 OA 
BRANCH  10  11
HETATM   11  C   UNL     1      -9.647   7.629  67.595  1.00  0.00    -0.145 C  
HETATM   12  O   UNL     1     -10.691   7.160  67.156  1.00  0.00    -0.307 OA 
HETATM   13  C   UNL     1      -8.241   6.904  67.714  1.00  0.00    -0.117 C  
HETATM   14  C   UNL     1      -7.497   6.752  66.371  1.00  0.00    -0.074 A  
HETATM   15  C   UNL     1      -8.394   5.557  68.444  1.00  0.00    -0.098 A  
HETATM   16  O   UNL     1      -7.402   7.750  68.538  1.00  0.00    -0.086 OA 
HETATM   17  H   UNL     1      -6.560   7.316  68.609  1.00  0.00     0.000 HD 
HETATM   18  C   UNL     1      -6.083   6.674  66.360  1.00  0.00    -0.033 A  
HETATM   19  C   UNL     1      -9.159   4.511  67.899  1.00  0.00    -0.147 A  
HETATM   20  C   UNL     1      -5.364   6.549  65.167  1.00  0.00    -0.021 A  
HETATM   21  C   UNL     1      -9.291   3.290  68.566  1.00  0.00    -0.237 A  
HETATM   22  C   UNL     1      -8.654   3.085  69.790  1.00  0.00    -0.114 A  
HETATM   23  C   UNL     1      -6.036   6.474  63.956  1.00  0.00    -0.030 A  
HETATM   24  C   UNL     1      -7.429   6.502  63.939  1.00  0.00    -0.085 A  
HETATM   25  C   UNL     1      -7.889   4.101  70.345  1.00  0.00    -0.051 A  
HETATM   26  C   UNL     1      -7.757   5.323  69.680  1.00  0.00    -0.073 A  
HETATM   27  C   UNL     1      -8.153   6.631  65.134  1.00  0.00    -0.133 A  
ENDBRANCH  10  11
ENDBRANCH   7  10
TORSDOF 2
ENDMDL
MODEL      152
REMARK 921   NORMALIZED FREE ENERGY PREDICTED BY IDOCK:   -3.25 KCAL/MOL
REMARK 922        TOTAL FREE ENERGY PREDICTED BY IDOCK:   -4.71 KCAL/MOL
REMARK 923 INTER-LIGAND FREE ENERGY PREDICTED BY IDOCK:   -4.21 KCAL/MOL
REMARK 924 INTRA-LIGAND FREE ENERGY PREDICTED BY IDOCK:   -0.50 KCAL/MOL
REMARK 927      BINDING AFFINITY PREDICTED BY RF-SCORE:    0.00 PKD
ROOT
HETATM    1  C   UNL     1     -11.010   6.160  71.452  1.00  0.00    -0.277 C  
HETATM    2  N   UNL     1     -10.183   6.249  70.178  1.00  0.00    -0.182 N  
HETATM    3  C   UNL     1      -8.857   5.503  70.359  1.00  0.00    -0.131 C  
HETATM    4  C   UNL     1      -8.042   5.635  69.070  1.00  0.00    -0.097 C  
HETATM    5  C   UNL     1      -8.814   6.423  67.994  1.00  0.00    -0.113 C  
HETATM    6  C   UNL     1     -10.139   5.697  67.740  1.00  0.00    -0.209 C  
HETATM    7  C   UNL     1      -9.110   7.844  68.525  1.00  0.00    -0.132 C  
HETATM    8  C   UNL     1     -10.963   5.600  69.024  1.00  0.00    -0.095 C  
HETATM    9  C   UNL     1      -9.888   7.742  69.858  1.00  0.00    -0.177 C  
ENDROOT
BRANCH   7  10
HETATM   10  O   UNL     1      -9.622   8.680  67.446  1.00  0.00    -0.148 OA 
BRANCH  10  11
HETATM   11  C   UNL     1      -8.955   9.711  66.832  1.00  0.00    -0.134 C  
HETATM   12  O   UNL     1      -7.845   9.575  66.329  1.00  0.00    -0.099 OA 
HETATM   13  C   UNL     1      -9.825  11.036  66.902  1.00  0.00    -0.191 C  
HETATM   14  C   UNL     1     -10.489  11.422  65.564  1.00  0.00    -0.322 A  
HETATM   15  C   UNL     1      -8.994  12.192  67.488  1.00  0.00    -0.177 A  
HETATM   16  O   UNL     1     -10.912  10.774  67.823  1.00  0.00    -0.252 OA 
HETATM   17  H   UNL     1     -11.433  11.568  67.864  1.00  0.00     0.000 HD 
HETATM   18  C   UNL     1     -11.687  12.177  65.570  1.00  0.00    -0.384 A  
HETATM   19  C   UNL     1      -7.856  12.685  66.825  1.00  0.00     0.159 A  
HETATM   20  C   UNL     1     -12.332  12.540  64.385  1.00  0.00    -0.537 A  
HETATM   21  C   UNL     1      -7.107  13.737  67.361  1.00  0.00    -0.093 A  
HETATM   22  C   UNL     1      -7.485  14.323  68.569  1.00  0.00    -0.121 A  
HETATM   23  C   UNL     1     -11.789  12.181  63.160  1.00  0.00    -0.320 A  
HETATM   24  C   UNL     1     -10.587  11.478  63.121  1.00  0.00    -0.323 A  
HETATM   25  C   UNL     1      -8.607  13.857  69.239  1.00  0.00     0.490 A  
HETATM   26  C   UNL     1      -9.356  12.805  68.704  1.00  0.00     0.017 A  
HETATM   27  C   UNL     1      -9.938  11.108  64.309  1.00  0.00    -0.359 A  
ENDBRANCH  10  11
ENDBRANCH   7  10
TORSDOF 2
ENDMDL
MODEL      153
REMARK 921   NORMALIZED FREE ENERGY PREDICTED BY IDOCK:   -3.24 KCAL/MOL
REMARK 922        TOTAL FREE ENERGY PREDICTED BY IDOCK:   -4.70 KCAL/MOL
REMARK 923 INTER-LIGAND FREE ENERGY PREDICTED BY IDOCK:   -4.63 KCAL/MOL
REMARK 924 INTRA-LIGAND FREE ENERGY PREDICTED BY IDOCK:   -0.07 KCAL/MOL
REMARK 927      BINDING AFFINITY PREDICTED BY RF-SCORE:    0.00 PKD
ROOT
HETATM    1  C   UNL     1      -5.563   7.446  66.686  1.00  0.00    -0.024 C  
HETATM    2  N   UNL     1      -6.907   6.811  66.365  1.00  0.00    -0.059 N  
HETATM    3  C   UNL     1      -6.861   6.149  64.984  1.00  0.00    -0.051 C  
HETATM    4  C   UNL     1      -8.236   5.545  64.685  1.00  0.00    -0.130 C  
HETATM    5  C   UNL     1      -9.207   5.745  65.864  1.00  0.00    -0.128 C  
HETATM    6  C   UNL     1      -8.577   5.103  67.106  1.00  0.00    -0.105 C  
HETATM    7  C   UNL     1      -9.391   7.258  66.116  1.00  0.00    -0.046 C  
HETATM    8  C   UNL     1      -7.222   5.737  67.418  1.00  0.00    -0.076 C  
HETATM    9  C   UNL     1      -8.010   7.908  66.369  1.00  0.00    -0.102 C  
ENDROOT
BRANCH   7  10
HETATM   10  O   UNL     1     -10.480   7.475  67.059  1.00  0.00    -0.293 OA 
BRANCH  10  11
HETATM   11  C   UNL     1     -10.394   7.406  68.428  1.00  0.00    -0.194 C  
HETATM   12  O   UNL     1     -10.536   6.358  69.047  1.00  0.00    -0.205 OA 
HETATM   13  C   UNL     1     -10.108   8.847  69.026  1.00  0.00    -0.197 C  
HETATM   14  C   UNL     1      -8.659   9.049  69.513  1.00  0.00    -0.138 A  
HETATM   15  C   UNL     1     -11.136   9.185  70.121  1.00  0.00    -0.248 A  
HETATM   16  O   UNL     1     -10.300   9.794  67.947  1.00  0.00    -0.185 OA 
HETATM   17  H   UNL     1     -10.129  10.657  68.305  1.00  0.00     0.000 HD 
HETATM   18  C   UNL     1      -8.100  10.351  69.526  1.00  0.00    -0.145 A  
HETATM   19  C   UNL     1     -11.210   8.440  71.312  1.00  0.00    -0.309 A  
HETATM   20  C   UNL     1      -6.787  10.582  69.945  1.00  0.00    -0.149 A  
HETATM   21  C   UNL     1     -12.143   8.754  72.304  1.00  0.00    -0.423 A  
HETATM   22  C   UNL     1     -13.019   9.826  72.129  1.00  0.00    -0.483 A  
HETATM   23  C   UNL     1      -6.002   9.526  70.386  1.00  0.00    -0.055 A  
HETATM   24  C   UNL     1      -6.539   8.241  70.427  1.00  0.00    -0.036 A  
HETATM   25  C   UNL     1     -12.963  10.579  70.966  1.00  0.00    -0.475 A  
HETATM   26  C   UNL     1     -12.030  10.265  69.973  1.00  0.00    -0.273 A  
HETATM   27  C   UNL     1      -7.856   8.005  70.003  1.00  0.00    -0.104 A  
ENDBRANCH  10  11
ENDBRANCH   7  10
TORSDOF 2
ENDMDL
MODEL      154
REMARK 921   NORMALIZED FREE ENERGY PREDICTED BY IDOCK:   -3.21 KCAL/MOL
REMARK 922        TOTAL FREE ENERGY PREDICTED BY IDOCK:   -4.67 KCAL/MOL
REMARK 923 INTER-LIGAND FREE ENERGY PREDICTED BY IDOCK:   -4.73 KCAL/MOL
REMARK 924 INTRA-LIGAND FREE ENERGY PREDICTED BY IDOCK:    0.06 KCAL/MOL
REMARK 927      BINDING AFFINITY PREDICTED BY RF-SCORE:    0.00 PKD
ROOT
HETATM    1  C   UNL     1      -5.179  12.251  71.035  1.00  0.00    -0.150 C  
HETATM    2  N   UNL     1      -5.781  12.691  69.709  1.00  0.00    -0.100 N  
HETATM    3  C   UNL     1      -5.259  11.804  68.574  1.00  0.00    -0.045 C  
HETATM    4  C   UNL     1      -5.864  12.292  67.255  1.00  0.00    -0.143 C  
HETATM    5  C   UNL     1      -6.829  13.471  67.481  1.00  0.00    -0.156 C  
HETATM    6  C   UNL     1      -7.920  13.008  68.453  1.00  0.00    -0.135 C  
HETATM    7  C   UNL     1      -6.051  14.645  68.116  1.00  0.00    -0.142 C  
HETATM    8  C   UNL     1      -7.310  12.556  69.780  1.00  0.00     0.858 C  
HETATM    9  C   UNL     1      -5.382  14.168  69.427  1.00  0.00    -0.082 C  
ENDROOT
BRANCH   7  10
HETATM   10  O   UNL     1      -6.878  15.846  68.117  1.00  0.00    -0.112 OA 
BRANCH  10  11
HETATM   11  C   UNL     1      -8.031  16.038  67.397  1.00  0.00    -0.159 C  
HETATM   12  O   UNL     1      -8.169  15.629  66.249  1.00  0.00    -0.199 OA 
HETATM   13  C   UNL     1      -9.083  16.848  68.264  1.00  0.00    -0.235 C  
HETATM   14  C   UNL     1     -10.241  15.989  68.811  1.00  0.00    -0.225 A  
HETATM   15  C   UNL     1      -9.592  18.072  67.481  1.00  0.00    -0.273 A  
HETATM   16  O   UNL     1      -8.374  17.344  69.426  1.00  0.00     0.109 OA 
HETATM   17  H   UNL     1      -9.004  17.829  69.946  1.00  0.00     0.000 HD 
HETATM   18  C   UNL     1     -10.900  16.380  70.003  1.00  0.00    -0.306 A  
HETATM   19  C   UNL     1     -10.325  17.925  66.289  1.00  0.00    -0.364 A  
HETATM   20  C   UNL     1     -11.945  15.627  70.544  1.00  0.00    -0.417 A  
HETATM   21  C   UNL     1     -10.787  19.039  65.583  1.00  0.00    -0.164 A  
HETATM   22  C   UNL     1     -10.534  20.326  66.060  1.00  0.00    -0.326 A  
HETATM   23  C   UNL     1     -12.380  14.477  69.901  1.00  0.00    -0.347 A  
HETATM   24  C   UNL     1     -11.781  14.092  68.703  1.00  0.00    -0.385 A  
HETATM   25  C   UNL     1      -9.819  20.496  67.236  1.00  0.00    -0.581 A  
HETATM   26  C   UNL     1      -9.355  19.382  67.941  1.00  0.00    -0.397 A  
HETATM   27  C   UNL     1     -10.729  14.843  68.158  1.00  0.00    -0.251 A  
ENDBRANCH  10  11
ENDBRANCH   7  10
TORSDOF 2
ENDMDL
MODEL      155
REMARK 921   NORMALIZED FREE ENERGY PREDICTED BY IDOCK:   -3.16 KCAL/MOL
REMARK 922        TOTAL FREE ENERGY PREDICTED BY IDOCK:   -4.61 KCAL/MOL
REMARK 923 INTER-LIGAND FREE ENERGY PREDICTED BY IDOCK:   -4.15 KCAL/MOL
REMARK 924 INTRA-LIGAND FREE ENERGY PREDICTED BY IDOCK:   -0.47 KCAL/MOL
REMARK 927      BINDING AFFINITY PREDICTED BY RF-SCORE:    0.00 PKD
ROOT
HETATM    1  C   UNL     1     -11.602  11.282  70.189  1.00  0.00    -0.305 C  
HETATM    2  N   UNL     1     -10.980  10.971  68.836  1.00  0.00    -0.208 N  
HETATM    3  C   UNL     1     -11.569  11.891  67.762  1.00  0.00    -0.323 C  
HETATM    4  C   UNL     1     -10.941  11.532  66.413  1.00  0.00    -0.336 C  
HETATM    5  C   UNL     1      -9.897  10.410  66.559  1.00  0.00    -0.256 C  
HETATM    6  C   UNL     1      -8.833  10.883  67.556  1.00  0.00    -0.133 C  
HETATM    7  C   UNL     1     -10.588   9.147  67.119  1.00  0.00    -0.216 C  
HETATM    8  C   UNL     1      -9.463  11.205  68.911  1.00  0.00    -0.124 C  
HETATM    9  C   UNL     1     -11.279   9.491  68.460  1.00  0.00     0.115 C  
ENDROOT
BRANCH   7  10
HETATM   10  O   UNL     1      -9.681   8.008  67.040  1.00  0.00    -0.176 OA 
BRANCH  10  11
HETATM   11  C   UNL     1      -9.950   6.726  67.452  1.00  0.00    -0.148 C  
HETATM   12  O   UNL     1     -11.091   6.283  67.533  1.00  0.00    -0.348 OA 
HETATM   13  C   UNL     1      -8.598   5.973  67.797  1.00  0.00    -0.106 C  
HETATM   14  C   UNL     1      -8.168   4.937  66.739  1.00  0.00    -0.107 A  
HETATM   15  C   UNL     1      -8.672   5.360  69.208  1.00  0.00    -0.105 A  
HETATM   16  O   UNL     1      -7.553   6.977  67.816  1.00  0.00    -0.105 OA 
HETATM   17  H   UNL     1      -6.743   6.525  68.023  1.00  0.00     0.000 HD 
HETATM   18  C   UNL     1      -6.796   4.618  66.588  1.00  0.00    -0.052 A  
HETATM   19  C   UNL     1      -9.598   4.348  69.519  1.00  0.00    -0.271 A  
HETATM   20  C   UNL     1      -6.357   3.696  65.634  1.00  0.00    -0.032 A  
HETATM   21  C   UNL     1      -9.658   3.794  70.800  1.00  0.00    -0.249 A  
HETATM   22  C   UNL     1      -8.787   4.234  71.798  1.00  0.00    -0.143 A  
HETATM   23  C   UNL     1      -7.275   3.047  64.821  1.00  0.00    -0.065 A  
HETATM   24  C   UNL     1      -8.635   3.305  64.977  1.00  0.00    -0.104 A  
HETATM   25  C   UNL     1      -7.861   5.228  71.513  1.00  0.00    -0.113 A  
HETATM   26  C   UNL     1      -7.801   5.784  70.232  1.00  0.00    -0.100 A  
HETATM   27  C   UNL     1      -9.080   4.234  65.931  1.00  0.00    -0.134 A  
ENDBRANCH  10  11
ENDBRANCH   7  10
TORSDOF 2
ENDMDL
MODEL      156
REMARK 921   NORMALIZED FREE ENERGY PREDICTED BY IDOCK:   -3.14 KCAL/MOL
REMARK 922        TOTAL FREE ENERGY PREDICTED BY IDOCK:   -4.59 KCAL/MOL
REMARK 923 INTER-LIGAND FREE ENERGY PREDICTED BY IDOCK:   -4.56 KCAL/MOL
REMARK 924 INTRA-LIGAND FREE ENERGY PREDICTED BY IDOCK:   -0.03 KCAL/MOL
REMARK 927      BINDING AFFINITY PREDICTED BY RF-SCORE:    0.00 PKD
ROOT
HETATM    1  C   UNL     1     -11.829  15.370  65.872  1.00  0.00     0.319 C  
HETATM    2  N   UNL     1     -11.641  13.952  65.355  1.00  0.00    -0.317 N  
HETATM    3  C   UNL     1     -12.533  13.716  64.132  1.00  0.00    -0.234 C  
HETATM    4  C   UNL     1     -12.339  12.274  63.656  1.00  0.00    -0.664 C  
HETATM    5  C   UNL     1     -11.289  11.536  64.509  1.00  0.00    -0.250 C  
HETATM    6  C   UNL     1      -9.979  12.328  64.432  1.00  0.00    -0.231 C  
HETATM    7  C   UNL     1     -11.770  11.497  65.977  1.00  0.00     0.263 C  
HETATM    8  C   UNL     1     -10.174  13.755  64.942  1.00  0.00    -0.348 C  
HETATM    9  C   UNL     1     -12.028  12.941  66.471  1.00  0.00    -0.377 C  
ENDROOT
BRANCH   7  10
HETATM   10  O   UNL     1     -10.920  10.604  66.754  1.00  0.00    -0.215 OA 
BRANCH  10  11
HETATM   11  C   UNL     1     -10.208  10.937  67.880  1.00  0.00    -0.179 C  
HETATM   12  O   UNL     1     -10.342  12.013  68.453  1.00  0.00    -0.204 OA 
HETATM   13  C   UNL     1      -9.229   9.753  68.272  1.00  0.00    -0.129 C  
HETATM   14  C   UNL     1      -9.689   8.935  69.495  1.00  0.00    -0.173 A  
HETATM   15  C   UNL     1      -7.791  10.280  68.438  1.00  0.00    -0.102 A  
HETATM   16  O   UNL     1      -9.223   8.829  67.156  1.00  0.00    -0.132 OA 
HETATM   17  H   UNL     1      -8.636   8.119  67.391  1.00  0.00     0.000 HD 
HETATM   18  C   UNL     1      -9.291   7.582  69.623  1.00  0.00    -0.153 A  
HETATM   19  C   UNL     1      -7.464  11.206  69.445  1.00  0.00    -0.029 A  
HETATM   20  C   UNL     1      -9.694   6.796  70.706  1.00  0.00    -0.187 A  
HETATM   21  C   UNL     1      -6.156  11.679  69.593  1.00  0.00    -0.117 A  
HETATM   22  C   UNL     1      -5.146  11.229  68.742  1.00  0.00    -0.040 A  
HETATM   23  C   UNL     1     -10.485   7.345  71.706  1.00  0.00    -0.221 A  
HETATM   24  C   UNL     1     -10.855   8.686  71.631  1.00  0.00    -0.374 A  
HETATM   25  C   UNL     1      -5.444  10.311  67.745  1.00  0.00    -0.041 A  
HETATM   26  C   UNL     1      -6.751   9.839  67.596  1.00  0.00    -0.069 A  
HETATM   27  C   UNL     1     -10.456   9.476  70.543  1.00  0.00    -0.358 A  
ENDBRANCH  10  11
ENDBRANCH   7  10
TORSDOF 2
ENDMDL
MODEL      157
REMARK 921   NORMALIZED FREE ENERGY PREDICTED BY IDOCK:   -3.11 KCAL/MOL
REMARK 922        TOTAL FREE ENERGY PREDICTED BY IDOCK:   -4.56 KCAL/MOL
REMARK 923 INTER-LIGAND FREE ENERGY PREDICTED BY IDOCK:   -4.54 KCAL/MOL
REMARK 924 INTRA-LIGAND FREE ENERGY PREDICTED BY IDOCK:   -0.02 KCAL/MOL
REMARK 927      BINDING AFFINITY PREDICTED BY RF-SCORE:    0.00 PKD
ROOT
HETATM    1  C   UNL     1     -12.638   8.475  72.640  1.00  0.00    -0.195 C  
HETATM    2  N   UNL     1     -11.554   8.640  71.585  1.00  0.00    -0.288 N  
HETATM    3  C   UNL     1     -11.777   9.935  70.798  1.00  0.00    -0.341 C  
HETATM    4  C   UNL     1     -10.686  10.054  69.731  1.00  0.00    -0.304 C  
HETATM    5  C   UNL     1      -9.693   8.880  69.810  1.00  0.00    -0.180 C  
HETATM    6  C   UNL     1      -9.090   8.865  71.219  1.00  0.00    -0.323 C  
HETATM    7  C   UNL     1     -10.455   7.557  69.572  1.00  0.00    -0.226 C  
HETATM    8  C   UNL     1     -10.183   8.710  72.276  1.00  0.00    -0.301 C  
HETATM    9  C   UNL     1     -11.602   7.433  70.605  1.00  0.00    -0.268 C  
ENDROOT
BRANCH   7  10
HETATM   10  O   UNL     1      -9.509   6.461  69.403  1.00  0.00    -0.140 OA 
BRANCH  10  11
HETATM   11  C   UNL     1      -8.462   6.424  68.515  1.00  0.00    -0.119 C  
HETATM   12  O   UNL     1      -7.290   6.423  68.874  1.00  0.00    -0.082 OA 
HETATM   13  C   UNL     1      -9.013   6.398  67.028  1.00  0.00    -0.119 C  
HETATM   14  C   UNL     1      -8.904   5.021  66.341  1.00  0.00    -0.115 A  
HETATM   15  C   UNL     1      -8.356   7.513  66.194  1.00  0.00    -0.138 A  
HETATM   16  O   UNL     1     -10.430   6.692  67.102  1.00  0.00    -0.215 OA 
HETATM   17  H   UNL     1     -10.760   6.676  66.211  1.00  0.00     0.000 HD 
HETATM   18  C   UNL     1      -9.812   4.679  65.310  1.00  0.00    -0.139 A  
HETATM   19  C   UNL     1      -6.973   7.517  65.938  1.00  0.00    -0.061 A  
HETATM   20  C   UNL     1      -9.761   3.439  64.668  1.00  0.00    -0.164 A  
HETATM   21  C   UNL     1      -6.382   8.530  65.178  1.00  0.00    -0.056 A  
HETATM   22  C   UNL     1      -7.164   9.558  64.650  1.00  0.00    -0.113 A  
HETATM   23  C   UNL     1      -8.787   2.515  65.017  1.00  0.00    -0.121 A  
HETATM   24  C   UNL     1      -7.850   2.841  65.996  1.00  0.00    -0.081 A  
HETATM   25  C   UNL     1      -8.532   9.572  64.884  1.00  0.00    -0.170 A  
HETATM   26  C   UNL     1      -9.123   8.560  65.645  1.00  0.00    -0.189 A  
HETATM   27  C   UNL     1      -7.901   4.083  66.646  1.00  0.00    -0.093 A  
ENDBRANCH  10  11
ENDBRANCH   7  10
TORSDOF 2
ENDMDL
MODEL      158
REMARK 921   NORMALIZED FREE ENERGY PREDICTED BY IDOCK:   -3.10 KCAL/MOL
REMARK 922        TOTAL FREE ENERGY PREDICTED BY IDOCK:   -4.54 KCAL/MOL
REMARK 923 INTER-LIGAND FREE ENERGY PREDICTED BY IDOCK:   -3.96 KCAL/MOL
REMARK 924 INTRA-LIGAND FREE ENERGY PREDICTED BY IDOCK:   -0.59 KCAL/MOL
REMARK 927      BINDING AFFINITY PREDICTED BY RF-SCORE:    0.00 PKD
ROOT
HETATM    1  C   UNL     1      -8.924   2.396  64.044  1.00  0.00    -0.103 C  
HETATM    2  N   UNL     1      -8.881   3.652  64.901  1.00  0.00    -0.117 N  
HETATM    3  C   UNL     1      -8.212   4.794  64.128  1.00  0.00    -0.118 C  
HETATM    4  C   UNL     1      -8.163   6.031  65.029  1.00  0.00    -0.136 C  
HETATM    5  C   UNL     1      -8.832   5.762  66.390  1.00  0.00    -0.131 C  
HETATM    6  C   UNL     1     -10.277   5.325  66.127  1.00  0.00    -0.223 C  
HETATM    7  C   UNL     1      -8.080   4.617  67.105  1.00  0.00    -0.102 C  
HETATM    8  C   UNL     1     -10.316   4.069  65.257  1.00  0.00    -0.108 C  
HETATM    9  C   UNL     1      -8.066   3.365  66.194  1.00  0.00    -0.092 C  
ENDROOT
BRANCH   7  10
HETATM   10  O   UNL     1      -8.538   4.507  68.484  1.00  0.00    -0.092 OA 
BRANCH  10  11
HETATM   11  C   UNL     1      -8.171   5.320  69.528  1.00  0.00    -0.095 C  
HETATM   12  O   UNL     1      -7.141   5.983  69.519  1.00  0.00    -0.065 OA 
HETATM   13  C   UNL     1      -9.253   5.238  70.685  1.00  0.00    -0.148 C  
HETATM   14  C   UNL     1     -10.164   6.478  70.783  1.00  0.00    -0.218 A  
HETATM   15  C   UNL     1      -8.576   4.912  72.029  1.00  0.00    -0.127 A  
HETATM   16  O   UNL     1     -10.127   4.128  70.362  1.00  0.00    -0.163 OA 
HETATM   17  H   UNL     1     -10.776   4.079  71.055  1.00  0.00     0.000 HD 
HETATM   18  C   UNL     1     -11.468   6.348  71.320  1.00  0.00    -0.371 A  
HETATM   19  C   UNL     1      -7.658   5.799  72.620  1.00  0.00    -0.097 A  
HETATM   20  C   UNL     1     -12.335   7.441  71.416  1.00  0.00    -0.394 A  
HETATM   21  C   UNL     1      -7.049   5.499  73.842  1.00  0.00    -0.086 A  
HETATM   22  C   UNL     1      -7.351   4.308  74.503  1.00  0.00    -0.072 A  
HETATM   23  C   UNL     1     -11.917   8.698  71.003  1.00  0.00    -0.278 A  
HETATM   24  C   UNL     1     -10.624   8.865  70.513  1.00  0.00    -0.262 A  
HETATM   25  C   UNL     1      -8.257   3.420  73.943  1.00  0.00    -0.074 A  
HETATM   26  C   UNL     1      -8.866   3.719  72.721  1.00  0.00    -0.104 A  
HETATM   27  C   UNL     1      -9.753   7.770  70.411  1.00  0.00    -0.179 A  
ENDBRANCH  10  11
ENDBRANCH   7  10
TORSDOF 2
ENDMDL
MODEL      159
REMARK 921   NORMALIZED FREE ENERGY PREDICTED BY IDOCK:   -3.05 KCAL/MOL
REMARK 922        TOTAL FREE ENERGY PREDICTED BY IDOCK:   -4.49 KCAL/MOL
REMARK 923 INTER-LIGAND FREE ENERGY PREDICTED BY IDOCK:   -3.93 KCAL/MOL
REMARK 924 INTRA-LIGAND FREE ENERGY PREDICTED BY IDOCK:   -0.56 KCAL/MOL
REMARK 927      BINDING AFFINITY PREDICTED BY RF-SCORE:    0.00 PKD
ROOT
HETATM    1  C   UNL     1      -5.299   8.772  63.455  1.00  0.00    -0.063 C  
HETATM    2  N   UNL     1      -6.506   8.339  64.273  1.00  0.00    -0.066 N  
HETATM    3  C   UNL     1      -6.940   6.927  63.865  1.00  0.00    -0.056 C  
HETATM    4  C   UNL     1      -8.170   6.537  64.687  1.00  0.00    -0.052 C  
HETATM    5  C   UNL     1      -8.555   7.645  65.686  1.00  0.00    -0.142 C  
HETATM    6  C   UNL     1      -7.344   7.906  66.589  1.00  0.00    -0.088 C  
HETATM    7  C   UNL     1      -8.889   8.935  64.903  1.00  0.00    -0.117 C  
HETATM    8  C   UNL     1      -6.130   8.330  65.762  1.00  0.00    -0.045 C  
HETATM    9  C   UNL     1      -7.681   9.327  64.019  1.00  0.00    -0.117 C  
ENDROOT
BRANCH   7  10
HETATM   10  O   UNL     1      -9.483   9.920  65.800  1.00  0.00    -0.185 OA 
BRANCH  10  11
HETATM   11  C   UNL     1      -8.803  10.769  66.637  1.00  0.00    -0.145 C  
HETATM   12  O   UNL     1      -7.868  11.465  66.257  1.00  0.00    -0.121 OA 
HETATM   13  C   UNL     1      -9.403  10.679  68.103  1.00  0.00    -0.151 C  
HETATM   14  C   UNL     1     -10.268  11.892  68.503  1.00  0.00    -0.221 A  
HETATM   15  C   UNL     1      -8.283  10.408  69.124  1.00  0.00    -0.157 A  
HETATM   16  O   UNL     1     -10.291   9.535  68.122  1.00  0.00    -0.188 OA 
HETATM   17  H   UNL     1     -10.651   9.481  69.000  1.00  0.00     0.000 HD 
HETATM   18  C   UNL     1     -11.292  11.733  69.468  1.00  0.00    -0.317 A  
HETATM   19  C   UNL     1      -7.250  11.338  69.343  1.00  0.00    -0.063 A  
HETATM   20  C   UNL     1     -12.110  12.799  69.853  1.00  0.00    -0.329 A  
HETATM   21  C   UNL     1      -6.238  11.087  70.273  1.00  0.00    -0.139 A  
HETATM   22  C   UNL     1      -6.240   9.903  71.012  1.00  0.00    -0.032 A  
HETATM   23  C   UNL     1     -11.914  14.058  69.305  1.00  0.00    -0.396 A  
HETATM   24  C   UNL     1     -10.885  14.256  68.387  1.00  0.00    -0.263 A  
HETATM   25  C   UNL     1      -7.251   8.973  70.817  1.00  0.00    -0.098 A  
HETATM   26  C   UNL     1      -8.263   9.222  69.886  1.00  0.00    -0.148 A  
HETATM   27  C   UNL     1     -10.064  13.187  67.996  1.00  0.00    -0.232 A  
ENDBRANCH  10  11
ENDBRANCH   7  10
TORSDOF 2
ENDMDL
MODEL      160
REMARK 921   NORMALIZED FREE ENERGY PREDICTED BY IDOCK:   -3.05 KCAL/MOL
REMARK 922        TOTAL FREE ENERGY PREDICTED BY IDOCK:   -4.49 KCAL/MOL
REMARK 923 INTER-LIGAND FREE ENERGY PREDICTED BY IDOCK:   -4.03 KCAL/MOL
REMARK 924 INTRA-LIGAND FREE ENERGY PREDICTED BY IDOCK:   -0.46 KCAL/MOL
REMARK 927      BINDING AFFINITY PREDICTED BY RF-SCORE:    0.00 PKD
ROOT
HETATM    1  C   UNL     1      -9.549  10.483  63.474  1.00  0.00    -0.326 C  
HETATM    2  N   UNL     1      -8.840  10.410  64.819  1.00  0.00    -0.183 N  
HETATM    3  C   UNL     1      -7.322  10.388  64.613  1.00  0.00    -0.026 C  
HETATM    4  C   UNL     1      -6.644  10.287  65.982  1.00  0.00    -0.109 C  
HETATM    5  C   UNL     1      -7.679  10.286  67.123  1.00  0.00    -0.092 C  
HETATM    6  C   UNL     1      -8.508  11.571  67.008  1.00  0.00    -0.164 C  
HETATM    7  C   UNL     1      -8.613   9.066  66.957  1.00  0.00    -0.116 C  
HETATM    8  C   UNL     1      -9.209  11.646  65.652  1.00  0.00    -0.138 C  
HETATM    9  C   UNL     1      -9.273   9.112  65.559  1.00  0.00    -0.224 C  
ENDROOT
BRANCH   7  10
HETATM   10  O   UNL     1      -9.440   8.909  68.147  1.00  0.00    -0.142 OA 
BRANCH  10  11
HETATM   11  C   UNL     1      -9.840   7.720  68.706  1.00  0.00    -0.169 C  
HETATM   12  O   UNL     1     -10.878   7.154  68.383  1.00  0.00    -0.178 OA 
HETATM   13  C   UNL     1      -8.783   7.250  69.791  1.00  0.00    -0.142 C  
HETATM   14  C   UNL     1      -7.889   6.080  69.332  1.00  0.00    -0.099 A  
HETATM   15  C   UNL     1      -9.487   6.948  71.127  1.00  0.00    -0.166 A  
HETATM   16  O   UNL     1      -7.889   8.367  70.017  1.00  0.00    -0.097 OA 
HETATM   17  H   UNL     1      -7.256   8.085  70.666  1.00  0.00     0.000 HD 
HETATM   18  C   UNL     1      -6.596   5.927  69.889  1.00  0.00    -0.050 A  
HETATM   19  C   UNL     1     -10.428   5.909  71.241  1.00  0.00    -0.289 A  
HETATM   20  C   UNL     1      -5.745   4.890  69.494  1.00  0.00    -0.016 A  
HETATM   21  C   UNL     1     -11.061   5.638  72.457  1.00  0.00    -0.327 A  
HETATM   22  C   UNL     1     -10.760   6.396  73.589  1.00  0.00    -0.233 A  
HETATM   23  C   UNL     1      -6.168   3.964  68.552  1.00  0.00    -0.032 A  
HETATM   24  C   UNL     1      -7.452   4.062  68.020  1.00  0.00    -0.067 A  
HETATM   25  C   UNL     1      -9.831   7.422  73.503  1.00  0.00    -0.363 A  
HETATM   26  C   UNL     1      -9.198   7.695  72.287  1.00  0.00    -0.189 A  
HETATM   27  C   UNL     1      -8.308   5.103  68.411  1.00  0.00    -0.089 A  
ENDBRANCH  10  11
ENDBRANCH   7  10
TORSDOF 2
ENDMDL
MODEL      161
REMARK 921   NORMALIZED FREE ENERGY PREDICTED BY IDOCK:   -3.03 KCAL/MOL
REMARK 922        TOTAL FREE ENERGY PREDICTED BY IDOCK:   -4.47 KCAL/MOL
REMARK 923 INTER-LIGAND FREE ENERGY PREDICTED BY IDOCK:   -3.79 KCAL/MOL
REMARK 924 INTRA-LIGAND FREE ENERGY PREDICTED BY IDOCK:   -0.68 KCAL/MOL
REMARK 927      BINDING AFFINITY PREDICTED BY RF-SCORE:    0.00 PKD
ROOT
HETATM    1  C   UNL     1      -9.149   2.147  63.953  1.00  0.00    -0.101 C  
HETATM    2  N   UNL     1      -9.059   3.413  64.791  1.00  0.00    -0.130 N  
HETATM    3  C   UNL     1      -8.215   4.466  64.066  1.00  0.00    -0.102 C  
HETATM    4  C   UNL     1      -8.125   5.713  64.949  1.00  0.00    -0.127 C  
HETATM    5  C   UNL     1      -8.935   5.543  66.248  1.00  0.00    -0.140 C  
HETATM    6  C   UNL     1     -10.387   5.242  65.861  1.00  0.00    -0.101 C  
HETATM    7  C   UNL     1      -8.366   4.347  67.045  1.00  0.00    -0.101 C  
HETATM    8  C   UNL     1     -10.472   3.975  65.010  1.00  0.00    -0.136 C  
HETATM    9  C   UNL     1      -8.394   3.080  66.158  1.00  0.00    -0.098 C  
ENDROOT
BRANCH   7  10
HETATM   10  O   UNL     1      -8.953   4.315  68.378  1.00  0.00    -0.102 OA 
BRANCH  10  11
HETATM   11  C   UNL     1      -8.333   4.681  69.547  1.00  0.00    -0.074 C  
HETATM   12  O   UNL     1      -7.294   4.159  69.937  1.00  0.00    -0.048 OA 
HETATM   13  C   UNL     1      -9.163   5.826  70.265  1.00  0.00    -0.152 C  
HETATM   14  C   UNL     1      -8.528   7.227  70.154  1.00  0.00    -0.138 A  
HETATM   15  C   UNL     1      -9.453   5.439  71.727  1.00  0.00    -0.177 A  
HETATM   16  O   UNL     1     -10.436   5.911  69.580  1.00  0.00    -0.221 OA 
HETATM   17  H   UNL     1     -10.934   6.597  70.010  1.00  0.00     0.000 HD 
HETATM   18  C   UNL     1      -9.354   8.376  70.212  1.00  0.00    -0.167 A  
HETATM   19  C   UNL     1      -8.414   5.273  72.661  1.00  0.00    -0.117 A  
HETATM   20  C   UNL     1      -8.827   9.666  70.102  1.00  0.00    -0.266 A  
HETATM   21  C   UNL     1      -8.685   4.925  73.987  1.00  0.00    -0.111 A  
HETATM   22  C   UNL     1     -10.001   4.743  74.411  1.00  0.00    -0.225 A  
HETATM   23  C   UNL     1      -7.459   9.847  69.955  1.00  0.00    -0.173 A  
HETATM   24  C   UNL     1      -6.617   8.738  69.941  1.00  0.00    -0.041 A  
HETATM   25  C   UNL     1     -11.044   4.907  73.510  1.00  0.00    -0.405 A  
HETATM   26  C   UNL     1     -10.774   5.254  72.183  1.00  0.00    -0.271 A  
HETATM   27  C   UNL     1      -7.143   7.441  70.047  1.00  0.00    -0.065 A  
ENDBRANCH  10  11
ENDBRANCH   7  10
TORSDOF 2
ENDMDL
MODEL      162
REMARK 921   NORMALIZED FREE ENERGY PREDICTED BY IDOCK:   -2.99 KCAL/MOL
REMARK 922        TOTAL FREE ENERGY PREDICTED BY IDOCK:   -4.42 KCAL/MOL
REMARK 923 INTER-LIGAND FREE ENERGY PREDICTED BY IDOCK:   -3.92 KCAL/MOL
REMARK 924 INTRA-LIGAND FREE ENERGY PREDICTED BY IDOCK:   -0.50 KCAL/MOL
REMARK 927      BINDING AFFINITY PREDICTED BY RF-SCORE:    0.00 PKD
ROOT
HETATM    1  C   UNL     1      -8.142   8.404  64.926  1.00  0.00    -0.149 C  
HETATM    2  N   UNL     1      -7.600   7.159  65.611  1.00  0.00    -0.088 N  
HETATM    3  C   UNL     1      -7.314   6.069  64.573  1.00  0.00    -0.068 C  
HETATM    4  C   UNL     1      -6.797   4.825  65.300  1.00  0.00    -0.060 C  
HETATM    5  C   UNL     1      -6.680   5.068  66.817  1.00  0.00    -0.054 C  
HETATM    6  C   UNL     1      -5.747   6.264  67.033  1.00  0.00    -0.013 C  
HETATM    7  C   UNL     1      -8.078   5.408  67.382  1.00  0.00    -0.101 C  
HETATM    8  C   UNL     1      -6.290   7.511  66.333  1.00  0.00    -0.045 C  
HETATM    9  C   UNL     1      -8.652   6.632  66.629  1.00  0.00    -0.123 C  
ENDROOT
BRANCH   7  10
HETATM   10  O   UNL     1      -8.038   5.405  68.839  1.00  0.00    -0.092 OA 
BRANCH  10  11
HETATM   11  C   UNL     1      -9.106   5.204  69.679  1.00  0.00    -0.115 C  
HETATM   12  O   UNL     1     -10.083   4.536  69.359  1.00  0.00    -0.193 OA 
HETATM   13  C   UNL     1      -8.865   5.961  71.052  1.00  0.00    -0.139 C  
HETATM   14  C   UNL     1      -8.494   5.032  72.226  1.00  0.00    -0.124 A  
HETATM   15  C   UNL     1     -10.069   6.860  71.386  1.00  0.00    -0.197 A  
HETATM   16  O   UNL     1      -7.721   6.828  70.856  1.00  0.00    -0.090 OA 
HETATM   17  H   UNL     1      -7.576   7.282  71.679  1.00  0.00     0.000 HD 
HETATM   18  C   UNL     1      -7.721   5.536  73.300  1.00  0.00    -0.100 A  
HETATM   19  C   UNL     1     -11.343   6.316  71.632  1.00  0.00    -0.347 A  
HETATM   20  C   UNL     1      -7.349   4.728  74.379  1.00  0.00    -0.078 A  
HETATM   21  C   UNL     1     -12.432   7.137  71.938  1.00  0.00    -0.341 A  
HETATM   22  C   UNL     1     -12.269   8.520  72.013  1.00  0.00    -0.429 A  
HETATM   23  C   UNL     1      -7.758   3.403  74.429  1.00  0.00    -0.061 A  
HETATM   24  C   UNL     1      -8.558   2.892  73.409  1.00  0.00    -0.076 A  
HETATM   25  C   UNL     1     -11.021   9.080  71.780  1.00  0.00    -0.443 A  
HETATM   26  C   UNL     1      -9.932   8.260  71.473  1.00  0.00    -0.260 A  
HETATM   27  C   UNL     1      -8.929   3.698  72.322  1.00  0.00    -0.133 A  
ENDBRANCH  10  11
ENDBRANCH   7  10
TORSDOF 2
ENDMDL
MODEL      163
REMARK 921   NORMALIZED FREE ENERGY PREDICTED BY IDOCK:   -2.96 KCAL/MOL
REMARK 922        TOTAL FREE ENERGY PREDICTED BY IDOCK:   -4.39 KCAL/MOL
REMARK 923 INTER-LIGAND FREE ENERGY PREDICTED BY IDOCK:   -5.83 KCAL/MOL
REMARK 924 INTRA-LIGAND FREE ENERGY PREDICTED BY IDOCK:    1.44 KCAL/MOL
REMARK 927      BINDING AFFINITY PREDICTED BY RF-SCORE:    0.00 PKD
ROOT
HETATM    1  C   UNL     1     -12.522  15.956  74.524  1.00  0.00    -0.581 C  
HETATM    2  N   UNL     1     -12.782  15.327  73.163  1.00  0.00    -0.426 N  
HETATM    3  C   UNL     1     -12.993  13.817  73.313  1.00  0.00     0.588 C  
HETATM    4  C   UNL     1     -13.224  13.215  71.925  1.00  0.00    -0.526 C  
HETATM    5  C   UNL     1     -13.221  14.302  70.833  1.00  0.00    -0.320 C  
HETATM    6  C   UNL     1     -14.308  15.324  71.182  1.00  0.00    -0.384 C  
HETATM    7  C   UNL     1     -11.846  15.008  70.828  1.00  0.00    -0.320 C  
HETATM    8  C   UNL     1     -14.050  15.946  72.554  1.00  0.00    -0.292 C  
HETATM    9  C   UNL     1     -11.559  15.581  72.236  1.00  0.00    -0.458 C  
ENDROOT
BRANCH   7  10
HETATM   10  O   UNL     1     -11.733  15.867  69.656  1.00  0.00    -0.333 OA 
BRANCH  10  11
HETATM   11  C   UNL     1     -10.925  15.652  68.567  1.00  0.00    -0.303 C  
HETATM   12  O   UNL     1     -10.184  16.517  68.113  1.00  0.00    -0.251 OA 
HETATM   13  C   UNL     1     -11.124  14.174  68.029  1.00  0.00    -0.267 C  
HETATM   14  C   UNL     1      -9.961  13.220  68.367  1.00  0.00    -0.226 A  
HETATM   15  C   UNL     1     -11.435  14.191  66.521  1.00  0.00    -0.368 A  
HETATM   16  O   UNL     1     -12.287  13.636  68.703  1.00  0.00    -0.365 OA 
HETATM   17  H   UNL     1     -12.406  12.750  68.381  1.00  0.00     0.000 HD 
HETATM   18  C   UNL     1     -10.206  11.829  68.481  1.00  0.00    -0.215 A  
HETATM   19  C   UNL     1     -10.498  14.665  65.585  1.00  0.00    -0.358 A  
HETATM   20  C   UNL     1      -9.187  10.927  68.799  1.00  0.00    -0.187 A  
HETATM   21  C   UNL     1     -10.785  14.675  64.217  1.00  0.00     0.306 A  
HETATM   22  C   UNL     1     -12.014  14.204  63.754  1.00  0.00    -0.156 A  
HETATM   23  C   UNL     1      -7.890  11.383  68.989  1.00  0.00    -0.043 A  
HETATM   24  C   UNL     1      -7.609  12.739  68.838  1.00  0.00     0.057 A  
HETATM   25  C   UNL     1     -12.953  13.727  64.658  1.00  0.00     0.110 A  
HETATM   26  C   UNL     1     -12.667  13.718  66.026  1.00  0.00    -0.407 A  
HETATM   27  C   UNL     1      -8.630  13.648  68.523  1.00  0.00    -0.103 A  
ENDBRANCH  10  11
ENDBRANCH   7  10
TORSDOF 2
ENDMDL
MODEL      164
REMARK 921   NORMALIZED FREE ENERGY PREDICTED BY IDOCK:   -2.94 KCAL/MOL
REMARK 922        TOTAL FREE ENERGY PREDICTED BY IDOCK:   -4.37 KCAL/MOL
REMARK 923 INTER-LIGAND FREE ENERGY PREDICTED BY IDOCK:   -3.85 KCAL/MOL
REMARK 924 INTRA-LIGAND FREE ENERGY PREDICTED BY IDOCK:   -0.52 KCAL/MOL
REMARK 927      BINDING AFFINITY PREDICTED BY RF-SCORE:    0.00 PKD
ROOT
HETATM    1  C   UNL     1      -6.612   8.832  66.251  1.00  0.00    -0.066 C  
HETATM    2  N   UNL     1      -7.892   9.473  65.736  1.00  0.00    -0.102 N  
HETATM    3  C   UNL     1      -7.971   9.338  64.211  1.00  0.00    -0.135 C  
HETATM    4  C   UNL     1      -9.255  10.015  63.726  1.00  0.00    -0.314 C  
HETATM    5  C   UNL     1     -10.078  10.570  64.904  1.00  0.00    -0.403 C  
HETATM    6  C   UNL     1     -10.389   9.405  65.852  1.00  0.00     0.027 C  
HETATM    7  C   UNL     1      -9.234  11.623  65.658  1.00  0.00    -0.138 C  
HETATM    8  C   UNL     1      -9.100   8.758  66.359  1.00  0.00    -0.177 C  
HETATM    9  C   UNL     1      -7.902  10.981  66.115  1.00  0.00    -0.117 C  
ENDROOT
BRANCH   7  10
HETATM   10  O   UNL     1     -10.068  12.331  66.621  1.00  0.00    -0.210 OA 
BRANCH  10  11
HETATM   11  C   UNL     1     -10.018  13.673  66.905  1.00  0.00    -0.260 C  
HETATM   12  O   UNL     1     -10.171  14.537  66.049  1.00  0.00    -0.288 OA 
HETATM   13  C   UNL     1      -9.728  13.889  68.450  1.00  0.00    -0.226 C  
HETATM   14  C   UNL     1     -10.958  14.341  69.263  1.00  0.00    -0.271 A  
HETATM   15  C   UNL     1      -8.530  14.836  68.642  1.00  0.00    -0.167 A  
HETATM   16  O   UNL     1      -9.350  12.599  68.988  1.00  0.00    -0.370 OA 
HETATM   17  H   UNL     1      -9.176  12.728  69.914  1.00  0.00     0.000 HD 
HETATM   18  C   UNL     1     -11.036  14.034  70.643  1.00  0.00     0.535 A  
HETATM   19  C   UNL     1      -8.580  16.176  68.217  1.00  0.00    -0.182 A  
HETATM   20  C   UNL     1     -12.137  14.411  71.418  1.00  0.00    -0.397 A  
HETATM   21  C   UNL     1      -7.490  17.032  68.397  1.00  0.00    -0.213 A  
HETATM   22  C   UNL     1      -6.327  16.568  69.014  1.00  0.00    -0.169 A  
HETATM   23  C   UNL     1     -13.179  15.126  70.844  1.00  0.00    -0.488 A  
HETATM   24  C   UNL     1     -13.109  15.482  69.500  1.00  0.00     0.768 A  
HETATM   25  C   UNL     1      -6.256  15.252  69.447  1.00  0.00    -0.122 A  
HETATM   26  C   UNL     1      -7.345  14.395  69.266  1.00  0.00    -0.088 A  
HETATM   27  C   UNL     1     -12.008  15.102  68.717  1.00  0.00    -0.280 A  
ENDBRANCH  10  11
ENDBRANCH   7  10
TORSDOF 2
ENDMDL
MODEL      165
REMARK 921   NORMALIZED FREE ENERGY PREDICTED BY IDOCK:   -2.92 KCAL/MOL
REMARK 922        TOTAL FREE ENERGY PREDICTED BY IDOCK:   -4.35 KCAL/MOL
REMARK 923 INTER-LIGAND FREE ENERGY PREDICTED BY IDOCK:   -3.80 KCAL/MOL
REMARK 924 INTRA-LIGAND FREE ENERGY PREDICTED BY IDOCK:   -0.55 KCAL/MOL
REMARK 927      BINDING AFFINITY PREDICTED BY RF-SCORE:    0.00 PKD
ROOT
HETATM    1  C   UNL     1     -10.148   8.480  72.339  1.00  0.00    -0.295 C  
HETATM    2  N   UNL     1      -9.008   7.539  71.980  1.00  0.00    -0.123 N  
HETATM    3  C   UNL     1      -7.693   8.053  72.574  1.00  0.00    -0.120 C  
HETATM    4  C   UNL     1      -6.567   7.098  72.171  1.00  0.00    -0.055 C  
HETATM    5  C   UNL     1      -7.104   5.911  71.348  1.00  0.00    -0.077 C  
HETATM    6  C   UNL     1      -8.165   5.194  72.192  1.00  0.00    -0.114 C  
HETATM    7  C   UNL     1      -7.763   6.449  70.058  1.00  0.00    -0.102 C  
HETATM    8  C   UNL     1      -9.302   6.146  72.559  1.00  0.00    -0.140 C  
HETATM    9  C   UNL     1      -8.873   7.461  70.432  1.00  0.00    -0.149 C  
ENDROOT
BRANCH   7  10
HETATM   10  O   UNL     1      -8.061   5.344  69.156  1.00  0.00    -0.092 OA 
BRANCH  10  11
HETATM   11  C   UNL     1      -9.036   5.327  68.188  1.00  0.00    -0.109 C  
HETATM   12  O   UNL     1     -10.179   4.942  68.408  1.00  0.00    -0.121 OA 
HETATM   13  C   UNL     1      -8.444   5.852  66.814  1.00  0.00    -0.109 C  
HETATM   14  C   UNL     1      -8.894   7.279  66.439  1.00  0.00    -0.167 A  
HETATM   15  C   UNL     1      -8.731   4.842  65.687  1.00  0.00    -0.135 A  
HETATM   16  O   UNL     1      -7.006   5.920  66.977  1.00  0.00    -0.065 OA 
HETATM   17  H   UNL     1      -6.651   6.235  66.153  1.00  0.00     0.000 HD 
HETATM   18  C   UNL     1      -8.066   8.080  65.616  1.00  0.00    -0.121 A  
HETATM   19  C   UNL     1     -10.047   4.548  65.286  1.00  0.00    -0.179 A  
HETATM   20  C   UNL     1      -8.425   9.384  65.261  1.00  0.00    -0.161 A  
HETATM   21  C   UNL     1     -10.301   3.633  64.260  1.00  0.00    -0.231 A  
HETATM   22  C   UNL     1      -9.244   2.998  63.608  1.00  0.00    -0.097 A  
HETATM   23  C   UNL     1      -9.630   9.916  65.697  1.00  0.00    -0.320 A  
HETATM   24  C   UNL     1     -10.486   9.135  66.470  1.00  0.00    -0.197 A  
HETATM   25  C   UNL     1      -7.937   3.276  63.982  1.00  0.00    -0.082 A  
HETATM   26  C   UNL     1      -7.682   4.190  65.008  1.00  0.00    -0.082 A  
HETATM   27  C   UNL     1     -10.128   7.828  66.832  1.00  0.00    -0.356 A  
ENDBRANCH  10  11
ENDBRANCH   7  10
TORSDOF 2
ENDMDL
MODEL      166
REMARK 921   NORMALIZED FREE ENERGY PREDICTED BY IDOCK:   -2.92 KCAL/MOL
REMARK 922        TOTAL FREE ENERGY PREDICTED BY IDOCK:   -4.34 KCAL/MOL
REMARK 923 INTER-LIGAND FREE ENERGY PREDICTED BY IDOCK:   -4.12 KCAL/MOL
REMARK 924 INTRA-LIGAND FREE ENERGY PREDICTED BY IDOCK:   -0.22 KCAL/MOL
REMARK 927      BINDING AFFINITY PREDICTED BY RF-SCORE:    0.00 PKD
ROOT
HETATM    1  C   UNL     1      -8.932   4.299  63.486  1.00  0.00    -0.134 C  
HETATM    2  N   UNL     1      -8.541   4.069  64.938  1.00  0.00    -0.113 N  
HETATM    3  C   UNL     1      -8.688   2.586  65.294  1.00  0.00    -0.116 C  
HETATM    4  C   UNL     1      -8.313   2.397  66.766  1.00  0.00    -0.091 C  
HETATM    5  C   UNL     1      -7.866   3.724  67.408  1.00  0.00    -0.083 C  
HETATM    6  C   UNL     1      -6.681   4.263  66.598  1.00  0.00    -0.051 C  
HETATM    7  C   UNL     1      -9.031   4.737  67.335  1.00  0.00    -0.109 C  
HETATM    8  C   UNL     1      -7.075   4.483  65.138  1.00  0.00    -0.063 C  
HETATM    9  C   UNL     1      -9.469   4.909  65.861  1.00  0.00    -0.164 C  
ENDROOT
BRANCH   7  10
HETATM   10  O   UNL     1      -8.720   5.909  68.142  1.00  0.00    -0.113 OA 
BRANCH  10  11
HETATM   11  C   UNL     1      -9.534   6.998  68.339  1.00  0.00    -0.133 C  
HETATM   12  O   UNL     1     -10.539   7.202  67.667  1.00  0.00    -0.215 OA 
HETATM   13  C   UNL     1      -8.961   7.897  69.514  1.00  0.00    -0.142 C  
HETATM   14  C   UNL     1      -9.750   7.783  70.834  1.00  0.00    -0.174 A  
HETATM   15  C   UNL     1      -8.822   9.359  69.050  1.00  0.00    -0.141 A  
HETATM   16  O   UNL     1      -7.629   7.407  69.804  1.00  0.00    -0.090 OA 
HETATM   17  H   UNL     1      -7.286   7.946  70.508  1.00  0.00     0.000 HD 
HETATM   18  C   UNL     1      -9.094   8.029  72.065  1.00  0.00    -0.217 A  
HETATM   19  C   UNL     1      -9.947  10.122  68.688  1.00  0.00    -0.181 A  
HETATM   20  C   UNL     1      -9.764   7.925  73.287  1.00  0.00    -0.352 A  
HETATM   21  C   UNL     1      -9.814  11.449  68.270  1.00  0.00    -0.202 A  
HETATM   22  C   UNL     1      -8.554  12.045  68.213  1.00  0.00    -0.174 A  
HETATM   23  C   UNL     1     -11.111   7.596  73.316  1.00  0.00    -0.254 A  
HETATM   24  C   UNL     1     -11.795   7.393  72.119  1.00  0.00    -0.323 A  
HETATM   25  C   UNL     1      -7.430  11.314  68.570  1.00  0.00    -0.115 A  
HETATM   26  C   UNL     1      -7.562   9.986  68.987  1.00  0.00    -0.090 A  
HETATM   27  C   UNL     1     -11.125   7.492  70.890  1.00  0.00    -0.279 A  
ENDBRANCH  10  11
ENDBRANCH   7  10
TORSDOF 2
ENDMDL
MODEL      167
REMARK 921   NORMALIZED FREE ENERGY PREDICTED BY IDOCK:   -2.92 KCAL/MOL
REMARK 922        TOTAL FREE ENERGY PREDICTED BY IDOCK:   -4.34 KCAL/MOL
REMARK 923 INTER-LIGAND FREE ENERGY PREDICTED BY IDOCK:   -3.85 KCAL/MOL
REMARK 924 INTRA-LIGAND FREE ENERGY PREDICTED BY IDOCK:   -0.49 KCAL/MOL
REMARK 927      BINDING AFFINITY PREDICTED BY RF-SCORE:    0.00 PKD
ROOT
HETATM    1  C   UNL     1     -10.312   8.988  71.600  1.00  0.00    -0.350 C  
HETATM    2  N   UNL     1      -9.880   7.530  71.569  1.00  0.00    -0.166 N  
HETATM    3  C   UNL     1      -8.707   7.307  72.529  1.00  0.00    -0.122 C  
HETATM    4  C   UNL     1      -8.282   5.839  72.451  1.00  0.00    -0.107 C  
HETATM    5  C   UNL     1      -9.181   5.044  71.485  1.00  0.00    -0.181 C  
HETATM    6  C   UNL     1     -10.629   5.178  71.970  1.00  0.00    -0.266 C  
HETATM    7  C   UNL     1      -9.064   5.654  70.070  1.00  0.00    -0.137 C  
HETATM    8  C   UNL     1     -11.056   6.645  72.011  1.00  0.00    -0.255 C  
HETATM    9  C   UNL     1      -9.436   7.155  70.126  1.00  0.00    -0.161 C  
ENDROOT
BRANCH   7  10
HETATM   10  O   UNL     1      -9.710   4.781  69.098  1.00  0.00    -0.160 OA 
BRANCH  10  11
HETATM   11  C   UNL     1      -9.952   5.074  67.778  1.00  0.00    -0.147 C  
HETATM   12  O   UNL     1     -10.974   5.638  67.403  1.00  0.00    -0.199 OA 
HETATM   13  C   UNL     1      -8.747   4.567  66.881  1.00  0.00    -0.111 C  
HETATM   14  C   UNL     1      -7.824   5.693  66.374  1.00  0.00    -0.101 A  
HETATM   15  C   UNL     1      -9.269   3.687  65.730  1.00  0.00    -0.159 A  
HETATM   16  O   UNL     1      -7.921   3.727  67.725  1.00  0.00    -0.083 OA 
HETATM   17  H   UNL     1      -7.199   3.424  67.188  1.00  0.00     0.000 HD 
HETATM   18  C   UNL     1      -6.468   5.408  66.080  1.00  0.00    -0.044 A  
HETATM   19  C   UNL     1     -10.109   4.211  64.731  1.00  0.00    -0.204 A  
HETATM   20  C   UNL     1      -5.590   6.398  65.630  1.00  0.00    -0.017 A  
HETATM   21  C   UNL     1     -10.578   3.408  63.688  1.00  0.00    -0.270 A  
HETATM   22  C   UNL     1     -10.210   2.065  63.616  1.00  0.00    -0.131 A  
HETATM   23  C   UNL     1      -6.044   7.695  65.438  1.00  0.00    -0.038 A  
HETATM   24  C   UNL     1      -7.384   7.995  65.675  1.00  0.00    -0.079 A  
HETATM   25  C   UNL     1      -9.378   1.526  64.587  1.00  0.00    -0.114 A  
HETATM   26  C   UNL     1      -8.910   2.328  65.631  1.00  0.00    -0.124 A  
HETATM   27  C   UNL     1      -8.267   7.005  66.130  1.00  0.00    -0.125 A  
ENDBRANCH  10  11
ENDBRANCH   7  10
TORSDOF 2
ENDMDL
MODEL      168
REMARK 921   NORMALIZED FREE ENERGY PREDICTED BY IDOCK:   -2.91 KCAL/MOL
REMARK 922        TOTAL FREE ENERGY PREDICTED BY IDOCK:   -4.33 KCAL/MOL
REMARK 923 INTER-LIGAND FREE ENERGY PREDICTED BY IDOCK:   -3.66 KCAL/MOL
REMARK 924 INTRA-LIGAND FREE ENERGY PREDICTED BY IDOCK:   -0.67 KCAL/MOL
REMARK 927      BINDING AFFINITY PREDICTED BY RF-SCORE:    0.00 PKD
ROOT
HETATM    1  C   UNL     1      -9.176   5.785  73.231  1.00  0.00    -0.135 C  
HETATM    2  N   UNL     1     -10.017   6.536  72.210  1.00  0.00    -0.164 N  
HETATM    3  C   UNL     1     -11.502   6.437  72.575  1.00  0.00    -0.247 C  
HETATM    4  C   UNL     1     -12.317   7.180  71.513  1.00  0.00    -0.406 C  
HETATM    5  C   UNL     1     -11.404   7.826  70.454  1.00  0.00    -0.219 C  
HETATM    6  C   UNL     1     -10.440   8.774  71.177  1.00  0.00    -0.315 C  
HETATM    7  C   UNL     1     -10.590   6.720  69.747  1.00  0.00    -0.228 C  
HETATM    8  C   UNL     1      -9.605   8.017  72.210  1.00  0.00    -0.223 C  
HETATM    9  C   UNL     1      -9.794   5.914  70.802  1.00  0.00    -0.183 C  
ENDROOT
BRANCH   7  10
HETATM   10  O   UNL     1      -9.903   7.273  68.586  1.00  0.00    -0.155 OA 
BRANCH  10  11
HETATM   11  C   UNL     1      -8.585   7.079  68.254  1.00  0.00    -0.129 C  
HETATM   12  O   UNL     1      -7.664   7.599  68.873  1.00  0.00    -0.112 OA 
HETATM   13  C   UNL     1      -8.480   6.126  66.991  1.00  0.00    -0.105 C  
HETATM   14  C   UNL     1      -8.019   4.692  67.321  1.00  0.00    -0.101 A  
HETATM   15  C   UNL     1      -7.606   6.776  65.902  1.00  0.00    -0.087 A  
HETATM   16  O   UNL     1      -9.818   5.998  66.451  1.00  0.00    -0.222 OA 
HETATM   17  H   UNL     1      -9.755   5.426  65.694  1.00  0.00     0.000 HD 
HETATM   18  C   UNL     1      -8.407   3.620  66.481  1.00  0.00    -0.104 A  
HETATM   19  C   UNL     1      -6.242   7.040  66.119  1.00  0.00    -0.039 A  
HETATM   20  C   UNL     1      -8.025   2.303  66.747  1.00  0.00    -0.072 A  
HETATM   21  C   UNL     1      -5.453   7.627  65.125  1.00  0.00    -0.033 A  
HETATM   22  C   UNL     1      -6.011   7.956  63.889  1.00  0.00    -0.057 A  
HETATM   23  C   UNL     1      -7.225   2.019  67.845  1.00  0.00    -0.047 A  
HETATM   24  C   UNL     1      -6.790   3.058  68.665  1.00  0.00    -0.044 A  
HETATM   25  C   UNL     1      -7.353   7.700  63.650  1.00  0.00    -0.093 A  
HETATM   26  C   UNL     1      -8.143   7.114  64.643  1.00  0.00    -0.083 A  
HETATM   27  C   UNL     1      -7.175   4.382  68.403  1.00  0.00    -0.060 A  
ENDBRANCH  10  11
ENDBRANCH   7  10
TORSDOF 2
ENDMDL
MODEL      169
REMARK 921   NORMALIZED FREE ENERGY PREDICTED BY IDOCK:   -2.91 KCAL/MOL
REMARK 922        TOTAL FREE ENERGY PREDICTED BY IDOCK:   -4.33 KCAL/MOL
REMARK 923 INTER-LIGAND FREE ENERGY PREDICTED BY IDOCK:   -4.21 KCAL/MOL
REMARK 924 INTRA-LIGAND FREE ENERGY PREDICTED BY IDOCK:   -0.12 KCAL/MOL
REMARK 927      BINDING AFFINITY PREDICTED BY RF-SCORE:    0.00 PKD
ROOT
HETATM    1  C   UNL     1     -12.966  15.226  64.898  1.00  0.00     0.856 C  
HETATM    2  N   UNL     1     -11.828  14.228  65.055  1.00  0.00    -0.377 N  
HETATM    3  C   UNL     1     -11.630  13.446  63.752  1.00  0.00    -0.313 C  
HETATM    4  C   UNL     1     -10.499  12.436  63.954  1.00  0.00    -0.469 C  
HETATM    5  C   UNL     1      -9.890  12.549  65.365  1.00  0.00    -0.179 C  
HETATM    6  C   UNL     1      -9.389  13.986  65.548  1.00  0.00     0.314 C  
HETATM    7  C   UNL     1     -10.987  12.258  66.413  1.00  0.00    -0.287 C  
HETATM    8  C   UNL     1     -10.532  14.986  65.379  1.00  0.00    -0.384 C  
HETATM    9  C   UNL     1     -12.171  13.231  66.199  1.00  0.00    -0.405 C  
ENDROOT
BRANCH   7  10
HETATM   10  O   UNL     1     -10.388  12.122  67.735  1.00  0.00    -0.199 OA 
BRANCH  10  11
HETATM   11  C   UNL     1      -9.248  11.420  68.040  1.00  0.00    -0.171 C  
HETATM   12  O   UNL     1      -8.191  11.969  68.332  1.00  0.00    -0.154 OA 
HETATM   13  C   UNL     1      -9.528   9.862  67.940  1.00  0.00    -0.133 C  
HETATM   14  C   UNL     1      -9.648   9.156  69.305  1.00  0.00    -0.159 A  
HETATM   15  C   UNL     1      -8.483   9.189  67.032  1.00  0.00    -0.123 A  
HETATM   16  O   UNL     1     -10.818   9.710  67.299  1.00  0.00    -0.254 OA 
HETATM   17  H   UNL     1     -10.986   8.777  67.239  1.00  0.00     0.000 HD 
HETATM   18  C   UNL     1     -10.425   7.977  69.417  1.00  0.00    -0.223 A  
HETATM   19  C   UNL     1      -7.119   9.167  67.376  1.00  0.00    -0.079 A  
HETATM   20  C   UNL     1     -10.574   7.309  70.636  1.00  0.00    -0.240 A  
HETATM   21  C   UNL     1      -6.175   8.551  66.549  1.00  0.00    -0.057 A  
HETATM   22  C   UNL     1      -6.577   7.936  65.362  1.00  0.00    -0.045 A  
HETATM   23  C   UNL     1      -9.934   7.784  71.772  1.00  0.00    -0.219 A  
HETATM   24  C   UNL     1      -9.126   8.915  71.682  1.00  0.00    -0.280 A  
HETATM   25  C   UNL     1      -7.917   7.940  65.004  1.00  0.00    -0.137 A  
HETATM   26  C   UNL     1      -8.861   8.556  65.830  1.00  0.00    -0.229 A  
HETATM   27  C   UNL     1      -8.977   9.591  70.462  1.00  0.00    -0.265 A  
ENDBRANCH  10  11
ENDBRANCH   7  10
TORSDOF 2
ENDMDL
MODEL      170
REMARK 921   NORMALIZED FREE ENERGY PREDICTED BY IDOCK:   -2.87 KCAL/MOL
REMARK 922        TOTAL FREE ENERGY PREDICTED BY IDOCK:   -4.28 KCAL/MOL
REMARK 923 INTER-LIGAND FREE ENERGY PREDICTED BY IDOCK:   -4.27 KCAL/MOL
REMARK 924 INTRA-LIGAND FREE ENERGY PREDICTED BY IDOCK:   -0.01 KCAL/MOL
REMARK 927      BINDING AFFINITY PREDICTED BY RF-SCORE:    0.00 PKD
ROOT
HETATM    1  C   UNL     1      -6.331   7.286  62.349  1.00  0.00    -0.061 C  
HETATM    2  N   UNL     1      -6.528   7.372  63.855  1.00  0.00    -0.048 N  
HETATM    3  C   UNL     1      -7.010   6.024  64.401  1.00  0.00    -0.051 C  
HETATM    4  C   UNL     1      -7.222   6.155  65.912  1.00  0.00    -0.075 C  
HETATM    5  C   UNL     1      -6.846   7.563  66.412  1.00  0.00    -0.061 C  
HETATM    6  C   UNL     1      -5.383   7.823  66.033  1.00  0.00    -0.028 C  
HETATM    7  C   UNL     1      -7.743   8.605  65.708  1.00  0.00    -0.090 C  
HETATM    8  C   UNL     1      -5.188   7.725  64.520  1.00  0.00    -0.029 C  
HETATM    9  C   UNL     1      -7.591   8.461  64.175  1.00  0.00    -0.125 C  
ENDROOT
BRANCH   7  10
HETATM   10  O   UNL     1      -7.575   9.910  66.336  1.00  0.00    -0.098 OA 
BRANCH  10  11
HETATM   11  C   UNL     1      -7.915  10.240  67.624  1.00  0.00    -0.102 C  
HETATM   12  O   UNL     1      -7.078  10.472  68.490  1.00  0.00    -0.071 OA 
HETATM   13  C   UNL     1      -9.493  10.253  67.782  1.00  0.00    -0.148 C  
HETATM   14  C   UNL     1     -10.106  11.666  67.861  1.00  0.00    -0.198 A  
HETATM   15  C   UNL     1      -9.919   9.373  68.972  1.00  0.00    -0.182 A  
HETATM   16  O   UNL     1     -10.038   9.651  66.583  1.00  0.00    -0.215 OA 
HETATM   17  H   UNL     1     -10.984   9.659  66.677  1.00  0.00     0.000 HD 
HETATM   18  C   UNL     1     -11.441  11.875  67.437  1.00  0.00    -0.393 A  
HETATM   19  C   UNL     1      -9.542   9.690  70.289  1.00  0.00    -0.307 A  
HETATM   20  C   UNL     1     -12.035  13.139  67.477  1.00  0.00    -0.367 A  
HETATM   21  C   UNL     1      -9.934   8.889  71.365  1.00  0.00    -0.378 A  
HETATM   22  C   UNL     1     -10.719   7.756  71.147  1.00  0.00    -0.245 A  
HETATM   23  C   UNL     1     -11.323  14.227  67.963  1.00  0.00    -0.318 A  
HETATM   24  C   UNL     1     -10.023  14.043  68.430  1.00  0.00    -0.236 A  
HETATM   25  C   UNL     1     -11.107   7.425  69.857  1.00  0.00    -0.208 A  
HETATM   26  C   UNL     1     -10.715   8.225  68.781  1.00  0.00    -0.076 A  
HETATM   27  C   UNL     1      -9.422  12.776  68.388  1.00  0.00    -0.162 A  
ENDBRANCH  10  11
ENDBRANCH   7  10
TORSDOF 2
ENDMDL
MODEL      171
REMARK 921   NORMALIZED FREE ENERGY PREDICTED BY IDOCK:   -2.85 KCAL/MOL
REMARK 922        TOTAL FREE ENERGY PREDICTED BY IDOCK:   -4.27 KCAL/MOL
REMARK 923 INTER-LIGAND FREE ENERGY PREDICTED BY IDOCK:   -3.66 KCAL/MOL
REMARK 924 INTRA-LIGAND FREE ENERGY PREDICTED BY IDOCK:   -0.60 KCAL/MOL
REMARK 927      BINDING AFFINITY PREDICTED BY RF-SCORE:    0.00 PKD
ROOT
HETATM    1  C   UNL     1      -9.941  10.614  65.105  1.00  0.00    -0.303 C  
HETATM    2  N   UNL     1      -9.836  10.458  66.615  1.00  0.00    -0.194 N  
HETATM    3  C   UNL     1      -9.284  11.743  67.241  1.00  0.00    -0.173 C  
HETATM    4  C   UNL     1      -9.168  11.539  68.753  1.00  0.00    -0.076 C  
HETATM    5  C   UNL     1      -9.678  10.149  69.175  1.00  0.00    -0.225 C  
HETATM    6  C   UNL     1     -11.133  10.019  68.708  1.00  0.00    -0.219 C  
HETATM    7  C   UNL     1      -8.825   9.065  68.477  1.00  0.00    -0.134 C  
HETATM    8  C   UNL     1     -11.234  10.188  67.192  1.00  0.00     0.122 C  
HETATM    9  C   UNL     1      -8.879   9.277  66.946  1.00  0.00    -0.127 C  
ENDROOT
BRANCH   7  10
HETATM   10  O   UNL     1      -9.128   7.756  69.041  1.00  0.00    -0.145 OA 
BRANCH  10  11
HETATM   11  C   UNL     1      -8.232   6.898  69.629  1.00  0.00    -0.131 C  
HETATM   12  O   UNL     1      -7.252   6.458  69.037  1.00  0.00    -0.078 OA 
HETATM   13  C   UNL     1      -8.675   6.589  71.120  1.00  0.00    -0.138 C  
HETATM   14  C   UNL     1      -7.826   7.305  72.190  1.00  0.00    -0.092 A  
HETATM   15  C   UNL     1      -8.737   5.069  71.356  1.00  0.00    -0.141 A  
HETATM   16  O   UNL     1     -10.020   7.105  71.272  1.00  0.00    -0.189 OA 
HETATM   17  H   UNL     1     -10.286   6.920  72.165  1.00  0.00     0.000 HD 
HETATM   18  C   UNL     1      -8.395   7.603  73.452  1.00  0.00    -0.204 A  
HETATM   19  C   UNL     1      -7.583   4.268  71.277  1.00  0.00    -0.060 A  
HETATM   20  C   UNL     1      -7.669   8.262  74.448  1.00  0.00    -0.291 A  
HETATM   21  C   UNL     1      -7.645   2.889  71.495  1.00  0.00    -0.041 A  
HETATM   22  C   UNL     1      -8.862   2.281  71.805  1.00  0.00    -0.116 A  
HETATM   23  C   UNL     1      -6.348   8.622  74.223  1.00  0.00    -0.139 A  
HETATM   24  C   UNL     1      -5.747   8.302  73.007  1.00  0.00    -0.062 A  
HETATM   25  C   UNL     1     -10.013   3.051  71.894  1.00  0.00    -0.210 A  
HETATM   26  C   UNL     1      -9.952   4.430  71.675  1.00  0.00    -0.256 A  
HETATM   27  C   UNL     1      -6.473   7.644  72.004  1.00  0.00    -0.043 A  
ENDBRANCH  10  11
ENDBRANCH   7  10
TORSDOF 2
ENDMDL
MODEL      172
REMARK 921   NORMALIZED FREE ENERGY PREDICTED BY IDOCK:   -2.77 KCAL/MOL
REMARK 922        TOTAL FREE ENERGY PREDICTED BY IDOCK:   -4.18 KCAL/MOL
REMARK 923 INTER-LIGAND FREE ENERGY PREDICTED BY IDOCK:   -3.91 KCAL/MOL
REMARK 924 INTRA-LIGAND FREE ENERGY PREDICTED BY IDOCK:   -0.27 KCAL/MOL
REMARK 927      BINDING AFFINITY PREDICTED BY RF-SCORE:    0.00 PKD
ROOT
HETATM    1  C   UNL     1      -9.803   2.743  71.174  1.00  0.00    -0.023 C  
HETATM    2  N   UNL     1      -8.870   2.908  69.983  1.00  0.00    -0.077 N  
HETATM    3  C   UNL     1      -7.674   1.960  70.116  1.00  0.00    -0.042 C  
HETATM    4  C   UNL     1      -6.746   2.173  68.918  1.00  0.00    -0.033 C  
HETATM    5  C   UNL     1      -7.316   3.221  67.943  1.00  0.00    -0.054 C  
HETATM    6  C   UNL     1      -8.701   2.742  67.494  1.00  0.00    -0.136 C  
HETATM    7  C   UNL     1      -7.463   4.569  68.683  1.00  0.00    -0.064 C  
HETATM    8  C   UNL     1      -9.632   2.566  68.694  1.00  0.00    -0.018 C  
HETATM    9  C   UNL     1      -8.355   4.375  69.933  1.00  0.00    -0.062 C  
ENDROOT
BRANCH   7  10
HETATM   10  O   UNL     1      -7.770   5.628  67.729  1.00  0.00    -0.094 OA 
BRANCH  10  11
HETATM   11  C   UNL     1      -8.933   6.357  67.672  1.00  0.00    -0.113 C  
HETATM   12  O   UNL     1      -9.868   6.054  66.939  1.00  0.00    -0.141 OA 
HETATM   13  C   UNL     1      -8.844   7.596  68.657  1.00  0.00    -0.127 C  
HETATM   14  C   UNL     1      -9.676   7.436  69.946  1.00  0.00    -0.171 A  
HETATM   15  C   UNL     1      -9.183   8.899  67.910  1.00  0.00    -0.148 A  
HETATM   16  O   UNL     1      -7.464   7.691  69.086  1.00  0.00    -0.090 OA 
HETATM   17  H   UNL     1      -7.410   8.434  69.677  1.00  0.00     0.000 HD 
HETATM   18  C   UNL     1      -9.284   8.120  71.122  1.00  0.00    -0.185 A  
HETATM   19  C   UNL     1     -10.460   9.118  67.363  1.00  0.00    -0.339 A  
HETATM   20  C   UNL     1      -9.999   7.995  72.317  1.00  0.00    -0.304 A  
HETATM   21  C   UNL     1     -10.763  10.304  66.688  1.00  0.00    -0.183 A  
HETATM   22  C   UNL     1      -9.797  11.301  66.554  1.00  0.00    -0.239 A  
HETATM   23  C   UNL     1     -11.137   7.204  72.366  1.00  0.00    -0.302 A  
HETATM   24  C   UNL     1     -11.573   6.555  71.214  1.00  0.00    -0.381 A  
HETATM   25  C   UNL     1      -8.532  11.111  67.090  1.00  0.00    -0.137 A  
HETATM   26  C   UNL     1      -8.228   9.925  67.764  1.00  0.00    -0.114 A  
HETATM   27  C   UNL     1     -10.857   6.674  70.013  1.00  0.00    -0.331 A  
ENDBRANCH  10  11
ENDBRANCH   7  10
TORSDOF 2
ENDMDL
MODEL      173
REMARK 921   NORMALIZED FREE ENERGY PREDICTED BY IDOCK:   -2.58 KCAL/MOL
REMARK 922        TOTAL FREE ENERGY PREDICTED BY IDOCK:   -3.97 KCAL/MOL
REMARK 923 INTER-LIGAND FREE ENERGY PREDICTED BY IDOCK:   -3.41 KCAL/MOL
REMARK 924 INTRA-LIGAND FREE ENERGY PREDICTED BY IDOCK:   -0.55 KCAL/MOL
REMARK 927      BINDING AFFINITY PREDICTED BY RF-SCORE:    0.00 PKD
ROOT
HETATM    1  C   UNL     1     -13.042  11.625  71.607  1.00  0.00    -0.351 C  
HETATM    2  N   UNL     1     -13.037  13.145  71.541  1.00  0.00    -0.353 N  
HETATM    3  C   UNL     1     -14.410  13.694  71.940  1.00  0.00    -0.067 C  
HETATM    4  C   UNL     1     -14.375  15.221  71.837  1.00  0.00    -0.691 C  
HETATM    5  C   UNL     1     -12.981  15.725  71.418  1.00  0.00    -0.478 C  
HETATM    6  C   UNL     1     -11.967  15.215  72.448  1.00  0.00    -0.488 C  
HETATM    7  C   UNL     1     -12.629  15.141  70.031  1.00  0.00    -0.225 C  
HETATM    8  C   UNL     1     -11.983  13.688  72.519  1.00  0.00     1.318 C  
HETATM    9  C   UNL     1     -12.709  13.596  70.089  1.00  0.00    -0.049 C  
ENDROOT
BRANCH   7  10
HETATM   10  O   UNL     1     -11.432  15.788  69.509  1.00  0.00    -0.305 OA 
BRANCH  10  11
HETATM   11  C   UNL     1     -10.704  15.387  68.416  1.00  0.00    -0.256 C  
HETATM   12  O   UNL     1     -11.229  14.982  67.384  1.00  0.00    -0.319 OA 
HETATM   13  C   UNL     1      -9.153  15.522  68.718  1.00  0.00    -0.207 C  
HETATM   14  C   UNL     1      -8.478  16.719  68.018  1.00  0.00    -0.205 A  
HETATM   15  C   UNL     1      -8.432  14.195  68.416  1.00  0.00    -0.170 A  
HETATM   16  O   UNL     1      -9.024  15.769  70.139  1.00  0.00     0.194 OA 
HETATM   17  H   UNL     1      -8.095  15.851  70.321  1.00  0.00     0.000 HD 
HETATM   18  C   UNL     1      -7.324  17.306  68.592  1.00  0.00    -0.238 A  
HETATM   19  C   UNL     1      -8.378  13.671  67.112  1.00  0.00    -0.151 A  
HETATM   20  C   UNL     1      -6.686  18.400  68.002  1.00  0.00    -0.217 A  
HETATM   21  C   UNL     1      -7.719  12.468  66.844  1.00  0.00     0.050 A  
HETATM   22  C   UNL     1      -7.092  11.767  67.874  1.00  0.00    -0.087 A  
HETATM   23  C   UNL     1      -7.165  18.924  66.810  1.00  0.00    -0.221 A  
HETATM   24  C   UNL     1      -8.271  18.339  66.198  1.00  0.00    -0.171 A  
HETATM   25  C   UNL     1      -7.127  12.266  69.168  1.00  0.00    -0.003 A  
HETATM   26  C   UNL     1      -7.786  13.468  69.437  1.00  0.00     0.547 A  
HETATM   27  C   UNL     1      -8.917  17.243  66.789  1.00  0.00    -0.269 A  
ENDBRANCH  10  11
ENDBRANCH   7  10
TORSDOF 2
ENDMDL
MODEL      174
REMARK 921   NORMALIZED FREE ENERGY PREDICTED BY IDOCK:   -2.53 KCAL/MOL
REMARK 922        TOTAL FREE ENERGY PREDICTED BY IDOCK:   -3.90 KCAL/MOL
REMARK 923 INTER-LIGAND FREE ENERGY PREDICTED BY IDOCK:   -3.46 KCAL/MOL
REMARK 924 INTRA-LIGAND FREE ENERGY PREDICTED BY IDOCK:   -0.44 KCAL/MOL
REMARK 927      BINDING AFFINITY PREDICTED BY RF-SCORE:    0.00 PKD
ROOT
HETATM    1  C   UNL     1     -10.485  12.525  64.324  1.00  0.00    -0.378 C  
HETATM    2  N   UNL     1     -10.045  11.645  65.484  1.00  0.00    -0.236 N  
HETATM    3  C   UNL     1      -9.197  12.457  66.469  1.00  0.00    -0.215 C  
HETATM    4  C   UNL     1      -8.751  11.536  67.607  1.00  0.00    -0.142 C  
HETATM    5  C   UNL     1      -9.321  10.115  67.436  1.00  0.00    -0.167 C  
HETATM    6  C   UNL     1     -10.849  10.224  67.378  1.00  0.00    -0.336 C  
HETATM    7  C   UNL     1      -8.807   9.521  66.105  1.00  0.00    -0.152 C  
HETATM    8  C   UNL     1     -11.287  11.118  66.218  1.00  0.00     0.109 C  
HETATM    9  C   UNL     1      -9.197  10.460  64.939  1.00  0.00    -0.221 C  
ENDROOT
BRANCH   7  10
HETATM   10  O   UNL     1      -9.133   8.102  66.036  1.00  0.00    -0.183 OA 
BRANCH  10  11
HETATM   11  C   UNL     1      -8.408   7.134  65.386  1.00  0.00    -0.118 C  
HETATM   12  O   UNL     1      -7.597   7.395  64.504  1.00  0.00    -0.094 OA 
HETATM   13  C   UNL     1      -8.798   5.700  65.942  1.00  0.00    -0.152 C  
HETATM   14  C   UNL     1      -7.735   5.074  66.866  1.00  0.00    -0.092 A  
HETATM   15  C   UNL     1      -9.179   4.762  64.781  1.00  0.00    -0.101 A  
HETATM   16  O   UNL     1      -9.981   5.877  66.760  1.00  0.00    -0.152 OA 
HETATM   17  H   UNL     1     -10.214   5.018  67.093  1.00  0.00     0.000 HD 
HETATM   18  C   UNL     1      -8.130   4.139  67.854  1.00  0.00    -0.090 A  
HETATM   19  C   UNL     1      -8.240   4.393  63.800  1.00  0.00    -0.100 A  
HETATM   20  C   UNL     1      -7.204   3.555  68.724  1.00  0.00    -0.050 A  
HETATM   21  C   UNL     1      -8.591   3.539  62.751  1.00  0.00    -0.085 A  
HETATM   22  C   UNL     1      -9.886   3.028  62.665  1.00  0.00    -0.093 A  
HETATM   23  C   UNL     1      -5.857   3.867  68.617  1.00  0.00    -0.023 A  
HETATM   24  C   UNL     1      -5.432   4.748  67.625  1.00  0.00    -0.012 A  
HETATM   25  C   UNL     1     -10.828   3.373  63.624  1.00  0.00    -0.206 A  
HETATM   26  C   UNL     1     -10.479   4.229  64.672  1.00  0.00    -0.134 A  
HETATM   27  C   UNL     1      -6.359   5.340  66.753  1.00  0.00    -0.040 A  
ENDBRANCH  10  11
ENDBRANCH   7  10
TORSDOF 2
ENDMDL
MODEL      175
REMARK 921   NORMALIZED FREE ENERGY PREDICTED BY IDOCK:   -2.50 KCAL/MOL
REMARK 922        TOTAL FREE ENERGY PREDICTED BY IDOCK:   -3.87 KCAL/MOL
REMARK 923 INTER-LIGAND FREE ENERGY PREDICTED BY IDOCK:   -3.64 KCAL/MOL
REMARK 924 INTRA-LIGAND FREE ENERGY PREDICTED BY IDOCK:   -0.23 KCAL/MOL
REMARK 927      BINDING AFFINITY PREDICTED BY RF-SCORE:    0.00 PKD
ROOT
HETATM    1  C   UNL     1      -7.964  12.007  68.406  1.00  0.00    -0.152 C  
HETATM    2  N   UNL     1      -7.377  10.765  69.060  1.00  0.00    -0.099 N  
HETATM    3  C   UNL     1      -6.300  11.164  70.074  1.00  0.00    -0.147 C  
HETATM    4  C   UNL     1      -5.714   9.891  70.691  1.00  0.00    -0.071 C  
HETATM    5  C   UNL     1      -6.410   8.630  70.146  1.00  0.00    -0.038 C  
HETATM    6  C   UNL     1      -7.909   8.752  70.445  1.00  0.00    -0.098 C  
HETATM    7  C   UNL     1      -6.204   8.561  68.616  1.00  0.00    -0.046 C  
HETATM    8  C   UNL     1      -8.493  10.006  69.795  1.00  0.00    -0.172 C  
HETATM    9  C   UNL     1      -6.739   9.860  67.967  1.00  0.00    -0.061 C  
ENDROOT
BRANCH   7  10
HETATM   10  O   UNL     1      -6.642   7.264  68.114  1.00  0.00    -0.046 OA 
BRANCH  10  11
HETATM   11  C   UNL     1      -7.907   6.945  67.684  1.00  0.00    -0.112 C  
HETATM   12  O   UNL     1      -8.787   6.562  68.447  1.00  0.00    -0.124 OA 
HETATM   13  C   UNL     1      -8.010   7.139  66.114  1.00  0.00    -0.112 C  
HETATM   14  C   UNL     1      -8.795   8.395  65.685  1.00  0.00    -0.196 A  
HETATM   15  C   UNL     1      -8.560   5.861  65.453  1.00  0.00    -0.138 A  
HETATM   16  O   UNL     1      -6.660   7.330  65.626  1.00  0.00    -0.046 OA 
HETATM   17  H   UNL     1      -6.721   7.446  64.685  1.00  0.00     0.000 HD 
HETATM   18  C   UNL     1      -8.509   9.009  64.441  1.00  0.00    -0.190 A  
HETATM   19  C   UNL     1      -9.860   5.398  65.725  1.00  0.00    -0.009 A  
HETATM   20  C   UNL     1      -9.185  10.156  64.016  1.00  0.00    -0.315 A  
HETATM   21  C   UNL     1     -10.355   4.239  65.119  1.00  0.00    -0.215 A  
HETATM   22  C   UNL     1      -9.562   3.523  64.222  1.00  0.00    -0.160 A  
HETATM   23  C   UNL     1     -10.181  10.709  64.807  1.00  0.00    -0.401 A  
HETATM   24  C   UNL     1     -10.516  10.101  66.015  1.00  0.00    -0.165 A  
HETATM   25  C   UNL     1      -8.279   3.963  63.933  1.00  0.00    -0.091 A  
HETATM   26  C   UNL     1      -7.783   5.121  64.539  1.00  0.00    -0.087 A  
HETATM   27  C   UNL     1      -9.838   8.952  66.447  1.00  0.00    -0.353 A  
ENDBRANCH  10  11
ENDBRANCH   7  10
TORSDOF 2
ENDMDL
MODEL      176
REMARK 921   NORMALIZED FREE ENERGY PREDICTED BY IDOCK:   -2.41 KCAL/MOL
REMARK 922        TOTAL FREE ENERGY PREDICTED BY IDOCK:   -3.78 KCAL/MOL
REMARK 923 INTER-LIGAND FREE ENERGY PREDICTED BY IDOCK:   -3.24 KCAL/MOL
REMARK 924 INTRA-LIGAND FREE ENERGY PREDICTED BY IDOCK:   -0.54 KCAL/MOL
REMARK 927      BINDING AFFINITY PREDICTED BY RF-SCORE:    0.00 PKD
ROOT
HETATM    1  C   UNL     1      -5.172   8.423  67.920  1.00  0.00    -0.034 C  
HETATM    2  N   UNL     1      -6.414   7.605  67.597  1.00  0.00    -0.056 N  
HETATM    3  C   UNL     1      -6.821   7.821  66.135  1.00  0.00    -0.061 C  
HETATM    4  C   UNL     1      -8.086   7.005  65.854  1.00  0.00    -0.119 C  
HETATM    5  C   UNL     1      -8.521   6.198  67.092  1.00  0.00    -0.104 C  
HETATM    6  C   UNL     1      -7.354   5.290  67.497  1.00  0.00    -0.079 C  
HETATM    7  C   UNL     1      -8.826   7.175  68.250  1.00  0.00    -0.127 C  
HETATM    8  C   UNL     1      -6.106   6.115  67.810  1.00  0.00    -0.017 C  
HETATM    9  C   UNL     1      -7.581   8.052  68.523  1.00  0.00    -0.104 C  
ENDROOT
BRANCH   7  10
HETATM   10  O   UNL     1      -9.466   6.460  69.347  1.00  0.00    -0.140 OA 
BRANCH  10  11
HETATM   11  C   UNL     1      -9.485   6.846  70.665  1.00  0.00    -0.165 C  
HETATM   12  O   UNL     1     -10.105   7.828  71.058  1.00  0.00    -0.186 OA 
HETATM   13  C   UNL     1      -8.600   5.856  71.532  1.00  0.00    -0.132 C  
HETATM   14  C   UNL     1      -9.418   4.875  72.397  1.00  0.00    -0.170 A  
HETATM   15  C   UNL     1      -7.577   6.646  72.368  1.00  0.00    -0.094 A  
HETATM   16  O   UNL     1      -7.854   5.036  70.600  1.00  0.00    -0.075 OA 
HETATM   17  H   UNL     1      -7.324   4.442  71.119  1.00  0.00     0.000 HD 
HETATM   18  C   UNL     1      -8.860   3.623  72.753  1.00  0.00    -0.104 A  
HETATM   19  C   UNL     1      -7.987   7.543  73.371  1.00  0.00    -0.150 A  
HETATM   20  C   UNL     1      -9.568   2.696  73.524  1.00  0.00    -0.125 A  
HETATM   21  C   UNL     1      -7.053   8.256  74.129  1.00  0.00    -0.200 A  
HETATM   22  C   UNL     1      -5.687   8.080  73.906  1.00  0.00    -0.068 A  
HETATM   23  C   UNL     1     -10.842   3.001  73.980  1.00  0.00    -0.267 A  
HETATM   24  C   UNL     1     -11.399   4.242  73.684  1.00  0.00    -0.278 A  
HETATM   25  C   UNL     1      -5.258   7.196  72.926  1.00  0.00    -0.037 A  
HETATM   26  C   UNL     1      -6.191   6.484  72.167  1.00  0.00    -0.042 A  
HETATM   27  C   UNL     1     -10.694   5.174  72.908  1.00  0.00    -0.300 A  
ENDBRANCH  10  11
ENDBRANCH   7  10
TORSDOF 2
ENDMDL
MODEL      177
REMARK 921   NORMALIZED FREE ENERGY PREDICTED BY IDOCK:   -2.37 KCAL/MOL
REMARK 922        TOTAL FREE ENERGY PREDICTED BY IDOCK:   -3.73 KCAL/MOL
REMARK 923 INTER-LIGAND FREE ENERGY PREDICTED BY IDOCK:   -3.42 KCAL/MOL
REMARK 924 INTRA-LIGAND FREE ENERGY PREDICTED BY IDOCK:   -0.31 KCAL/MOL
REMARK 927      BINDING AFFINITY PREDICTED BY RF-SCORE:    0.00 PKD
ROOT
HETATM    1  C   UNL     1      -8.826  16.734  67.108  1.00  0.00    -0.200 C  
HETATM    2  N   UNL     1      -9.778  15.711  66.507  1.00  0.00    -0.250 N  
HETATM    3  C   UNL     1     -10.841  16.416  65.658  1.00  0.00    -0.178 C  
HETATM    4  C   UNL     1     -11.794  15.360  65.092  1.00  0.00     0.055 C  
HETATM    5  C   UNL     1     -11.368  13.938  65.504  1.00  0.00    -0.310 C  
HETATM    6  C   UNL     1      -9.935  13.714  65.009  1.00  0.00    -0.205 C  
HETATM    7  C   UNL     1     -11.393  13.831  67.046  1.00  0.00    -0.326 C  
HETATM    8  C   UNL     1      -8.984  14.750  65.607  1.00  0.00     0.711 C  
HETATM    9  C   UNL     1     -10.478  14.923  67.651  1.00  0.00    -0.249 C  
ENDROOT
BRANCH   7  10
HETATM   10  O   UNL     1     -11.229  12.440  67.449  1.00  0.00    -0.262 OA 
BRANCH  10  11
HETATM   11  C   UNL     1     -10.262  11.948  68.291  1.00  0.00    -0.204 C  
HETATM   12  O   UNL     1      -9.840  12.579  69.253  1.00  0.00     0.339 OA 
HETATM   13  C   UNL     1      -9.808  10.506  67.810  1.00  0.00    -0.165 C  
HETATM   14  C   UNL     1     -10.350   9.354  68.681  1.00  0.00    -0.227 A  
HETATM   15  C   UNL     1      -8.277  10.448  67.664  1.00  0.00    -0.110 A  
HETATM   16  O   UNL     1     -10.376  10.307  66.492  1.00  0.00    -0.232 OA 
HETATM   17  H   UNL     1     -10.104   9.443  66.204  1.00  0.00     0.000 HD 
HETATM   18  C   UNL     1     -10.531   8.071  68.110  1.00  0.00    -0.222 A  
HETATM   19  C   UNL     1      -7.429  10.610  68.774  1.00  0.00    -0.104 A  
HETATM   20  C   UNL     1     -11.031   6.999  68.855  1.00  0.00    -0.162 A  
HETATM   21  C   UNL     1      -6.039  10.553  68.636  1.00  0.00    -0.043 A  
HETATM   22  C   UNL     1      -5.467  10.326  67.384  1.00  0.00    -0.041 A  
HETATM   23  C   UNL     1     -11.341   7.171  70.197  1.00  0.00    -0.277 A  
HETATM   24  C   UNL     1     -11.131   8.410  70.797  1.00  0.00    -0.286 A  
HETATM   25  C   UNL     1      -6.283  10.158  66.274  1.00  0.00    -0.078 A  
HETATM   26  C   UNL     1      -7.672  10.215  66.412  1.00  0.00    -0.111 A  
HETATM   27  C   UNL     1     -10.633   9.489  70.051  1.00  0.00    -0.280 A  
ENDBRANCH  10  11
ENDBRANCH   7  10
TORSDOF 2
ENDMDL
MODEL      178
REMARK 921   NORMALIZED FREE ENERGY PREDICTED BY IDOCK:   -2.32 KCAL/MOL
REMARK 922        TOTAL FREE ENERGY PREDICTED BY IDOCK:   -3.67 KCAL/MOL
REMARK 923 INTER-LIGAND FREE ENERGY PREDICTED BY IDOCK:   -3.28 KCAL/MOL
REMARK 924 INTRA-LIGAND FREE ENERGY PREDICTED BY IDOCK:   -0.39 KCAL/MOL
REMARK 927      BINDING AFFINITY PREDICTED BY RF-SCORE:    0.00 PKD
ROOT
HETATM    1  C   UNL     1      -6.138  14.178  71.304  1.00  0.00    -0.048 C  
HETATM    2  N   UNL     1      -6.438  14.503  69.848  1.00  0.00    -0.153 N  
HETATM    3  C   UNL     1      -7.448  15.651  69.761  1.00  0.00    -0.046 C  
HETATM    4  C   UNL     1      -7.745  15.932  68.286  1.00  0.00    -0.137 C  
HETATM    5  C   UNL     1      -6.915  15.020  67.362  1.00  0.00    -0.184 C  
HETATM    6  C   UNL     1      -5.434  15.249  67.683  1.00  0.00    -0.042 C  
HETATM    7  C   UNL     1      -7.274  13.546  67.653  1.00  0.00    -0.168 C  
HETATM    8  C   UNL     1      -5.139  14.932  69.149  1.00  0.00    -0.090 C  
HETATM    9  C   UNL     1      -7.034  13.246  69.152  1.00  0.00    -0.031 C  
ENDROOT
BRANCH   7  10
HETATM   10  O   UNL     1      -6.687  12.682  66.636  1.00  0.00     0.174 OA 
BRANCH  10  11
HETATM   11  C   UNL     1      -6.680  11.309  66.643  1.00  0.00    -0.132 C  
HETATM   12  O   UNL     1      -5.694  10.654  66.961  1.00  0.00    -0.045 OA 
HETATM   13  C   UNL     1      -8.094  10.759  66.179  1.00  0.00    -0.160 C  
HETATM   14  C   UNL     1      -8.956  10.195  67.327  1.00  0.00    -0.144 A  
HETATM   15  C   UNL     1      -7.923   9.744  65.034  1.00  0.00    -0.131 A  
HETATM   16  O   UNL     1      -8.829  11.888  65.649  1.00  0.00    -0.411 OA 
HETATM   17  H   UNL     1      -9.676  11.559  65.371  1.00  0.00     0.000 HD 
HETATM   18  C   UNL     1     -10.367  10.205  67.212  1.00  0.00    -0.291 A  
HETATM   19  C   UNL     1      -7.242   8.528  65.228  1.00  0.00    -0.083 A  
HETATM   20  C   UNL     1     -11.191   9.717  68.230  1.00  0.00    -0.074 A  
HETATM   21  C   UNL     1      -7.093   7.609  64.185  1.00  0.00    -0.068 A  
HETATM   22  C   UNL     1      -7.628   7.883  62.927  1.00  0.00    -0.125 A  
HETATM   23  C   UNL     1     -10.630   9.184  69.382  1.00  0.00    -0.232 A  
HETATM   24  C   UNL     1      -9.244   9.119  69.504  1.00  0.00    -0.160 A  
HETATM   25  C   UNL     1      -8.308   9.074  62.712  1.00  0.00    -0.202 A  
HETATM   26  C   UNL     1      -8.457   9.993  63.754  1.00  0.00    -0.181 A  
HETATM   27  C   UNL     1      -8.414   9.611  68.485  1.00  0.00    -0.118 A  
ENDBRANCH  10  11
ENDBRANCH   7  10
TORSDOF 2
ENDMDL
MODEL      179
REMARK 921   NORMALIZED FREE ENERGY PREDICTED BY IDOCK:   -2.28 KCAL/MOL
REMARK 922        TOTAL FREE ENERGY PREDICTED BY IDOCK:   -3.63 KCAL/MOL
REMARK 923 INTER-LIGAND FREE ENERGY PREDICTED BY IDOCK:   -3.06 KCAL/MOL
REMARK 924 INTRA-LIGAND FREE ENERGY PREDICTED BY IDOCK:   -0.57 KCAL/MOL
REMARK 927      BINDING AFFINITY PREDICTED BY RF-SCORE:    0.00 PKD
ROOT
HETATM    1  C   UNL     1      -8.735  10.291  64.110  1.00  0.00    -0.204 C  
HETATM    2  N   UNL     1      -9.076  10.867  65.476  1.00  0.00    -0.197 N  
HETATM    3  C   UNL     1      -9.276  12.383  65.373  1.00  0.00     0.304 C  
HETATM    4  C   UNL     1      -9.591  12.931  66.767  1.00  0.00    -0.246 C  
HETATM    5  C   UNL     1      -9.656  11.803  67.813  1.00  0.00    -0.184 C  
HETATM    6  C   UNL     1     -10.721  10.799  67.358  1.00  0.00    -0.317 C  
HETATM    7  C   UNL     1      -8.285  11.092  67.874  1.00  0.00    -0.119 C  
HETATM    8  C   UNL     1     -10.380  10.230  65.981  1.00  0.00    -0.178 C  
HETATM    9  C   UNL     1      -7.913  10.572  66.465  1.00  0.00    -0.132 C  
ENDROOT
BRANCH   7  10
HETATM   10  O   UNL     1      -8.246  10.186  69.016  1.00  0.00    -0.112 OA 
BRANCH  10  11
HETATM   11  C   UNL     1      -7.511   9.030  69.110  1.00  0.00    -0.072 C  
HETATM   12  O   UNL     1      -6.304   8.995  68.900  1.00  0.00    -0.044 OA 
HETATM   13  C   UNL     1      -8.456   7.818  69.504  1.00  0.00    -0.131 C  
HETATM   14  C   UNL     1      -8.312   7.358  70.968  1.00  0.00    -0.114 A  
HETATM   15  C   UNL     1      -8.274   6.654  68.512  1.00  0.00    -0.119 A  
HETATM   16  O   UNL     1      -9.819   8.291  69.369  1.00  0.00    -0.178 OA 
HETATM   17  H   UNL     1     -10.386   7.565  69.605  1.00  0.00     0.000 HD 
HETATM   18  C   UNL     1      -9.406   6.736  71.618  1.00  0.00    -0.151 A  
HETATM   19  C   UNL     1      -7.047   5.976  68.397  1.00  0.00    -0.082 A  
HETATM   20  C   UNL     1      -9.326   6.314  72.948  1.00  0.00    -0.140 A  
HETATM   21  C   UNL     1      -6.889   4.918  67.498  1.00  0.00    -0.060 A  
HETATM   22  C   UNL     1      -7.957   4.510  66.698  1.00  0.00    -0.102 A  
HETATM   23  C   UNL     1      -8.147   6.478  73.660  1.00  0.00    -0.107 A  
HETATM   24  C   UNL     1      -7.039   7.045  73.033  1.00  0.00    -0.073 A  
HETATM   25  C   UNL     1      -9.179   5.160  66.798  1.00  0.00    -0.123 A  
HETATM   26  C   UNL     1      -9.338   6.219  67.696  1.00  0.00    -0.116 A  
HETATM   27  C   UNL     1      -7.116   7.473  71.700  1.00  0.00    -0.062 A  
ENDBRANCH  10  11
ENDBRANCH   7  10
TORSDOF 2
ENDMDL
MODEL      180
REMARK 921   NORMALIZED FREE ENERGY PREDICTED BY IDOCK:   -2.28 KCAL/MOL
REMARK 922        TOTAL FREE ENERGY PREDICTED BY IDOCK:   -3.63 KCAL/MOL
REMARK 923 INTER-LIGAND FREE ENERGY PREDICTED BY IDOCK:   -3.53 KCAL/MOL
REMARK 924 INTRA-LIGAND FREE ENERGY PREDICTED BY IDOCK:   -0.09 KCAL/MOL
REMARK 927      BINDING AFFINITY PREDICTED BY RF-SCORE:    0.00 PKD
ROOT
HETATM    1  C   UNL     1     -12.457   2.075  73.593  1.00  0.00     0.297 C  
HETATM    2  N   UNL     1     -11.259   2.974  73.326  1.00  0.00    -0.133 N  
HETATM    3  C   UNL     1     -10.200   2.777  74.417  1.00  0.00    -0.147 C  
HETATM    4  C   UNL     1      -9.024   3.714  74.132  1.00  0.00    -0.091 C  
HETATM    5  C   UNL     1      -9.244   4.514  72.834  1.00  0.00    -0.138 C  
HETATM    6  C   UNL     1      -9.445   3.513  71.691  1.00  0.00    -0.217 C  
HETATM    7  C   UNL     1     -10.519   5.375  72.982  1.00  0.00    -0.211 C  
HETATM    8  C   UNL     1     -10.643   2.605  71.967  1.00  0.00     0.365 C  
HETATM    9  C   UNL     1     -11.719   4.459  73.325  1.00  0.00    -0.034 C  
ENDROOT
BRANCH   7  10
HETATM   10  O   UNL     1     -10.616   6.315  71.872  1.00  0.00    -0.209 OA 
BRANCH  10  11
HETATM   11  C   UNL     1      -9.584   6.725  71.064  1.00  0.00    -0.170 C  
HETATM   12  O   UNL     1      -8.441   6.880  71.479  1.00  0.00    -0.114 OA 
HETATM   13  C   UNL     1     -10.113   6.961  69.588  1.00  0.00    -0.184 C  
HETATM   14  C   UNL     1      -9.703   5.859  68.590  1.00  0.00    -0.155 A  
HETATM   15  C   UNL     1      -9.713   8.363  69.094  1.00  0.00    -0.171 A  
HETATM   16  O   UNL     1     -11.559   6.921  69.651  1.00  0.00    -0.553 OA 
HETATM   17  H   UNL     1     -11.876   7.062  68.766  1.00  0.00     0.000 HD 
HETATM   18  C   UNL     1     -10.513   5.605  67.456  1.00  0.00    -0.294 A  
HETATM   19  C   UNL     1      -8.363   8.724  68.927  1.00  0.00    -0.127 A  
HETATM   20  C   UNL     1     -10.190   4.608  66.531  1.00  0.00    -0.273 A  
HETATM   21  C   UNL     1      -8.007   9.998  68.476  1.00  0.00    -0.102 A  
HETATM   22  C   UNL     1      -8.993  10.937  68.174  1.00  0.00    -0.144 A  
HETATM   23  C   UNL     1      -9.038   3.852  66.697  1.00  0.00    -0.160 A  
HETATM   24  C   UNL     1      -8.198   4.110  67.779  1.00  0.00    -0.094 A  
HETATM   25  C   UNL     1     -10.331  10.603  68.325  1.00  0.00    -0.201 A  
HETATM   26  C   UNL     1     -10.688   9.330  68.777  1.00  0.00    -0.184 A  
HETATM   27  C   UNL     1      -8.521   5.107  68.711  1.00  0.00    -0.087 A  
ENDBRANCH  10  11
ENDBRANCH   7  10
TORSDOF 2
ENDMDL
MODEL      181
REMARK 921   NORMALIZED FREE ENERGY PREDICTED BY IDOCK:   -2.21 KCAL/MOL
REMARK 922        TOTAL FREE ENERGY PREDICTED BY IDOCK:   -3.55 KCAL/MOL
REMARK 923 INTER-LIGAND FREE ENERGY PREDICTED BY IDOCK:   -3.02 KCAL/MOL
REMARK 924 INTRA-LIGAND FREE ENERGY PREDICTED BY IDOCK:   -0.54 KCAL/MOL
REMARK 927      BINDING AFFINITY PREDICTED BY RF-SCORE:    0.00 PKD
ROOT
HETATM    1  C   UNL     1     -12.458   9.641  71.719  1.00  0.00    -0.402 C  
HETATM    2  N   UNL     1     -11.414   9.434  70.632  1.00  0.00    -0.274 N  
HETATM    3  C   UNL     1     -11.798  10.223  69.376  1.00  0.00    -0.038 C  
HETATM    4  C   UNL     1     -10.742   9.971  68.297  1.00  0.00    -0.280 C  
HETATM    5  C   UNL     1      -9.616   9.056  68.816  1.00  0.00    -0.155 C  
HETATM    6  C   UNL     1      -8.999   9.723  70.051  1.00  0.00    -0.255 C  
HETATM    7  C   UNL     1     -10.221   7.694  69.225  1.00  0.00    -0.210 C  
HETATM    8  C   UNL     1     -10.053   9.939  71.136  1.00  0.00     0.380 C  
HETATM    9  C   UNL     1     -11.331   7.922  70.279  1.00  0.00    -0.150 C  
ENDROOT
BRANCH   7  10
HETATM   10  O   UNL     1      -9.154   6.737  69.490  1.00  0.00    -0.141 OA 
BRANCH  10  11
HETATM   11  C   UNL     1      -9.181   5.393  69.207  1.00  0.00    -0.116 C  
HETATM   12  O   UNL     1     -10.058   4.647  69.627  1.00  0.00    -0.233 OA 
HETATM   13  C   UNL     1      -7.936   5.004  68.304  1.00  0.00    -0.086 C  
HETATM   14  C   UNL     1      -8.290   4.744  66.826  1.00  0.00    -0.106 A  
HETATM   15  C   UNL     1      -7.169   3.825  68.930  1.00  0.00    -0.050 A  
HETATM   16  O   UNL     1      -7.046   6.147  68.304  1.00  0.00    -0.077 OA 
HETATM   17  H   UNL     1      -6.301   5.915  67.763  1.00  0.00     0.000 HD 
HETATM   18  C   UNL     1      -7.310   4.953  65.825  1.00  0.00    -0.077 A  
HETATM   19  C   UNL     1      -7.765   2.560  69.077  1.00  0.00    -0.048 A  
HETATM   20  C   UNL     1      -7.587   4.743  64.471  1.00  0.00    -0.073 A  
HETATM   21  C   UNL     1      -7.062   1.492  69.643  1.00  0.00    -0.033 A  
HETATM   22  C   UNL     1      -5.744   1.666  70.067  1.00  0.00    -0.017 A  
HETATM   23  C   UNL     1      -8.841   4.297  64.079  1.00  0.00    -0.138 A  
HETATM   24  C   UNL     1      -9.811   4.040  65.045  1.00  0.00    -0.204 A  
HETATM   25  C   UNL     1      -5.133   2.903  69.927  1.00  0.00    -0.004 A  
HETATM   26  C   UNL     1      -5.836   3.971  69.363  1.00  0.00    -0.018 A  
HETATM   27  C   UNL     1      -9.538   4.253  66.405  1.00  0.00    -0.209 A  
ENDBRANCH  10  11
ENDBRANCH   7  10
TORSDOF 2
ENDMDL
MODEL      182
REMARK 921   NORMALIZED FREE ENERGY PREDICTED BY IDOCK:   -2.14 KCAL/MOL
REMARK 922        TOTAL FREE ENERGY PREDICTED BY IDOCK:   -3.47 KCAL/MOL
REMARK 923 INTER-LIGAND FREE ENERGY PREDICTED BY IDOCK:   -3.06 KCAL/MOL
REMARK 924 INTRA-LIGAND FREE ENERGY PREDICTED BY IDOCK:   -0.42 KCAL/MOL
REMARK 927      BINDING AFFINITY PREDICTED BY RF-SCORE:    0.00 PKD
ROOT
HETATM    1  C   UNL     1      -9.042   2.059  67.119  1.00  0.00    -0.107 C  
HETATM    2  N   UNL     1      -8.480   3.353  66.550  1.00  0.00    -0.105 N  
HETATM    3  C   UNL     1      -7.100   3.102  65.934  1.00  0.00    -0.065 C  
HETATM    4  C   UNL     1      -6.555   4.428  65.398  1.00  0.00    -0.044 C  
HETATM    5  C   UNL     1      -7.566   5.573  65.597  1.00  0.00    -0.083 C  
HETATM    6  C   UNL     1      -8.867   5.181  64.888  1.00  0.00    -0.118 C  
HETATM    7  C   UNL     1      -7.844   5.744  67.107  1.00  0.00    -0.102 C  
HETATM    8  C   UNL     1      -9.423   3.875  65.455  1.00  0.00    -0.171 C  
HETATM    9  C   UNL     1      -8.346   4.402  67.691  1.00  0.00    -0.099 C  
ENDROOT
BRANCH   7  10
HETATM   10  O   UNL     1      -8.604   6.966  67.337  1.00  0.00    -0.120 OA 
BRANCH  10  11
HETATM   11  C   UNL     1      -8.629   7.700  68.497  1.00  0.00    -0.129 C  
HETATM   12  O   UNL     1      -8.471   7.194  69.603  1.00  0.00    -0.131 OA 
HETATM   13  C   UNL     1      -8.898   9.227  68.167  1.00  0.00    -0.129 C  
HETATM   14  C   UNL     1      -7.652  10.127  68.295  1.00  0.00    -0.087 A  
HETATM   15  C   UNL     1     -10.079   9.755  69.002  1.00  0.00    -0.195 A  
HETATM   16  O   UNL     1      -9.292   9.291  66.774  1.00  0.00    -0.143 OA 
HETATM   17  H   UNL     1      -9.453  10.206  66.576  1.00  0.00     0.000 HD 
HETATM   18  C   UNL     1      -7.564  11.313  67.526  1.00  0.00    -0.110 A  
HETATM   19  C   UNL     1     -10.012   9.821  70.406  1.00  0.00    -0.294 A  
HETATM   20  C   UNL     1      -6.449  12.153  67.598  1.00  0.00    -0.110 A  
HETATM   21  C   UNL     1     -11.086  10.304  71.158  1.00  0.00     0.011 A  
HETATM   22  C   UNL     1     -12.248  10.740  70.522  1.00  0.00    -0.457 A  
HETATM   23  C   UNL     1      -5.402  11.847  68.456  1.00  0.00    -0.052 A  
HETATM   24  C   UNL     1      -5.481  10.711  69.258  1.00  0.00    -0.037 A  
HETATM   25  C   UNL     1     -12.336  10.691  69.139  1.00  0.00     0.111 A  
HETATM   26  C   UNL     1     -11.263  10.207  68.386  1.00  0.00    -0.238 A  
HETATM   27  C   UNL     1      -6.596   9.863  69.186  1.00  0.00    -0.052 A  
ENDBRANCH  10  11
ENDBRANCH   7  10
TORSDOF 2
ENDMDL
MODEL      183
REMARK 921   NORMALIZED FREE ENERGY PREDICTED BY IDOCK:   -2.09 KCAL/MOL
REMARK 922        TOTAL FREE ENERGY PREDICTED BY IDOCK:   -3.41 KCAL/MOL
REMARK 923 INTER-LIGAND FREE ENERGY PREDICTED BY IDOCK:   -2.89 KCAL/MOL
REMARK 924 INTRA-LIGAND FREE ENERGY PREDICTED BY IDOCK:   -0.52 KCAL/MOL
REMARK 927      BINDING AFFINITY PREDICTED BY RF-SCORE:    0.00 PKD
ROOT
HETATM    1  C   UNL     1      -8.065  12.039  68.416  1.00  0.00    -0.154 C  
HETATM    2  N   UNL     1      -7.141  11.044  69.103  1.00  0.00    -0.106 N  
HETATM    3  C   UNL     1      -6.082  11.789  69.923  1.00  0.00    -0.151 C  
HETATM    4  C   UNL     1      -5.157  10.759  70.577  1.00  0.00    -0.073 C  
HETATM    5  C   UNL     1      -5.598   9.320  70.251  1.00  0.00    -0.031 C  
HETATM    6  C   UNL     1      -7.044   9.150  70.732  1.00  0.00    -0.103 C  
HETATM    7  C   UNL     1      -5.547   9.110  68.721  1.00  0.00    -0.040 C  
HETATM    8  C   UNL     1      -7.967  10.158  70.048  1.00  0.00    -0.090 C  
HETATM    9  C   UNL     1      -6.432  10.172  68.027  1.00  0.00    -0.058 C  
ENDROOT
BRANCH   7  10
HETATM   10  O   UNL     1      -5.725   7.697  68.407  1.00  0.00    -0.026 OA 
BRANCH  10  11
HETATM   11  C   UNL     1      -6.851   7.121  67.874  1.00  0.00    -0.074 C  
HETATM   12  O   UNL     1      -7.391   7.541  66.856  1.00  0.00    -0.088 OA 
HETATM   13  C   UNL     1      -7.307   5.893  68.768  1.00  0.00    -0.084 C  
HETATM   14  C   UNL     1      -6.998   4.515  68.149  1.00  0.00    -0.056 A  
HETATM   15  C   UNL     1      -8.792   6.033  69.152  1.00  0.00    -0.119 A  
HETATM   16  O   UNL     1      -6.537   5.960  69.993  1.00  0.00    -0.043 OA 
HETATM   17  H   UNL     1      -6.810   5.224  70.529  1.00  0.00     0.000 HD 
HETATM   18  C   UNL     1      -6.804   3.395  68.995  1.00  0.00    -0.045 A  
HETATM   19  C   UNL     1      -9.805   6.010  68.176  1.00  0.00    -0.148 A  
HETATM   20  C   UNL     1      -6.509   2.130  68.481  1.00  0.00    -0.029 A  
HETATM   21  C   UNL     1     -11.152   6.134  68.531  1.00  0.00    -0.352 A  
HETATM   22  C   UNL     1     -11.514   6.276  69.871  1.00  0.00    -0.459 A  
HETATM   23  C   UNL     1      -6.422   1.939  67.109  1.00  0.00    -0.027 A  
HETATM   24  C   UNL     1      -6.652   3.012  66.251  1.00  0.00    -0.036 A  
HETATM   25  C   UNL     1     -10.533   6.296  70.851  1.00  0.00    -0.274 A  
HETATM   26  C   UNL     1      -9.187   6.173  70.498  1.00  0.00    -0.166 A  
HETATM   27  C   UNL     1      -6.945   4.285  66.763  1.00  0.00    -0.059 A  
ENDBRANCH  10  11
ENDBRANCH   7  10
TORSDOF 2
ENDMDL
MODEL      184
REMARK 921   NORMALIZED FREE ENERGY PREDICTED BY IDOCK:   -2.09 KCAL/MOL
REMARK 922        TOTAL FREE ENERGY PREDICTED BY IDOCK:   -3.41 KCAL/MOL
REMARK 923 INTER-LIGAND FREE ENERGY PREDICTED BY IDOCK:   -2.77 KCAL/MOL
REMARK 924 INTRA-LIGAND FREE ENERGY PREDICTED BY IDOCK:   -0.64 KCAL/MOL
REMARK 927      BINDING AFFINITY PREDICTED BY RF-SCORE:    0.00 PKD
ROOT
HETATM    1  C   UNL     1      -9.799  10.648  65.936  1.00  0.00    -0.243 C  
HETATM    2  N   UNL     1      -8.711  10.667  66.999  1.00  0.00    -0.128 N  
HETATM    3  C   UNL     1      -7.924  11.979  66.924  1.00  0.00    -0.112 C  
HETATM    4  C   UNL     1      -6.824  11.952  67.988  1.00  0.00    -0.072 C  
HETATM    5  C   UNL     1      -6.879  10.657  68.820  1.00  0.00    -0.062 C  
HETATM    6  C   UNL     1      -8.269  10.565  69.458  1.00  0.00    -0.092 C  
HETATM    7  C   UNL     1      -6.672   9.446  67.883  1.00  0.00    -0.067 C  
HETATM    8  C   UNL     1      -9.360  10.557  68.387  1.00  0.00    -0.158 C  
HETATM    9  C   UNL     1      -7.739   9.476  66.763  1.00  0.00    -0.098 C  
ENDROOT
BRANCH   7  10
HETATM   10  O   UNL     1      -6.480   8.235  68.672  1.00  0.00    -0.051 OA 
BRANCH  10  11
HETATM   11  C   UNL     1      -6.545   6.945  68.207  1.00  0.00    -0.058 C  
HETATM   12  O   UNL     1      -5.718   6.479  67.430  1.00  0.00    -0.012 OA 
HETATM   13  C   UNL     1      -7.816   6.214  68.811  1.00  0.00    -0.101 C  
HETATM   14  C   UNL     1      -7.488   5.196  69.921  1.00  0.00    -0.061 A  
HETATM   15  C   UNL     1      -8.659   5.588  67.684  1.00  0.00    -0.108 A  
HETATM   16  O   UNL     1      -8.627   7.238  69.438  1.00  0.00    -0.132 OA 
HETATM   17  H   UNL     1      -9.389   6.800  69.801  1.00  0.00     0.000 HD 
HETATM   18  C   UNL     1      -8.456   4.905  70.913  1.00  0.00    -0.116 A  
HETATM   19  C   UNL     1      -8.149   4.556  66.876  1.00  0.00    -0.102 A  
HETATM   20  C   UNL     1      -8.200   3.999  71.946  1.00  0.00    -0.091 A  
HETATM   21  C   UNL     1      -8.920   3.989  65.857  1.00  0.00    -0.128 A  
HETATM   22  C   UNL     1     -10.221   4.438  65.629  1.00  0.00    -0.259 A  
HETATM   23  C   UNL     1      -6.981   3.340  72.006  1.00  0.00    -0.034 A  
HETATM   24  C   UNL     1      -6.026   3.571  71.018  1.00  0.00    -0.014 A  
HETATM   25  C   UNL     1     -10.748   5.452  66.416  1.00  0.00    -0.284 A  
HETATM   26  C   UNL     1      -9.977   6.019  67.435  1.00  0.00    -0.165 A  
HETATM   27  C   UNL     1      -6.278   4.483  69.982  1.00  0.00    -0.026 A  
ENDBRANCH  10  11
ENDBRANCH   7  10
TORSDOF 2
ENDMDL
MODEL      185
REMARK 921   NORMALIZED FREE ENERGY PREDICTED BY IDOCK:   -2.02 KCAL/MOL
REMARK 922        TOTAL FREE ENERGY PREDICTED BY IDOCK:   -3.34 KCAL/MOL
REMARK 923 INTER-LIGAND FREE ENERGY PREDICTED BY IDOCK:   -5.12 KCAL/MOL
REMARK 924 INTRA-LIGAND FREE ENERGY PREDICTED BY IDOCK:    1.78 KCAL/MOL
REMARK 927      BINDING AFFINITY PREDICTED BY RF-SCORE:    0.00 PKD
ROOT
HETATM    1  C   UNL     1     -12.472  15.628  74.371  1.00  0.00    -0.634 C  
HETATM    2  N   UNL     1     -12.603  15.409  72.872  1.00  0.00    -0.377 N  
HETATM    3  C   UNL     1     -12.789  13.918  72.571  1.00  0.00    -0.278 C  
HETATM    4  C   UNL     1     -12.890  13.734  71.055  1.00  0.00    -0.376 C  
HETATM    5  C   UNL     1     -12.822  15.085  70.318  1.00  0.00    -0.270 C  
HETATM    6  C   UNL     1     -13.960  15.966  70.846  1.00  0.00     0.998 C  
HETATM    7  C   UNL     1     -11.470  15.763  70.631  1.00  0.00    -0.390 C  
HETATM    8  C   UNL     1     -13.831  16.175  72.355  1.00  0.00     0.166 C  
HETATM    9  C   UNL     1     -11.314  15.916  72.163  1.00  0.00    -0.135 C  
ENDROOT
BRANCH   7  10
HETATM   10  O   UNL     1     -11.282  16.919  69.763  1.00  0.00    -0.041 OA 
BRANCH  10  11
HETATM   11  C   UNL     1     -10.674  16.919  68.532  1.00  0.00    -0.359 C  
HETATM   12  O   UNL     1     -10.866  17.798  67.699  1.00  0.00    -0.363 OA 
HETATM   13  C   UNL     1      -9.744  15.642  68.387  1.00  0.00    -0.202 C  
HETATM   14  C   UNL     1      -8.237  15.946  68.500  1.00  0.00    -0.169 A  
HETATM   15  C   UNL     1     -10.083  14.878  67.093  1.00  0.00    -0.240 A  
HETATM   16  O   UNL     1     -10.058  14.769  69.499  1.00  0.00    -0.376 OA 
HETATM   17  H   UNL     1      -9.500  14.004  69.413  1.00  0.00     0.000 HD 
HETATM   18  C   UNL     1      -7.352  14.939  68.957  1.00  0.00    -0.143 A  
HETATM   19  C   UNL     1      -9.891  15.461  65.828  1.00  0.00    -0.399 A  
HETATM   20  C   UNL     1      -5.980  15.171  69.089  1.00  0.00    -0.099 A  
HETATM   21  C   UNL     1     -10.197  14.761  64.657  1.00  0.00     0.025 A  
HETATM   22  C   UNL     1     -10.695  13.459  64.727  1.00  0.00    -0.403 A  
HETATM   23  C   UNL     1      -5.448  16.406  68.747  1.00  0.00    -0.116 A  
HETATM   24  C   UNL     1      -6.287  17.402  68.252  1.00  0.00    -0.170 A  
HETATM   25  C   UNL     1     -10.887  12.861  65.964  1.00  0.00    -0.300 A  
HETATM   26  C   UNL     1     -10.582  13.561  67.135  1.00  0.00    -0.264 A  
HETATM   27  C   UNL     1      -7.665  17.174  68.122  1.00  0.00    -0.204 A  
ENDBRANCH  10  11
ENDBRANCH   7  10
TORSDOF 2
ENDMDL
MODEL      186
REMARK 921   NORMALIZED FREE ENERGY PREDICTED BY IDOCK:   -2.01 KCAL/MOL
REMARK 922        TOTAL FREE ENERGY PREDICTED BY IDOCK:   -3.32 KCAL/MOL
REMARK 923 INTER-LIGAND FREE ENERGY PREDICTED BY IDOCK:   -3.06 KCAL/MOL
REMARK 924 INTRA-LIGAND FREE ENERGY PREDICTED BY IDOCK:   -0.26 KCAL/MOL
REMARK 927      BINDING AFFINITY PREDICTED BY RF-SCORE:    0.00 PKD
ROOT
HETATM    1  C   UNL     1      -6.445  15.345  69.951  1.00  0.00    -0.155 C  
HETATM    2  N   UNL     1      -7.553  14.659  69.166  1.00  0.00    -0.137 N  
HETATM    3  C   UNL     1      -8.922  15.140  69.659  1.00  0.00    -0.053 C  
HETATM    4  C   UNL     1     -10.011  14.411  68.867  1.00  0.00    -0.183 C  
HETATM    5  C   UNL     1      -9.403  13.474  67.807  1.00  0.00    -0.213 C  
HETATM    6  C   UNL     1      -8.517  14.318  66.884  1.00  0.00    -0.133 C  
HETATM    7  C   UNL     1      -8.530  12.412  68.513  1.00  0.00    -0.069 C  
HETATM    8  C   UNL     1      -7.411  15.014  67.678  1.00  0.00    -0.181 C  
HETATM    9  C   UNL     1      -7.451  13.120  69.366  1.00  0.00     0.428 C  
ENDROOT
BRANCH   7  10
HETATM   10  O   UNL     1      -8.142  11.377  67.563  1.00  0.00    -0.119 OA 
BRANCH  10  11
HETATM   11  C   UNL     1      -7.678  10.123  67.874  1.00  0.00    -0.089 C  
HETATM   12  O   UNL     1      -6.504   9.798  67.734  1.00  0.00    -0.056 OA 
HETATM   13  C   UNL     1      -8.870   9.220  68.403  1.00  0.00    -0.129 C  
HETATM   14  C   UNL     1      -8.853   8.986  69.927  1.00  0.00    -0.164 A  
HETATM   15  C   UNL     1      -8.929   7.898  67.617  1.00  0.00    -0.133 A  
HETATM   16  O   UNL     1     -10.095   9.942  68.126  1.00  0.00    -0.154 OA 
HETATM   17  H   UNL     1     -10.810   9.401  68.443  1.00  0.00     0.000 HD 
HETATM   18  C   UNL     1     -10.066   8.725  70.609  1.00  0.00    -0.248 A  
HETATM   19  C   UNL     1      -7.877   6.965  67.673  1.00  0.00    -0.112 A  
HETATM   20  C   UNL     1     -10.103   8.519  71.991  1.00  0.00    -0.386 A  
HETATM   21  C   UNL     1      -7.938   5.765  66.959  1.00  0.00    -0.102 A  
HETATM   22  C   UNL     1      -9.056   5.467  66.179  1.00  0.00    -0.155 A  
HETATM   23  C   UNL     1      -8.928   8.544  72.728  1.00  0.00    -0.205 A  
HETATM   24  C   UNL     1      -7.713   8.753  72.079  1.00  0.00    -0.025 A  
HETATM   25  C   UNL     1     -10.109   6.369  66.112  1.00  0.00     0.139 A  
HETATM   26  C   UNL     1     -10.048   7.570  66.825  1.00  0.00    -0.313 A  
HETATM   27  C   UNL     1      -7.673   8.963  70.692  1.00  0.00    -0.112 A  
ENDBRANCH  10  11
ENDBRANCH   7  10
TORSDOF 2
ENDMDL
MODEL      187
REMARK 921   NORMALIZED FREE ENERGY PREDICTED BY IDOCK:   -2.00 KCAL/MOL
REMARK 922        TOTAL FREE ENERGY PREDICTED BY IDOCK:   -3.32 KCAL/MOL
REMARK 923 INTER-LIGAND FREE ENERGY PREDICTED BY IDOCK:   -3.75 KCAL/MOL
REMARK 924 INTRA-LIGAND FREE ENERGY PREDICTED BY IDOCK:    0.43 KCAL/MOL
REMARK 927      BINDING AFFINITY PREDICTED BY RF-SCORE:    0.00 PKD
ROOT
HETATM    1  C   UNL     1     -12.482  14.834  65.937  1.00  0.00     0.086 C  
HETATM    2  N   UNL     1     -11.746  13.539  65.629  1.00  0.00    -0.327 N  
HETATM    3  C   UNL     1     -12.226  12.966  64.291  1.00  0.00    -0.410 C  
HETATM    4  C   UNL     1     -11.485  11.653  64.027  1.00  0.00    -0.404 C  
HETATM    5  C   UNL     1     -10.470  11.346  65.145  1.00  0.00    -0.351 C  
HETATM    6  C   UNL     1      -9.495  12.525  65.233  1.00  0.00     0.144 C  
HETATM    7  C   UNL     1     -11.223  11.212  66.487  1.00  0.00    -0.079 C  
HETATM    8  C   UNL     1     -10.240  13.826  65.532  1.00  0.00    -0.316 C  
HETATM    9  C   UNL     1     -12.027  12.506  66.757  1.00  0.00    -0.257 C  
ENDROOT
BRANCH   7  10
HETATM   10  O   UNL     1     -10.326  10.687  67.509  1.00  0.00    -0.192 OA 
BRANCH  10  11
HETATM   11  C   UNL     1      -8.957  10.802  67.524  1.00  0.00    -0.132 C  
HETATM   12  O   UNL     1      -8.382  11.808  67.926  1.00  0.00    -0.134 OA 
HETATM   13  C   UNL     1      -8.296   9.480  66.949  1.00  0.00    -0.116 C  
HETATM   14  C   UNL     1      -7.664   8.574  68.025  1.00  0.00    -0.103 A  
HETATM   15  C   UNL     1      -7.300   9.825  65.827  1.00  0.00    -0.105 A  
HETATM   16  O   UNL     1      -9.365   8.704  66.354  1.00  0.00    -0.178 OA 
HETATM   17  H   UNL     1      -8.969   7.911  66.009  1.00  0.00     0.000 HD 
HETATM   18  C   UNL     1      -7.562   7.180  67.794  1.00  0.00    -0.111 A  
HETATM   19  C   UNL     1      -6.142  10.581  66.084  1.00  0.00    -0.110 A  
HETATM   20  C   UNL     1      -7.009   6.317  68.744  1.00  0.00    -0.076 A  
HETATM   21  C   UNL     1      -5.239  10.888  65.062  1.00  0.00    -0.076 A  
HETATM   22  C   UNL     1      -5.471  10.439  63.761  1.00  0.00    -0.156 A  
HETATM   23  C   UNL     1      -6.521   6.822  69.941  1.00  0.00    -0.043 A  
HETATM   24  C   UNL     1      -6.566   8.194  70.177  1.00  0.00    -0.036 A  
HETATM   25  C   UNL     1      -6.603   9.686  63.485  1.00  0.00    -0.110 A  
HETATM   26  C   UNL     1      -7.507   9.380  64.506  1.00  0.00    -0.105 A  
HETATM   27  C   UNL     1      -7.124   9.063  69.227  1.00  0.00    -0.058 A  
ENDBRANCH  10  11
ENDBRANCH   7  10
TORSDOF 2
ENDMDL
MODEL      188
REMARK 921   NORMALIZED FREE ENERGY PREDICTED BY IDOCK:   -1.94 KCAL/MOL
REMARK 922        TOTAL FREE ENERGY PREDICTED BY IDOCK:   -3.25 KCAL/MOL
REMARK 923 INTER-LIGAND FREE ENERGY PREDICTED BY IDOCK:   -2.69 KCAL/MOL
REMARK 924 INTRA-LIGAND FREE ENERGY PREDICTED BY IDOCK:   -0.55 KCAL/MOL
REMARK 927      BINDING AFFINITY PREDICTED BY RF-SCORE:    0.00 PKD
ROOT
HETATM    1  C   UNL     1      -6.365  11.708  68.140  1.00  0.00    -0.050 C  
HETATM    2  N   UNL     1      -7.121  10.493  68.655  1.00  0.00    -0.073 N  
HETATM    3  C   UNL     1      -7.031  10.426  70.183  1.00  0.00    -0.141 C  
HETATM    4  C   UNL     1      -7.779   9.180  70.663  1.00  0.00    -0.152 C  
HETATM    5  C   UNL     1      -8.419   8.419  69.486  1.00  0.00    -0.124 C  
HETATM    6  C   UNL     1      -9.361   9.385  68.758  1.00  0.00    -0.146 C  
HETATM    7  C   UNL     1      -7.306   7.968  68.513  1.00  0.00    -0.097 C  
HETATM    8  C   UNL     1      -8.599  10.610  68.251  1.00  0.00    -0.128 C  
HETATM    9  C   UNL     1      -6.497   9.203  68.051  1.00  0.00    -0.059 C  
ENDROOT
BRANCH   7  10
HETATM   10  O   UNL     1      -7.855   7.047  67.525  1.00  0.00    -0.108 OA 
BRANCH  10  11
HETATM   11  C   UNL     1      -7.307   5.848  67.141  1.00  0.00    -0.077 C  
HETATM   12  O   UNL     1      -6.149   5.745  66.752  1.00  0.00    -0.024 OA 
HETATM   13  C   UNL     1      -8.385   4.693  67.273  1.00  0.00    -0.105 C  
HETATM   14  C   UNL     1      -8.163   3.760  68.481  1.00  0.00    -0.083 A  
HETATM   15  C   UNL     1      -8.493   3.909  65.952  1.00  0.00    -0.110 A  
HETATM   16  O   UNL     1      -9.663   5.337  67.499  1.00  0.00    -0.132 OA 
HETATM   17  H   UNL     1     -10.309   4.645  67.578  1.00  0.00     0.000 HD 
HETATM   18  C   UNL     1      -9.268   3.089  69.059  1.00  0.00    -0.222 A  
HETATM   19  C   UNL     1      -7.408   3.170  65.448  1.00  0.00    -0.072 A  
HETATM   20  C   UNL     1      -9.119   2.245  70.163  1.00  0.00    -0.175 A  
HETATM   21  C   UNL     1      -7.514   2.458  64.249  1.00  0.00    -0.059 A  
HETATM   22  C   UNL     1      -8.710   2.464  63.532  1.00  0.00    -0.085 A  
HETATM   23  C   UNL     1      -7.861   2.026  70.705  1.00  0.00    -0.041 A  
HETATM   24  C   UNL     1      -6.749   2.636  70.129  1.00  0.00    -0.033 A  
HETATM   25  C   UNL     1      -9.797   3.182  64.012  1.00  0.00    -0.162 A  
HETATM   26  C   UNL     1      -9.692   3.895  65.209  1.00  0.00    -0.187 A  
HETATM   27  C   UNL     1      -6.895   3.488  69.024  1.00  0.00    -0.045 A  
ENDBRANCH  10  11
ENDBRANCH   7  10
TORSDOF 2
ENDMDL
MODEL      189
REMARK 921   NORMALIZED FREE ENERGY PREDICTED BY IDOCK:   -1.92 KCAL/MOL
REMARK 922        TOTAL FREE ENERGY PREDICTED BY IDOCK:   -3.22 KCAL/MOL
REMARK 923 INTER-LIGAND FREE ENERGY PREDICTED BY IDOCK:   -2.71 KCAL/MOL
REMARK 924 INTRA-LIGAND FREE ENERGY PREDICTED BY IDOCK:   -0.51 KCAL/MOL
REMARK 927      BINDING AFFINITY PREDICTED BY RF-SCORE:    0.00 PKD
ROOT
HETATM    1  C   UNL     1      -7.578   2.084  68.464  1.00  0.00    -0.050 C  
HETATM    2  N   UNL     1      -7.622   3.178  67.409  1.00  0.00    -0.069 N  
HETATM    3  C   UNL     1      -6.731   2.800  66.221  1.00  0.00    -0.043 C  
HETATM    4  C   UNL     1      -6.779   3.934  65.193  1.00  0.00    -0.048 C  
HETATM    5  C   UNL     1      -7.728   5.061  65.642  1.00  0.00    -0.087 C  
HETATM    6  C   UNL     1      -9.117   4.449  65.858  1.00  0.00    -0.133 C  
HETATM    7  C   UNL     1      -7.220   5.645  66.980  1.00  0.00    -0.075 C  
HETATM    8  C   UNL     1      -9.067   3.343  66.912  1.00  0.00    -0.170 C  
HETATM    9  C   UNL     1      -7.110   4.511  68.026  1.00  0.00    -0.064 C  
ENDROOT
BRANCH   7  10
HETATM   10  O   UNL     1      -7.956   6.862  67.301  1.00  0.00    -0.111 OA 
BRANCH  10  11
HETATM   11  C   UNL     1      -7.442   7.987  67.896  1.00  0.00    -0.094 C  
HETATM   12  O   UNL     1      -6.352   8.459  67.590  1.00  0.00    -0.051 OA 
HETATM   13  C   UNL     1      -8.449   8.526  68.997  1.00  0.00    -0.126 C  
HETATM   14  C   UNL     1      -9.222   9.792  68.575  1.00  0.00    -0.134 A  
HETATM   15  C   UNL     1      -7.721   8.715  70.341  1.00  0.00    -0.081 A  
HETATM   16  O   UNL     1      -9.449   7.496  69.188  1.00  0.00    -0.150 OA 
HETATM   17  H   UNL     1     -10.053   7.819  69.848  1.00  0.00     0.000 HD 
HETATM   18  C   UNL     1     -10.495  10.055  69.138  1.00  0.00    -0.238 A  
HETATM   19  C   UNL     1      -6.683   9.653  70.485  1.00  0.00    -0.119 A  
HETATM   20  C   UNL     1     -11.239  11.182  68.777  1.00  0.00    -0.314 A  
HETATM   21  C   UNL     1      -6.028   9.822  71.709  1.00  0.00     0.152 A  
HETATM   22  C   UNL     1      -6.404   9.063  72.817  1.00  0.00     0.111 A  
HETATM   23  C   UNL     1     -10.725  12.091  67.864  1.00  0.00    -0.243 A  
HETATM   24  C   UNL     1      -9.456  11.883  67.328  1.00  0.00    -0.176 A  
HETATM   25  C   UNL     1      -7.430   8.136  72.701  1.00  0.00    -0.156 A  
HETATM   26  C   UNL     1      -8.084   7.965  71.477  1.00  0.00    -0.117 A  
HETATM   27  C   UNL     1      -8.708  10.751  67.684  1.00  0.00    -0.126 A  
ENDBRANCH  10  11
ENDBRANCH   7  10
TORSDOF 2
ENDMDL
MODEL      190
REMARK 921   NORMALIZED FREE ENERGY PREDICTED BY IDOCK:   -1.88 KCAL/MOL
REMARK 922        TOTAL FREE ENERGY PREDICTED BY IDOCK:   -3.18 KCAL/MOL
REMARK 923 INTER-LIGAND FREE ENERGY PREDICTED BY IDOCK:   -4.16 KCAL/MOL
REMARK 924 INTRA-LIGAND FREE ENERGY PREDICTED BY IDOCK:    0.98 KCAL/MOL
REMARK 927      BINDING AFFINITY PREDICTED BY RF-SCORE:    0.00 PKD
ROOT
HETATM    1  C   UNL     1      -5.177  12.028  66.288  1.00  0.00     0.561 C  
HETATM    2  N   UNL     1      -6.118  11.781  67.458  1.00  0.00    -0.079 N  
HETATM    3  C   UNL     1      -6.672  10.354  67.395  1.00  0.00    -0.072 C  
HETATM    4  C   UNL     1      -7.632  10.150  68.570  1.00  0.00    -0.088 C  
HETATM    5  C   UNL     1      -7.706  11.405  69.460  1.00  0.00     0.267 C  
HETATM    6  C   UNL     1      -6.288  11.717  69.952  1.00  0.00    -0.124 C  
HETATM    7  C   UNL     1      -8.221  12.593  68.618  1.00  0.00     0.008 C  
HETATM    8  C   UNL     1      -5.343  11.954  68.774  1.00  0.00    -0.049 C  
HETATM    9  C   UNL     1      -7.299  12.790  67.391  1.00  0.00    -0.134 C  
ENDROOT
BRANCH   7  10
HETATM   10  O   UNL     1      -8.527  13.722  69.487  1.00  0.00     0.601 OA 
BRANCH  10  11
HETATM   11  C   UNL     1      -9.634  14.531  69.408  1.00  0.00     0.143 C  
HETATM   12  O   UNL     1      -9.598  15.728  69.667  1.00  0.00    -0.280 OA 
HETATM   13  C   UNL     1     -10.895  13.679  68.960  1.00  0.00    -0.204 C  
HETATM   14  C   UNL     1     -11.323  13.911  67.497  1.00  0.00    -0.342 A  
HETATM   15  C   UNL     1     -12.061  13.894  69.943  1.00  0.00    -0.406 A  
HETATM   16  O   UNL     1     -10.510  12.285  69.045  1.00  0.00    -0.392 OA 
HETATM   17  H   UNL     1     -11.266  11.775  68.776  1.00  0.00     0.000 HD 
HETATM   18  C   UNL     1     -12.001  12.885  66.795  1.00  0.00    -0.418 A  
HETATM   19  C   UNL     1     -12.665  15.155  70.099  1.00  0.00    -0.273 A  
HETATM   20  C   UNL     1     -12.397  13.044  65.464  1.00  0.00    -0.527 A  
HETATM   21  C   UNL     1     -13.725  15.342  70.991  1.00  0.00    -0.420 A  
HETATM   22  C   UNL     1     -14.210  14.270  71.740  1.00  0.00    -0.540 A  
HETATM   23  C   UNL     1     -12.150  14.238  64.803  1.00  0.00    -0.457 A  
HETATM   24  C   UNL     1     -11.525  15.282  65.482  1.00  0.00    -0.152 A  
HETATM   25  C   UNL     1     -13.635  13.015  71.599  1.00  0.00    -0.171 A  
HETATM   26  C   UNL     1     -12.574  12.827  70.709  1.00  0.00    -0.308 A  
HETATM   27  C   UNL     1     -11.123  15.126  66.817  1.00  0.00    -0.307 A  
ENDBRANCH  10  11
ENDBRANCH   7  10
TORSDOF 2
ENDMDL
MODEL      191
REMARK 921   NORMALIZED FREE ENERGY PREDICTED BY IDOCK:   -1.79 KCAL/MOL
REMARK 922        TOTAL FREE ENERGY PREDICTED BY IDOCK:   -3.08 KCAL/MOL
REMARK 923 INTER-LIGAND FREE ENERGY PREDICTED BY IDOCK:   -3.81 KCAL/MOL
REMARK 924 INTRA-LIGAND FREE ENERGY PREDICTED BY IDOCK:    0.73 KCAL/MOL
REMARK 927      BINDING AFFINITY PREDICTED BY RF-SCORE:    0.00 PKD
ROOT
HETATM    1  C   UNL     1     -10.184   5.891  71.105  1.00  0.00    -0.212 C  
HETATM    2  N   UNL     1      -9.602   6.819  70.049  1.00  0.00    -0.157 N  
HETATM    3  C   UNL     1      -8.075   6.695  70.023  1.00  0.00    -0.121 C  
HETATM    4  C   UNL     1      -7.524   7.660  68.970  1.00  0.00    -0.095 C  
HETATM    5  C   UNL     1      -8.659   8.408  68.244  1.00  0.00    -0.139 C  
HETATM    6  C   UNL     1      -9.581   7.362  67.608  1.00  0.00    -0.164 C  
HETATM    7  C   UNL     1      -9.463   9.230  69.277  1.00  0.00    -0.160 C  
HETATM    8  C   UNL     1     -10.155   6.425  68.671  1.00  0.00    -0.158 C  
HETATM    9  C   UNL     1      -9.989   8.288  70.385  1.00  0.00    -0.188 C  
ENDROOT
BRANCH   7  10
HETATM   10  O   UNL     1     -10.382  10.128  68.589  1.00  0.00    -0.171 OA 
BRANCH  10  11
HETATM   11  C   UNL     1     -10.264  10.576  67.296  1.00  0.00    -0.215 C  
HETATM   12  O   UNL     1     -11.063  10.276  66.416  1.00  0.00     0.061 OA 
HETATM   13  C   UNL     1      -8.974  11.487  67.155  1.00  0.00    -0.166 C  
HETATM   14  C   UNL     1      -9.278  12.995  67.049  1.00  0.00    -0.232 A  
HETATM   15  C   UNL     1      -8.095  10.993  65.991  1.00  0.00    -0.110 A  
HETATM   16  O   UNL     1      -8.209  11.321  68.374  1.00  0.00    -0.135 OA 
HETATM   17  H   UNL     1      -7.436  11.867  68.289  1.00  0.00     0.000 HD 
HETATM   18  C   UNL     1      -8.312  13.936  67.482  1.00  0.00    -0.202 A  
HETATM   19  C   UNL     1      -8.556  11.021  64.662  1.00  0.00     0.108 A  
HETATM   20  C   UNL     1      -8.547  15.312  67.418  1.00  0.00    -0.197 A  
HETATM   21  C   UNL     1      -7.752  10.574  63.610  1.00  0.00     0.031 A  
HETATM   22  C   UNL     1      -6.466  10.096  63.862  1.00  0.00    -0.120 A  
HETATM   23  C   UNL     1      -9.742  15.790  66.899  1.00  0.00    -0.240 A  
HETATM   24  C   UNL     1     -10.692  14.890  66.423  1.00  0.00    -0.316 A  
HETATM   25  C   UNL     1      -5.987  10.065  65.164  1.00  0.00    -0.104 A  
HETATM   26  C   UNL     1      -6.790  10.510  66.217  1.00  0.00    -0.127 A  
HETATM   27  C   UNL     1     -10.462  13.507  66.489  1.00  0.00    -0.284 A  
ENDBRANCH  10  11
ENDBRANCH   7  10
TORSDOF 2
ENDMDL
MODEL      192
REMARK 921   NORMALIZED FREE ENERGY PREDICTED BY IDOCK:   -1.59 KCAL/MOL
REMARK 922        TOTAL FREE ENERGY PREDICTED BY IDOCK:   -2.86 KCAL/MOL
REMARK 923 INTER-LIGAND FREE ENERGY PREDICTED BY IDOCK:   -3.38 KCAL/MOL
REMARK 924 INTRA-LIGAND FREE ENERGY PREDICTED BY IDOCK:    0.52 KCAL/MOL
REMARK 927      BINDING AFFINITY PREDICTED BY RF-SCORE:    0.00 PKD
ROOT
HETATM    1  C   UNL     1     -11.664   7.789  68.564  1.00  0.00     1.659 C  
HETATM    2  N   UNL     1     -10.398   8.528  68.159  1.00  0.00    -0.212 N  
HETATM    3  C   UNL     1      -9.209   7.562  68.133  1.00  0.00    -0.137 C  
HETATM    4  C   UNL     1      -7.951   8.344  67.749  1.00  0.00    -0.111 C  
HETATM    5  C   UNL     1      -8.273   9.824  67.466  1.00  0.00    -0.114 C  
HETATM    6  C   UNL     1      -9.319   9.872  66.347  1.00  0.00    -0.213 C  
HETATM    7  C   UNL     1      -8.866  10.464  68.741  1.00  0.00    -0.157 C  
HETATM    8  C   UNL     1     -10.586   9.119  66.753  1.00  0.00    -0.136 C  
HETATM    9  C   UNL     1     -10.112   9.661  69.186  1.00  0.00    -0.189 C  
ENDROOT
BRANCH   7  10
HETATM   10  O   UNL     1      -8.954  11.909  68.576  1.00  0.00    -0.176 OA 
BRANCH  10  11
HETATM   11  C   UNL     1     -10.021  12.604  68.061  1.00  0.00    -0.220 C  
HETATM   12  O   UNL     1     -10.872  12.079  67.351  1.00  0.00    -0.224 OA 
HETATM   13  C   UNL     1      -9.949  14.122  68.515  1.00  0.00    -0.235 C  
HETATM   14  C   UNL     1     -10.962  14.498  69.615  1.00  0.00    -0.225 A  
HETATM   15  C   UNL     1     -10.054  15.051  67.292  1.00  0.00    -0.235 A  
HETATM   16  O   UNL     1      -8.638  14.322  69.098  1.00  0.00    -0.356 OA 
HETATM   17  H   UNL     1      -8.595  15.232  69.370  1.00  0.00     0.000 HD 
HETATM   18  C   UNL     1     -10.672  15.566  70.499  1.00  0.00    -0.309 A  
HETATM   19  C   UNL     1     -11.216  15.091  66.500  1.00  0.00    -0.312 A  
HETATM   20  C   UNL     1     -11.553  15.935  71.519  1.00  0.00    -0.537 A  
HETATM   21  C   UNL     1     -11.307  15.939  65.393  1.00  0.00     0.020 A  
HETATM   22  C   UNL     1     -10.239  16.772  65.057  1.00  0.00     0.428 A  
HETATM   23  C   UNL     1     -12.759  15.267  71.672  1.00  0.00    -0.455 A  
HETATM   24  C   UNL     1     -13.093  14.242  70.789  1.00  0.00    -0.321 A  
HETATM   25  C   UNL     1      -9.084  16.754  65.826  1.00  0.00     0.035 A  
HETATM   26  C   UNL     1      -8.992  15.906  66.933  1.00  0.00    -0.257 A  
HETATM   27  C   UNL     1     -12.209  13.866  69.766  1.00  0.00    -0.388 A  
ENDBRANCH  10  11
ENDBRANCH   7  10
TORSDOF 2
ENDMDL
MODEL      193
REMARK 921   NORMALIZED FREE ENERGY PREDICTED BY IDOCK:   -1.51 KCAL/MOL
REMARK 922        TOTAL FREE ENERGY PREDICTED BY IDOCK:   -2.77 KCAL/MOL
REMARK 923 INTER-LIGAND FREE ENERGY PREDICTED BY IDOCK:   -2.88 KCAL/MOL
REMARK 924 INTRA-LIGAND FREE ENERGY PREDICTED BY IDOCK:    0.11 KCAL/MOL
REMARK 927      BINDING AFFINITY PREDICTED BY RF-SCORE:    0.00 PKD
ROOT
HETATM    1  C   UNL     1      -5.946  14.219  68.210  1.00  0.00    -0.120 C  
HETATM    2  N   UNL     1      -6.643  12.877  68.042  1.00  0.00    -0.091 N  
HETATM    3  C   UNL     1      -7.985  13.066  67.327  1.00  0.00    -0.138 C  
HETATM    4  C   UNL     1      -8.669  11.702  67.200  1.00  0.00    -0.164 C  
HETATM    5  C   UNL     1      -7.789  10.577  67.777  1.00  0.00    -0.104 C  
HETATM    6  C   UNL     1      -6.449  10.597  67.032  1.00  0.00    -0.079 C  
HETATM    7  C   UNL     1      -7.538  10.851  69.277  1.00  0.00    -0.113 C  
HETATM    8  C   UNL     1      -5.758  11.951  67.194  1.00  0.00    -0.139 C  
HETATM    9  C   UNL     1      -6.895  12.249  69.442  1.00  0.00     0.007 C  
ENDROOT
BRANCH   7  10
HETATM   10  O   UNL     1      -6.917   9.687  69.897  1.00  0.00    -0.059 OA 
BRANCH  10  11
HETATM   11  C   UNL     1      -6.834   8.427  69.357  1.00  0.00    -0.046 C  
HETATM   12  O   UNL     1      -5.886   8.062  68.671  1.00  0.00    -0.037 OA 
HETATM   13  C   UNL     1      -8.121   7.585  69.748  1.00  0.00    -0.126 C  
HETATM   14  C   UNL     1      -7.869   6.520  70.834  1.00  0.00    -0.106 A  
HETATM   15  C   UNL     1      -8.768   6.982  68.488  1.00  0.00    -0.122 A  
HETATM   16  O   UNL     1      -9.072   8.517  70.319  1.00  0.00    -0.146 OA 
HETATM   17  H   UNL     1      -9.843   8.012  70.554  1.00  0.00     0.000 HD 
HETATM   18  C   UNL     1      -8.933   6.110  71.673  1.00  0.00    -0.142 A  
HETATM   19  C   UNL     1      -8.091   6.035  67.699  1.00  0.00    -0.106 A  
HETATM   20  C   UNL     1      -8.750   5.158  72.680  1.00  0.00    -0.123 A  
HETATM   21  C   UNL     1      -8.686   5.488  66.558  1.00  0.00    -0.119 A  
HETATM   22  C   UNL     1      -9.975   5.872  66.186  1.00  0.00    -0.039 A  
HETATM   23  C   UNL     1      -7.507   4.570  72.863  1.00  0.00    -0.085 A  
HETATM   24  C   UNL     1      -6.452   4.920  72.024  1.00  0.00    -0.035 A  
HETATM   25  C   UNL     1     -10.665   6.801  66.951  1.00  0.00    -0.394 A  
HETATM   26  C   UNL     1     -10.070   7.348  68.092  1.00  0.00    -0.210 A  
HETATM   27  C   UNL     1      -6.630   5.878  71.015  1.00  0.00    -0.045 A  
ENDBRANCH  10  11
ENDBRANCH   7  10
TORSDOF 2
ENDMDL
MODEL      194
REMARK 921   NORMALIZED FREE ENERGY PREDICTED BY IDOCK:   -1.48 KCAL/MOL
REMARK 922        TOTAL FREE ENERGY PREDICTED BY IDOCK:   -2.73 KCAL/MOL
REMARK 923 INTER-LIGAND FREE ENERGY PREDICTED BY IDOCK:   -2.58 KCAL/MOL
REMARK 924 INTRA-LIGAND FREE ENERGY PREDICTED BY IDOCK:   -0.16 KCAL/MOL
REMARK 927      BINDING AFFINITY PREDICTED BY RF-SCORE:    0.00 PKD
ROOT
HETATM    1  C   UNL     1      -9.122   3.553  69.323  1.00  0.00    -0.135 C  
HETATM    2  N   UNL     1      -8.370   3.950  68.063  1.00  0.00    -0.091 N  
HETATM    3  C   UNL     1      -7.709   2.719  67.434  1.00  0.00    -0.069 C  
HETATM    4  C   UNL     1      -6.941   3.160  66.186  1.00  0.00    -0.057 C  
HETATM    5  C   UNL     1      -7.106   4.669  65.927  1.00  0.00    -0.074 C  
HETATM    6  C   UNL     1      -8.604   4.962  65.788  1.00  0.00    -0.128 C  
HETATM    7  C   UNL     1      -6.548   5.452  67.137  1.00  0.00    -0.053 C  
HETATM    8  C   UNL     1      -9.359   4.552  67.052  1.00  0.00    -0.146 C  
HETATM    9  C   UNL     1      -7.270   4.989  68.425  1.00  0.00    -0.062 C  
ENDROOT
BRANCH   7  10
HETATM   10  O   UNL     1      -6.473   6.872  66.817  1.00  0.00    -0.043 OA 
BRANCH  10  11
HETATM   11  C   UNL     1      -7.427   7.819  67.097  1.00  0.00    -0.096 C  
HETATM   12  O   UNL     1      -8.320   8.112  66.309  1.00  0.00    -0.108 OA 
HETATM   13  C   UNL     1      -7.170   8.438  68.534  1.00  0.00    -0.081 C  
HETATM   14  C   UNL     1      -8.154   7.947  69.615  1.00  0.00    -0.117 A  
HETATM   15  C   UNL     1      -7.122   9.975  68.454  1.00  0.00    -0.072 A  
HETATM   16  O   UNL     1      -5.860   7.987  68.956  1.00  0.00    -0.033 OA 
HETATM   17  H   UNL     1      -5.706   8.357  69.817  1.00  0.00     0.000 HD 
HETATM   18  C   UNL     1      -7.750   7.928  70.972  1.00  0.00    -0.084 A  
HETATM   19  C   UNL     1      -8.248  10.724  68.066  1.00  0.00    -0.115 A  
HETATM   20  C   UNL     1      -8.602   7.478  71.985  1.00  0.00    -0.126 A  
HETATM   21  C   UNL     1      -8.199  12.119  67.998  1.00  0.00    -0.158 A  
HETATM   22  C   UNL     1      -7.024  12.797  68.324  1.00  0.00    -0.097 A  
HETATM   23  C   UNL     1      -9.888   7.059  71.677  1.00  0.00    -0.169 A  
HETATM   24  C   UNL     1     -10.329   7.110  70.357  1.00  0.00    -0.216 A  
HETATM   25  C   UNL     1      -5.901  12.081  68.714  1.00  0.00    -0.051 A  
HETATM   26  C   UNL     1      -5.949  10.686  68.781  1.00  0.00    -0.040 A  
HETATM   27  C   UNL     1      -9.476   7.556  69.336  1.00  0.00    -0.155 A  
ENDBRANCH  10  11
ENDBRANCH   7  10
TORSDOF 2
ENDMDL
MODEL      195
REMARK 921   NORMALIZED FREE ENERGY PREDICTED BY IDOCK:   -1.27 KCAL/MOL
REMARK 922        TOTAL FREE ENERGY PREDICTED BY IDOCK:   -2.50 KCAL/MOL
REMARK 923 INTER-LIGAND FREE ENERGY PREDICTED BY IDOCK:   -1.99 KCAL/MOL
REMARK 924 INTRA-LIGAND FREE ENERGY PREDICTED BY IDOCK:   -0.51 KCAL/MOL
REMARK 927      BINDING AFFINITY PREDICTED BY RF-SCORE:    0.00 PKD
ROOT
HETATM    1  C   UNL     1      -7.235  11.048  69.107  1.00  0.00    -0.121 C  
HETATM    2  N   UNL     1      -6.774   9.820  69.878  1.00  0.00    -0.066 N  
HETATM    3  C   UNL     1      -5.610  10.186  70.805  1.00  0.00    -0.079 C  
HETATM    4  C   UNL     1      -5.156   8.924  71.542  1.00  0.00    -0.036 C  
HETATM    5  C   UNL     1      -6.025   7.709  71.166  1.00  0.00    -0.035 C  
HETATM    6  C   UNL     1      -7.482   8.052  71.498  1.00  0.00    -0.076 C  
HETATM    7  C   UNL     1      -5.900   7.450  69.648  1.00  0.00    -0.023 C  
HETATM    8  C   UNL     1      -7.938   9.292  70.730  1.00  0.00    -0.154 C  
HETATM    9  C   UNL     1      -6.302   8.729  68.874  1.00  0.00    -0.045 C  
ENDROOT
BRANCH   7  10
HETATM   10  O   UNL     1      -6.516   6.173  69.310  1.00  0.00    -0.039 OA 
BRANCH  10  11
HETATM   11  C   UNL     1      -7.520   5.973  68.395  1.00  0.00    -0.086 C  
HETATM   12  O   UNL     1      -8.708   6.016  68.697  1.00  0.00    -0.111 OA 
HETATM   13  C   UNL     1      -6.900   5.680  66.965  1.00  0.00    -0.064 C  
HETATM   14  C   UNL     1      -7.010   6.860  65.979  1.00  0.00    -0.065 A  
HETATM   15  C   UNL     1      -7.491   4.383  66.382  1.00  0.00    -0.082 A  
HETATM   16  O   UNL     1      -5.482   5.457  67.162  1.00  0.00    -0.011 OA 
HETATM   17  H   UNL     1      -5.111   5.282  66.305  1.00  0.00     0.000 HD 
HETATM   18  C   UNL     1      -6.062   6.990  64.935  1.00  0.00    -0.037 A  
HETATM   19  C   UNL     1      -8.860   4.274  66.078  1.00  0.00    -0.119 A  
HETATM   20  C   UNL     1      -6.112   8.049  64.025  1.00  0.00    -0.062 A  
HETATM   21  C   UNL     1      -9.391   3.096  65.545  1.00  0.00    -0.117 A  
HETATM   22  C   UNL     1      -8.561   2.002  65.297  1.00  0.00    -0.109 A  
HETATM   23  C   UNL     1      -7.123   8.995  64.115  1.00  0.00    -0.094 A  
HETATM   24  C   UNL     1      -8.097   8.868  65.103  1.00  0.00    -0.133 A  
HETATM   25  C   UNL     1      -7.206   2.087  65.584  1.00  0.00    -0.056 A  
HETATM   26  C   UNL     1      -6.675   3.265  66.118  1.00  0.00    -0.048 A  
HETATM   27  C   UNL     1      -8.047   7.808  66.021  1.00  0.00    -0.117 A  
ENDBRANCH  10  11
ENDBRANCH   7  10
TORSDOF 2
ENDMDL
MODEL      196
REMARK 921   NORMALIZED FREE ENERGY PREDICTED BY IDOCK:   -1.08 KCAL/MOL
REMARK 922        TOTAL FREE ENERGY PREDICTED BY IDOCK:   -2.29 KCAL/MOL
REMARK 923 INTER-LIGAND FREE ENERGY PREDICTED BY IDOCK:   -1.70 KCAL/MOL
REMARK 924 INTRA-LIGAND FREE ENERGY PREDICTED BY IDOCK:   -0.58 KCAL/MOL
REMARK 927      BINDING AFFINITY PREDICTED BY RF-SCORE:    0.00 PKD
ROOT
HETATM    1  C   UNL     1      -5.570   7.509  72.693  1.00  0.00    -0.037 C  
HETATM    2  N   UNL     1      -6.487   7.943  71.560  1.00  0.00    -0.038 N  
HETATM    3  C   UNL     1      -7.685   8.717  72.118  1.00  0.00    -0.017 C  
HETATM    4  C   UNL     1      -8.597   9.113  70.955  1.00  0.00    -0.259 C  
HETATM    5  C   UNL     1      -8.014   8.660  69.603  1.00  0.00    -0.096 C  
HETATM    6  C   UNL     1      -6.623   9.288  69.456  1.00  0.00    -0.043 C  
HETATM    7  C   UNL     1      -7.876   7.121  69.603  1.00  0.00    -0.118 C  
HETATM    8  C   UNL     1      -5.708   8.858  70.603  1.00  0.00    -0.032 C  
HETATM    9  C   UNL     1      -7.001   6.685  70.803  1.00  0.00    -0.067 C  
ENDROOT
BRANCH   7  10
HETATM   10  O   UNL     1      -7.556   6.651  68.261  1.00  0.00    -0.099 OA 
BRANCH  10  11
HETATM   11  C   UNL     1      -8.401   6.652  67.178  1.00  0.00    -0.113 C  
HETATM   12  O   UNL     1      -9.621   6.693  67.292  1.00  0.00    -0.125 OA 
HETATM   13  C   UNL     1      -7.560   6.579  65.836  1.00  0.00    -0.087 C  
HETATM   14  C   UNL     1      -7.490   7.912  65.064  1.00  0.00    -0.088 A  
HETATM   15  C   UNL     1      -8.066   5.426  64.949  1.00  0.00    -0.122 A  
HETATM   16  O   UNL     1      -6.196   6.266  66.212  1.00  0.00    -0.035 OA 
HETATM   17  H   UNL     1      -5.692   6.223  65.408  1.00  0.00     0.000 HD 
HETATM   18  C   UNL     1      -6.382   8.177  64.222  1.00  0.00    -0.065 A  
HETATM   19  C   UNL     1      -9.369   5.429  64.418  1.00  0.00     0.458 A  
HETATM   20  C   UNL     1      -6.268   9.376  63.514  1.00  0.00    -0.093 A  
HETATM   21  C   UNL     1      -9.822   4.381  63.612  1.00  0.00     0.044 A  
HETATM   22  C   UNL     1      -8.979   3.310  63.312  1.00  0.00    -0.092 A  
HETATM   23  C   UNL     1      -7.267  10.335  63.606  1.00  0.00    -0.073 A  
HETATM   24  C   UNL     1      -8.390  10.085  64.391  1.00  0.00    -0.169 A  
HETATM   25  C   UNL     1      -7.688   3.288  63.820  1.00  0.00    -0.075 A  
HETATM   26  C   UNL     1      -7.234   4.335  64.627  1.00  0.00    -0.070 A  
HETATM   27  C   UNL     1      -8.506   8.883  65.107  1.00  0.00    -0.190 A  
ENDBRANCH  10  11
ENDBRANCH   7  10
TORSDOF 2
ENDMDL
MODEL      197
REMARK 921   NORMALIZED FREE ENERGY PREDICTED BY IDOCK:   -0.84 KCAL/MOL
REMARK 922        TOTAL FREE ENERGY PREDICTED BY IDOCK:   -2.03 KCAL/MOL
REMARK 923 INTER-LIGAND FREE ENERGY PREDICTED BY IDOCK:   -1.39 KCAL/MOL
REMARK 924 INTRA-LIGAND FREE ENERGY PREDICTED BY IDOCK:   -0.63 KCAL/MOL
REMARK 927      BINDING AFFINITY PREDICTED BY RF-SCORE:    0.00 PKD
ROOT
HETATM    1  C   UNL     1      -5.938  13.298  71.337  1.00  0.00     0.389 C  
HETATM    2  N   UNL     1      -6.174  13.264  69.835  1.00  0.00    -0.123 N  
HETATM    3  C   UNL     1      -5.206  12.279  69.172  1.00  0.00    -0.063 C  
HETATM    4  C   UNL     1      -5.453  12.291  67.661  1.00  0.00    -0.100 C  
HETATM    5  C   UNL     1      -6.610  13.238  67.288  1.00  0.00     0.090 C  
HETATM    6  C   UNL     1      -7.858  12.779  68.051  1.00  0.00    -0.150 C  
HETATM    7  C   UNL     1      -6.248  14.674  67.728  1.00  0.00    -0.137 C  
HETATM    8  C   UNL     1      -7.614  12.804  69.560  1.00  0.00     0.733 C  
HETATM    9  C   UNL     1      -5.939  14.684  69.244  1.00  0.00    -0.103 C  
ENDROOT
BRANCH   7  10
HETATM   10  O   UNL     1      -7.210  15.620  67.176  1.00  0.00    -0.210 OA 
BRANCH  10  11
HETATM   11  C   UNL     1      -7.974  16.510  67.890  1.00  0.00    -0.158 C  
HETATM   12  O   UNL     1      -8.782  16.154  68.741  1.00  0.00    -0.213 OA 
HETATM   13  C   UNL     1      -7.651  17.992  67.429  1.00  0.00    -0.204 C  
HETATM   14  C   UNL     1      -6.798  18.791  68.435  1.00  0.00    -0.269 A  
HETATM   15  C   UNL     1      -8.949  18.733  67.059  1.00  0.00    -0.299 A  
HETATM   16  O   UNL     1      -6.853  17.891  66.224  1.00  0.00    -0.212 OA 
HETATM   17  H   UNL     1      -6.659  18.780  65.948  1.00  0.00     0.000 HD 
HETATM   18  C   UNL     1      -5.973  19.845  67.972  1.00  0.00    -0.252 A  
HETATM   19  C   UNL     1      -9.945  18.990  68.019  1.00  0.00    -0.436 A  
HETATM   20  C   UNL     1      -5.171  20.588  68.843  1.00  0.00    -0.297 A  
HETATM   21  C   UNL     1     -11.120  19.665  67.678  1.00  0.00    -0.128 A  
HETATM   22  C   UNL     1     -11.322  20.105  66.369  1.00  0.00     0.858 A  
HETATM   23  C   UNL     1      -5.189  20.318  70.204  1.00  0.00    -0.287 A  
HETATM   24  C   UNL     1      -6.025  19.317  70.695  1.00  0.00    -0.116 A  
HETATM   25  C   UNL     1     -10.352  19.868  65.405  1.00  0.00    -0.103 A  
HETATM   26  C   UNL     1      -9.177  19.192  65.746  1.00  0.00     0.287 A  
HETATM   27  C   UNL     1      -6.827  18.566  69.823  1.00  0.00     0.110 A  
ENDBRANCH  10  11
ENDBRANCH   7  10
TORSDOF 2
ENDMDL
MODEL      198
REMARK 921   NORMALIZED FREE ENERGY PREDICTED BY IDOCK:   -0.55 KCAL/MOL
REMARK 922        TOTAL FREE ENERGY PREDICTED BY IDOCK:   -1.70 KCAL/MOL
REMARK 923 INTER-LIGAND FREE ENERGY PREDICTED BY IDOCK:   -1.28 KCAL/MOL
REMARK 924 INTRA-LIGAND FREE ENERGY PREDICTED BY IDOCK:   -0.42 KCAL/MOL
REMARK 927      BINDING AFFINITY PREDICTED BY RF-SCORE:    0.00 PKD
ROOT
HETATM    1  C   UNL     1      -5.158  12.689  70.826  1.00  0.00    -0.129 C  
HETATM    2  N   UNL     1      -5.841  12.992  69.501  1.00  0.00    -0.095 N  
HETATM    3  C   UNL     1      -5.290  12.076  68.403  1.00  0.00    -0.050 C  
HETATM    4  C   UNL     1      -5.978  12.426  67.082  1.00  0.00    -0.078 C  
HETATM    5  C   UNL     1      -7.026  13.539  67.272  1.00  0.00     0.061 C  
HETATM    6  C   UNL     1      -8.041  13.058  68.315  1.00  0.00    -0.151 C  
HETATM    7  C   UNL     1      -6.323  14.810  67.800  1.00  0.00    -0.153 C  
HETATM    8  C   UNL     1      -7.350  12.744  69.642  1.00  0.00     0.664 C  
HETATM    9  C   UNL     1      -5.572  14.474  69.110  1.00  0.00    -0.091 C  
ENDROOT
BRANCH   7  10
HETATM   10  O   UNL     1      -7.243  15.940  67.758  1.00  0.00    -0.126 OA 
BRANCH  10  11
HETATM   11  C   UNL     1      -8.151  16.283  68.730  1.00  0.00    -0.227 C  
HETATM   12  O   UNL     1      -7.828  16.484  69.896  1.00  0.00     0.426 OA 
HETATM   13  C   UNL     1      -9.608  16.354  68.109  1.00  0.00    -0.227 C  
HETATM   14  C   UNL     1     -10.137  17.789  67.908  1.00  0.00    -0.342 A  
HETATM   15  C   UNL     1     -10.583  15.490  68.931  1.00  0.00    -0.240 A  
HETATM   16  O   UNL     1      -9.527  15.772  66.785  1.00  0.00    -0.221 OA 
HETATM   17  H   UNL     1     -10.400  15.815  66.412  1.00  0.00     0.000 HD 
HETATM   18  C   UNL     1     -11.095  18.047  66.897  1.00  0.00     0.300 A  
HETATM   19  C   UNL     1     -10.877  15.794  70.272  1.00  0.00    -0.363 A  
HETATM   20  C   UNL     1     -11.593  19.333  66.669  1.00  0.00     1.045 A  
HETATM   21  C   UNL     1     -11.765  15.008  71.012  1.00  0.00    -0.379 A  
HETATM   22  C   UNL     1     -12.384  13.905  70.423  1.00  0.00    -0.433 A  
HETATM   23  C   UNL     1     -11.168  20.393  67.457  1.00  0.00     1.011 A  
HETATM   24  C   UNL     1     -10.261  20.162  68.488  1.00  0.00    -0.403 A  
HETATM   25  C   UNL     1     -12.114  13.588  69.100  1.00  0.00    -0.331 A  
HETATM   26  C   UNL     1     -11.225  14.373  68.360  1.00  0.00    -0.294 A  
HETATM   27  C   UNL     1      -9.755  18.873  68.718  1.00  0.00    -0.454 A  
ENDBRANCH  10  11
ENDBRANCH   7  10
TORSDOF 2
ENDMDL
MODEL      199
REMARK 921   NORMALIZED FREE ENERGY PREDICTED BY IDOCK:   -0.18 KCAL/MOL
REMARK 922        TOTAL FREE ENERGY PREDICTED BY IDOCK:   -1.28 KCAL/MOL
REMARK 923 INTER-LIGAND FREE ENERGY PREDICTED BY IDOCK:   -0.90 KCAL/MOL
REMARK 924 INTRA-LIGAND FREE ENERGY PREDICTED BY IDOCK:   -0.38 KCAL/MOL
REMARK 927      BINDING AFFINITY PREDICTED BY RF-SCORE:    0.00 PKD
ROOT
HETATM    1  C   UNL     1     -10.704   3.394  65.239  1.00  0.00     0.931 C  
HETATM    2  N   UNL     1      -9.347   3.375  65.927  1.00  0.00    -0.159 N  
HETATM    3  C   UNL     1      -8.667   2.019  65.713  1.00  0.00    -0.119 C  
HETATM    4  C   UNL     1      -7.319   2.027  66.439  1.00  0.00    -0.061 C  
HETATM    5  C   UNL     1      -7.049   3.389  67.107  1.00  0.00    -0.058 C  
HETATM    6  C   UNL     1      -7.098   4.466  66.018  1.00  0.00    -0.071 C  
HETATM    7  C   UNL     1      -8.157   3.669  68.147  1.00  0.00    -0.082 C  
HETATM    8  C   UNL     1      -8.460   4.475  65.323  1.00  0.00    -0.124 C  
HETATM    9  C   UNL     1      -9.538   3.614  67.452  1.00  0.00    -0.149 C  
ENDROOT
BRANCH   7  10
HETATM   10  O   UNL     1      -7.796   4.826  68.957  1.00  0.00    -0.071 OA 
BRANCH  10  11
HETATM   11  C   UNL     1      -7.162   4.798  70.174  1.00  0.00    -0.050 C  
HETATM   12  O   UNL     1      -5.953   4.627  70.287  1.00  0.00    -0.016 OA 
HETATM   13  C   UNL     1      -8.218   5.002  71.340  1.00  0.00    -0.113 C  
HETATM   14  C   UNL     1      -8.177   6.400  71.988  1.00  0.00    -0.109 A  
HETATM   15  C   UNL     1      -8.085   3.878  72.384  1.00  0.00    -0.085 A  
HETATM   16  O   UNL     1      -9.531   4.881  70.740  1.00  0.00    -0.149 OA 
HETATM   17  H   UNL     1     -10.164   5.003  71.438  1.00  0.00     0.000 HD 
HETATM   18  C   UNL     1      -9.346   6.928  72.590  1.00  0.00    -0.155 A  
HETATM   19  C   UNL     1      -6.913   3.721  73.146  1.00  0.00    -0.049 A  
HETATM   20  C   UNL     1      -9.361   8.196  73.178  1.00  0.00    -0.328 A  
HETATM   21  C   UNL     1      -6.800   2.700  74.094  1.00  0.00    -0.031 A  
HETATM   22  C   UNL     1      -7.861   1.819  74.307  1.00  0.00    -0.034 A  
HETATM   23  C   UNL     1      -8.206   8.963  73.205  1.00  0.00     0.532 A  
HETATM   24  C   UNL     1      -7.029   8.452  72.662  1.00  0.00    -0.100 A  
HETATM   25  C   UNL     1      -9.029   1.958  73.572  1.00  0.00    -0.065 A  
HETATM   26  C   UNL     1      -9.143   2.977  72.623  1.00  0.00    -0.120 A  
HETATM   27  C   UNL     1      -7.011   7.182  72.067  1.00  0.00    -0.060 A  
ENDBRANCH  10  11
ENDBRANCH   7  10
TORSDOF 2
ENDMDL
MODEL      200
REMARK 921   NORMALIZED FREE ENERGY PREDICTED BY IDOCK:    0.19 KCAL/MOL
REMARK 922        TOTAL FREE ENERGY PREDICTED BY IDOCK:   -0.87 KCAL/MOL
REMARK 923 INTER-LIGAND FREE ENERGY PREDICTED BY IDOCK:   -0.78 KCAL/MOL
REMARK 924 INTRA-LIGAND FREE ENERGY PREDICTED BY IDOCK:   -0.09 KCAL/MOL
REMARK 927      BINDING AFFINITY PREDICTED BY RF-SCORE:    0.00 PKD
ROOT
HETATM    1  C   UNL     1      -6.951  17.096  65.634  1.00  0.00     0.655 C  
HETATM    2  N   UNL     1      -7.925  18.101  66.231  1.00  0.00    -0.256 N  
HETATM    3  C   UNL     1      -7.419  19.528  65.996  1.00  0.00    -0.299 C  
HETATM    4  C   UNL     1      -8.408  20.509  66.631  1.00  0.00    -0.156 C  
HETATM    5  C   UNL     1      -9.608  19.772  67.256  1.00  0.00    -0.480 C  
HETATM    6  C   UNL     1     -10.278  18.943  66.154  1.00  0.00    -0.485 C  
HETATM    7  C   UNL     1      -9.095  18.821  68.362  1.00  0.00    -0.338 C  
HETATM    8  C   UNL     1      -9.293  17.943  65.550  1.00  0.00     0.899 C  
HETATM    9  C   UNL     1      -8.051  17.850  67.761  1.00  0.00    -0.231 C  
ENDROOT
BRANCH   7  10
HETATM   10  O   UNL     1     -10.220  18.297  69.126  1.00  0.00    -0.331 OA 
BRANCH  10  11
HETATM   11  C   UNL     1     -10.894  17.126  68.878  1.00  0.00    -0.172 C  
HETATM   12  O   UNL     1     -11.899  17.077  68.177  1.00  0.00     0.452 OA 
HETATM   13  C   UNL     1     -10.185  15.923  69.629  1.00  0.00    -0.280 C  
HETATM   14  C   UNL     1      -9.378  14.991  68.703  1.00  0.00    -0.202 A  
HETATM   15  C   UNL     1     -11.207  15.146  70.480  1.00  0.00    -0.313 A  
HETATM   16  O   UNL     1      -9.222  16.508  70.540  1.00  0.00     1.799 OA 
HETATM   17  H   UNL     1      -8.797  15.787  70.990  1.00  0.00     0.000 HD 
HETATM   18  C   UNL     1      -8.278  14.268  69.224  1.00  0.00     0.192 A  
HETATM   19  C   UNL     1     -12.282  14.460  69.886  1.00  0.00    -0.394 A  
HETATM   20  C   UNL     1      -7.508  13.421  68.420  1.00  0.00    -0.117 A  
HETATM   21  C   UNL     1     -13.205  13.754  70.663  1.00  0.00     0.011 A  
HETATM   22  C   UNL     1     -13.068  13.713  72.051  1.00  0.00    -0.484 A  
HETATM   23  C   UNL     1      -7.829  13.254  67.081  1.00  0.00    -0.047 A  
HETATM   24  C   UNL     1      -8.933  13.918  66.551  1.00  0.00    -0.097 A  
HETATM   25  C   UNL     1     -12.013  14.378  72.659  1.00  0.00     0.090 A  
HETATM   26  C   UNL     1     -11.091  15.085  71.883  1.00  0.00     0.025 A  
HETATM   27  C   UNL     1      -9.705  14.771  67.353  1.00  0.00    -0.214 A  
ENDBRANCH  10  11
ENDBRANCH   7  10
TORSDOF 2
ENDMDL
MODEL      201
REMARK 921   NORMALIZED FREE ENERGY PREDICTED BY IDOCK:    0.32 KCAL/MOL
REMARK 922        TOTAL FREE ENERGY PREDICTED BY IDOCK:   -0.73 KCAL/MOL
REMARK 923 INTER-LIGAND FREE ENERGY PREDICTED BY IDOCK:   -2.09 KCAL/MOL
REMARK 924 INTRA-LIGAND FREE ENERGY PREDICTED BY IDOCK:    1.36 KCAL/MOL
REMARK 927      BINDING AFFINITY PREDICTED BY RF-SCORE:    0.00 PKD
ROOT
HETATM    1  C   UNL     1      -9.492  11.622  62.722  1.00  0.00    -0.046 C  
HETATM    2  N   UNL     1     -10.692  12.178  63.473  1.00  0.00    -0.446 N  
HETATM    3  C   UNL     1     -10.921  13.643  63.087  1.00  0.00     1.936 C  
HETATM    4  C   UNL     1     -12.118  14.176  63.880  1.00  0.00    -0.301 C  
HETATM    5  C   UNL     1     -12.737  13.080  64.768  1.00  0.00    -0.409 C  
HETATM    6  C   UNL     1     -13.149  11.915  63.859  1.00  0.00    -0.119 C  
HETATM    7  C   UNL     1     -11.675  12.585  65.774  1.00  0.00    -0.426 C  
HETATM    8  C   UNL     1     -11.942  11.366  63.099  1.00  0.00     0.346 C  
HETATM    9  C   UNL     1     -10.429  12.088  65.003  1.00  0.00    -0.287 C  
ENDROOT
BRANCH   7  10
HETATM   10  O   UNL     1     -12.300  11.728  66.774  1.00  0.00    -0.092 OA 
BRANCH  10  11
HETATM   11  C   UNL     1     -11.959  11.648  68.102  1.00  0.00    -0.144 C  
HETATM   12  O   UNL     1     -12.263  10.692  68.807  1.00  0.00    -0.381 OA 
HETATM   13  C   UNL     1     -11.159  12.948  68.535  1.00  0.00    -0.267 C  
HETATM   14  C   UNL     1      -9.645  12.723  68.717  1.00  0.00     0.089 A  
HETATM   15  C   UNL     1     -11.803  13.581  69.783  1.00  0.00    -0.395 A  
HETATM   16  O   UNL     1     -11.291  13.900  67.451  1.00  0.00    -0.300 OA 
HETATM   17  H   UNL     1     -10.812  14.679  67.710  1.00  0.00     0.000 HD 
HETATM   18  C   UNL     1      -8.749  13.805  68.534  1.00  0.00    -0.118 A  
HETATM   19  C   UNL     1     -11.839  12.900  71.013  1.00  0.00     0.431 A  
HETATM   20  C   UNL     1      -7.368  13.647  68.675  1.00  0.00    -0.113 A  
HETATM   21  C   UNL     1     -12.422  13.480  72.143  1.00  0.00     0.014 A  
HETATM   22  C   UNL     1     -12.974  14.760  72.069  1.00  0.00    -0.407 A  
HETATM   23  C   UNL     1      -6.842  12.412  69.026  1.00  0.00    -0.093 A  
HETATM   24  C   UNL     1      -7.701  11.340  69.258  1.00  0.00     0.010 A  
HETATM   25  C   UNL     1     -12.945  15.454  70.868  1.00  0.00    -0.539 A  
HETATM   26  C   UNL     1     -12.364  14.873  69.737  1.00  0.00    -0.283 A  
HETATM   27  C   UNL     1      -9.088  11.494  69.113  1.00  0.00     0.250 A  
ENDBRANCH  10  11
ENDBRANCH   7  10
TORSDOF 2
ENDMDL
MODEL      202
REMARK 921   NORMALIZED FREE ENERGY PREDICTED BY IDOCK:    0.60 KCAL/MOL
REMARK 922        TOTAL FREE ENERGY PREDICTED BY IDOCK:   -0.41 KCAL/MOL
REMARK 923 INTER-LIGAND FREE ENERGY PREDICTED BY IDOCK:   -3.23 KCAL/MOL
REMARK 924 INTRA-LIGAND FREE ENERGY PREDICTED BY IDOCK:    2.82 KCAL/MOL
REMARK 927      BINDING AFFINITY PREDICTED BY RF-SCORE:    0.00 PKD
ROOT
HETATM    1  C   UNL     1      -6.991  16.149  67.003  1.00  0.00    -0.199 C  
HETATM    2  N   UNL     1      -8.500  16.322  67.077  1.00  0.00    -0.186 N  
HETATM    3  C   UNL     1      -8.846  17.641  67.776  1.00  0.00    -0.240 C  
HETATM    4  C   UNL     1     -10.369  17.768  67.856  1.00  0.00    -0.388 C  
HETATM    5  C   UNL     1     -11.069  16.575  67.179  1.00  0.00     0.066 C  
HETATM    6  C   UNL     1     -10.594  16.515  65.723  1.00  0.00    -0.307 C  
HETATM    7  C   UNL     1     -10.657  15.272  67.900  1.00  0.00    -0.260 C  
HETATM    8  C   UNL     1      -9.075  16.351  65.653  1.00  0.00     0.158 C  
HETATM    9  C   UNL     1      -9.115  15.142  67.882  1.00  0.00    -0.179 C  
ENDROOT
BRANCH   7  10
HETATM   10  O   UNL     1     -11.485  14.166  67.437  1.00  0.00    -0.310 OA 
BRANCH  10  11
HETATM   11  C   UNL     1     -11.114  12.845  67.375  1.00  0.00    -0.273 C  
HETATM   12  O   UNL     1     -11.436  12.111  66.447  1.00  0.00    -0.344 OA 
HETATM   13  C   UNL     1     -10.254  12.463  68.652  1.00  0.00    -0.157 C  
HETATM   14  C   UNL     1      -8.745  12.313  68.372  1.00  0.00    -0.139 A  
HETATM   15  C   UNL     1     -10.841  11.215  69.337  1.00  0.00    -0.264 A  
HETATM   16  O   UNL     1     -10.377  13.566  69.583  1.00  0.00    -0.239 OA 
HETATM   17  H   UNL     1      -9.862  13.337  70.348  1.00  0.00     0.000 HD 
HETATM   18  C   UNL     1      -7.814  12.544  69.413  1.00  0.00     0.712 A  
HETATM   19  C   UNL     1     -10.872   9.969  68.686  1.00  0.00    -0.265 A  
HETATM   20  C   UNL     1      -6.436  12.433  69.204  1.00  0.00    -0.100 A  
HETATM   21  C   UNL     1     -11.403   8.839  69.315  1.00  0.00     0.367 A  
HETATM   22  C   UNL     1     -11.907   8.930  70.613  1.00  0.00    -0.159 A  
HETATM   23  C   UNL     1      -5.950  12.065  67.958  1.00  0.00    -0.058 A  
HETATM   24  C   UNL     1      -6.843  11.787  66.926  1.00  0.00    -0.104 A  
HETATM   25  C   UNL     1     -11.882  10.148  71.278  1.00  0.00    -0.448 A  
HETATM   26  C   UNL     1     -11.352  11.278  70.649  1.00  0.00     0.260 A  
HETATM   27  C   UNL     1      -8.227  11.902  67.131  1.00  0.00    -0.171 A  
ENDBRANCH  10  11
ENDBRANCH   7  10
TORSDOF 2
ENDMDL
MODEL      203
REMARK 921   NORMALIZED FREE ENERGY PREDICTED BY IDOCK:    0.82 KCAL/MOL
REMARK 922        TOTAL FREE ENERGY PREDICTED BY IDOCK:   -0.17 KCAL/MOL
REMARK 923 INTER-LIGAND FREE ENERGY PREDICTED BY IDOCK:   -3.01 KCAL/MOL
REMARK 924 INTRA-LIGAND FREE ENERGY PREDICTED BY IDOCK:    2.84 KCAL/MOL
REMARK 927      BINDING AFFINITY PREDICTED BY RF-SCORE:    0.00 PKD
ROOT
HETATM    1  C   UNL     1      -5.129  13.849  71.844  1.00  0.00    -0.180 C  
HETATM    2  N   UNL     1      -5.873  14.416  70.644  1.00  0.00    -0.172 N  
HETATM    3  C   UNL     1      -5.821  13.425  69.477  1.00  0.00    -0.102 C  
HETATM    4  C   UNL     1      -6.554  14.038  68.281  1.00  0.00    -0.110 C  
HETATM    5  C   UNL     1      -7.147  15.416  68.632  1.00  0.00    -0.116 C  
HETATM    6  C   UNL     1      -8.090  15.233  69.826  1.00  0.00    -0.028 C  
HETATM    7  C   UNL     1      -6.001  16.371  69.035  1.00  0.00    -0.143 C  
HETATM    8  C   UNL     1      -7.342  14.653  71.027  1.00  0.00     1.636 C  
HETATM    9  C   UNL     1      -5.206  15.752  70.209  1.00  0.00    -0.139 C  
ENDROOT
BRANCH   7  10
HETATM   10  O   UNL     1      -6.504  17.735  69.137  1.00  0.00    -0.222 OA 
BRANCH  10  11
HETATM   11  C   UNL     1      -7.462  18.308  68.338  1.00  0.00    -0.281 C  
HETATM   12  O   UNL     1      -8.333  19.051  68.778  1.00  0.00    -0.355 OA 
HETATM   13  C   UNL     1      -7.257  17.851  66.833  1.00  0.00    -0.192 C  
HETATM   14  C   UNL     1      -6.656  18.940  65.921  1.00  0.00    -0.278 A  
HETATM   15  C   UNL     1      -8.570  17.282  66.263  1.00  0.00    -0.264 A  
HETATM   16  O   UNL     1      -6.291  16.772  66.852  1.00  0.00    -0.172 OA 
HETATM   17  H   UNL     1      -6.168  16.498  65.950  1.00  0.00     0.000 HD 
HETATM   18  C   UNL     1      -5.906  18.562  64.781  1.00  0.00    -0.178 A  
HETATM   19  C   UNL     1      -9.714  18.087  66.117  1.00  0.00    -0.220 A  
HETATM   20  C   UNL     1      -5.331  19.512  63.932  1.00  0.00    -0.278 A  
HETATM   21  C   UNL     1     -10.902  17.566  65.596  1.00  0.00     0.013 A  
HETATM   22  C   UNL     1     -10.969  16.229  65.203  1.00  0.00    -0.285 A  
HETATM   23  C   UNL     1      -5.507  20.865  64.183  1.00  0.00    -0.259 A  
HETATM   24  C   UNL     1      -6.278  21.267  65.272  1.00  0.00    -0.031 A  
HETATM   25  C   UNL     1      -9.851  15.416  65.333  1.00  0.00    -0.314 A  
HETATM   26  C   UNL     1      -8.664  15.936  65.854  1.00  0.00    -0.055 A  
HETATM   27  C   UNL     1      -6.853  20.317  66.128  1.00  0.00    -0.282 A  
ENDBRANCH  10  11
ENDBRANCH   7  10
TORSDOF 2
ENDMDL
MODEL      204
REMARK 921   NORMALIZED FREE ENERGY PREDICTED BY IDOCK:    0.89 KCAL/MOL
REMARK 922        TOTAL FREE ENERGY PREDICTED BY IDOCK:   -0.08 KCAL/MOL
REMARK 923 INTER-LIGAND FREE ENERGY PREDICTED BY IDOCK:   -2.15 KCAL/MOL
REMARK 924 INTRA-LIGAND FREE ENERGY PREDICTED BY IDOCK:    2.07 KCAL/MOL
REMARK 927      BINDING AFFINITY PREDICTED BY RF-SCORE:    0.00 PKD
ROOT
HETATM    1  C   UNL     1     -10.601  10.264  66.033  1.00  0.00    -0.040 C  
HETATM    2  N   UNL     1     -11.022  11.632  65.516  1.00  0.00    -0.291 N  
HETATM    3  C   UNL     1     -11.079  11.620  63.985  1.00  0.00    -0.384 C  
HETATM    4  C   UNL     1     -11.479  13.016  63.500  1.00  0.00    -0.403 C  
HETATM    5  C   UNL     1     -11.741  13.969  64.682  1.00  0.00    -0.417 C  
HETATM    6  C   UNL     1     -12.840  13.348  65.552  1.00  0.00    -0.361 C  
HETATM    7  C   UNL     1     -10.449  14.102  65.519  1.00  0.00    -0.339 C  
HETATM    8  C   UNL     1     -12.418  11.970  66.061  1.00  0.00     1.079 C  
HETATM    9  C   UNL     1      -9.989  12.698  65.980  1.00  0.00    -0.258 C  
ENDROOT
BRANCH   7  10
HETATM   10  O   UNL     1     -10.598  15.174  66.495  1.00  0.00    -0.291 OA 
BRANCH  10  11
HETATM   11  C   UNL     1      -9.861  15.335  67.643  1.00  0.00    -0.217 C  
HETATM   12  O   UNL     1     -10.359  15.699  68.702  1.00  0.00    -0.208 OA 
HETATM   13  C   UNL     1      -8.337  14.996  67.361  1.00  0.00    -0.190 C  
HETATM   14  C   UNL     1      -7.879  13.640  67.933  1.00  0.00    -0.159 A  
HETATM   15  C   UNL     1      -7.437  16.154  67.829  1.00  0.00    -0.150 A  
HETATM   16  O   UNL     1      -8.192  14.891  65.923  1.00  0.00     0.337 OA 
HETATM   17  H   UNL     1      -7.279  14.687  65.754  1.00  0.00     0.000 HD 
HETATM   18  C   UNL     1      -6.805  12.949  67.320  1.00  0.00    -0.066 A  
HETATM   19  C   UNL     1      -7.356  16.516  69.186  1.00  0.00    -0.220 A  
HETATM   20  C   UNL     1      -6.362  11.711  67.794  1.00  0.00    -0.067 A  
HETATM   21  C   UNL     1      -6.534  17.566  69.606  1.00  0.00    -0.147 A  
HETATM   22  C   UNL     1      -5.769  18.272  68.677  1.00  0.00    -0.182 A  
HETATM   23  C   UNL     1      -6.961  11.138  68.907  1.00  0.00    -0.095 A  
HETATM   24  C   UNL     1      -7.990  11.815  69.558  1.00  0.00     0.700 A  
HETATM   25  C   UNL     1      -5.827  17.930  67.334  1.00  0.00    -0.161 A  
HETATM   26  C   UNL     1      -6.650  16.881  66.914  1.00  0.00    -0.249 A  
HETATM   27  C   UNL     1      -8.440  13.057  69.083  1.00  0.00     0.626 A  
ENDBRANCH  10  11
ENDBRANCH   7  10
TORSDOF 2
ENDMDL
MODEL      205
REMARK 921   NORMALIZED FREE ENERGY PREDICTED BY IDOCK:    0.91 KCAL/MOL
REMARK 922        TOTAL FREE ENERGY PREDICTED BY IDOCK:   -0.07 KCAL/MOL
REMARK 923 INTER-LIGAND FREE ENERGY PREDICTED BY IDOCK:   -1.90 KCAL/MOL
REMARK 924 INTRA-LIGAND FREE ENERGY PREDICTED BY IDOCK:    1.83 KCAL/MOL
REMARK 927      BINDING AFFINITY PREDICTED BY RF-SCORE:    0.00 PKD
ROOT
HETATM    1  C   UNL     1      -7.409   9.011  68.535  1.00  0.00    -0.077 C  
HETATM    2  N   UNL     1      -7.004  10.214  67.696  1.00  0.00    -0.084 N  
HETATM    3  C   UNL     1      -5.981   9.796  66.635  1.00  0.00    -0.059 C  
HETATM    4  C   UNL     1      -5.577  11.033  65.830  1.00  0.00    -0.105 C  
HETATM    5  C   UNL     1      -6.346  12.284  66.297  1.00  0.00     1.337 C  
HETATM    6  C   UNL     1      -7.845  11.995  66.155  1.00  0.00     0.514 C  
HETATM    7  C   UNL     1      -6.021  12.550  67.784  1.00  0.00    -0.119 C  
HETATM    8  C   UNL     1      -8.246  10.779  66.991  1.00  0.00    -0.126 C  
HETATM    9  C   UNL     1      -6.369  11.295  68.618  1.00  0.00    -0.045 C  
ENDROOT
BRANCH   7  10
HETATM   10  O   UNL     1      -6.541  13.853  68.180  1.00  0.00    -0.097 OA 
BRANCH  10  11
HETATM   11  C   UNL     1      -7.478  14.594  67.501  1.00  0.00    -0.195 C  
HETATM   12  O   UNL     1      -7.665  14.477  66.295  1.00  0.00     0.905 OA 
HETATM   13  C   UNL     1      -8.218  15.578  68.500  1.00  0.00    -0.148 C  
HETATM   14  C   UNL     1      -9.652  15.145  68.862  1.00  0.00    -0.223 A  
HETATM   15  C   UNL     1      -8.169  17.021  67.963  1.00  0.00    -0.206 A  
HETATM   16  O   UNL     1      -7.471  15.554  69.741  1.00  0.00    -0.184 OA 
HETATM   17  H   UNL     1      -7.914  16.144  70.340  1.00  0.00     0.000 HD 
HETATM   18  C   UNL     1     -10.212  15.542  70.101  1.00  0.00    -0.230 A  
HETATM   19  C   UNL     1      -8.805  17.376  66.760  1.00  0.00    -0.272 A  
HETATM   20  C   UNL     1     -11.503  15.163  70.479  1.00  0.00    -0.342 A  
HETATM   21  C   UNL     1      -8.760  18.688  66.279  1.00  0.00    -0.229 A  
HETATM   22  C   UNL     1      -8.084  19.675  66.997  1.00  0.00    -0.315 A  
HETATM   23  C   UNL     1     -12.281  14.398  69.623  1.00  0.00    -0.353 A  
HETATM   24  C   UNL     1     -11.775  14.030  68.378  1.00  0.00    -0.389 A  
HETATM   25  C   UNL     1      -7.454  19.351  68.189  1.00  0.00    -0.328 A  
HETATM   26  C   UNL     1      -7.497  18.039  68.670  1.00  0.00    -0.291 A  
HETATM   27  C   UNL     1     -10.478  14.406  67.996  1.00  0.00    -0.237 A  
ENDBRANCH  10  11
ENDBRANCH   7  10
TORSDOF 2
ENDMDL
MODEL      206
REMARK 921   NORMALIZED FREE ENERGY PREDICTED BY IDOCK:    1.01 KCAL/MOL
REMARK 922        TOTAL FREE ENERGY PREDICTED BY IDOCK:    0.05 KCAL/MOL
REMARK 923 INTER-LIGAND FREE ENERGY PREDICTED BY IDOCK:   -2.08 KCAL/MOL
REMARK 924 INTRA-LIGAND FREE ENERGY PREDICTED BY IDOCK:    2.13 KCAL/MOL
REMARK 927      BINDING AFFINITY PREDICTED BY RF-SCORE:    0.00 PKD
ROOT
HETATM    1  C   UNL     1      -6.703   9.229  70.686  1.00  0.00    -0.085 C  
HETATM    2  N   UNL     1      -7.444   7.923  70.440  1.00  0.00    -0.075 N  
HETATM    3  C   UNL     1      -6.738   6.772  71.165  1.00  0.00    -0.057 C  
HETATM    4  C   UNL     1      -7.493   5.473  70.874  1.00  0.00    -0.089 C  
HETATM    5  C   UNL     1      -8.734   5.729  69.997  1.00  0.00    -0.132 C  
HETATM    6  C   UNL     1      -9.627   6.738  70.727  1.00  0.00    -0.173 C  
HETATM    7  C   UNL     1      -8.282   6.335  68.649  1.00  0.00    -0.112 C  
HETATM    8  C   UNL     1      -8.876   8.044  70.982  1.00  0.00    -0.139 C  
HETATM    9  C   UNL     1      -7.468   7.624  68.913  1.00  0.00    -0.096 C  
ENDROOT
BRANCH   7  10
HETATM   10  O   UNL     1      -9.403   6.362  67.717  1.00  0.00    -0.119 OA 
BRANCH  10  11
HETATM   11  C   UNL     1      -9.388   5.915  66.418  1.00  0.00    -0.157 C  
HETATM   12  O   UNL     1     -10.404   5.826  65.738  1.00  0.00     0.168 OA 
HETATM   13  C   UNL     1      -7.907   5.546  65.989  1.00  0.00    -0.104 C  
HETATM   14  C   UNL     1      -7.251   6.574  65.045  1.00  0.00    -0.067 A  
HETATM   15  C   UNL     1      -7.857   4.119  65.412  1.00  0.00    -0.086 A  
HETATM   16  O   UNL     1      -7.108   5.551  67.197  1.00  0.00    -0.070 OA 
HETATM   17  H   UNL     1      -6.220   5.330  66.940  1.00  0.00     0.000 HD 
HETATM   18  C   UNL     1      -5.841   6.712  65.031  1.00  0.00    -0.031 A  
HETATM   19  C   UNL     1      -8.541   3.784  64.229  1.00  0.00    -0.098 A  
HETATM   20  C   UNL     1      -5.202   7.639  64.203  1.00  0.00    -0.029 A  
HETATM   21  C   UNL     1      -8.490   2.488  63.709  1.00  0.00    -0.086 A  
HETATM   22  C   UNL     1      -7.746   1.500  64.355  1.00  0.00    -0.060 A  
HETATM   23  C   UNL     1      -5.949   8.437  63.347  1.00  0.00    -0.073 A  
HETATM   24  C   UNL     1      -7.333   8.292  63.306  1.00  0.00    -0.105 A  
HETATM   25  C   UNL     1      -7.058   1.808  65.520  1.00  0.00    -0.051 A  
HETATM   26  C   UNL     1      -7.110   3.104  66.042  1.00  0.00    -0.062 A  
HETATM   27  C   UNL     1      -7.979   7.365  64.138  1.00  0.00    -0.092 A  
ENDBRANCH  10  11
ENDBRANCH   7  10
TORSDOF 2
ENDMDL
MODEL      207
REMARK 921   NORMALIZED FREE ENERGY PREDICTED BY IDOCK:    2.09 KCAL/MOL
REMARK 922        TOTAL FREE ENERGY PREDICTED BY IDOCK:    1.25 KCAL/MOL
REMARK 923 INTER-LIGAND FREE ENERGY PREDICTED BY IDOCK:   -0.59 KCAL/MOL
REMARK 924 INTRA-LIGAND FREE ENERGY PREDICTED BY IDOCK:    1.84 KCAL/MOL
REMARK 927      BINDING AFFINITY PREDICTED BY RF-SCORE:    0.00 PKD
ROOT
HETATM    1  C   UNL     1     -11.536   9.714  72.284  1.00  0.00     0.701 C  
HETATM    2  N   UNL     1     -10.888   9.239  70.992  1.00  0.00    -0.286 N  
HETATM    3  C   UNL     1     -11.962   8.970  69.933  1.00  0.00     0.560 C  
HETATM    4  C   UNL     1     -11.278   8.469  68.659  1.00  0.00     0.469 C  
HETATM    5  C   UNL     1      -9.746   8.437  68.818  1.00  0.00    -0.168 C  
HETATM    6  C   UNL     1      -9.280   9.853  69.178  1.00  0.00    -0.184 C  
HETATM    7  C   UNL     1      -9.379   7.476  69.971  1.00  0.00    -0.154 C  
HETATM    8  C   UNL     1      -9.941  10.331  70.471  1.00  0.00     0.386 C  
HETATM    9  C   UNL     1     -10.100   7.926  71.264  1.00  0.00    -0.180 C  
ENDROOT
BRANCH   7  10
HETATM   10  O   UNL     1      -7.940   7.244  69.984  1.00  0.00    -0.112 OA 
BRANCH  10  11
HETATM   11  C   UNL     1      -7.315   6.028  70.114  1.00  0.00    -0.078 C  
HETATM   12  O   UNL     1      -6.097   5.916  70.195  1.00  0.00    -0.024 OA 
HETATM   13  C   UNL     1      -8.392   4.864  70.126  1.00  0.00    -0.080 C  
HETATM   14  C   UNL     1      -8.637   4.248  71.519  1.00  0.00    -0.129 A  
HETATM   15  C   UNL     1      -8.036   3.795  69.077  1.00  0.00    -0.062 A  
HETATM   16  O   UNL     1      -9.653   5.457  69.727  1.00  0.00    -0.148 OA 
HETATM   17  H   UNL     1     -10.298   4.759  69.735  1.00  0.00     0.000 HD 
HETATM   18  C   UNL     1      -9.890   3.656  71.812  1.00  0.00    -0.235 A  
HETATM   19  C   UNL     1      -6.857   3.033  69.179  1.00  0.00    -0.041 A  
HETATM   20  C   UNL     1     -10.163   3.097  73.063  1.00  0.00    -0.232 A  
HETATM   21  C   UNL     1      -6.541   2.062  68.226  1.00  0.00    -0.029 A  
HETATM   22  C   UNL     1      -7.401   1.825  67.153  1.00  0.00    -0.055 A  
HETATM   23  C   UNL     1      -9.188   3.092  74.050  1.00  0.00    -0.093 A  
HETATM   24  C   UNL     1      -7.931   3.627  73.776  1.00  0.00    -0.079 A  
HETATM   25  C   UNL     1      -8.572   2.559  67.034  1.00  0.00    -0.120 A  
HETATM   26  C   UNL     1      -8.888   3.531  67.986  1.00  0.00    -0.150 A  
HETATM   27  C   UNL     1      -7.654   4.192  72.522  1.00  0.00    -0.074 A  
ENDBRANCH  10  11
ENDBRANCH   7  10
TORSDOF 2
ENDMDL
MODEL      208
REMARK 921   NORMALIZED FREE ENERGY PREDICTED BY IDOCK:    2.34 KCAL/MOL
REMARK 922        TOTAL FREE ENERGY PREDICTED BY IDOCK:    1.53 KCAL/MOL
REMARK 923 INTER-LIGAND FREE ENERGY PREDICTED BY IDOCK:    1.82 KCAL/MOL
REMARK 924 INTRA-LIGAND FREE ENERGY PREDICTED BY IDOCK:   -0.28 KCAL/MOL
REMARK 927      BINDING AFFINITY PREDICTED BY RF-SCORE:    0.00 PKD
ROOT
HETATM    1  C   UNL     1     -12.341  12.996  72.329  1.00  0.00     0.751 C  
HETATM    2  N   UNL     1     -12.356  11.726  71.493  1.00  0.00    -0.075 N  
HETATM    3  C   UNL     1     -13.733  11.058  71.575  1.00  0.00     0.444 C  
HETATM    4  C   UNL     1     -13.702   9.772  70.745  1.00  0.00     0.118 C  
HETATM    5  C   UNL     1     -12.337   9.576  70.060  1.00  0.00     0.412 C  
HETATM    6  C   UNL     1     -12.068  10.806  69.185  1.00  0.00    -0.227 C  
HETATM    7  C   UNL     1     -11.239   9.476  71.143  1.00  0.00    -0.376 C  
HETATM    8  C   UNL     1     -12.065  12.082  70.027  1.00  0.00    -0.280 C  
HETATM    9  C   UNL     1     -11.279  10.741  72.033  1.00  0.00     3.356 C  
ENDROOT
BRANCH   7  10
HETATM   10  O   UNL     1      -9.982   9.054  70.537  1.00  0.00    -0.187 OA 
BRANCH  10  11
HETATM   11  C   UNL     1      -9.836   8.134  69.528  1.00  0.00    -0.181 C  
HETATM   12  O   UNL     1     -10.687   7.288  69.277  1.00  0.00    -0.222 OA 
HETATM   13  C   UNL     1      -8.444   8.346  68.798  1.00  0.00    -0.124 C  
HETATM   14  C   UNL     1      -8.556   9.008  67.410  1.00  0.00    -0.115 A  
HETATM   15  C   UNL     1      -7.661   7.021  68.744  1.00  0.00    -0.110 A  
HETATM   16  O   UNL     1      -7.679   9.266  69.616  1.00  0.00    -0.075 OA 
HETATM   17  H   UNL     1      -6.845   9.394  69.179  1.00  0.00     0.000 HD 
HETATM   18  C   UNL     1      -7.468   9.762  66.904  1.00  0.00    -0.091 A  
HETATM   19  C   UNL     1      -8.145   5.915  68.023  1.00  0.00    -0.105 A  
HETATM   20  C   UNL     1      -7.528  10.391  65.658  1.00  0.00    -0.149 A  
HETATM   21  C   UNL     1      -7.428   4.715  67.975  1.00  0.00    -0.073 A  
HETATM   22  C   UNL     1      -6.207   4.600  68.641  1.00  0.00    -0.032 A  
HETATM   23  C   UNL     1      -8.663  10.267  64.870  1.00  0.00    -0.198 A  
HETATM   24  C   UNL     1      -9.731   9.494  65.321  1.00  0.00    -0.268 A  
HETATM   25  C   UNL     1      -5.707   5.680  69.354  1.00  0.00    -0.012 A  
HETATM   26  C   UNL     1      -6.424   6.879  69.404  1.00  0.00    -0.044 A  
HETATM   27  C   UNL     1      -9.677   8.865  66.574  1.00  0.00    -0.322 A  
ENDBRANCH  10  11
ENDBRANCH   7  10
TORSDOF 2
ENDMDL
MODEL      209
REMARK 921   NORMALIZED FREE ENERGY PREDICTED BY IDOCK:    3.00 KCAL/MOL
REMARK 922        TOTAL FREE ENERGY PREDICTED BY IDOCK:    2.27 KCAL/MOL
REMARK 923 INTER-LIGAND FREE ENERGY PREDICTED BY IDOCK:    2.76 KCAL/MOL
REMARK 924 INTRA-LIGAND FREE ENERGY PREDICTED BY IDOCK:   -0.49 KCAL/MOL
REMARK 927      BINDING AFFINITY PREDICTED BY RF-SCORE:    0.00 PKD
ROOT
HETATM    1  C   UNL     1     -10.513  10.653  63.474  1.00  0.00     0.092 C  
HETATM    2  N   UNL     1      -9.360  10.453  64.446  1.00  0.00    -0.246 N  
HETATM    3  C   UNL     1      -8.746  11.806  64.820  1.00  0.00     0.730 C  
HETATM    4  C   UNL     1      -7.575  11.564  65.776  1.00  0.00     0.504 C  
HETATM    5  C   UNL     1      -7.410  10.067  66.095  1.00  0.00    -0.109 C  
HETATM    6  C   UNL     1      -8.728   9.565  66.696  1.00  0.00    -0.146 C  
HETATM    7  C   UNL     1      -7.128   9.299  64.785  1.00  0.00    -0.095 C  
HETATM    8  C   UNL     1      -9.886   9.778  65.721  1.00  0.00    -0.290 C  
HETATM    9  C   UNL     1      -8.271   9.567  63.776  1.00  0.00    -0.161 C  
ENDROOT
BRANCH   7  10
HETATM   10  O   UNL     1      -6.732   7.929  65.087  1.00  0.00    -0.050 OA 
BRANCH  10  11
HETATM   11  C   UNL     1      -7.532   6.816  65.004  1.00  0.00    -0.092 C  
HETATM   12  O   UNL     1      -8.150   6.520  63.987  1.00  0.00    -0.106 OA 
HETATM   13  C   UNL     1      -7.521   6.037  66.386  1.00  0.00    -0.086 C  
HETATM   14  C   UNL     1      -6.686   4.740  66.370  1.00  0.00    -0.054 A  
HETATM   15  C   UNL     1      -8.961   5.790  66.871  1.00  0.00    -0.114 A  
HETATM   16  O   UNL     1      -6.883   6.908  67.352  1.00  0.00    -0.071 OA 
HETATM   17  H   UNL     1      -6.876   6.441  68.179  1.00  0.00     0.000 HD 
HETATM   18  C   UNL     1      -6.115   4.261  67.574  1.00  0.00    -0.028 A  
HETATM   19  C   UNL     1      -9.850   4.978  66.144  1.00  0.00    -0.214 A  
HETATM   20  C   UNL     1      -5.340   3.098  67.607  1.00  0.00    -0.013 A  
HETATM   21  C   UNL     1     -11.155   4.755  66.591  1.00  0.00     0.986 A  
HETATM   22  C   UNL     1     -11.598   5.333  67.782  1.00  0.00     2.856 A  
HETATM   23  C   UNL     1      -5.133   2.368  66.446  1.00  0.00    -0.005 A  
HETATM   24  C   UNL     1      -5.720   2.790  65.255  1.00  0.00    -0.018 A  
HETATM   25  C   UNL     1     -10.737   6.133  68.520  1.00  0.00    -0.365 A  
HETATM   26  C   UNL     1      -9.433   6.358  68.072  1.00  0.00    -0.116 A  
HETATM   27  C   UNL     1      -6.496   3.958  65.217  1.00  0.00    -0.032 A  
ENDBRANCH  10  11
ENDBRANCH   7  10
TORSDOF 2
ENDMDL
MODEL      210
REMARK 921   NORMALIZED FREE ENERGY PREDICTED BY IDOCK:    3.02 KCAL/MOL
REMARK 922        TOTAL FREE ENERGY PREDICTED BY IDOCK:    2.29 KCAL/MOL
REMARK 923 INTER-LIGAND FREE ENERGY PREDICTED BY IDOCK:    1.14 KCAL/MOL
REMARK 924 INTRA-LIGAND FREE ENERGY PREDICTED BY IDOCK:    1.14 KCAL/MOL
REMARK 927      BINDING AFFINITY PREDICTED BY RF-SCORE:    0.00 PKD
ROOT
HETATM    1  C   UNL     1     -10.519  15.922  68.113  1.00  0.00    -0.270 C  
HETATM    2  N   UNL     1      -9.122  15.389  67.830  1.00  0.00    -0.177 N  
HETATM    3  C   UNL     1      -8.156  16.552  67.580  1.00  0.00    -0.154 C  
HETATM    4  C   UNL     1      -6.770  15.979  67.273  1.00  0.00    -0.232 C  
HETATM    5  C   UNL     1      -6.766  14.441  67.357  1.00  0.00    -0.002 C  
HETATM    6  C   UNL     1      -7.231  14.045  68.763  1.00  0.00    -0.113 C  
HETATM    7  C   UNL     1      -7.760  13.876  66.318  1.00  0.00     2.110 C  
HETATM    8  C   UNL     1      -8.631  14.591  69.047  1.00  0.00    -0.041 C  
HETATM    9  C   UNL     1      -9.163  14.480  66.569  1.00  0.00    -0.255 C  
ENDROOT
BRANCH   7  10
HETATM   10  O   UNL     1      -7.599  12.432  66.211  1.00  0.00     0.489 OA 
BRANCH  10  11
HETATM   11  C   UNL     1      -8.290  11.599  65.366  1.00  0.00     0.564 C  
HETATM   12  O   UNL     1      -7.824  11.197  64.305  1.00  0.00     0.449 OA 
HETATM   13  C   UNL     1      -9.722  11.281  65.970  1.00  0.00    -0.220 C  
HETATM   14  C   UNL     1      -9.855   9.861  66.559  1.00  0.00    -0.274 A  
HETATM   15  C   UNL     1     -10.819  11.579  64.932  1.00  0.00    -0.345 A  
HETATM   16  O   UNL     1      -9.919  12.190  67.080  1.00  0.00    -0.200 OA 
HETATM   17  H   UNL     1     -10.776  12.000  67.442  1.00  0.00     0.000 HD 
HETATM   18  C   UNL     1     -10.791   9.617  67.593  1.00  0.00    -0.276 A  
HETATM   19  C   UNL     1     -10.901  10.860  63.726  1.00  0.00    -0.027 A  
HETATM   20  C   UNL     1     -10.937   8.351  68.167  1.00  0.00     0.143 A  
HETATM   21  C   UNL     1     -11.901  11.133  62.788  1.00  0.00     1.231 A  
HETATM   22  C   UNL     1     -12.847  12.128  63.041  1.00  0.00     0.076 A  
HETATM   23  C   UNL     1     -10.173   7.288  67.709  1.00  0.00    -0.247 A  
HETATM   24  C   UNL     1      -9.276   7.487  66.662  1.00  0.00    -0.201 A  
HETATM   25  C   UNL     1     -12.790  12.847  64.226  1.00  0.00    -0.179 A  
HETATM   26  C   UNL     1     -11.789  12.575  65.163  1.00  0.00    -0.450 A  
HETATM   27  C   UNL     1      -9.123   8.757  66.086  1.00  0.00    -0.251 A  
ENDBRANCH  10  11
ENDBRANCH   7  10
TORSDOF 2
ENDMDL
MODEL      211
REMARK 921   NORMALIZED FREE ENERGY PREDICTED BY IDOCK:    3.52 KCAL/MOL
REMARK 922        TOTAL FREE ENERGY PREDICTED BY IDOCK:    2.85 KCAL/MOL
REMARK 923 INTER-LIGAND FREE ENERGY PREDICTED BY IDOCK:    0.84 KCAL/MOL
REMARK 924 INTRA-LIGAND FREE ENERGY PREDICTED BY IDOCK:    2.00 KCAL/MOL
REMARK 927      BINDING AFFINITY PREDICTED BY RF-SCORE:    0.00 PKD
ROOT
HETATM    1  C   UNL     1     -11.607   8.654  73.018  1.00  0.00     0.631 C  
HETATM    2  N   UNL     1     -11.220   8.588  71.548  1.00  0.00    -0.261 N  
HETATM    3  C   UNL     1     -12.472   8.429  70.680  1.00  0.00     0.265 C  
HETATM    4  C   UNL     1     -12.042   8.340  69.213  1.00  0.00     2.018 C  
HETATM    5  C   UNL     1     -10.516   8.482  69.065  1.00  0.00    -0.216 C  
HETATM    6  C   UNL     1     -10.105   9.824  69.682  1.00  0.00    -0.250 C  
HETATM    7  C   UNL     1      -9.824   7.337  69.839  1.00  0.00    -0.178 C  
HETATM    8  C   UNL     1     -10.506   9.890  71.155  1.00  0.00     0.098 C  
HETATM    9  C   UNL     1     -10.281   7.369  71.317  1.00  0.00    -0.188 C  
ENDROOT
BRANCH   7  10
HETATM   10  O   UNL     1      -8.403   7.309  69.518  1.00  0.00    -0.129 OA 
BRANCH  10  11
HETATM   11  C   UNL     1      -7.741   6.307  68.851  1.00  0.00    -0.097 C  
HETATM   12  O   UNL     1      -6.536   6.344  68.629  1.00  0.00    -0.047 OA 
HETATM   13  C   UNL     1      -8.763   5.168  68.434  1.00  0.00    -0.101 C  
HETATM   14  C   UNL     1      -8.662   3.889  69.290  1.00  0.00    -0.127 A  
HETATM   15  C   UNL     1      -8.642   4.866  66.929  1.00  0.00    -0.104 A  
HETATM   16  O   UNL     1     -10.093   5.695  68.663  1.00  0.00    -0.156 OA 
HETATM   17  H   UNL     1     -10.705   5.012  68.413  1.00  0.00     0.000 HD 
HETATM   18  C   UNL     1      -9.799   3.059  69.444  1.00  0.00     0.272 A  
HETATM   19  C   UNL     1      -7.458   4.340  66.381  1.00  0.00    -0.085 A  
HETATM   20  C   UNL     1      -9.760   1.897  70.221  1.00  0.00    -0.014 A  
HETATM   21  C   UNL     1      -7.355   4.065  65.014  1.00  0.00    -0.072 A  
HETATM   22  C   UNL     1      -8.438   4.303  64.167  1.00  0.00    -0.111 A  
HETATM   23  C   UNL     1      -8.581   1.517  70.845  1.00  0.00    -0.084 A  
HETATM   24  C   UNL     1      -7.434   2.290  70.674  1.00  0.00    -0.033 A  
HETATM   25  C   UNL     1      -9.618   4.816  64.685  1.00  0.00     0.051 A  
HETATM   26  C   UNL     1      -9.722   5.092  66.051  1.00  0.00    -0.194 A  
HETATM   27  C   UNL     1      -7.470   3.459  69.899  1.00  0.00    -0.044 A  
ENDBRANCH  10  11
ENDBRANCH   7  10
TORSDOF 2
ENDMDL
MODEL      212
REMARK 921   NORMALIZED FREE ENERGY PREDICTED BY IDOCK:    3.84 KCAL/MOL
REMARK 922        TOTAL FREE ENERGY PREDICTED BY IDOCK:    3.21 KCAL/MOL
REMARK 923 INTER-LIGAND FREE ENERGY PREDICTED BY IDOCK:    0.99 KCAL/MOL
REMARK 924 INTRA-LIGAND FREE ENERGY PREDICTED BY IDOCK:    2.22 KCAL/MOL
REMARK 927      BINDING AFFINITY PREDICTED BY RF-SCORE:    0.00 PKD
ROOT
HETATM    1  C   UNL     1     -13.246  12.681  70.476  1.00  0.00     0.672 C  
HETATM    2  N   UNL     1     -12.200  12.500  69.385  1.00  0.00    -0.143 N  
HETATM    3  C   UNL     1     -12.483  11.220  68.593  1.00  0.00     0.588 C  
HETATM    4  C   UNL     1     -11.398  11.056  67.525  1.00  0.00    -0.332 C  
HETATM    5  C   UNL     1     -10.405  12.234  67.547  1.00  0.00    -0.214 C  
HETATM    6  C   UNL     1     -11.202  13.526  67.335  1.00  0.00    -0.317 C  
HETATM    7  C   UNL     1      -9.715  12.286  68.928  1.00  0.00     0.143 C  
HETATM    8  C   UNL     1     -12.259  13.699  68.426  1.00  0.00    -0.132 C  
HETATM    9  C   UNL     1     -10.791  12.398  70.035  1.00  0.00     0.882 C  
ENDROOT
BRANCH   7  10
HETATM   10  O   UNL     1      -8.607  13.233  68.894  1.00  0.00     0.066 OA 
BRANCH  10  11
HETATM   11  C   UNL     1      -8.093  13.840  67.775  1.00  0.00    -0.176 C  
HETATM   12  O   UNL     1      -7.358  13.258  66.985  1.00  0.00     0.006 OA 
HETATM   13  C   UNL     1      -8.584  15.347  67.702  1.00  0.00    -0.167 C  
HETATM   14  C   UNL     1      -9.677  15.602  66.645  1.00  0.00    -0.266 A  
HETATM   15  C   UNL     1      -7.381  16.293  67.529  1.00  0.00    -0.177 A  
HETATM   16  O   UNL     1      -9.191  15.650  68.982  1.00  0.00    -0.206 OA 
HETATM   17  H   UNL     1      -9.485  16.553  68.939  1.00  0.00     0.000 HD 
HETATM   18  C   UNL     1     -10.590  16.669  66.826  1.00  0.00    -0.214 A  
HETATM   19  C   UNL     1      -6.574  16.247  66.378  1.00  0.00     0.622 A  
HETATM   20  C   UNL     1     -11.606  16.931  65.902  1.00  0.00     1.374 A  
HETATM   21  C   UNL     1      -5.485  17.111  66.225  1.00  0.00    -0.062 A  
HETATM   22  C   UNL     1      -5.186  18.045  67.217  1.00  0.00    -0.143 A  
HETATM   23  C   UNL     1     -11.724  16.152  64.760  1.00  0.00     0.076 A  
HETATM   24  C   UNL     1     -10.812  15.123  64.532  1.00  0.00    -0.145 A  
HETATM   25  C   UNL     1      -5.972  18.113  68.358  1.00  0.00    -0.180 A  
HETATM   26  C   UNL     1      -7.059  17.249  68.513  1.00  0.00    -0.220 A  
HETATM   27  C   UNL     1      -9.794  14.855  65.459  1.00  0.00    -0.348 A  
ENDBRANCH  10  11
ENDBRANCH   7  10
TORSDOF 2
ENDMDL
MODEL      213
REMARK 921   NORMALIZED FREE ENERGY PREDICTED BY IDOCK:    4.08 KCAL/MOL
REMARK 922        TOTAL FREE ENERGY PREDICTED BY IDOCK:    3.47 KCAL/MOL
REMARK 923 INTER-LIGAND FREE ENERGY PREDICTED BY IDOCK:    0.62 KCAL/MOL
REMARK 924 INTRA-LIGAND FREE ENERGY PREDICTED BY IDOCK:    2.86 KCAL/MOL
REMARK 927      BINDING AFFINITY PREDICTED BY RF-SCORE:    0.00 PKD
ROOT
HETATM    1  C   UNL     1      -8.114   9.593  68.208  1.00  0.00    -0.105 C  
HETATM    2  N   UNL     1      -7.280   9.787  66.951  1.00  0.00    -0.090 N  
HETATM    3  C   UNL     1      -6.921  11.267  66.781  1.00  0.00    -0.141 C  
HETATM    4  C   UNL     1      -6.108  11.429  65.494  1.00  0.00     0.690 C  
HETATM    5  C   UNL     1      -5.866  10.071  64.808  1.00  0.00    -0.111 C  
HETATM    6  C   UNL     1      -5.146   9.159  65.808  1.00  0.00    -0.036 C  
HETATM    7  C   UNL     1      -7.228   9.442  64.439  1.00  0.00    -0.105 C  
HETATM    8  C   UNL     1      -5.982   8.975  67.075  1.00  0.00    -0.057 C  
HETATM    9  C   UNL     1      -8.096   9.315  65.714  1.00  0.00    -0.115 C  
ENDROOT
BRANCH   7  10
HETATM   10  O   UNL     1      -7.023   8.282  63.581  1.00  0.00    -0.081 OA 
BRANCH  10  11
HETATM   11  C   UNL     1      -7.821   7.166  63.521  1.00  0.00    -0.103 C  
HETATM   12  O   UNL     1      -8.608   6.964  62.603  1.00  0.00     0.092 OA 
HETATM   13  C   UNL     1      -7.563   6.247  64.788  1.00  0.00    -0.093 C  
HETATM   14  C   UNL     1      -6.739   4.978  64.487  1.00  0.00    -0.047 A  
HETATM   15  C   UNL     1      -8.893   5.918  65.490  1.00  0.00    -0.100 A  
HETATM   16  O   UNL     1      -6.767   7.026  65.714  1.00  0.00    -0.050 OA 
HETATM   17  H   UNL     1      -6.612   6.476  66.473  1.00  0.00     0.000 HD 
HETATM   18  C   UNL     1      -5.961   4.389  65.513  1.00  0.00    -0.023 A  
HETATM   19  C   UNL     1      -9.893   5.166  64.847  1.00  0.00     0.374 A  
HETATM   20  C   UNL     1      -5.188   3.247  65.285  1.00  0.00    -0.009 A  
HETATM   21  C   UNL     1     -11.098   4.868  65.491  1.00  0.00     0.154 A  
HETATM   22  C   UNL     1     -11.325   5.308  66.795  1.00  0.00     1.042 A  
HETATM   23  C   UNL     1      -5.187   2.647  64.034  1.00  0.00    -0.008 A  
HETATM   24  C   UNL     1      -5.978   3.178  63.017  1.00  0.00    -0.013 A  
HETATM   25  C   UNL     1     -10.350   6.046  67.452  1.00  0.00    -0.268 A  
HETATM   26  C   UNL     1      -9.146   6.346  66.808  1.00  0.00    -0.147 A  
HETATM   27  C   UNL     1      -6.752   4.326  63.241  1.00  0.00    -0.035 A  
ENDBRANCH  10  11
ENDBRANCH   7  10
TORSDOF 2
ENDMDL
MODEL      214
REMARK 921   NORMALIZED FREE ENERGY PREDICTED BY IDOCK:    4.57 KCAL/MOL
REMARK 922        TOTAL FREE ENERGY PREDICTED BY IDOCK:    4.03 KCAL/MOL
REMARK 923 INTER-LIGAND FREE ENERGY PREDICTED BY IDOCK:    2.94 KCAL/MOL
REMARK 924 INTRA-LIGAND FREE ENERGY PREDICTED BY IDOCK:    1.08 KCAL/MOL
REMARK 927      BINDING AFFINITY PREDICTED BY RF-SCORE:    0.00 PKD
ROOT
HETATM    1  C   UNL     1     -12.420   8.037  68.469  1.00  0.00     5.308 C  
HETATM    2  N   UNL     1     -10.994   8.446  68.133  1.00  0.00     0.098 N  
HETATM    3  C   UNL     1     -10.188   7.223  67.683  1.00  0.00    -0.200 C  
HETATM    4  C   UNL     1      -8.754   7.667  67.380  1.00  0.00    -0.124 C  
HETATM    5  C   UNL     1      -8.583   9.185  67.573  1.00  0.00    -0.116 C  
HETATM    6  C   UNL     1      -9.587   9.893  66.657  1.00  0.00    -0.235 C  
HETATM    7  C   UNL     1      -8.898   9.546  69.042  1.00  0.00    -0.143 C  
HETATM    8  C   UNL     1     -11.018   9.471  66.990  1.00  0.00     0.084 C  
HETATM    9  C   UNL     1     -10.324   9.061  69.395  1.00  0.00    -0.213 C  
ENDROOT
BRANCH   7  10
HETATM   10  O   UNL     1      -8.513  10.926  69.308  1.00  0.00    -0.108 OA 
BRANCH  10  11
HETATM   11  C   UNL     1      -9.275  12.042  69.065  1.00  0.00     0.342 C  
HETATM   12  O   UNL     1     -10.276  12.315  69.718  1.00  0.00     0.783 OA 
HETATM   13  C   UNL     1      -8.668  12.858  67.847  1.00  0.00    -0.186 C  
HETATM   14  C   UNL     1      -7.930  14.148  68.260  1.00  0.00    -0.140 A  
HETATM   15  C   UNL     1      -9.754  13.128  66.790  1.00  0.00    -0.246 A  
HETATM   16  O   UNL     1      -7.669  12.009  67.232  1.00  0.00    -0.151 OA 
HETATM   17  H   UNL     1      -7.305  12.497  66.503  1.00  0.00     0.000 HD 
HETATM   18  C   UNL     1      -6.894  14.655  67.439  1.00  0.00    -0.085 A  
HETATM   19  C   UNL     1     -10.876  13.927  67.080  1.00  0.00    -0.288 A  
HETATM   20  C   UNL     1      -6.188  15.812  67.778  1.00  0.00    -0.175 A  
HETATM   21  C   UNL     1     -11.857  14.171  66.115  1.00  0.00    -0.420 A  
HETATM   22  C   UNL     1     -11.734  13.628  64.836  1.00  0.00    -0.379 A  
HETATM   23  C   UNL     1      -6.511  16.510  68.933  1.00  0.00    -0.163 A  
HETATM   24  C   UNL     1      -7.556  16.061  69.737  1.00  0.00     0.189 A  
HETATM   25  C   UNL     1     -10.634  12.842  64.524  1.00  0.00    -0.383 A  
HETATM   26  C   UNL     1      -9.653  12.596  65.489  1.00  0.00    -0.026 A  
HETATM   27  C   UNL     1      -8.264  14.897  69.402  1.00  0.00    -0.084 A  
ENDBRANCH  10  11
ENDBRANCH   7  10
TORSDOF 2
ENDMDL
MODEL      215
REMARK 921   NORMALIZED FREE ENERGY PREDICTED BY IDOCK:    7.19 KCAL/MOL
REMARK 922        TOTAL FREE ENERGY PREDICTED BY IDOCK:    6.95 KCAL/MOL
REMARK 923 INTER-LIGAND FREE ENERGY PREDICTED BY IDOCK:    4.41 KCAL/MOL
REMARK 924 INTRA-LIGAND FREE ENERGY PREDICTED BY IDOCK:    2.54 KCAL/MOL
REMARK 927      BINDING AFFINITY PREDICTED BY RF-SCORE:    0.00 PKD
ROOT
HETATM    1  C   UNL     1     -11.260  11.203  66.714  1.00  0.00    -0.143 C  
HETATM    2  N   UNL     1     -11.715  12.562  67.223  1.00  0.00    -0.368 N  
HETATM    3  C   UNL     1     -12.468  13.312  66.119  1.00  0.00    -0.268 C  
HETATM    4  C   UNL     1     -12.887  14.682  66.657  1.00  0.00     0.898 C  
HETATM    5  C   UNL     1     -12.471  14.860  68.129  1.00  0.00     0.392 C  
HETATM    6  C   UNL     1     -13.110  13.728  68.940  1.00  0.00     2.081 C  
HETATM    7  C   UNL     1     -10.933  14.751  68.235  1.00  0.00    -0.258 C  
HETATM    8  C   UNL     1     -12.659  12.363  68.419  1.00  0.00     1.195 C  
HETATM    9  C   UNL     1     -10.473  13.395  67.649  1.00  0.00    -0.241 C  
ENDROOT
BRANCH   7  10
HETATM   10  O   UNL     1     -10.497  15.153  69.567  1.00  0.00    -0.244 OA 
BRANCH  10  11
HETATM   11  C   UNL     1      -9.198  15.288  69.989  1.00  0.00     0.231 C  
HETATM   12  O   UNL     1      -8.887  15.319  71.175  1.00  0.00     2.042 OA 
HETATM   13  C   UNL     1      -8.231  15.404  68.737  1.00  0.00    -0.172 C  
HETATM   14  C   UNL     1      -7.409  14.129  68.458  1.00  0.00    -0.120 A  
HETATM   15  C   UNL     1      -7.335  16.650  68.867  1.00  0.00    -0.225 A  
HETATM   16  O   UNL     1      -9.073  15.596  67.575  1.00  0.00    -0.189 OA 
HETATM   17  H   UNL     1      -8.494  15.665  66.824  1.00  0.00     0.000 HD 
HETATM   18  C   UNL     1      -6.971  13.854  67.139  1.00  0.00     0.348 A  
HETATM   19  C   UNL     1      -6.398  16.773  69.908  1.00  0.00    -0.085 A  
HETATM   20  C   UNL     1      -6.235  12.706  66.835  1.00  0.00     0.421 A  
HETATM   21  C   UNL     1      -5.586  17.906  70.018  1.00  0.00    -0.241 A  
HETATM   22  C   UNL     1      -5.688  18.937  69.084  1.00  0.00    -0.226 A  
HETATM   23  C   UNL     1      -5.896  11.811  67.839  1.00  0.00    -0.050 A  
HETATM   24  C   UNL     1      -6.274  12.077  69.153  1.00  0.00    -0.087 A  
HETATM   25  C   UNL     1      -6.602  18.836  68.045  1.00  0.00    -0.230 A  
HETATM   26  C   UNL     1      -7.415  17.704  67.934  1.00  0.00    -0.204 A  
HETATM   27  C   UNL     1      -7.016  13.227  69.462  1.00  0.00     0.157 A  
ENDBRANCH  10  11
ENDBRANCH   7  10
TORSDOF 2
ENDMDL
MODEL      216
REMARK 921   NORMALIZED FREE ENERGY PREDICTED BY IDOCK:    8.56 KCAL/MOL
REMARK 922        TOTAL FREE ENERGY PREDICTED BY IDOCK:    8.48 KCAL/MOL
REMARK 923 INTER-LIGAND FREE ENERGY PREDICTED BY IDOCK:    6.07 KCAL/MOL
REMARK 924 INTRA-LIGAND FREE ENERGY PREDICTED BY IDOCK:    2.41 KCAL/MOL
REMARK 927      BINDING AFFINITY PREDICTED BY RF-SCORE:    0.00 PKD
ROOT
HETATM    1  C   UNL     1      -7.885  15.641  66.037  1.00  0.00     1.216 C  
HETATM    2  N   UNL     1      -7.841  16.670  67.157  1.00  0.00    -0.165 N  
HETATM    3  C   UNL     1      -6.389  16.953  67.555  1.00  0.00    -0.155 C  
HETATM    4  C   UNL     1      -6.385  17.970  68.699  1.00  0.00    -0.211 C  
HETATM    5  C   UNL     1      -7.814  18.422  69.055  1.00  0.00    -0.140 C  
HETATM    6  C   UNL     1      -8.450  19.011  67.791  1.00  0.00    -0.323 C  
HETATM    7  C   UNL     1      -8.634  17.193  69.508  1.00  0.00     0.582 C  
HETATM    8  C   UNL     1      -8.483  17.977  66.666  1.00  0.00    -0.262 C  
HETATM    9  C   UNL     1      -8.612  16.122  68.392  1.00  0.00    -0.189 C  
ENDROOT
BRANCH   7  10
HETATM   10  O   UNL     1      -9.905  17.626  70.076  1.00  0.00     0.649 OA 
BRANCH  10  11
HETATM   11  C   UNL     1     -11.080  16.915  70.070  1.00  0.00     0.234 C  
HETATM   12  O   UNL     1     -12.165  17.434  69.830  1.00  0.00     2.886 OA 
HETATM   13  C   UNL     1     -10.795  15.396  70.423  1.00  0.00    -0.308 C  
HETATM   14  C   UNL     1     -10.875  14.443  69.212  1.00  0.00    -0.261 A  
HETATM   15  C   UNL     1     -11.704  14.936  71.578  1.00  0.00    -0.394 A  
HETATM   16  O   UNL     1      -9.428  15.325  70.894  1.00  0.00     0.347 OA 
HETATM   17  H   UNL     1      -9.257  14.414  71.106  1.00  0.00     0.000 HD 
HETATM   18  C   UNL     1     -10.127  13.241  69.218  1.00  0.00     0.406 A  
HETATM   19  C   UNL     1     -13.102  14.893  71.437  1.00  0.00    -0.441 A  
HETATM   20  C   UNL     1     -10.156  12.353  68.138  1.00  0.00    -0.224 A  
HETATM   21  C   UNL     1     -13.921  14.472  72.489  1.00  0.00    -0.510 A  
HETATM   22  C   UNL     1     -13.358  14.077  73.703  1.00  0.00     1.597 A  
HETATM   23  C   UNL     1     -10.950  12.628  67.034  1.00  0.00    -0.300 A  
HETATM   24  C   UNL     1     -11.732  13.781  67.019  1.00  0.00    -0.420 A  
HETATM   25  C   UNL     1     -11.980  14.105  73.864  1.00  0.00     1.206 A  
HETATM   26  C   UNL     1     -11.161  14.527  72.813  1.00  0.00     1.609 A  
HETATM   27  C   UNL     1     -11.702  14.676  68.099  1.00  0.00    -0.360 A  
ENDBRANCH  10  11
ENDBRANCH   7  10
TORSDOF 2
ENDMDL
MODEL      217
REMARK 921   NORMALIZED FREE ENERGY PREDICTED BY IDOCK:    9.59 KCAL/MOL
REMARK 922        TOTAL FREE ENERGY PREDICTED BY IDOCK:    9.63 KCAL/MOL
REMARK 923 INTER-LIGAND FREE ENERGY PREDICTED BY IDOCK:    9.29 KCAL/MOL
REMARK 924 INTRA-LIGAND FREE ENERGY PREDICTED BY IDOCK:    0.34 KCAL/MOL
REMARK 927      BINDING AFFINITY PREDICTED BY RF-SCORE:    0.00 PKD
ROOT
HETATM    1  C   UNL     1     -11.867   8.834  72.787  1.00  0.00     0.141 C  
HETATM    2  N   UNL     1     -12.216   8.557  71.333  1.00  0.00    -0.301 N  
HETATM    3  C   UNL     1     -13.619   7.950  71.234  1.00  0.00    -0.168 C  
HETATM    4  C   UNL     1     -13.925   7.659  69.762  1.00  0.00     4.956 C  
HETATM    5  C   UNL     1     -12.766   8.104  68.849  1.00  0.00     5.537 C  
HETATM    6  C   UNL     1     -12.531   9.601  69.082  1.00  0.00     1.811 C  
HETATM    7  C   UNL     1     -11.490   7.325  69.238  1.00  0.00     0.268 C  
HETATM    8  C   UNL     1     -12.191   9.877  70.547  1.00  0.00    -0.179 C  
HETATM    9  C   UNL     1     -11.184   7.556  70.738  1.00  0.00    -0.270 C  
ENDROOT
BRANCH   7  10
HETATM   10  O   UNL     1     -10.449   7.548  68.242  1.00  0.00    -0.197 OA 
BRANCH  10  11
HETATM   11  C   UNL     1      -9.538   8.575  68.237  1.00  0.00    -0.144 C  
HETATM   12  O   UNL     1      -8.681   8.703  69.104  1.00  0.00    -0.134 OA 
HETATM   13  C   UNL     1      -9.790   9.517  66.986  1.00  0.00    -0.190 C  
HETATM   14  C   UNL     1      -8.756   9.349  65.854  1.00  0.00    -0.177 A  
HETATM   15  C   UNL     1      -9.918  10.983  67.437  1.00  0.00    -0.209 A  
HETATM   16  O   UNL     1     -11.065   9.126  66.419  1.00  0.00     0.426 OA 
HETATM   17  H   UNL     1     -11.216   9.690  65.669  1.00  0.00     0.000 HD 
HETATM   18  C   UNL     1      -9.125   9.646  64.519  1.00  0.00    -0.287 A  
HETATM   19  C   UNL     1      -8.841  11.661  68.036  1.00  0.00    -0.162 A  
HETATM   20  C   UNL     1      -8.227   9.497  63.459  1.00  0.00    -0.164 A  
HETATM   21  C   UNL     1      -8.963  12.994  68.441  1.00  0.00    -0.126 A  
HETATM   22  C   UNL     1     -10.162  13.679  68.249  1.00  0.00    -0.243 A  
HETATM   23  C   UNL     1      -6.929   9.071  63.701  1.00  0.00    -0.089 A  
HETATM   24  C   UNL     1      -6.524   8.815  65.009  1.00  0.00    -0.065 A  
HETATM   25  C   UNL     1     -11.237  13.033  67.655  1.00  0.00    -0.315 A  
HETATM   26  C   UNL     1     -11.117  11.701  67.251  1.00  0.00    -0.346 A  
HETATM   27  C   UNL     1      -7.423   8.959  66.076  1.00  0.00    -0.090 A  
ENDBRANCH  10  11
ENDBRANCH   7  10
TORSDOF 2
ENDMDL
MODEL      218
REMARK 921   NORMALIZED FREE ENERGY PREDICTED BY IDOCK:   10.37 KCAL/MOL
REMARK 922        TOTAL FREE ENERGY PREDICTED BY IDOCK:   10.50 KCAL/MOL
REMARK 923 INTER-LIGAND FREE ENERGY PREDICTED BY IDOCK:    2.08 KCAL/MOL
REMARK 924 INTRA-LIGAND FREE ENERGY PREDICTED BY IDOCK:    8.42 KCAL/MOL
REMARK 927      BINDING AFFINITY PREDICTED BY RF-SCORE:    0.00 PKD
ROOT
HETATM    1  C   UNL     1     -11.660   8.690  73.048  1.00  0.00     0.631 C  
HETATM    2  N   UNL     1     -11.659   8.674  71.526  1.00  0.00    -0.282 N  
HETATM    3  C   UNL     1     -13.082   8.875  70.996  1.00  0.00     0.022 C  
HETATM    4  C   UNL     1     -13.046   8.827  69.467  1.00  0.00     3.819 C  
HETATM    5  C   UNL     1     -11.609   8.643  68.944  1.00  0.00     1.063 C  
HETATM    6  C   UNL     1     -10.760   9.800  69.482  1.00  0.00    -0.255 C  
HETATM    7  C   UNL     1     -11.044   7.308  69.480  1.00  0.00    -0.107 C  
HETATM    8  C   UNL     1     -10.773   9.818  71.011  1.00  0.00    -0.272 C  
HETATM    9  C   UNL     1     -11.117   7.305  71.026  1.00  0.00    -0.258 C  
ENDROOT
BRANCH   7  10
HETATM   10  O   UNL     1      -9.787   6.997  68.811  1.00  0.00    -0.148 OA 
BRANCH  10  11
HETATM   11  C   UNL     1      -8.718   6.333  69.361  1.00  0.00    -0.128 C  
HETATM   12  O   UNL     1      -7.693   6.094  68.732  1.00  0.00    -0.093 OA 
HETATM   13  C   UNL     1      -9.038   5.943  70.865  1.00  0.00    -0.149 C  
HETATM   14  C   UNL     1      -8.308   6.813  71.908  1.00  0.00    -0.109 A  
HETATM   15  C   UNL     1      -8.790   4.441  71.092  1.00  0.00    -0.153 A  
HETATM   16  O   UNL     1     -10.452   6.183  71.067  1.00  0.00    -0.212 OA 
HETATM   17  H   UNL     1     -10.644   5.950  71.969  1.00  0.00     0.000 HD 
HETATM   18  C   UNL     1      -8.879   6.993  73.192  1.00  0.00    -0.151 A  
HETATM   19  C   UNL     1      -7.505   3.883  70.966  1.00  0.00    -0.040 A  
HETATM   20  C   UNL     1      -8.261   7.782  74.166  1.00  0.00    -0.282 A  
HETATM   21  C   UNL     1      -7.286   2.519  71.177  1.00  0.00    -0.033 A  
HETATM   22  C   UNL     1      -8.347   1.683  71.526  1.00  0.00    -0.056 A  
HETATM   23  C   UNL     1      -7.046   8.395  73.897  1.00  0.00    -0.156 A  
HETATM   24  C   UNL     1      -6.438   8.200  72.658  1.00  0.00    -0.084 A  
HETATM   25  C   UNL     1      -9.623   2.211  71.661  1.00  0.00    -0.209 A  
HETATM   26  C   UNL     1      -9.843   3.574  71.449  1.00  0.00    -0.214 A  
HETATM   27  C   UNL     1      -7.057   7.411  71.677  1.00  0.00    -0.062 A  
ENDBRANCH  10  11
ENDBRANCH   7  10
TORSDOF 2
ENDMDL
MODEL      219
REMARK 921   NORMALIZED FREE ENERGY PREDICTED BY IDOCK:   10.44 KCAL/MOL
REMARK 922        TOTAL FREE ENERGY PREDICTED BY IDOCK:   10.58 KCAL/MOL
REMARK 923 INTER-LIGAND FREE ENERGY PREDICTED BY IDOCK:    6.81 KCAL/MOL
REMARK 924 INTRA-LIGAND FREE ENERGY PREDICTED BY IDOCK:    3.77 KCAL/MOL
REMARK 927      BINDING AFFINITY PREDICTED BY RF-SCORE:    0.00 PKD
ROOT
HETATM    1  C   UNL     1     -12.236   9.036  67.518  1.00  0.00     6.055 C  
HETATM    2  N   UNL     1     -11.233  10.057  67.002  1.00  0.00     0.061 N  
HETATM    3  C   UNL     1     -10.518   9.512  65.761  1.00  0.00     0.323 C  
HETATM    4  C   UNL     1      -9.500  10.552  65.286  1.00  0.00    -0.281 C  
HETATM    5  C   UNL     1      -9.545  11.821  66.159  1.00  0.00    -0.250 C  
HETATM    6  C   UNL     1     -10.972  12.378  66.108  1.00  0.00    -0.321 C  
HETATM    7  C   UNL     1      -9.201  11.443  67.617  1.00  0.00    -0.158 C  
HETATM    8  C   UNL     1     -11.977  11.345  66.618  1.00  0.00     0.787 C  
HETATM    9  C   UNL     1     -10.181  10.351  68.109  1.00  0.00    -0.161 C  
ENDROOT
BRANCH   7  10
HETATM   10  O   UNL     1      -9.001  12.650  68.409  1.00  0.00    -0.187 OA 
BRANCH  10  11
HETATM   11  C   UNL     1      -8.870  13.928  67.922  1.00  0.00    -0.184 C  
HETATM   12  O   UNL     1      -7.798  14.382  67.538  1.00  0.00    -0.163 OA 
HETATM   13  C   UNL     1     -10.272  14.667  67.959  1.00  0.00    -0.231 C  
HETATM   14  C   UNL     1     -10.940  14.817  66.577  1.00  0.00    -0.325 A  
HETATM   15  C   UNL     1     -10.146  16.018  68.687  1.00  0.00    -0.220 A  
HETATM   16  O   UNL     1     -11.164  13.836  68.742  1.00  0.00    -0.244 OA 
HETATM   17  H   UNL     1     -12.004  14.279  68.763  1.00  0.00     0.000 HD 
HETATM   18  C   UNL     1     -12.351  14.909  66.487  1.00  0.00     0.252 A  
HETATM   19  C   UNL     1      -9.341  17.052  68.177  1.00  0.00    -0.254 A  
HETATM   20  C   UNL     1     -13.002  15.032  65.256  1.00  0.00     0.593 A  
HETATM   21  C   UNL     1      -9.232  18.277  68.842  1.00  0.00    -0.185 A  
HETATM   22  C   UNL     1      -9.934  18.497  70.028  1.00  0.00     1.016 A  
HETATM   23  C   UNL     1     -12.264  15.092  64.083  1.00  0.00    -0.234 A  
HETATM   24  C   UNL     1     -10.873  15.050  64.143  1.00  0.00     0.594 A  
HETATM   25  C   UNL     1     -10.739  17.494  70.548  1.00  0.00     1.289 A  
HETATM   26  C   UNL     1     -10.847  16.268  69.884  1.00  0.00    -0.352 A  
HETATM   27  C   UNL     1     -10.216  14.922  65.376  1.00  0.00    -0.409 A  
ENDBRANCH  10  11
ENDBRANCH   7  10
TORSDOF 2
ENDMDL
MODEL      220
REMARK 921   NORMALIZED FREE ENERGY PREDICTED BY IDOCK:   12.12 KCAL/MOL
REMARK 922        TOTAL FREE ENERGY PREDICTED BY IDOCK:   12.46 KCAL/MOL
REMARK 923 INTER-LIGAND FREE ENERGY PREDICTED BY IDOCK:   13.01 KCAL/MOL
REMARK 924 INTRA-LIGAND FREE ENERGY PREDICTED BY IDOCK:   -0.55 KCAL/MOL
REMARK 927      BINDING AFFINITY PREDICTED BY RF-SCORE:    0.00 PKD
ROOT
HETATM    1  C   UNL     1      -5.504  11.289  67.340  1.00  0.00    -0.052 C  
HETATM    2  N   UNL     1      -6.841  11.975  67.579  1.00  0.00    -0.115 N  
HETATM    3  C   UNL     1      -7.982  10.959  67.464  1.00  0.00    -0.115 C  
HETATM    4  C   UNL     1      -9.310  11.688  67.683  1.00  0.00    -0.178 C  
HETATM    5  C   UNL     1      -9.088  13.181  67.993  1.00  0.00    -0.207 C  
HETATM    6  C   UNL     1      -8.192  13.276  69.233  1.00  0.00     0.677 C  
HETATM    7  C   UNL     1      -8.368  13.843  66.797  1.00  0.00     0.109 C  
HETATM    8  C   UNL     1      -6.854  12.576  68.993  1.00  0.00    -0.089 C  
HETATM    9  C   UNL     1      -7.044  13.093  66.516  1.00  0.00     1.703 C  
ENDROOT
BRANCH   7  10
HETATM   10  O   UNL     1      -8.362  15.291  66.961  1.00  0.00    -0.201 OA 
BRANCH  10  11
HETATM   11  C   UNL     1      -9.458  16.117  66.925  1.00  0.00    -0.230 C  
HETATM   12  O   UNL     1     -10.523  15.779  66.420  1.00  0.00    -0.290 OA 
HETATM   13  C   UNL     1      -9.112  17.508  67.604  1.00  0.00    -0.243 C  
HETATM   14  C   UNL     1      -9.727  17.693  69.007  1.00  0.00    -0.189 A  
HETATM   15  C   UNL     1      -9.472  18.668  66.659  1.00  0.00    -0.328 A  
HETATM   16  O   UNL     1      -7.677  17.534  67.794  1.00  0.00    -0.198 OA 
HETATM   17  H   UNL     1      -7.469  18.368  68.201  1.00  0.00     0.000 HD 
HETATM   18  C   UNL     1      -9.093  18.547  69.941  1.00  0.00     1.280 A  
HETATM   19  C   UNL     1     -10.803  18.913  66.273  1.00  0.00    -0.216 A  
HETATM   20  C   UNL     1      -9.605  18.736  71.228  1.00  0.00     4.547 A  
HETATM   21  C   UNL     1     -11.123  19.970  65.417  1.00  0.00     0.185 A  
HETATM   22  C   UNL     1     -10.121  20.812  64.934  1.00  0.00     1.610 A  
HETATM   23  C   UNL     1     -10.776  18.098  71.611  1.00  0.00     3.064 A  
HETATM   24  C   UNL     1     -11.447  17.287  70.698  1.00  0.00     1.678 A  
HETATM   25  C   UNL     1      -8.801  20.594  65.305  1.00  0.00     1.107 A  
HETATM   26  C   UNL     1      -8.480  19.536  66.160  1.00  0.00    -0.329 A  
HETATM   27  C   UNL     1     -10.934  17.092  69.407  1.00  0.00     0.031 A  
ENDBRANCH  10  11
ENDBRANCH   7  10
TORSDOF 2
ENDMDL
MODEL      221
REMARK 921   NORMALIZED FREE ENERGY PREDICTED BY IDOCK:   19.14 KCAL/MOL
REMARK 922        TOTAL FREE ENERGY PREDICTED BY IDOCK:   20.29 KCAL/MOL
REMARK 923 INTER-LIGAND FREE ENERGY PREDICTED BY IDOCK:   18.19 KCAL/MOL
REMARK 924 INTRA-LIGAND FREE ENERGY PREDICTED BY IDOCK:    2.10 KCAL/MOL
REMARK 927      BINDING AFFINITY PREDICTED BY RF-SCORE:    0.00 PKD
ROOT
HETATM    1  C   UNL     1      -5.716  14.478  70.573  1.00  0.00    -0.159 C  
HETATM    2  N   UNL     1      -7.191  14.288  70.252  1.00  0.00     0.307 N  
HETATM    3  C   UNL     1      -7.438  12.869  69.732  1.00  0.00     1.022 C  
HETATM    4  C   UNL     1      -8.924  12.723  69.395  1.00  0.00     1.279 C  
HETATM    5  C   UNL     1      -9.704  14.010  69.722  1.00  0.00     0.979 C  
HETATM    6  C   UNL     1      -9.501  14.318  71.210  1.00  0.00     4.888 C  
HETATM    7  C   UNL     1      -9.133  15.174  68.882  1.00  0.00    -0.206 C  
HETATM    8  C   UNL     1      -8.017  14.498  71.530  1.00  0.00     4.271 C  
HETATM    9  C   UNL     1      -7.617  15.312  69.161  1.00  0.00    -0.192 C  
ENDROOT
BRANCH   7  10
HETATM   10  O   UNL     1     -10.001  16.339  68.992  1.00  0.00    -0.231 OA 
BRANCH  10  11
HETATM   11  C   UNL     1     -10.587  17.016  67.951  1.00  0.00    -0.365 C  
HETATM   12  O   UNL     1     -11.582  17.717  68.094  1.00  0.00     0.567 OA 
HETATM   13  C   UNL     1      -9.796  16.731  66.606  1.00  0.00    -0.277 C  
HETATM   14  C   UNL     1      -8.919  17.907  66.131  1.00  0.00    -0.122 A  
HETATM   15  C   UNL     1     -10.763  16.253  65.508  1.00  0.00    -0.326 A  
HETATM   16  O   UNL     1      -8.883  15.641  66.881  1.00  0.00    -0.212 OA 
HETATM   17  H   UNL     1      -8.408  15.470  66.076  1.00  0.00     0.000 HD 
HETATM   18  C   UNL     1      -7.771  17.650  65.342  1.00  0.00     1.080 A  
HETATM   19  C   UNL     1     -11.782  17.088  65.015  1.00  0.00     1.394 A  
HETATM   20  C   UNL     1      -6.939  18.682  64.899  1.00  0.00     0.765 A  
HETATM   21  C   UNL     1     -12.655  16.649  64.016  1.00  0.00     3.351 A  
HETATM   22  C   UNL     1     -12.523  15.367  63.481  1.00  0.00     1.094 A  
HETATM   23  C   UNL     1      -7.239  20.000  65.211  1.00  0.00    -0.176 A  
HETATM   24  C   UNL     1      -8.387  20.287  65.947  1.00  0.00    -0.026 A  
HETATM   25  C   UNL     1     -11.522  14.527  63.947  1.00  0.00     0.289 A  
HETATM   26  C   UNL     1     -10.649  14.964  64.947  1.00  0.00    -0.417 A  
HETATM   27  C   UNL     1      -9.223  19.254  66.397  1.00  0.00    -0.386 A  
ENDBRANCH  10  11
ENDBRANCH   7  10
TORSDOF 2
ENDMDL
MODEL      222
REMARK 921   NORMALIZED FREE ENERGY PREDICTED BY IDOCK:   20.57 KCAL/MOL
REMARK 922        TOTAL FREE ENERGY PREDICTED BY IDOCK:   21.89 KCAL/MOL
REMARK 923 INTER-LIGAND FREE ENERGY PREDICTED BY IDOCK:   20.31 KCAL/MOL
REMARK 924 INTRA-LIGAND FREE ENERGY PREDICTED BY IDOCK:    1.58 KCAL/MOL
REMARK 927      BINDING AFFINITY PREDICTED BY RF-SCORE:    0.00 PKD
ROOT
HETATM    1  C   UNL     1      -9.947  11.890  63.959  1.00  0.00    -0.293 C  
HETATM    2  N   UNL     1     -11.046  12.537  64.789  1.00  0.00    -0.291 N  
HETATM    3  C   UNL     1     -10.738  14.022  65.003  1.00  0.00    -0.396 C  
HETATM    4  C   UNL     1     -11.849  14.632  65.862  1.00  0.00    -0.272 C  
HETATM    5  C   UNL     1     -12.936  13.594  66.198  1.00  0.00     0.074 C  
HETATM    6  C   UNL     1     -13.492  13.050  64.877  1.00  0.00     0.976 C  
HETATM    7  C   UNL     1     -12.296  12.433  66.993  1.00  0.00     0.544 C  
HETATM    8  C   UNL     1     -12.382  12.411  64.042  1.00  0.00    -0.488 C  
HETATM    9  C   UNL     1     -11.132  11.829  66.171  1.00  0.00    -0.307 C  
ENDROOT
BRANCH   7  10
HETATM   10  O   UNL     1     -13.337  11.564  67.526  1.00  0.00     4.989 OA 
BRANCH  10  11
HETATM   11  C   UNL     1     -13.350  10.982  68.770  1.00  0.00     4.219 C  
HETATM   12  O   UNL     1     -14.122  10.078  69.069  1.00  0.00     4.057 OA 
HETATM   13  C   UNL     1     -12.259  11.664  69.698  1.00  0.00    -0.206 C  
HETATM   14  C   UNL     1     -11.004  10.799  69.931  1.00  0.00    -0.304 A  
HETATM   15  C   UNL     1     -12.896  12.125  71.022  1.00  0.00    -0.258 A  
HETATM   16  O   UNL     1     -11.801  12.849  69.003  1.00  0.00    -0.299 OA 
HETATM   17  H   UNL     1     -11.147  13.258  69.559  1.00  0.00     0.000 HD 
HETATM   18  C   UNL     1      -9.766  11.425  70.218  1.00  0.00     2.437 A  
HETATM   19  C   UNL     1     -13.444  11.203  71.932  1.00  0.00    -0.284 A  
HETATM   20  C   UNL     1      -8.599  10.684  70.424  1.00  0.00     1.500 A  
HETATM   21  C   UNL     1     -14.017  11.628  73.133  1.00  0.00     3.213 A  
HETATM   22  C   UNL     1     -14.049  12.985  73.455  1.00  0.00     3.489 A  
HETATM   23  C   UNL     1      -8.637   9.298  70.374  1.00  0.00    -0.250 A  
HETATM   24  C   UNL     1      -9.849   8.653  70.139  1.00  0.00    -0.191 A  
HETATM   25  C   UNL     1     -13.510  13.914  72.576  1.00  0.00    -0.676 A  
HETATM   26  C   UNL     1     -12.937  13.490  71.374  1.00  0.00    -0.421 A  
HETATM   27  C   UNL     1     -11.023   9.393  69.928  1.00  0.00    -0.251 A  
ENDBRANCH  10  11
ENDBRANCH   7  10
TORSDOF 2
ENDMDL
MODEL      223
REMARK 921   NORMALIZED FREE ENERGY PREDICTED BY IDOCK:   27.06 KCAL/MOL
REMARK 922        TOTAL FREE ENERGY PREDICTED BY IDOCK:   29.14 KCAL/MOL
REMARK 923 INTER-LIGAND FREE ENERGY PREDICTED BY IDOCK:   22.95 KCAL/MOL
REMARK 924 INTRA-LIGAND FREE ENERGY PREDICTED BY IDOCK:    6.19 KCAL/MOL
REMARK 927      BINDING AFFINITY PREDICTED BY RF-SCORE:    0.00 PKD
ROOT
HETATM    1  C   UNL     1     -14.350  14.870  72.684  1.00  0.00     0.060 C  
HETATM    2  N   UNL     1     -13.198  15.137  71.726  1.00  0.00    -0.362 N  
HETATM    3  C   UNL     1     -13.230  14.129  70.572  1.00  0.00     0.039 C  
HETATM    4  C   UNL     1     -12.044  14.410  69.645  1.00  0.00    -0.381 C  
HETATM    5  C   UNL     1     -11.230  15.626  70.126  1.00  0.00    -0.346 C  
HETATM    6  C   UNL     1     -12.178  16.829  70.194  1.00  0.00     1.993 C  
HETATM    7  C   UNL     1     -10.677  15.337  71.539  1.00  0.00     0.295 C  
HETATM    8  C   UNL     1     -13.339  16.554  71.150  1.00  0.00     3.239 C  
HETATM    9  C   UNL     1     -11.850  14.996  72.489  1.00  0.00    -0.320 C  
ENDROOT
BRANCH   7  10
HETATM   10  O   UNL     1      -9.713  16.363  71.915  1.00  0.00     4.720 OA 
BRANCH  10  11
HETATM   11  C   UNL     1      -8.468  16.546  71.365  1.00  0.00     7.532 C  
HETATM   12  O   UNL     1      -7.510  16.949  72.016  1.00  0.00     8.146 OA 
HETATM   13  C   UNL     1      -8.496  16.176  69.823  1.00  0.00     0.438 C  
HETATM   14  C   UNL     1      -7.823  14.830  69.487  1.00  0.00    -0.042 A  
HETATM   15  C   UNL     1      -7.922  17.333  68.985  1.00  0.00    -0.121 A  
HETATM   16  O   UNL     1      -9.889  16.026  69.455  1.00  0.00    -0.254 OA 
HETATM   17  H   UNL     1      -9.906  15.804  68.531  1.00  0.00     0.000 HD 
HETATM   18  C   UNL     1      -8.240  14.105  68.345  1.00  0.00    -0.149 A  
HETATM   19  C   UNL     1      -6.580  17.734  69.112  1.00  0.00    -0.246 A  
HETATM   20  C   UNL     1      -7.669  12.875  68.007  1.00  0.00    -0.143 A  
HETATM   21  C   UNL     1      -6.064  18.783  68.345  1.00  0.00    -0.224 A  
HETATM   22  C   UNL     1      -6.878  19.449  67.429  1.00  0.00    -0.226 A  
HETATM   23  C   UNL     1      -6.650  12.344  68.785  1.00  0.00    -0.088 A  
HETATM   24  C   UNL     1      -6.187  13.056  69.890  1.00  0.00    -0.089 A  
HETATM   25  C   UNL     1      -8.204  19.069  67.282  1.00  0.00    -0.294 A  
HETATM   26  C   UNL     1      -8.721  18.021  68.049  1.00  0.00    -0.264 A  
HETATM   27  C   UNL     1      -6.761  14.290  70.234  1.00  0.00     0.034 A  
ENDBRANCH  10  11
ENDBRANCH   7  10
TORSDOF 2
ENDMDL
MODEL      224
REMARK 921   NORMALIZED FREE ENERGY PREDICTED BY IDOCK:   31.44 KCAL/MOL
REMARK 922        TOTAL FREE ENERGY PREDICTED BY IDOCK:   34.03 KCAL/MOL
REMARK 923 INTER-LIGAND FREE ENERGY PREDICTED BY IDOCK:   28.57 KCAL/MOL
REMARK 924 INTRA-LIGAND FREE ENERGY PREDICTED BY IDOCK:    5.46 KCAL/MOL
REMARK 927      BINDING AFFINITY PREDICTED BY RF-SCORE:    0.00 PKD
ROOT
HETATM    1  C   UNL     1     -10.820  11.777  66.945  1.00  0.00    -0.271 C  
HETATM    2  N   UNL     1     -11.618  12.756  67.793  1.00  0.00    -0.332 N  
HETATM    3  C   UNL     1     -12.651  13.483  66.927  1.00  0.00     0.087 C  
HETATM    4  C   UNL     1     -13.416  14.476  67.806  1.00  0.00     5.083 C  
HETATM    5  C   UNL     1     -12.950  14.402  69.273  1.00  0.00     0.920 C  
HETATM    6  C   UNL     1     -13.150  12.962  69.759  1.00  0.00     1.223 C  
HETATM    7  C   UNL     1     -11.448  14.755  69.343  1.00  0.00    -0.301 C  
HETATM    8  C   UNL     1     -12.355  11.982  68.897  1.00  0.00     0.241 C  
HETATM    9  C   UNL     1     -10.652  13.801  68.421  1.00  0.00    -0.253 C  
ENDROOT
BRANCH   7  10
HETATM   10  O   UNL     1     -11.043  14.928  70.733  1.00  0.00    -0.222 OA 
BRANCH  10  11
HETATM   11  C   UNL     1      -9.902  14.430  71.313  1.00  0.00     3.707 C  
HETATM   12  O   UNL     1      -9.840  14.135  72.502  1.00  0.00     5.515 OA 
HETATM   13  C   UNL     1      -8.746  14.324  70.233  1.00  0.00     2.006 C  
HETATM   14  C   UNL     1      -8.454  12.885  69.763  1.00  0.00     2.257 A  
HETATM   15  C   UNL     1      -7.477  15.035  70.738  1.00  0.00     1.215 A  
HETATM   16  O   UNL     1      -9.204  15.040  69.060  1.00  0.00    -0.201 OA 
HETATM   17  H   UNL     1      -8.511  14.976  68.412  1.00  0.00     0.000 HD 
HETATM   18  C   UNL     1      -7.913  12.666  68.472  1.00  0.00    -0.093 A  
HETATM   19  C   UNL     1      -6.786  14.579  71.875  1.00  0.00     1.572 A  
HETATM   20  C   UNL     1      -7.645  11.379  67.997  1.00  0.00    -0.110 A  
HETATM   21  C   UNL     1      -5.632  15.227  72.326  1.00  0.00     0.469 A  
HETATM   22  C   UNL     1      -5.139  16.340  71.644  1.00  0.00     0.118 A  
HETATM   23  C   UNL     1      -7.885  10.276  68.804  1.00  0.00    -0.106 A  
HETATM   24  C   UNL     1      -8.374  10.463  70.095  1.00  0.00     0.375 A  
HETATM   25  C   UNL     1      -5.800  16.804  70.516  1.00  0.00     0.069 A  
HETATM   26  C   UNL     1      -6.955  16.158  70.065  1.00  0.00     0.306 A  
HETATM   27  C   UNL     1      -8.648  11.753  70.574  1.00  0.00     5.294 A  
ENDBRANCH  10  11
ENDBRANCH   7  10
TORSDOF 2
ENDMDL
MODEL      225
REMARK 921   NORMALIZED FREE ENERGY PREDICTED BY IDOCK:   33.39 KCAL/MOL
REMARK 922        TOTAL FREE ENERGY PREDICTED BY IDOCK:   36.21 KCAL/MOL
REMARK 923 INTER-LIGAND FREE ENERGY PREDICTED BY IDOCK:   17.13 KCAL/MOL
REMARK 924 INTRA-LIGAND FREE ENERGY PREDICTED BY IDOCK:   19.08 KCAL/MOL
REMARK 927      BINDING AFFINITY PREDICTED BY RF-SCORE:    0.00 PKD
ROOT
HETATM    1  C   UNL     1     -10.516  10.428  62.985  1.00  0.00     0.795 C  
HETATM    2  N   UNL     1      -9.345  10.710  63.914  1.00  0.00    -0.243 N  
HETATM    3  C   UNL     1      -8.822  12.132  63.684  1.00  0.00     1.206 C  
HETATM    4  C   UNL     1      -7.630  12.370  64.615  1.00  0.00     5.198 C  
HETATM    5  C   UNL     1      -7.362  11.147  65.511  1.00  0.00     0.337 C  
HETATM    6  C   UNL     1      -8.639  10.858  66.308  1.00  0.00    -0.164 C  
HETATM    7  C   UNL     1      -7.038   9.928  64.617  1.00  0.00    -0.137 C  
HETATM    8  C   UNL     1      -9.816  10.585  65.371  1.00  0.00    -0.274 C  
HETATM    9  C   UNL     1      -8.204   9.693  63.627  1.00  0.00    -0.162 C  
ENDROOT
BRANCH   7  10
HETATM   10  O   UNL     1      -6.548   8.827  65.438  1.00  0.00    -0.066 OA 
BRANCH  10  11
HETATM   11  C   UNL     1      -7.246   7.693  65.774  1.00  0.00    -0.065 C  
HETATM   12  O   UNL     1      -6.706   6.702  66.253  1.00  0.00    -0.046 OA 
HETATM   13  C   UNL     1      -8.784   7.883  65.435  1.00  0.00    -0.046 C  
HETATM   14  C   UNL     1      -9.676   8.113  66.672  1.00  0.00    -0.318 A  
HETATM   15  C   UNL     1      -9.289   6.714  64.569  1.00  0.00     1.568 A  
HETATM   16  O   UNL     1      -8.891   9.088  64.639  1.00  0.00    -0.299 OA 
HETATM   17  H   UNL     1      -9.813   9.202  64.436  1.00  0.00     0.000 HD 
HETATM   18  C   UNL     1     -10.885   8.838  66.537  1.00  0.00     0.414 A  
HETATM   19  C   UNL     1      -9.311   5.396  65.059  1.00  0.00     0.166 A  
HETATM   20  C   UNL     1     -11.720   9.083  67.632  1.00  0.00     2.409 A  
HETATM   21  C   UNL     1      -9.773   4.340  64.269  1.00  0.00    -0.110 A  
HETATM   22  C   UNL     1     -10.232   4.581  62.973  1.00  0.00     0.211 A  
HETATM   23  C   UNL     1     -11.385   8.592  68.885  1.00  0.00     0.591 A  
HETATM   24  C   UNL     1     -10.224   7.837  69.039  1.00  0.00    -0.213 A  
HETATM   25  C   UNL     1     -10.225   5.873  62.470  1.00  0.00     2.528 A  
HETATM   26  C   UNL     1      -9.762   6.930  63.259  1.00  0.00     3.993 A  
HETATM   27  C   UNL     1      -9.382   7.592  67.944  1.00  0.00    -0.144 A  
ENDBRANCH  10  11
ENDBRANCH   7  10
TORSDOF 2
ENDMDL
MODEL      226
REMARK 921   NORMALIZED FREE ENERGY PREDICTED BY IDOCK:   60.41 KCAL/MOL
REMARK 922        TOTAL FREE ENERGY PREDICTED BY IDOCK:   66.39 KCAL/MOL
REMARK 923 INTER-LIGAND FREE ENERGY PREDICTED BY IDOCK:   62.03 KCAL/MOL
REMARK 924 INTRA-LIGAND FREE ENERGY PREDICTED BY IDOCK:    4.36 KCAL/MOL
REMARK 927      BINDING AFFINITY PREDICTED BY RF-SCORE:    0.00 PKD
ROOT
HETATM    1  C   UNL     1     -12.752   9.045  67.393  1.00  0.00    11.041 C  
HETATM    2  N   UNL     1     -11.599   9.998  67.116  1.00  0.00     0.841 N  
HETATM    3  C   UNL     1     -11.060   9.775  65.699  1.00  0.00     1.671 C  
HETATM    4  C   UNL     1      -9.887  10.731  65.466  1.00  0.00    -0.309 C  
HETATM    5  C   UNL     1      -9.647  11.636  66.689  1.00  0.00    -0.220 C  
HETATM    6  C   UNL     1     -10.943  12.406  66.966  1.00  0.00    -0.303 C  
HETATM    7  C   UNL     1      -9.313  10.753  67.912  1.00  0.00    -0.150 C  
HETATM    8  C   UNL     1     -12.101  11.445  67.233  1.00  0.00     0.677 C  
HETATM    9  C   UNL     1     -10.459   9.739  68.142  1.00  0.00    -0.216 C  
ENDROOT
BRANCH   7  10
HETATM   10  O   UNL     1      -8.849  11.587  69.014  1.00  0.00    -0.018 OA 
BRANCH  10  11
HETATM   11  C   UNL     1      -7.737  12.392  69.010  1.00  0.00     0.170 C  
HETATM   12  O   UNL     1      -6.771  12.190  69.738  1.00  0.00    -0.043 OA 
HETATM   13  C   UNL     1      -7.924  13.569  67.964  1.00  0.00    -0.151 C  
HETATM   14  C   UNL     1      -7.105  13.396  66.669  1.00  0.00     1.484 A  
HETATM   15  C   UNL     1      -7.659  14.929  68.636  1.00  0.00    -0.124 A  
HETATM   16  O   UNL     1      -9.314  13.552  67.559  1.00  0.00    -0.205 OA 
HETATM   17  H   UNL     1      -9.427  14.257  66.932  1.00  0.00     0.000 HD 
HETATM   18  C   UNL     1      -7.561  13.990  65.467  1.00  0.00     6.590 A  
HETATM   19  C   UNL     1      -6.390  15.259  69.146  1.00  0.00    -0.118 A  
HETATM   20  C   UNL     1      -6.860  13.849  64.266  1.00  0.00    21.526 A  
HETATM   21  C   UNL     1      -6.155  16.496  69.752  1.00  0.00    -0.215 A  
HETATM   22  C   UNL     1      -7.182  17.435  69.854  1.00  0.00     0.800 A  
HETATM   23  C   UNL     1      -5.672  13.133  64.235  1.00  0.00    13.722 A  
HETATM   24  C   UNL     1      -5.175  12.574  65.410  1.00  0.00     4.418 A  
HETATM   25  C   UNL     1      -8.441  17.134  69.354  1.00  0.00     0.341 A  
HETATM   26  C   UNL     1      -8.677  15.897  68.749  1.00  0.00    -0.213 A  
HETATM   27  C   UNL     1      -5.878  12.710  66.617  1.00  0.00     1.029 A  
ENDBRANCH  10  11
ENDBRANCH   7  10
TORSDOF 2
ENDMDL
MODEL      227
REMARK 921   NORMALIZED FREE ENERGY PREDICTED BY IDOCK:   75.03 KCAL/MOL
REMARK 922        TOTAL FREE ENERGY PREDICTED BY IDOCK:   82.72 KCAL/MOL
REMARK 923 INTER-LIGAND FREE ENERGY PREDICTED BY IDOCK:   76.53 KCAL/MOL
REMARK 924 INTRA-LIGAND FREE ENERGY PREDICTED BY IDOCK:    6.19 KCAL/MOL
REMARK 927      BINDING AFFINITY PREDICTED BY RF-SCORE:    0.00 PKD
ROOT
HETATM    1  C   UNL     1     -14.370  14.901  72.737  1.00  0.00     0.333 C  
HETATM    2  N   UNL     1     -13.072  15.470  72.183  1.00  0.00    -0.402 N  
HETATM    3  C   UNL     1     -12.656  14.703  70.924  1.00  0.00    -0.342 C  
HETATM    4  C   UNL     1     -11.335  15.284  70.412  1.00  0.00    -0.325 C  
HETATM    5  C   UNL     1     -10.868  16.469  71.278  1.00  0.00     0.702 C  
HETATM    6  C   UNL     1     -11.979  17.525  71.270  1.00  0.00     4.169 C  
HETATM    7  C   UNL     1     -10.648  15.979  72.727  1.00  0.00     3.196 C  
HETATM    8  C   UNL     1     -13.284  16.946  71.816  1.00  0.00     4.544 C  
HETATM    9  C   UNL     1     -11.953  15.336  73.255  1.00  0.00    -0.422 C  
ENDROOT
BRANCH   7  10
HETATM   10  O   UNL     1      -9.981  17.015  73.506  1.00  0.00     8.061 OA 
BRANCH  10  11
HETATM   11  C   UNL     1      -8.690  17.451  73.337  1.00  0.00    16.908 C  
HETATM   12  O   UNL     1      -8.101  18.115  74.183  1.00  0.00     8.510 OA 
HETATM   13  C   UNL     1      -8.138  16.980  71.927  1.00  0.00    11.938 C  
HETATM   14  C   UNL     1      -7.132  15.813  72.004  1.00  0.00     4.868 A  
HETATM   15  C   UNL     1      -7.571  18.179  71.146  1.00  0.00     5.712 A  
HETATM   16  O   UNL     1      -9.273  16.476  71.181  1.00  0.00     3.879 OA 
HETATM   17  H   UNL     1      -8.942  16.193  70.337  1.00  0.00     0.000 HD 
HETATM   18  C   UNL     1      -6.996  14.933  70.904  1.00  0.00     0.774 A  
HETATM   19  C   UNL     1      -6.456  18.897  71.614  1.00  0.00     1.723 A  
HETATM   20  C   UNL     1      -6.107  13.854  70.932  1.00  0.00    -0.100 A  
HETATM   21  C   UNL     1      -5.944  19.983  70.899  1.00  0.00    -0.337 A  
HETATM   22  C   UNL     1      -6.533  20.371  69.695  1.00  0.00    -0.197 A  
HETATM   23  C   UNL     1      -5.312  13.637  72.048  1.00  0.00    -0.164 A  
HETATM   24  C   UNL     1      -5.391  14.514  73.128  1.00  0.00    -0.216 A  
HETATM   25  C   UNL     1      -7.631  19.676  69.210  1.00  0.00    -0.210 A  
HETATM   26  C   UNL     1      -8.144  18.590  69.925  1.00  0.00     1.243 A  
HETATM   27  C   UNL     1      -6.285  15.595  73.106  1.00  0.00     2.685 A  
ENDBRANCH  10  11
ENDBRANCH   7  10
TORSDOF 2
ENDMDL
MODEL      228
REMARK 921   NORMALIZED FREE ENERGY PREDICTED BY IDOCK:   76.93 KCAL/MOL
REMARK 922        TOTAL FREE ENERGY PREDICTED BY IDOCK:   84.85 KCAL/MOL
REMARK 923 INTER-LIGAND FREE ENERGY PREDICTED BY IDOCK:   78.51 KCAL/MOL
REMARK 924 INTRA-LIGAND FREE ENERGY PREDICTED BY IDOCK:    6.33 KCAL/MOL
REMARK 927      BINDING AFFINITY PREDICTED BY RF-SCORE:    0.00 PKD
ROOT
HETATM    1  C   UNL     1     -11.930   8.466  68.819  1.00  0.00     2.452 C  
HETATM    2  N   UNL     1     -10.634   9.133  68.386  1.00  0.00    -0.201 N  
HETATM    3  C   UNL     1     -10.377   8.870  66.899  1.00  0.00    -0.262 C  
HETATM    4  C   UNL     1      -9.054   9.532  66.506  1.00  0.00    -0.185 C  
HETATM    5  C   UNL     1      -8.426  10.284  67.695  1.00  0.00    -0.118 C  
HETATM    6  C   UNL     1      -9.442  11.322  68.185  1.00  0.00    -0.184 C  
HETATM    7  C   UNL     1      -8.142   9.279  68.834  1.00  0.00    -0.103 C  
HETATM    8  C   UNL     1     -10.747  10.649  68.608  1.00  0.00    -0.207 C  
HETATM    9  C   UNL     1      -9.454   8.553  69.218  1.00  0.00    -0.158 C  
ENDROOT
BRANCH   7  10
HETATM   10  O   UNL     1      -7.335   9.916  69.868  1.00  0.00    -0.109 OA 
BRANCH  10  11
HETATM   11  C   UNL     1      -7.783  10.366  71.085  1.00  0.00     2.305 C  
HETATM   12  O   UNL     1      -7.703   9.695  72.108  1.00  0.00     0.530 OA 
HETATM   13  C   UNL     1      -8.398  11.820  70.932  1.00  0.00     7.493 C  
HETATM   14  C   UNL     1      -7.500  12.944  71.485  1.00  0.00     7.626 A  
HETATM   15  C   UNL     1      -9.815  11.866  71.532  1.00  0.00    11.627 A  
HETATM   16  O   UNL     1      -8.522  12.073  69.511  1.00  0.00     0.176 OA 
HETATM   17  H   UNL     1      -8.891  12.945  69.419  1.00  0.00     0.000 HD 
HETATM   18  C   UNL     1      -7.600  14.250  70.946  1.00  0.00     2.267 A  
HETATM   19  C   UNL     1     -10.037  11.654  72.905  1.00  0.00    19.370 A  
HETATM   20  C   UNL     1      -6.798  15.298  71.405  1.00  0.00     1.620 A  
HETATM   21  C   UNL     1     -11.325  11.701  73.445  1.00  0.00    13.742 A  
HETATM   22  C   UNL     1     -12.421  11.969  72.623  1.00  0.00     2.397 A  
HETATM   23  C   UNL     1      -5.890  15.080  72.431  1.00  0.00     0.617 A  
HETATM   24  C   UNL     1      -5.800  13.817  73.012  1.00  0.00     0.374 A  
HETATM   25  C   UNL     1     -12.227  12.187  71.267  1.00  0.00     0.005 A  
HETATM   26  C   UNL     1     -10.939  12.139  70.726  1.00  0.00     2.429 A  
HETATM   27  C   UNL     1      -6.601  12.761  72.551  1.00  0.00     5.008 A  
ENDBRANCH  10  11
ENDBRANCH   7  10
TORSDOF 2
ENDMDL
