MODEL        1
REMARK 921   NORMALIZED FREE ENERGY PREDICTED BY IDOCK:   -7.62 KCAL/MOL
REMARK 922        TOTAL FREE ENERGY PREDICTED BY IDOCK:   -8.11 KCAL/MOL
REMARK 923 INTER-LIGAND FREE ENERGY PREDICTED BY IDOCK:   -8.06 KCAL/MOL
REMARK 924 INTRA-LIGAND FREE ENERGY PREDICTED BY IDOCK:   -0.04 KCAL/MOL
REMARK 927      BINDING AFFINITY PREDICTED BY RF-SCORE:    0.00 PKD
ROOT
HETATM    1  C   UNL     1     -11.568  12.295  67.578  1.00  0.00    -0.422 C  
HETATM    2  C   UNL     1     -10.714  11.809  68.787  1.00  0.00    -0.255 C  
HETATM    3  C   UNL     1     -12.245  13.616  68.130  1.00  0.00    -0.164 C  
HETATM    4  C   UNL     1     -11.340  14.664  67.468  1.00  0.00    -0.361 C  
HETATM    5  C   UNL     1     -10.410  15.782  68.079  1.00  0.00    -0.252 C  
HETATM    6  C   UNL     1      -9.458  15.155  69.186  1.00  0.00    -0.221 C  
HETATM    7  C   UNL     1      -8.250  16.000  69.562  1.00  0.00    -0.018 C  
HETATM    8  C   UNL     1      -7.439  16.420  68.338  1.00  0.00    -0.171 C  
HETATM    9  C   UNL     1      -6.152  16.777  68.516  1.00  0.00    -0.136 C  
HETATM   10  C   UNL     1      -6.200  18.138  69.161  1.00  0.00    -0.244 C  
HETATM   11  O   UNL     1      -5.311  18.505  69.918  1.00  0.00    -0.194 OA 
HETATM   12  C   UNL     1      -7.383  19.021  68.804  1.00  0.00    -0.366 C  
HETATM   13  C   UNL     1      -8.361  18.607  67.957  1.00  0.00    -0.299 C  
HETATM   14  C   UNL     1      -8.272  17.231  67.307  1.00  0.00    -0.213 C  
HETATM   15  C   UNL     1      -9.438  16.278  66.973  1.00  0.00    -0.226 C  
HETATM   16  C   UNL     1      -7.501  17.468  65.956  1.00  0.00    -0.274 C  
HETATM   17  C   UNL     1     -10.334  16.585  65.777  1.00  0.00    -0.341 C  
HETATM   18  F   UNL     1      -8.734  15.142  66.572  1.00  0.00    -0.268 F  
HETATM   19  C   UNL     1     -10.678  15.316  65.019  1.00  0.00    -0.461 C  
HETATM   20  O   UNL     1     -10.804  17.700  65.532  1.00  0.00    -0.462 OA 
HETATM   21  C   UNL     1     -11.420  14.289  65.933  1.00  0.00    -0.335 C  
HETATM   22  C   UNL     1     -12.884  14.308  65.385  1.00  0.00    -0.321 C  
HETATM   23  C   UNL     1     -10.836  12.783  66.173  1.00  0.00    -0.279 C  
HETATM   24  H   UNL     1      -8.976  13.143  65.594  1.00  0.00     0.000 HD 
HETATM   25  O   UNL     1      -9.396  12.863  66.399  1.00  0.00    -0.243 OA 
ENDROOT
BRANCH  23  26
HETATM   26  C   UNL     1     -10.736  11.753  65.049  1.00  0.00    -0.292 C  
HETATM   27  O   UNL     1     -10.275  10.629  65.279  1.00  0.00    -0.282 OA 
HETATM   28  C   UNL     1     -10.950  12.217  63.617  1.00  0.00    -0.471 C  
HETATM   29 CL   UNL     1     -12.568  11.779  63.086  1.00  0.00    -0.494 Cl 
ENDBRANCH  23  26
TORSDOF 1
ENDMDL
MODEL        2
REMARK 921   NORMALIZED FREE ENERGY PREDICTED BY IDOCK:   -7.59 KCAL/MOL
REMARK 922        TOTAL FREE ENERGY PREDICTED BY IDOCK:   -8.08 KCAL/MOL
REMARK 923 INTER-LIGAND FREE ENERGY PREDICTED BY IDOCK:   -7.70 KCAL/MOL
REMARK 924 INTRA-LIGAND FREE ENERGY PREDICTED BY IDOCK:   -0.38 KCAL/MOL
REMARK 927      BINDING AFFINITY PREDICTED BY RF-SCORE:    0.00 PKD
ROOT
HETATM    1  C   UNL     1     -11.362  11.890  67.490  1.00  0.00    -0.381 C  
HETATM    2  C   UNL     1     -10.767  11.813  68.928  1.00  0.00    -0.241 C  
HETATM    3  C   UNL     1     -12.386  13.094  67.593  1.00  0.00     0.047 C  
HETATM    4  C   UNL     1     -11.551  14.199  66.934  1.00  0.00    -0.410 C  
HETATM    5  C   UNL     1     -11.027  15.584  67.480  1.00  0.00    -0.316 C  
HETATM    6  C   UNL     1     -10.287  15.376  68.872  1.00  0.00    -0.233 C  
HETATM    7  C   UNL     1      -9.390  16.524  69.310  1.00  0.00    -0.135 C  
HETATM    8  C   UNL     1      -8.387  16.914  68.226  1.00  0.00    -0.224 C  
HETATM    9  C   UNL     1      -7.274  17.580  68.595  1.00  0.00    -0.246 C  
HETATM   10  C   UNL     1      -7.732  18.980  68.914  1.00  0.00    -0.309 C  
HETATM   11  O   UNL     1      -7.145  19.656  69.748  1.00  0.00    -0.269 OA 
HETATM   12  C   UNL     1      -8.927  19.500  68.135  1.00  0.00    -0.380 C  
HETATM   13  C   UNL     1      -9.566  18.743  67.206  1.00  0.00    -0.333 C  
HETATM   14  C   UNL     1      -9.066  17.338  66.894  1.00  0.00    -0.250 C  
HETATM   15  C   UNL     1      -9.914  16.103  66.527  1.00  0.00    -0.280 C  
HETATM   16  C   UNL     1      -8.035  17.523  65.719  1.00  0.00     0.129 C  
HETATM   17  C   UNL     1     -10.519  16.001  65.131  1.00  0.00    -0.303 C  
HETATM   18  F   UNL     1      -8.936  15.108  66.535  1.00  0.00    -0.249 F  
HETATM   19  C   UNL     1     -10.422  14.582  64.601  1.00  0.00    -0.240 C  
HETATM   20  O   UNL     1     -11.108  16.925  64.562  1.00  0.00    -1.054 OA 
HETATM   21  C   UNL     1     -11.170  13.574  65.532  1.00  0.00    -0.304 C  
HETATM   22  C   UNL     1     -12.426  13.170  64.693  1.00  0.00    -0.433 C  
HETATM   23  C   UNL     1     -10.400  12.299  66.203  1.00  0.00    -0.242 C  
HETATM   24  H   UNL     1      -8.553  12.976  65.971  1.00  0.00     0.000 HD 
HETATM   25  O   UNL     1      -9.104  12.741  66.708  1.00  0.00    -0.217 OA 
ENDROOT
BRANCH  23  26
HETATM   26  C   UNL     1      -9.832  11.152  65.369  1.00  0.00    -0.242 C  
HETATM   27  O   UNL     1      -9.412  11.368  64.226  1.00  0.00    -0.210 OA 
HETATM   28  C   UNL     1     -10.043   9.726  65.854  1.00  0.00    -0.243 C  
HETATM   29 CL   UNL     1      -8.571   9.133  66.610  1.00  0.00    -0.130 Cl 
ENDBRANCH  23  26
TORSDOF 1
ENDMDL
MODEL        3
REMARK 921   NORMALIZED FREE ENERGY PREDICTED BY IDOCK:   -7.30 KCAL/MOL
REMARK 922        TOTAL FREE ENERGY PREDICTED BY IDOCK:   -7.77 KCAL/MOL
REMARK 923 INTER-LIGAND FREE ENERGY PREDICTED BY IDOCK:   -7.77 KCAL/MOL
REMARK 924 INTRA-LIGAND FREE ENERGY PREDICTED BY IDOCK:   -0.00 KCAL/MOL
REMARK 927      BINDING AFFINITY PREDICTED BY RF-SCORE:    0.00 PKD
ROOT
HETATM    1  C   UNL     1     -11.667  12.221  65.725  1.00  0.00    -0.445 C  
HETATM    2  C   UNL     1     -12.892  13.120  65.383  1.00  0.00    -0.275 C  
HETATM    3  C   UNL     1     -10.547  12.754  64.740  1.00  0.00    -0.348 C  
HETATM    4  C   UNL     1      -9.742  13.625  65.713  1.00  0.00    -0.162 C  
HETATM    5  C   UNL     1      -9.416  15.169  65.716  1.00  0.00    -0.285 C  
HETATM    6  C   UNL     1     -10.753  16.008  65.528  1.00  0.00    -0.374 C  
HETATM    7  C   UNL     1     -10.660  17.477  65.914  1.00  0.00    -0.203 C  
HETATM    8  C   UNL     1     -10.106  17.665  67.325  1.00  0.00    -0.331 C  
HETATM    9  C   UNL     1     -10.365  18.824  67.964  1.00  0.00    -0.442 C  
HETATM   10  C   UNL     1      -9.487  19.852  67.298  1.00  0.00    -0.365 C  
HETATM   11  O   UNL     1      -9.830  21.025  67.240  1.00  0.00    -0.386 OA 
HETATM   12  C   UNL     1      -8.164  19.360  66.738  1.00  0.00    -0.311 C  
HETATM   13  C   UNL     1      -7.790  18.056  66.815  1.00  0.00    -0.260 C  
HETATM   14  C   UNL     1      -8.694  17.045  67.511  1.00  0.00    -0.215 C  
HETATM   15  C   UNL     1      -8.909  15.566  67.130  1.00  0.00    -0.212 C  
HETATM   16  C   UNL     1      -8.224  17.044  69.013  1.00  0.00    -0.130 C  
HETATM   17  C   UNL     1      -7.823  14.546  67.454  1.00  0.00    -0.199 C  
HETATM   18  F   UNL     1      -9.947  15.226  67.997  1.00  0.00    -0.217 F  
HETATM   19  C   UNL     1      -8.430  13.246  67.949  1.00  0.00    -0.177 C  
HETATM   20  O   UNL     1      -6.621  14.720  67.233  1.00  0.00    -0.298 OA 
HETATM   21  C   UNL     1      -9.385  12.620  66.882  1.00  0.00    -0.228 C  
HETATM   22  C   UNL     1      -8.594  11.369  66.379  1.00  0.00    -0.174 C  
HETATM   23  C   UNL     1     -10.952  12.306  67.218  1.00  0.00    -0.256 C  
HETATM   24  H   UNL     1     -11.107  13.488  68.800  1.00  0.00     0.000 HD 
HETATM   25  O   UNL     1     -11.517  13.439  67.945  1.00  0.00    -0.279 OA 
ENDROOT
BRANCH  23  26
HETATM   26  C   UNL     1     -11.375  11.263  68.251  1.00  0.00    -0.289 C  
HETATM   27  O   UNL     1     -12.490  11.334  68.781  1.00  0.00    -0.444 OA 
HETATM   28  C   UNL     1     -10.320  10.319  68.807  1.00  0.00    -0.195 C  
HETATM   29 CL   UNL     1     -10.456   8.750  68.025  1.00  0.00    -0.274 Cl 
ENDBRANCH  23  26
TORSDOF 1
ENDMDL
MODEL        4
REMARK 921   NORMALIZED FREE ENERGY PREDICTED BY IDOCK:   -7.30 KCAL/MOL
REMARK 922        TOTAL FREE ENERGY PREDICTED BY IDOCK:   -7.77 KCAL/MOL
REMARK 923 INTER-LIGAND FREE ENERGY PREDICTED BY IDOCK:   -7.38 KCAL/MOL
REMARK 924 INTRA-LIGAND FREE ENERGY PREDICTED BY IDOCK:   -0.39 KCAL/MOL
REMARK 927      BINDING AFFINITY PREDICTED BY RF-SCORE:    0.00 PKD
ROOT
HETATM    1  C   UNL     1      -8.763  20.096  67.032  1.00  0.00    -0.420 C  
HETATM    2  C   UNL     1      -9.935  20.038  66.008  1.00  0.00    -0.542 C  
HETATM    3  C   UNL     1      -9.442  19.607  68.377  1.00  0.00    -0.452 C  
HETATM    4  C   UNL     1      -8.939  18.158  68.408  1.00  0.00    -0.305 C  
HETATM    5  C   UNL     1      -9.708  16.781  68.401  1.00  0.00    -0.247 C  
HETATM    6  C   UNL     1     -10.766  16.754  67.215  1.00  0.00    -0.213 C  
HETATM    7  C   UNL     1     -11.280  15.373  66.832  1.00  0.00    -0.214 C  
HETATM    8  C   UNL     1     -10.142  14.394  66.553  1.00  0.00    -0.281 C  
HETATM    9  C   UNL     1     -10.404  13.306  65.802  1.00  0.00    -0.290 C  
HETATM   10  C   UNL     1     -11.203  12.389  66.692  1.00  0.00    -0.315 C  
HETATM   11  O   UNL     1     -12.027  11.618  66.219  1.00  0.00    -0.401 OA 
HETATM   12  C   UNL     1     -10.911  12.459  68.181  1.00  0.00    -0.250 C  
HETATM   13  C   UNL     1      -9.989  13.313  68.695  1.00  0.00    -0.127 C  
HETATM   14  C   UNL     1      -9.185  14.214  67.764  1.00  0.00    -0.193 C  
HETATM   15  C   UNL     1      -8.701  15.653  68.043  1.00  0.00    -0.167 C  
HETATM   16  C   UNL     1      -7.898  13.384  67.403  1.00  0.00    -0.154 C  
HETATM   17  C   UNL     1      -7.520  15.874  68.982  1.00  0.00    -0.194 C  
HETATM   18  F   UNL     1      -8.195  16.000  66.791  1.00  0.00    -0.202 F  
HETATM   19  C   UNL     1      -6.607  16.965  68.455  1.00  0.00    -0.165 C  
HETATM   20  O   UNL     1      -7.391  15.317  70.076  1.00  0.00    -0.133 OA 
HETATM   21  C   UNL     1      -7.369  18.321  68.302  1.00  0.00    -0.277 C  
HETATM   22  C   UNL     1      -6.777  19.201  69.450  1.00  0.00    -0.317 C  
HETATM   23  C   UNL     1      -7.450  19.096  66.866  1.00  0.00    -0.218 C  
HETATM   24  H   UNL     1      -6.981  17.549  65.722  1.00  0.00     0.000 HD 
HETATM   25  O   UNL     1      -7.733  18.121  65.817  1.00  0.00    -0.523 OA 
ENDROOT
BRANCH  23  26
HETATM   26  C   UNL     1      -6.217  19.678  66.177  1.00  0.00    -0.179 C  
HETATM   27  O   UNL     1      -5.133  19.089  66.250  1.00  0.00    -0.137 OA 
HETATM   28  C   UNL     1      -6.285  21.101  65.645  1.00  0.00    -0.150 C  
HETATM   29 CL   UNL     1      -6.528  21.075  63.905  1.00  0.00    -0.316 Cl 
ENDBRANCH  23  26
TORSDOF 1
ENDMDL
MODEL        5
REMARK 921   NORMALIZED FREE ENERGY PREDICTED BY IDOCK:   -7.04 KCAL/MOL
REMARK 922        TOTAL FREE ENERGY PREDICTED BY IDOCK:   -7.49 KCAL/MOL
REMARK 923 INTER-LIGAND FREE ENERGY PREDICTED BY IDOCK:   -7.03 KCAL/MOL
REMARK 924 INTRA-LIGAND FREE ENERGY PREDICTED BY IDOCK:   -0.46 KCAL/MOL
REMARK 927      BINDING AFFINITY PREDICTED BY RF-SCORE:    0.00 PKD
ROOT
HETATM    1  C   UNL     1      -8.703   7.140  67.487  1.00  0.00    -0.121 C  
HETATM    2  C   UNL     1      -9.492   6.692  66.220  1.00  0.00    -0.120 C  
HETATM    3  C   UNL     1      -7.617   8.132  66.898  1.00  0.00    -0.095 C  
HETATM    4  C   UNL     1      -8.273   9.472  67.256  1.00  0.00    -0.114 C  
HETATM    5  C   UNL     1      -8.764  10.672  66.357  1.00  0.00    -0.155 C  
HETATM    6  C   UNL     1      -9.699  10.132  65.190  1.00  0.00    -0.370 C  
HETATM    7  C   UNL     1     -10.562  11.183  64.508  1.00  0.00    -0.397 C  
HETATM    8  C   UNL     1     -11.377  11.996  65.511  1.00  0.00    -0.381 C  
HETATM    9  C   UNL     1     -12.478  12.636  65.070  1.00  0.00    -0.556 C  
HETATM   10  C   UNL     1     -11.967  13.811  64.275  1.00  0.00    -0.443 C  
HETATM   11  O   UNL     1     -12.611  14.260  63.337  1.00  0.00    -0.777 OA 
HETATM   12  C   UNL     1     -10.643  14.408  64.717  1.00  0.00    -0.417 C  
HETATM   13  C   UNL     1      -9.940  13.906  65.764  1.00  0.00    -0.304 C  
HETATM   14  C   UNL     1     -10.495  12.729  66.558  1.00  0.00    -0.276 C  
HETATM   15  C   UNL     1      -9.696  11.579  67.207  1.00  0.00    -0.182 C  
HETATM   16  C   UNL     1     -11.340  13.380  67.716  1.00  0.00    -0.325 C  
HETATM   17  C   UNL     1      -8.916  11.844  68.490  1.00  0.00    -0.115 C  
HETATM   18  F   UNL     1     -10.736  10.746  67.621  1.00  0.00    -0.223 F  
HETATM   19  C   UNL     1      -9.043  10.675  69.452  1.00  0.00    -0.064 C  
HETATM   20  O   UNL     1      -8.190  12.825  68.670  1.00  0.00    -0.102 OA 
HETATM   21  C   UNL     1      -8.504   9.354  68.816  1.00  0.00    -0.122 C  
HETATM   22  C   UNL     1      -7.178   9.089  69.602  1.00  0.00    -0.059 C  
HETATM   23  C   UNL     1      -9.448   8.029  68.671  1.00  0.00    -0.147 C  
HETATM   24  H   UNL     1     -11.193   8.946  68.871  1.00  0.00     0.000 HD 
HETATM   25  O   UNL     1     -10.765   8.437  68.193  1.00  0.00    -0.152 OA 
ENDROOT
BRANCH  23  26
HETATM   26  C   UNL     1      -9.979   7.264  69.883  1.00  0.00    -0.183 C  
HETATM   27  O   UNL     1      -9.654   6.085  70.061  1.00  0.00    -0.159 OA 
HETATM   28  C   UNL     1     -11.108   7.881  70.694  1.00  0.00    -0.259 C  
HETATM   29 CL   UNL     1     -10.461   8.599  72.162  1.00  0.00    -0.412 Cl 
ENDBRANCH  23  26
TORSDOF 1
ENDMDL
MODEL        6
REMARK 921   NORMALIZED FREE ENERGY PREDICTED BY IDOCK:   -7.01 KCAL/MOL
REMARK 922        TOTAL FREE ENERGY PREDICTED BY IDOCK:   -7.47 KCAL/MOL
REMARK 923 INTER-LIGAND FREE ENERGY PREDICTED BY IDOCK:   -7.01 KCAL/MOL
REMARK 924 INTRA-LIGAND FREE ENERGY PREDICTED BY IDOCK:   -0.46 KCAL/MOL
REMARK 927      BINDING AFFINITY PREDICTED BY RF-SCORE:    0.00 PKD
ROOT
HETATM    1  C   UNL     1      -8.711  11.461  66.835  1.00  0.00    -0.165 C  
HETATM    2  C   UNL     1      -7.212  11.701  66.484  1.00  0.00     0.048 C  
HETATM    3  C   UNL     1      -8.822  12.010  68.316  1.00  0.00    -0.182 C  
HETATM    4  C   UNL     1      -9.463  13.376  68.037  1.00  0.00    -0.218 C  
HETATM    5  C   UNL     1      -8.970  14.846  68.330  1.00  0.00    -0.177 C  
HETATM    6  C   UNL     1      -7.490  15.042  67.784  1.00  0.00    -0.175 C  
HETATM    7  C   UNL     1      -7.041  16.487  67.625  1.00  0.00    -0.155 C  
HETATM    8  C   UNL     1      -8.027  17.307  66.795  1.00  0.00    -0.276 C  
HETATM    9  C   UNL     1      -7.585  18.436  66.207  1.00  0.00    -0.289 C  
HETATM   10  C   UNL     1      -7.431  19.436  67.324  1.00  0.00    -0.229 C  
HETATM   11  O   UNL     1      -6.590  20.322  67.261  1.00  0.00    -0.199 OA 
HETATM   12  C   UNL     1      -8.382  19.296  68.500  1.00  0.00    -0.401 C  
HETATM   13  C   UNL     1      -9.317  18.313  68.557  1.00  0.00    -0.334 C  
HETATM   14  C   UNL     1      -9.458  17.329  67.401  1.00  0.00    -0.245 C  
HETATM   15  C   UNL     1      -9.824  15.832  67.486  1.00  0.00    -0.229 C  
HETATM   16  C   UNL     1     -10.516  17.982  66.436  1.00  0.00    -0.345 C  
HETATM   17  C   UNL     1     -11.269  15.432  67.765  1.00  0.00    -0.321 C  
HETATM   18  F   UNL     1      -9.626  15.444  66.161  1.00  0.00    -0.258 F  
HETATM   19  C   UNL     1     -11.672  14.236  66.921  1.00  0.00    -0.430 C  
HETATM   20  O   UNL     1     -11.973  15.943  68.641  1.00  0.00    -0.338 OA 
HETATM   21  C   UNL     1     -10.759  13.001  67.210  1.00  0.00    -0.261 C  
HETATM   22  C   UNL     1     -11.704  12.026  67.983  1.00  0.00    -0.398 C  
HETATM   23  C   UNL     1      -9.906  12.274  66.022  1.00  0.00    -0.248 C  
HETATM   24  H   UNL     1      -9.973  13.766  64.720  1.00  0.00     0.000 HD 
HETATM   25  O   UNL     1      -9.289  13.300  65.186  1.00  0.00     0.289 OA 
ENDROOT
BRANCH  23  26
HETATM   26  C   UNL     1     -10.576  11.543  64.860  1.00  0.00    -0.303 C  
HETATM   27  O   UNL     1     -10.345  10.344  64.668  1.00  0.00    -0.314 OA 
HETATM   28  C   UNL     1     -11.301  12.365  63.805  1.00  0.00    -0.464 C  
HETATM   29 CL   UNL     1     -13.034  12.298  64.086  1.00  0.00    -0.393 Cl 
ENDBRANCH  23  26
TORSDOF 1
ENDMDL
MODEL        7
REMARK 921   NORMALIZED FREE ENERGY PREDICTED BY IDOCK:   -6.86 KCAL/MOL
REMARK 922        TOTAL FREE ENERGY PREDICTED BY IDOCK:   -7.30 KCAL/MOL
REMARK 923 INTER-LIGAND FREE ENERGY PREDICTED BY IDOCK:   -7.02 KCAL/MOL
REMARK 924 INTRA-LIGAND FREE ENERGY PREDICTED BY IDOCK:   -0.29 KCAL/MOL
REMARK 927      BINDING AFFINITY PREDICTED BY RF-SCORE:    0.00 PKD
ROOT
HETATM    1  C   UNL     1      -8.552  13.362  67.953  1.00  0.00    -0.184 C  
HETATM    2  C   UNL     1      -7.199  13.166  67.206  1.00  0.00    -0.045 C  
HETATM    3  C   UNL     1      -8.150  14.281  69.180  1.00  0.00     0.074 C  
HETATM    4  C   UNL     1      -8.640  15.637  68.656  1.00  0.00    -0.188 C  
HETATM    5  C   UNL     1      -7.875  16.986  68.363  1.00  0.00    -0.233 C  
HETATM    6  C   UNL     1      -6.603  16.704  67.453  1.00  0.00    -0.199 C  
HETATM    7  C   UNL     1      -6.014  17.924  66.760  1.00  0.00    -0.187 C  
HETATM    8  C   UNL     1      -7.068  18.703  65.976  1.00  0.00    -0.302 C  
HETATM    9  C   UNL     1      -6.655  19.518  64.985  1.00  0.00    -0.235 C  
HETATM   10  C   UNL     1      -6.043  20.710  65.676  1.00  0.00    -0.235 C  
HETATM   11  O   UNL     1      -5.136  21.341  65.150  1.00  0.00    -0.187 OA 
HETATM   12  C   UNL     1      -6.625  21.088  67.026  1.00  0.00    -0.413 C  
HETATM   13  C   UNL     1      -7.636  20.384  67.597  1.00  0.00    -0.323 C  
HETATM   14  C   UNL     1      -8.245  19.195  66.863  1.00  0.00    -0.287 C  
HETATM   15  C   UNL     1      -8.784  17.889  67.483  1.00  0.00    -0.243 C  
HETATM   16  C   UNL     1      -9.429  19.799  66.021  1.00  0.00    -0.393 C  
HETATM   17  C   UNL     1     -10.129  17.904  68.201  1.00  0.00    -0.366 C  
HETATM   18  F   UNL     1      -9.034  17.142  66.332  1.00  0.00    -0.246 F  
HETATM   19  C   UNL     1     -10.927  16.652  67.880  1.00  0.00    -0.276 C  
HETATM   20  O   UNL     1     -10.470  18.763  69.018  1.00  0.00    -0.126 OA 
HETATM   21  C   UNL     1     -10.159  15.361  68.310  1.00  0.00    -0.218 C  
HETATM   22  C   UNL     1     -10.972  14.849  69.542  1.00  0.00    -0.289 C  
HETATM   23  C   UNL     1      -9.798  14.185  67.235  1.00  0.00    -0.238 C  
HETATM   24  H   UNL     1     -10.021  15.273  65.594  1.00  0.00     0.000 HD 
HETATM   25  O   UNL     1      -9.307  14.801  66.006  1.00  0.00    -0.284 OA 
ENDROOT
BRANCH  23  26
HETATM   26  C   UNL     1     -10.874  13.350  66.542  1.00  0.00    -0.282 C  
HETATM   27  O   UNL     1     -11.517  12.513  67.186  1.00  0.00    -0.308 OA 
HETATM   28  C   UNL     1     -10.945  13.372  65.023  1.00  0.00    -0.316 C  
HETATM   29 CL   UNL     1     -12.253  14.426  64.505  1.00  0.00    -0.487 Cl 
ENDBRANCH  23  26
TORSDOF 1
ENDMDL
MODEL        8
REMARK 921   NORMALIZED FREE ENERGY PREDICTED BY IDOCK:   -6.85 KCAL/MOL
REMARK 922        TOTAL FREE ENERGY PREDICTED BY IDOCK:   -7.30 KCAL/MOL
REMARK 923 INTER-LIGAND FREE ENERGY PREDICTED BY IDOCK:   -6.86 KCAL/MOL
REMARK 924 INTRA-LIGAND FREE ENERGY PREDICTED BY IDOCK:   -0.43 KCAL/MOL
REMARK 927      BINDING AFFINITY PREDICTED BY RF-SCORE:    0.00 PKD
ROOT
HETATM    1  C   UNL     1      -6.340  17.299  68.571  1.00  0.00    -0.163 C  
HETATM    2  C   UNL     1      -6.035  16.432  69.829  1.00  0.00    -0.201 C  
HETATM    3  C   UNL     1      -6.039  16.308  67.373  1.00  0.00    -0.197 C  
HETATM    4  C   UNL     1      -7.472  15.898  67.011  1.00  0.00    -0.254 C  
HETATM    5  C   UNL     1      -8.191  14.494  67.003  1.00  0.00    -0.164 C  
HETATM    6  C   UNL     1      -7.962  13.756  68.392  1.00  0.00    -0.144 C  
HETATM    7  C   UNL     1      -8.914  12.605  68.682  1.00  0.00     0.047 C  
HETATM    8  C   UNL     1     -10.376  13.016  68.532  1.00  0.00    -0.247 C  
HETATM    9  C   UNL     1     -11.315  12.279  69.158  1.00  0.00    -0.330 C  
HETATM   10  C   UNL     1     -11.416  11.002  68.363  1.00  0.00    -0.308 C  
HETATM   11  O   UNL     1     -11.733   9.951  68.904  1.00  0.00     0.073 OA 
HETATM   12  C   UNL     1     -11.132  11.101  66.875  1.00  0.00    -0.313 C  
HETATM   13  C   UNL     1     -10.789  12.275  66.283  1.00  0.00    -0.313 C  
HETATM   14  C   UNL     1     -10.714  13.551  67.113  1.00  0.00    -0.282 C  
HETATM   15  C   UNL     1      -9.726  14.724  66.938  1.00  0.00    -0.240 C  
HETATM   16  C   UNL     1     -12.155  14.178  67.028  1.00  0.00    -0.449 C  
HETATM   17  C   UNL     1      -9.925  15.701  65.785  1.00  0.00    -0.359 C  
HETATM   18  F   UNL     1     -10.028  15.484  68.068  1.00  0.00    -0.210 F  
HETATM   19  C   UNL     1      -9.650  17.126  66.229  1.00  0.00    -0.273 C  
HETATM   20  O   UNL     1     -10.166  15.362  64.622  1.00  0.00    -0.234 OA 
HETATM   21  C   UNL     1      -8.188  17.286  66.757  1.00  0.00    -0.279 C  
HETATM   22  C   UNL     1      -7.490  18.127  65.641  1.00  0.00     0.007 C  
HETATM   23  C   UNL     1      -7.882  17.828  68.267  1.00  0.00    -0.279 C  
HETATM   24  H   UNL     1      -9.677  17.477  69.026  1.00  0.00     0.000 HD 
HETATM   25  O   UNL     1      -8.794  17.174  69.200  1.00  0.00    -0.159 OA 
ENDROOT
BRANCH  23  26
HETATM   26  C   UNL     1      -8.230  19.246  68.716  1.00  0.00    -0.355 C  
HETATM   27  O   UNL     1      -7.377  19.945  69.276  1.00  0.00    -0.285 OA 
HETATM   28  C   UNL     1      -9.690  19.673  68.709  1.00  0.00    -0.405 C  
HETATM   29 CL   UNL     1     -10.013  20.665  67.295  1.00  0.00    -0.547 Cl 
ENDBRANCH  23  26
TORSDOF 1
ENDMDL
MODEL        9
REMARK 921   NORMALIZED FREE ENERGY PREDICTED BY IDOCK:   -6.83 KCAL/MOL
REMARK 922        TOTAL FREE ENERGY PREDICTED BY IDOCK:   -7.27 KCAL/MOL
REMARK 923 INTER-LIGAND FREE ENERGY PREDICTED BY IDOCK:   -6.89 KCAL/MOL
REMARK 924 INTRA-LIGAND FREE ENERGY PREDICTED BY IDOCK:   -0.38 KCAL/MOL
REMARK 927      BINDING AFFINITY PREDICTED BY RF-SCORE:    0.00 PKD
ROOT
HETATM    1  C   UNL     1      -9.623  12.663  67.346  1.00  0.00    -0.194 C  
HETATM    2  C   UNL     1     -10.428  13.157  68.585  1.00  0.00    -0.242 C  
HETATM    3  C   UNL     1      -8.343  11.996  67.998  1.00  0.00    -0.162 C  
HETATM    4  C   UNL     1      -8.742  10.518  67.894  1.00  0.00    -0.126 C  
HETATM    5  C   UNL     1      -8.954   9.410  68.997  1.00  0.00    -0.141 C  
HETATM    6  C   UNL     1      -9.925   9.950  70.133  1.00  0.00    -0.291 C  
HETATM    7  C   UNL     1     -10.539   8.883  71.027  1.00  0.00    -0.315 C  
HETATM    8  C   UNL     1     -11.224   7.783  70.219  1.00  0.00    -0.215 C  
HETATM    9  C   UNL     1     -12.161   7.031  70.831  1.00  0.00    -0.388 C  
HETATM   10  C   UNL     1     -11.400   6.114  71.754  1.00  0.00    -0.291 C  
HETATM   11  O   UNL     1     -11.904   5.712  72.793  1.00  0.00    -0.258 OA 
HETATM   12  C   UNL     1     -10.005   5.707  71.312  1.00  0.00    -0.248 C  
HETATM   13  C   UNL     1      -9.458   6.154  70.152  1.00  0.00    -0.177 C  
HETATM   14  C   UNL     1     -10.263   7.065  69.232  1.00  0.00    -0.193 C  
HETATM   15  C   UNL     1      -9.729   8.222  68.362  1.00  0.00    -0.158 C  
HETATM   16  C   UNL     1     -11.015   6.092  68.251  1.00  0.00    -0.397 C  
HETATM   17  C   UNL     1      -8.968   7.902  67.080  1.00  0.00    -0.128 C  
HETATM   18  F   UNL     1     -10.927   8.772  67.905  1.00  0.00    -0.240 F  
HETATM   19  C   UNL     1      -9.359   8.856  65.966  1.00  0.00    -0.306 C  
HETATM   20  O   UNL     1      -8.075   7.054  66.997  1.00  0.00    -0.114 OA 
HETATM   21  C   UNL     1      -9.058  10.339  66.354  1.00  0.00    -0.174 C  
HETATM   22  C   UNL     1      -7.843  10.712  65.444  1.00  0.00    -0.070 C  
HETATM   23  C   UNL     1     -10.233  11.474  66.366  1.00  0.00    -0.224 C  
HETATM   24  H   UNL     1     -11.775  10.232  66.434  1.00  0.00     0.000 HD 
HETATM   25  O   UNL     1     -11.425  10.913  66.995  1.00  0.00    -0.392 OA 
ENDROOT
BRANCH  23  26
HETATM   26  C   UNL     1     -10.953  11.922  65.096  1.00  0.00    -0.312 C  
HETATM   27  O   UNL     1     -11.138  11.119  64.174  1.00  0.00    -0.317 OA 
HETATM   28  C   UNL     1     -11.186  13.409  64.878  1.00  0.00    -0.331 C  
HETATM   29 CL   UNL     1     -12.852  13.812  65.268  1.00  0.00    -0.484 Cl 
ENDBRANCH  23  26
TORSDOF 1
ENDMDL
MODEL       10
REMARK 921   NORMALIZED FREE ENERGY PREDICTED BY IDOCK:   -6.82 KCAL/MOL
REMARK 922        TOTAL FREE ENERGY PREDICTED BY IDOCK:   -7.27 KCAL/MOL
REMARK 923 INTER-LIGAND FREE ENERGY PREDICTED BY IDOCK:   -6.82 KCAL/MOL
REMARK 924 INTRA-LIGAND FREE ENERGY PREDICTED BY IDOCK:   -0.45 KCAL/MOL
REMARK 927      BINDING AFFINITY PREDICTED BY RF-SCORE:    0.00 PKD
ROOT
HETATM    1  C   UNL     1      -7.974   6.973  66.253  1.00  0.00    -0.114 C  
HETATM    2  C   UNL     1      -8.488   6.727  64.803  1.00  0.00     0.087 C  
HETATM    3  C   UNL     1      -7.035   8.238  66.088  1.00  0.00    -0.062 C  
HETATM    4  C   UNL     1      -7.980   9.330  66.607  1.00  0.00    -0.108 C  
HETATM    5  C   UNL     1      -8.575  10.618  65.917  1.00  0.00    -0.177 C  
HETATM    6  C   UNL     1      -9.226  10.235  64.518  1.00  0.00    -0.295 C  
HETATM    7  C   UNL     1     -10.181  11.269  63.940  1.00  0.00    -0.420 C  
HETATM    8  C   UNL     1     -11.263  11.674  64.939  1.00  0.00    -0.287 C  
HETATM    9  C   UNL     1     -12.401  12.218  64.463  1.00  0.00    -0.468 C  
HETATM   10  C   UNL     1     -12.029  13.616  64.040  1.00  0.00    -0.431 C  
HETATM   11  O   UNL     1     -12.620  14.171  63.124  1.00  0.00    -0.686 OA 
HETATM   12  C   UNL     1     -10.916  14.291  64.821  1.00  0.00    -0.408 C  
HETATM   13  C   UNL     1     -10.272  13.669  65.841  1.00  0.00    -0.318 C  
HETATM   14  C   UNL     1     -10.685  12.261  66.256  1.00  0.00    -0.293 C  
HETATM   15  C   UNL     1      -9.769  11.130  66.769  1.00  0.00    -0.193 C  
HETATM   16  C   UNL     1     -11.784  12.468  67.362  1.00  0.00    -0.432 C  
HETATM   17  C   UNL     1      -9.230  11.196  68.194  1.00  0.00    -0.166 C  
HETATM   18  F   UNL     1     -10.671  10.067  66.808  1.00  0.00    -0.287 F  
HETATM   19  C   UNL     1      -9.251   9.825  68.844  1.00  0.00    -0.155 C  
HETATM   20  O   UNL     1      -8.739  12.208  68.704  1.00  0.00    -0.111 OA 
HETATM   21  C   UNL     1      -8.385   8.800  68.042  1.00  0.00    -0.119 C  
HETATM   22  C   UNL     1      -7.148   8.568  68.968  1.00  0.00    -0.065 C  
HETATM   23  C   UNL     1      -9.026   7.417  67.455  1.00  0.00    -0.123 C  
HETATM   24  H   UNL     1     -10.927   7.968  67.544  1.00  0.00     0.000 HD 
HETATM   25  O   UNL     1     -10.324   7.714  66.856  1.00  0.00    -0.290 OA 
ENDROOT
BRANCH  23  26
HETATM   26  C   UNL     1      -9.552   6.307  68.363  1.00  0.00    -0.121 C  
HETATM   27  O   UNL     1      -8.832   5.340  68.638  1.00  0.00    -0.097 OA 
HETATM   28  C   UNL     1     -11.037   6.276  68.690  1.00  0.00    -0.325 C  
HETATM   29 CL   UNL     1     -11.303   6.924  70.302  1.00  0.00    -0.357 Cl 
ENDBRANCH  23  26
TORSDOF 1
ENDMDL
MODEL       11
REMARK 921   NORMALIZED FREE ENERGY PREDICTED BY IDOCK:   -6.80 KCAL/MOL
REMARK 922        TOTAL FREE ENERGY PREDICTED BY IDOCK:   -7.24 KCAL/MOL
REMARK 923 INTER-LIGAND FREE ENERGY PREDICTED BY IDOCK:   -6.85 KCAL/MOL
REMARK 924 INTRA-LIGAND FREE ENERGY PREDICTED BY IDOCK:   -0.39 KCAL/MOL
REMARK 927      BINDING AFFINITY PREDICTED BY RF-SCORE:    0.00 PKD
ROOT
HETATM    1  C   UNL     1      -5.667  17.561  67.953  1.00  0.00    -0.143 C  
HETATM    2  C   UNL     1      -5.138  16.320  68.733  1.00  0.00    -0.104 C  
HETATM    3  C   UNL     1      -5.915  16.986  66.498  1.00  0.00    -0.174 C  
HETATM    4  C   UNL     1      -7.437  16.803  66.549  1.00  0.00    -0.322 C  
HETATM    5  C   UNL     1      -8.344  15.521  66.394  1.00  0.00    -0.153 C  
HETATM    6  C   UNL     1      -7.825  14.366  67.356  1.00  0.00    -0.211 C  
HETATM    7  C   UNL     1      -8.817  13.243  67.619  1.00  0.00    -0.200 C  
HETATM    8  C   UNL     1     -10.167  13.770  68.101  1.00  0.00    -0.253 C  
HETATM    9  C   UNL     1     -10.977  12.930  68.776  1.00  0.00    -0.292 C  
HETATM   10  C   UNL     1     -11.525  11.982  67.740  1.00  0.00    -0.325 C  
HETATM   11  O   UNL     1     -11.828  10.836  68.039  1.00  0.00    -0.546 OA 
HETATM   12  C   UNL     1     -11.699  12.534  66.336  1.00  0.00    -0.458 C  
HETATM   13  C   UNL     1     -11.365  13.811  66.017  1.00  0.00    -0.319 C  
HETATM   14  C   UNL     1     -10.831  14.749  67.094  1.00  0.00    -0.311 C  
HETATM   15  C   UNL     1      -9.766  15.853  66.927  1.00  0.00    -0.230 C  
HETATM   16  C   UNL     1     -12.105  15.458  67.686  1.00  0.00     0.335 C  
HETATM   17  C   UNL     1     -10.146  17.157  66.234  1.00  0.00    -0.320 C  
HETATM   18  F   UNL     1      -9.578  16.230  68.257  1.00  0.00    -0.206 F  
HETATM   19  C   UNL     1      -9.518  18.347  66.937  1.00  0.00    -0.291 C  
HETATM   20  O   UNL     1     -10.784  17.222  65.179  1.00  0.00    -0.687 OA 
HETATM   21  C   UNL     1      -7.959  18.240  66.956  1.00  0.00    -0.237 C  
HETATM   22  C   UNL     1      -7.508  19.349  65.951  1.00  0.00    -0.297 C  
HETATM   23  C   UNL     1      -7.119  18.252  68.356  1.00  0.00    -0.257 C  
HETATM   24  H   UNL     1      -8.627  17.788  69.554  1.00  0.00     0.000 HD 
HETATM   25  O   UNL     1      -7.796  17.392  69.322  1.00  0.00    -0.094 OA 
ENDROOT
BRANCH  23  26
HETATM   26  C   UNL     1      -7.075  19.472  69.275  1.00  0.00    -0.337 C  
HETATM   27  O   UNL     1      -8.093  20.150  69.452  1.00  0.00     0.166 OA 
HETATM   28  C   UNL     1      -5.720  19.986  69.739  1.00  0.00    -0.282 C  
HETATM   29 CL   UNL     1      -5.417  19.458  71.388  1.00  0.00    -0.303 Cl 
ENDBRANCH  23  26
TORSDOF 1
ENDMDL
MODEL       12
REMARK 921   NORMALIZED FREE ENERGY PREDICTED BY IDOCK:   -6.76 KCAL/MOL
REMARK 922        TOTAL FREE ENERGY PREDICTED BY IDOCK:   -7.20 KCAL/MOL
REMARK 923 INTER-LIGAND FREE ENERGY PREDICTED BY IDOCK:   -6.89 KCAL/MOL
REMARK 924 INTRA-LIGAND FREE ENERGY PREDICTED BY IDOCK:   -0.31 KCAL/MOL
REMARK 927      BINDING AFFINITY PREDICTED BY RF-SCORE:    0.00 PKD
ROOT
HETATM    1  C   UNL     1     -12.348  13.971  64.518  1.00  0.00    -0.409 C  
HETATM    2  C   UNL     1     -12.230  13.341  63.098  1.00  0.00    -0.221 C  
HETATM    3  C   UNL     1     -12.779  12.740  65.418  1.00  0.00    -0.234 C  
HETATM    4  C   UNL     1     -11.426  12.403  66.058  1.00  0.00    -0.431 C  
HETATM    5  C   UNL     1     -10.542  11.097  66.013  1.00  0.00    -0.298 C  
HETATM    6  C   UNL     1     -10.338  10.627  64.508  1.00  0.00    -0.352 C  
HETATM    7  C   UNL     1      -9.196   9.648  64.281  1.00  0.00    -0.235 C  
HETATM    8  C   UNL     1      -7.879  10.157  64.863  1.00  0.00    -0.147 C  
HETATM    9  C   UNL     1      -6.728   9.646  64.382  1.00  0.00    -0.111 C  
HETATM   10  C   UNL     1      -6.638   8.254  64.952  1.00  0.00    -0.063 C  
HETATM   11  O   UNL     1      -6.063   7.363  64.342  1.00  0.00    -0.037 OA 
HETATM   12  C   UNL     1      -7.270   8.033  66.315  1.00  0.00    -0.071 C  
HETATM   13  C   UNL     1      -7.900   9.031  66.987  1.00  0.00    -0.098 C  
HETATM   14  C   UNL     1      -7.956  10.433  66.390  1.00  0.00    -0.130 C  
HETATM   15  C   UNL     1      -9.110  11.451  66.502  1.00  0.00    -0.186 C  
HETATM   16  C   UNL     1      -6.676  11.162  66.941  1.00  0.00    -0.128 C  
HETATM   17  C   UNL     1      -9.321  12.198  67.815  1.00  0.00    -0.193 C  
HETATM   18  F   UNL     1      -8.662  12.443  65.629  1.00  0.00     0.133 F  
HETATM   19  C   UNL     1      -9.680  13.651  67.560  1.00  0.00    -0.227 C  
HETATM   20  O   UNL     1      -9.312  11.662  68.927  1.00  0.00    -0.097 OA 
HETATM   21  C   UNL     1     -10.987  13.774  66.712  1.00  0.00    -0.307 C  
HETATM   22  C   UNL     1     -12.035  14.313  67.740  1.00  0.00    -0.384 C  
HETATM   23  C   UNL     1     -11.007  14.571  65.286  1.00  0.00    -0.360 C  
HETATM   24  H   UNL     1      -9.054  14.543  64.960  1.00  0.00     0.000 HD 
HETATM   25  O   UNL     1      -9.822  14.199  64.520  1.00  0.00    -0.101 OA 
ENDROOT
BRANCH  23  26
HETATM   26  C   UNL     1     -10.764  16.075  65.184  1.00  0.00    -0.409 C  
HETATM   27  O   UNL     1     -11.256  16.719  64.250  1.00  0.00    -1.163 OA 
HETATM   28  C   UNL     1      -9.703  16.703  66.075  1.00  0.00    -0.278 C  
HETATM   29 CL   UNL     1     -10.470  17.508  67.436  1.00  0.00    -0.350 Cl 
ENDBRANCH  23  26
TORSDOF 1
ENDMDL
MODEL       13
REMARK 921   NORMALIZED FREE ENERGY PREDICTED BY IDOCK:   -6.75 KCAL/MOL
REMARK 922        TOTAL FREE ENERGY PREDICTED BY IDOCK:   -7.18 KCAL/MOL
REMARK 923 INTER-LIGAND FREE ENERGY PREDICTED BY IDOCK:   -6.81 KCAL/MOL
REMARK 924 INTRA-LIGAND FREE ENERGY PREDICTED BY IDOCK:   -0.37 KCAL/MOL
REMARK 927      BINDING AFFINITY PREDICTED BY RF-SCORE:    0.00 PKD
ROOT
HETATM    1  C   UNL     1      -8.565   7.051  67.331  1.00  0.00    -0.121 C  
HETATM    2  C   UNL     1      -9.190   6.619  65.970  1.00  0.00    -0.068 C  
HETATM    3  C   UNL     1      -7.508   8.150  66.903  1.00  0.00    -0.091 C  
HETATM    4  C   UNL     1      -8.296   9.418  67.257  1.00  0.00    -0.125 C  
HETATM    5  C   UNL     1      -8.789  10.627  66.373  1.00  0.00    -0.164 C  
HETATM    6  C   UNL     1      -9.562  10.087  65.093  1.00  0.00    -0.356 C  
HETATM    7  C   UNL     1     -10.433  11.109  64.378  1.00  0.00    -0.418 C  
HETATM    8  C   UNL     1     -11.403  11.804  65.332  1.00  0.00    -0.284 C  
HETATM    9  C   UNL     1     -12.502  12.387  64.813  1.00  0.00    -0.480 C  
HETATM   10  C   UNL     1     -12.008  13.638  64.132  1.00  0.00    -0.443 C  
HETATM   11  O   UNL     1     -12.591  14.091  63.156  1.00  0.00    -0.733 OA 
HETATM   12  C   UNL     1     -10.784  14.303  64.734  1.00  0.00    -0.435 C  
HETATM   13  C   UNL     1     -10.149  13.796  65.822  1.00  0.00    -0.322 C  
HETATM   14  C   UNL     1     -10.686  12.539  66.498  1.00  0.00    -0.266 C  
HETATM   15  C   UNL     1      -9.867  11.415  67.167  1.00  0.00    -0.190 C  
HETATM   16  C   UNL     1     -11.687  13.061  67.594  1.00  0.00    -0.415 C  
HETATM   17  C   UNL     1      -9.239  11.663  68.534  1.00  0.00    -0.163 C  
HETATM   18  F   UNL     1     -10.875  10.487  67.433  1.00  0.00    -0.267 F  
HETATM   19  C   UNL     1      -9.368  10.437  69.420  1.00  0.00    -0.186 C  
HETATM   20  O   UNL     1      -8.612  12.683  68.834  1.00  0.00     0.113 OA 
HETATM   21  C   UNL     1      -8.668   9.195  68.779  1.00  0.00    -0.132 C  
HETATM   22  C   UNL     1      -7.409   8.984  69.681  1.00  0.00    -0.064 C  
HETATM   23  C   UNL     1      -9.489   7.816  68.475  1.00  0.00    -0.148 C  
HETATM   24  H   UNL     1     -11.310   8.592  68.542  1.00  0.00     0.000 HD 
HETATM   25  O   UNL     1     -10.781   8.154  67.886  1.00  0.00    -0.177 OA 
ENDROOT
BRANCH  23  26
HETATM   26  C   UNL     1     -10.075   6.949  69.588  1.00  0.00    -0.184 C  
HETATM   27  O   UNL     1     -11.107   7.302  70.169  1.00  0.00    -0.263 OA 
HETATM   28  C   UNL     1      -9.232   5.809  70.142  1.00  0.00    -0.151 C  
HETATM   29 CL   UNL     1      -9.776   4.283  69.461  1.00  0.00    -0.278 Cl 
ENDBRANCH  23  26
TORSDOF 1
ENDMDL
MODEL       14
REMARK 921   NORMALIZED FREE ENERGY PREDICTED BY IDOCK:   -6.69 KCAL/MOL
REMARK 922        TOTAL FREE ENERGY PREDICTED BY IDOCK:   -7.12 KCAL/MOL
REMARK 923 INTER-LIGAND FREE ENERGY PREDICTED BY IDOCK:   -6.81 KCAL/MOL
REMARK 924 INTRA-LIGAND FREE ENERGY PREDICTED BY IDOCK:   -0.31 KCAL/MOL
REMARK 927      BINDING AFFINITY PREDICTED BY RF-SCORE:    0.00 PKD
ROOT
HETATM    1  C   UNL     1      -8.556  11.884  67.121  1.00  0.00    -0.172 C  
HETATM    2  C   UNL     1      -8.250  12.651  68.441  1.00  0.00    -0.129 C  
HETATM    3  C   UNL     1      -7.578  10.640  67.198  1.00  0.00    -0.099 C  
HETATM    4  C   UNL     1      -8.570   9.560  67.650  1.00  0.00    -0.122 C  
HETATM    5  C   UNL     1      -8.616   8.651  68.938  1.00  0.00    -0.130 C  
HETATM    6  C   UNL     1      -8.464   9.546  70.243  1.00  0.00    -0.237 C  
HETATM    7  C   UNL     1      -8.893   8.881  71.543  1.00  0.00    -0.253 C  
HETATM    8  C   UNL     1     -10.304   8.305  71.454  1.00  0.00    -0.270 C  
HETATM    9  C   UNL     1     -10.979   8.087  72.600  1.00  0.00    -0.448 C  
HETATM   10  C   UNL     1     -10.337   6.871  73.218  1.00  0.00    -0.287 C  
HETATM   11  O   UNL     1     -10.316   6.722  74.432  1.00  0.00    -0.340 OA 
HETATM   12  C   UNL     1      -9.752   5.849  72.260  1.00  0.00    -0.178 C  
HETATM   13  C   UNL     1      -9.787   6.020  70.913  1.00  0.00    -0.222 C  
HETATM   14  C   UNL     1     -10.460   7.253  70.321  1.00  0.00    -0.231 C  
HETATM   15  C   UNL     1     -10.037   8.034  69.059  1.00  0.00    -0.201 C  
HETATM   16  C   UNL     1     -11.957   6.828  70.089  1.00  0.00    -0.244 C  
HETATM   17  C   UNL     1     -10.322   7.441  67.684  1.00  0.00    -0.231 C  
HETATM   18  F   UNL     1     -10.903   9.126  69.132  1.00  0.00    -0.233 F  
HETATM   19  C   UNL     1     -10.784   8.515  66.716  1.00  0.00    -0.081 C  
HETATM   20  O   UNL     1     -10.097   6.267  67.375  1.00  0.00    -0.130 OA 
HETATM   21  C   UNL     1      -9.706   9.634  66.551  1.00  0.00    -0.272 C  
HETATM   22  C   UNL     1      -9.159   9.400  65.105  1.00  0.00    -0.280 C  
HETATM   23  C   UNL     1     -10.045  11.200  66.871  1.00  0.00    -0.214 C  
HETATM   24  H   UNL     1     -11.663  10.882  67.970  1.00  0.00     0.000 HD 
HETATM   25  O   UNL     1     -10.810  11.274  68.113  1.00  0.00    -0.191 OA 
ENDROOT
BRANCH  23  26
HETATM   26  C   UNL     1     -11.050  12.005  66.050  1.00  0.00    -0.320 C  
HETATM   27  O   UNL     1     -12.253  11.969  66.336  1.00  0.00    -0.551 OA 
HETATM   28  C   UNL     1     -10.591  12.618  64.736  1.00  0.00    -0.317 C  
HETATM   29 CL   UNL     1     -10.278  14.334  64.958  1.00  0.00    -0.433 Cl 
ENDBRANCH  23  26
TORSDOF 1
ENDMDL
MODEL       15
REMARK 921   NORMALIZED FREE ENERGY PREDICTED BY IDOCK:   -6.63 KCAL/MOL
REMARK 922        TOTAL FREE ENERGY PREDICTED BY IDOCK:   -7.06 KCAL/MOL
REMARK 923 INTER-LIGAND FREE ENERGY PREDICTED BY IDOCK:   -6.65 KCAL/MOL
REMARK 924 INTRA-LIGAND FREE ENERGY PREDICTED BY IDOCK:   -0.41 KCAL/MOL
REMARK 927      BINDING AFFINITY PREDICTED BY RF-SCORE:    0.00 PKD
ROOT
HETATM    1  C   UNL     1     -11.064  15.151  66.345  1.00  0.00    -0.312 C  
HETATM    2  C   UNL     1     -10.377  14.952  64.961  1.00  0.00    -0.401 C  
HETATM    3  C   UNL     1     -12.282  14.139  66.286  1.00  0.00    -0.474 C  
HETATM    4  C   UNL     1     -11.704  12.992  67.125  1.00  0.00    -0.439 C  
HETATM    5  C   UNL     1     -11.407  11.483  66.774  1.00  0.00    -0.309 C  
HETATM    6  C   UNL     1     -10.557  11.392  65.434  1.00  0.00    -0.333 C  
HETATM    7  C   UNL     1      -9.857  10.061  65.196  1.00  0.00    -0.388 C  
HETATM    8  C   UNL     1      -9.011   9.635  66.394  1.00  0.00    -0.179 C  
HETATM    9  C   UNL     1      -8.017   8.748  66.191  1.00  0.00    -0.103 C  
HETATM   10  C   UNL     1      -8.701   7.420  65.986  1.00  0.00    -0.153 C  
HETATM   11  O   UNL     1      -8.197   6.558  65.280  1.00  0.00    -0.132 OA 
HETATM   12  C   UNL     1     -10.017   7.212  66.715  1.00  0.00    -0.278 C  
HETATM   13  C   UNL     1     -10.565   8.173  67.502  1.00  0.00    -0.291 C  
HETATM   14  C   UNL     1      -9.837   9.498  67.703  1.00  0.00    -0.206 C  
HETATM   15  C   UNL     1     -10.469  10.896  67.865  1.00  0.00    -0.195 C  
HETATM   16  C   UNL     1      -8.932   9.278  68.972  1.00  0.00    -0.140 C  
HETATM   17  C   UNL     1     -11.130  11.267  69.188  1.00  0.00    -0.253 C  
HETATM   18  F   UNL     1      -9.327  11.698  67.833  1.00  0.00    -0.155 F  
HETATM   19  C   UNL     1     -10.811  12.700  69.571  1.00  0.00     0.153 C  
HETATM   20  O   UNL     1     -11.911  10.534  69.802  1.00  0.00    -0.272 OA 
HETATM   21  C   UNL     1     -11.304  13.705  68.480  1.00  0.00    -0.325 C  
HETATM   22  C   UNL     1     -12.515  14.417  69.165  1.00  0.00    -0.010 C  
HETATM   23  C   UNL     1     -10.275  14.737  67.743  1.00  0.00    -0.232 C  
HETATM   24  H   UNL     1      -8.599  13.783  68.197  1.00  0.00     0.000 HD 
HETATM   25  O   UNL     1      -9.052  14.020  67.396  1.00  0.00    -0.191 OA 
ENDROOT
BRANCH  23  26
HETATM   26  C   UNL     1      -9.561  15.859  68.495  1.00  0.00    -0.205 C  
HETATM   27  O   UNL     1      -8.735  15.587  69.373  1.00  0.00    -0.246 OA 
HETATM   28  C   UNL     1     -10.076  17.282  68.339  1.00  0.00    -0.333 C  
HETATM   29 CL   UNL     1      -9.049  18.167  67.221  1.00  0.00    -0.250 Cl 
ENDBRANCH  23  26
TORSDOF 1
ENDMDL
MODEL       16
REMARK 921   NORMALIZED FREE ENERGY PREDICTED BY IDOCK:   -6.62 KCAL/MOL
REMARK 922        TOTAL FREE ENERGY PREDICTED BY IDOCK:   -7.06 KCAL/MOL
REMARK 923 INTER-LIGAND FREE ENERGY PREDICTED BY IDOCK:   -6.77 KCAL/MOL
REMARK 924 INTRA-LIGAND FREE ENERGY PREDICTED BY IDOCK:   -0.28 KCAL/MOL
REMARK 927      BINDING AFFINITY PREDICTED BY RF-SCORE:    0.00 PKD
ROOT
HETATM    1  C   UNL     1      -8.180  16.153  67.614  1.00  0.00    -0.161 C  
HETATM    2  C   UNL     1      -6.957  15.640  68.432  1.00  0.00    -0.115 C  
HETATM    3  C   UNL     1      -8.174  15.212  66.339  1.00  0.00     0.200 C  
HETATM    4  C   UNL     1      -9.289  14.235  66.736  1.00  0.00    -0.290 C  
HETATM    5  C   UNL     1      -9.284  12.673  66.957  1.00  0.00    -0.212 C  
HETATM    6  C   UNL     1      -8.103  12.266  67.941  1.00  0.00    -0.155 C  
HETATM    7  C   UNL     1      -8.221  10.883  68.562  1.00  0.00    -0.140 C  
HETATM    8  C   UNL     1      -9.574  10.670  69.239  1.00  0.00    -0.164 C  
HETATM    9  C   UNL     1      -9.674   9.712  70.181  1.00  0.00    -0.301 C  
HETATM   10  C   UNL     1      -9.654   8.407  69.428  1.00  0.00    -0.170 C  
HETATM   11  O   UNL     1      -9.200   7.394  69.942  1.00  0.00    -0.145 OA 
HETATM   12  C   UNL     1     -10.244   8.418  68.029  1.00  0.00    -0.263 C  
HETATM   13  C   UNL     1     -10.751   9.547  67.470  1.00  0.00    -0.311 C  
HETATM   14  C   UNL     1     -10.772  10.846  68.266  1.00  0.00    -0.244 C  
HETATM   15  C   UNL     1     -10.576  12.278  67.725  1.00  0.00    -0.219 C  
HETATM   16  C   UNL     1     -12.161  10.848  69.008  1.00  0.00    -0.240 C  
HETATM   17  C   UNL     1     -11.708  12.945  66.951  1.00  0.00    -0.382 C  
HETATM   18  F   UNL     1     -10.525  12.998  68.919  1.00  0.00    -0.231 F  
HETATM   19  C   UNL     1     -11.834  14.409  67.332  1.00  0.00    -0.430 C  
HETATM   20  O   UNL     1     -12.355  12.394  66.056  1.00  0.00    -0.627 OA 
HETATM   21  C   UNL     1     -10.513  15.191  67.036  1.00  0.00    -0.282 C  
HETATM   22  C   UNL     1     -10.890  16.088  65.812  1.00  0.00    -0.236 C  
HETATM   23  C   UNL     1      -9.718  15.997  68.212  1.00  0.00    -0.214 C  
HETATM   24  H   UNL     1     -10.554  15.076  69.754  1.00  0.00     0.000 HD 
HETATM   25  O   UNL     1      -9.673  15.165  69.410  1.00  0.00    -0.225 OA 
ENDROOT
BRANCH  23  26
HETATM   26  C   UNL     1     -10.313  17.213  68.920  1.00  0.00    -0.348 C  
HETATM   27  O   UNL     1     -11.000  17.062  69.937  1.00  0.00    -0.111 OA 
HETATM   28  C   UNL     1     -10.277  18.558  68.210  1.00  0.00    -0.376 C  
HETATM   29 CL   UNL     1      -8.976  19.541  68.867  1.00  0.00    -0.378 Cl 
ENDBRANCH  23  26
TORSDOF 1
ENDMDL
MODEL       17
REMARK 921   NORMALIZED FREE ENERGY PREDICTED BY IDOCK:   -6.61 KCAL/MOL
REMARK 922        TOTAL FREE ENERGY PREDICTED BY IDOCK:   -7.04 KCAL/MOL
REMARK 923 INTER-LIGAND FREE ENERGY PREDICTED BY IDOCK:   -6.57 KCAL/MOL
REMARK 924 INTRA-LIGAND FREE ENERGY PREDICTED BY IDOCK:   -0.46 KCAL/MOL
REMARK 927      BINDING AFFINITY PREDICTED BY RF-SCORE:    0.00 PKD
ROOT
HETATM    1  C   UNL     1     -10.719  13.318  64.858  1.00  0.00    -0.365 C  
HETATM    2  C   UNL     1     -10.012  12.367  63.847  1.00  0.00    -0.262 C  
HETATM    3  C   UNL     1     -11.988  12.482  65.305  1.00  0.00    -0.490 C  
HETATM    4  C   UNL     1     -11.493  11.969  66.664  1.00  0.00    -0.411 C  
HETATM    5  C   UNL     1     -11.271  10.508  67.215  1.00  0.00    -0.202 C  
HETATM    6  C   UNL     1     -10.396   9.666  66.189  1.00  0.00    -0.202 C  
HETATM    7  C   UNL     1      -9.764   8.402  66.756  1.00  0.00    -0.309 C  
HETATM    8  C   UNL     1      -8.970   8.680  68.031  1.00  0.00    -0.141 C  
HETATM    9  C   UNL     1      -8.022   7.795  68.398  1.00  0.00    -0.122 C  
HETATM   10  C   UNL     1      -8.772   6.598  68.922  1.00  0.00    -0.128 C  
HETATM   11  O   UNL     1      -8.299   5.473  68.832  1.00  0.00    -0.101 OA 
HETATM   12  C   UNL     1     -10.113   6.869  69.580  1.00  0.00    -0.195 C  
HETATM   13  C   UNL     1     -10.626   8.122  69.682  1.00  0.00    -0.223 C  
HETATM   14  C   UNL     1      -9.833   9.313  69.157  1.00  0.00    -0.167 C  
HETATM   15  C   UNL     1     -10.391  10.589  68.493  1.00  0.00    -0.179 C  
HETATM   16  C   UNL     1      -8.971   9.800  70.381  1.00  0.00    -0.143 C  
HETATM   17  C   UNL     1     -11.062  11.649  69.361  1.00  0.00    -0.206 C  
HETATM   18  F   UNL     1      -9.207  11.203  68.082  1.00  0.00    -0.143 F  
HETATM   19  C   UNL     1     -10.674  13.045  68.908  1.00  0.00    -0.201 C  
HETATM   20  O   UNL     1     -11.896  11.402  70.237  1.00  0.00    -0.325 OA 
HETATM   21  C   UNL     1     -11.086  13.297  67.422  1.00  0.00    -0.300 C  
HETATM   22  C   UNL     1     -12.273  14.308  67.542  1.00  0.00    -0.237 C  
HETATM   23  C   UNL     1      -9.986  13.718  66.290  1.00  0.00    -0.305 C  
HETATM   24  H   UNL     1      -8.376  13.119  67.276  1.00  0.00     0.000 HD 
HETATM   25  O   UNL     1      -8.796  12.890  66.455  1.00  0.00    -0.145 OA 
ENDROOT
BRANCH  23  26
HETATM   26  C   UNL     1      -9.230  15.045  66.336  1.00  0.00    -0.295 C  
HETATM   27  O   UNL     1      -9.413  15.892  65.455  1.00  0.00    -0.355 OA 
HETATM   28  C   UNL     1      -8.070  15.188  67.310  1.00  0.00    -0.201 C  
HETATM   29 CL   UNL     1      -8.586  16.101  68.720  1.00  0.00    -0.223 Cl 
ENDBRANCH  23  26
TORSDOF 1
ENDMDL
MODEL       18
REMARK 921   NORMALIZED FREE ENERGY PREDICTED BY IDOCK:   -6.60 KCAL/MOL
REMARK 922        TOTAL FREE ENERGY PREDICTED BY IDOCK:   -7.03 KCAL/MOL
REMARK 923 INTER-LIGAND FREE ENERGY PREDICTED BY IDOCK:   -6.94 KCAL/MOL
REMARK 924 INTRA-LIGAND FREE ENERGY PREDICTED BY IDOCK:   -0.09 KCAL/MOL
REMARK 927      BINDING AFFINITY PREDICTED BY RF-SCORE:    0.00 PKD
ROOT
HETATM    1  C   UNL     1     -10.565  13.036  68.003  1.00  0.00    -0.246 C  
HETATM    2  C   UNL     1     -11.485  13.301  69.233  1.00  0.00    -0.345 C  
HETATM    3  C   UNL     1      -9.212  12.553  68.669  1.00  0.00     0.025 C  
HETATM    4  C   UNL     1      -9.347  11.039  68.459  1.00  0.00    -0.188 C  
HETATM    5  C   UNL     1      -9.403   9.839  69.481  1.00  0.00    -0.226 C  
HETATM    6  C   UNL     1     -10.490  10.129  70.604  1.00  0.00    -0.088 C  
HETATM    7  C   UNL     1     -10.941   8.915  71.403  1.00  0.00    -0.380 C  
HETATM    8  C   UNL     1     -11.399   7.772  70.500  1.00  0.00    -0.253 C  
HETATM    9  C   UNL     1     -12.214   6.833  71.022  1.00  0.00    -0.405 C  
HETATM   10  C   UNL     1     -11.337   5.998  71.921  1.00  0.00    -0.279 C  
HETATM   11  O   UNL     1     -11.800   5.447  72.911  1.00  0.00    -0.263 OA 
HETATM   12  C   UNL     1      -9.880   5.864  71.518  1.00  0.00    -0.201 C  
HETATM   13  C   UNL     1      -9.378   6.474  70.413  1.00  0.00    -0.166 C  
HETATM   14  C   UNL     1     -10.296   7.296  69.516  1.00  0.00    -0.230 C  
HETATM   15  C   UNL     1      -9.940   8.582  68.742  1.00  0.00    -0.186 C  
HETATM   16  C   UNL     1     -10.837   6.278  68.444  1.00  0.00    -0.394 C  
HETATM   17  C   UNL     1      -9.093   8.483  67.478  1.00  0.00    -0.134 C  
HETATM   18  F   UNL     1     -11.199   8.951  68.265  1.00  0.00    -0.064 F  
HETATM   19  C   UNL     1      -9.604   9.430  66.407  1.00  0.00    -0.285 C  
HETATM   20  O   UNL     1      -8.065   7.806  67.384  1.00  0.00    -0.119 OA 
HETATM   21  C   UNL     1      -9.576  10.913  66.898  1.00  0.00    -0.203 C  
HETATM   22  C   UNL     1      -8.413  11.547  66.067  1.00  0.00    -0.005 C  
HETATM   23  C   UNL     1     -10.928  11.829  66.926  1.00  0.00    -0.285 C  
HETATM   24  H   UNL     1     -12.235  10.342  66.850  1.00  0.00     0.000 HD 
HETATM   25  O   UNL     1     -12.027  11.033  67.466  1.00  0.00    -0.529 OA 
ENDROOT
BRANCH  23  26
HETATM   26  C   UNL     1     -11.671  12.233  65.655  1.00  0.00    -0.382 C  
HETATM   27  O   UNL     1     -12.635  13.004  65.720  1.00  0.00    -0.500 OA 
HETATM   28  C   UNL     1     -11.383  11.470  64.370  1.00  0.00    -0.209 C  
HETATM   29 CL   UNL     1     -10.310  12.414  63.347  1.00  0.00    -0.402 Cl 
ENDBRANCH  23  26
TORSDOF 1
ENDMDL
MODEL       19
REMARK 921   NORMALIZED FREE ENERGY PREDICTED BY IDOCK:   -6.58 KCAL/MOL
REMARK 922        TOTAL FREE ENERGY PREDICTED BY IDOCK:   -7.01 KCAL/MOL
REMARK 923 INTER-LIGAND FREE ENERGY PREDICTED BY IDOCK:   -6.62 KCAL/MOL
REMARK 924 INTRA-LIGAND FREE ENERGY PREDICTED BY IDOCK:   -0.38 KCAL/MOL
REMARK 927      BINDING AFFINITY PREDICTED BY RF-SCORE:    0.00 PKD
ROOT
HETATM    1  C   UNL     1      -8.655  19.877  67.206  1.00  0.00    -0.384 C  
HETATM    2  C   UNL     1      -9.781  20.171  66.170  1.00  0.00    -0.481 C  
HETATM    3  C   UNL     1      -9.449  19.252  68.425  1.00  0.00    -0.435 C  
HETATM    4  C   UNL     1      -9.148  17.765  68.193  1.00  0.00    -0.274 C  
HETATM    5  C   UNL     1     -10.095  16.534  67.918  1.00  0.00    -0.256 C  
HETATM    6  C   UNL     1     -11.097  16.872  66.731  1.00  0.00     0.280 C  
HETATM    7  C   UNL     1     -11.776  15.671  66.090  1.00  0.00     0.451 C  
HETATM    8  C   UNL     1     -10.770  14.609  65.651  1.00  0.00    -0.340 C  
HETATM    9  C   UNL     1     -11.145  13.724  64.707  1.00  0.00    -0.380 C  
HETATM   10  C   UNL     1     -12.097  12.780  65.398  1.00  0.00    -0.462 C  
HETATM   11  O   UNL     1     -12.997  12.232  64.776  1.00  0.00    -0.713 OA 
HETATM   12  C   UNL     1     -11.860  12.536  66.877  1.00  0.00    -0.404 C  
HETATM   13  C   UNL     1     -10.853  13.145  67.556  1.00  0.00    -0.269 C  
HETATM   14  C   UNL     1      -9.897  14.079  66.823  1.00  0.00    -0.275 C  
HETATM   15  C   UNL     1      -9.236  15.360  67.373  1.00  0.00    -0.197 C  
HETATM   16  C   UNL     1      -8.720  13.156  66.334  1.00  0.00     0.186 C  
HETATM   17  C   UNL     1      -8.076  15.238  68.355  1.00  0.00    -0.137 C  
HETATM   18  F   UNL     1      -8.636  15.856  66.215  1.00  0.00    -0.290 F  
HETATM   19  C   UNL     1      -7.002  16.268  68.055  1.00  0.00    -0.140 C  
HETATM   20  O   UNL     1      -8.068  14.479  69.328  1.00  0.00    -0.088 OA 
HETATM   21  C   UNL     1      -7.567  17.723  68.145  1.00  0.00    -0.250 C  
HETATM   22  C   UNL     1      -6.910  18.286  69.446  1.00  0.00    -0.138 C  
HETATM   23  C   UNL     1      -7.484  18.750  66.878  1.00  0.00    -0.221 C  
HETATM   24  H   UNL     1      -7.181  17.387  65.473  1.00  0.00     0.000 HD 
HETATM   25  O   UNL     1      -7.851  18.032  65.661  1.00  0.00    -0.531 OA 
ENDROOT
BRANCH  23  26
HETATM   26  C   UNL     1      -6.156  19.269  66.328  1.00  0.00    -0.166 C  
HETATM   27  O   UNL     1      -5.150  18.551  66.362  1.00  0.00    -0.134 OA 
HETATM   28  C   UNL     1      -6.033  20.749  66.000  1.00  0.00    -0.232 C  
HETATM   29 CL   UNL     1      -6.178  20.987  64.265  1.00  0.00    -0.343 Cl 
ENDBRANCH  23  26
TORSDOF 1
ENDMDL
MODEL       20
REMARK 921   NORMALIZED FREE ENERGY PREDICTED BY IDOCK:   -6.54 KCAL/MOL
REMARK 922        TOTAL FREE ENERGY PREDICTED BY IDOCK:   -6.97 KCAL/MOL
REMARK 923 INTER-LIGAND FREE ENERGY PREDICTED BY IDOCK:   -6.60 KCAL/MOL
REMARK 924 INTRA-LIGAND FREE ENERGY PREDICTED BY IDOCK:   -0.36 KCAL/MOL
REMARK 927      BINDING AFFINITY PREDICTED BY RF-SCORE:    0.00 PKD
ROOT
HETATM    1  C   UNL     1      -8.661  20.123  67.259  1.00  0.00    -0.414 C  
HETATM    2  C   UNL     1      -8.285  20.066  65.749  1.00  0.00    -0.092 C  
HETATM    3  C   UNL     1     -10.244  20.073  67.234  1.00  0.00    -0.565 C  
HETATM    4  C   UNL     1     -10.460  18.596  67.591  1.00  0.00    -0.468 C  
HETATM    5  C   UNL     1     -11.159  17.420  66.807  1.00  0.00     0.372 C  
HETATM    6  C   UNL     1     -10.587  17.336  65.326  1.00  0.00    -0.002 C  
HETATM    7  C   UNL     1     -10.855  16.027  64.597  1.00  0.00    -0.202 C  
HETATM    8  C   UNL     1     -10.406  14.815  65.410  1.00  0.00    -0.410 C  
HETATM    9  C   UNL     1     -10.169  13.660  64.758  1.00  0.00    -0.363 C  
HETATM   10  C   UNL     1     -11.528  13.123  64.389  1.00  0.00    -0.366 C  
HETATM   11  O   UNL     1     -11.680  12.437  63.387  1.00  0.00    -0.468 OA 
HETATM   12  C   UNL     1     -12.672  13.456  65.330  1.00  0.00    -0.484 C  
HETATM   13  C   UNL     1     -12.491  14.212  66.444  1.00  0.00    -0.353 C  
HETATM   14  C   UNL     1     -11.100  14.724  66.798  1.00  0.00    -0.338 C  
HETATM   15  C   UNL     1     -10.739  16.072  67.457  1.00  0.00    -0.314 C  
HETATM   16  C   UNL     1     -10.476  13.609  67.717  1.00  0.00    -0.241 C  
HETATM   17  C   UNL     1     -10.992  16.264  68.948  1.00  0.00    -0.334 C  
HETATM   18  F   UNL     1      -9.348  16.040  67.361  1.00  0.00    -0.209 F  
HETATM   19  C   UNL     1      -9.850  17.025  69.597  1.00  0.00     0.214 C  
HETATM   20  O   UNL     1     -12.037  15.943  69.522  1.00  0.00    -0.329 OA 
HETATM   21  C   UNL     1      -9.663  18.435  68.948  1.00  0.00    -0.318 C  
HETATM   22  C   UNL     1     -10.162  19.414  70.059  1.00  0.00     0.650 C  
HETATM   23  C   UNL     1      -8.242  18.883  68.277  1.00  0.00    -0.329 C  
HETATM   24  H   UNL     1      -7.485  17.066  68.062  1.00  0.00     0.000 HD 
HETATM   25  O   UNL     1      -7.725  17.776  67.479  1.00  0.00    -0.202 OA 
ENDROOT
BRANCH  23  26
HETATM   26  C   UNL     1      -6.967  19.060  69.099  1.00  0.00    -0.310 C  
HETATM   27  O   UNL     1      -6.795  20.091  69.760  1.00  0.00    -0.313 OA 
HETATM   28  C   UNL     1      -5.817  18.090  68.876  1.00  0.00    -0.201 C  
HETATM   29 CL   UNL     1      -5.788  16.896  70.165  1.00  0.00    -0.215 Cl 
ENDBRANCH  23  26
TORSDOF 1
ENDMDL
MODEL       21
REMARK 921   NORMALIZED FREE ENERGY PREDICTED BY IDOCK:   -6.54 KCAL/MOL
REMARK 922        TOTAL FREE ENERGY PREDICTED BY IDOCK:   -6.96 KCAL/MOL
REMARK 923 INTER-LIGAND FREE ENERGY PREDICTED BY IDOCK:   -6.56 KCAL/MOL
REMARK 924 INTRA-LIGAND FREE ENERGY PREDICTED BY IDOCK:   -0.40 KCAL/MOL
REMARK 927      BINDING AFFINITY PREDICTED BY RF-SCORE:    0.00 PKD
ROOT
HETATM    1  C   UNL     1     -11.772  15.087  65.820  1.00  0.00    -0.104 C  
HETATM    2  C   UNL     1     -11.597  14.986  64.275  1.00  0.00    -0.190 C  
HETATM    3  C   UNL     1     -12.641  13.808  66.164  1.00  0.00    -0.423 C  
HETATM    4  C   UNL     1     -11.539  12.883  66.696  1.00  0.00    -0.428 C  
HETATM    5  C   UNL     1     -11.025  11.474  66.206  1.00  0.00    -0.328 C  
HETATM    6  C   UNL     1     -10.714  11.520  64.647  1.00  0.00    -0.379 C  
HETATM    7  C   UNL     1      -9.841  10.388  64.124  1.00  0.00    -0.379 C  
HETATM    8  C   UNL     1      -8.547  10.246  64.922  1.00  0.00    -0.192 C  
HETATM    9  C   UNL     1      -7.505   9.617  64.343  1.00  0.00    -0.125 C  
HETATM   10  C   UNL     1      -7.868   8.154  64.347  1.00  0.00    -0.136 C  
HETATM   11  O   UNL     1      -7.453   7.403  63.475  1.00  0.00    -0.089 OA 
HETATM   12  C   UNL     1      -8.743   7.672  65.491  1.00  0.00    -0.079 C  
HETATM   13  C   UNL     1      -9.192   8.513  66.458  1.00  0.00    -0.239 C  
HETATM   14  C   UNL     1      -8.791   9.983  66.434  1.00  0.00    -0.158 C  
HETATM   15  C   UNL     1      -9.646  11.193  66.864  1.00  0.00    -0.186 C  
HETATM   16  C   UNL     1      -7.469  10.059  67.284  1.00  0.00    -0.091 C  
HETATM   17  C   UNL     1      -9.862  11.463  68.350  1.00  0.00    -0.205 C  
HETATM   18  F   UNL     1      -8.826  12.245  66.455  1.00  0.00    -0.200 F  
HETATM   19  C   UNL     1      -9.790  12.950  68.646  1.00  0.00    -0.074 C  
HETATM   20  O   UNL     1     -10.167  10.597  69.175  1.00  0.00    -0.204 OA 
HETATM   21  C   UNL     1     -10.871  13.744  67.843  1.00  0.00    -0.257 C  
HETATM   22  C   UNL     1     -11.894  14.177  68.943  1.00  0.00    -0.382 C  
HETATM   23  C   UNL     1     -10.460  14.954  66.826  1.00  0.00    -0.284 C  
HETATM   24  H   UNL     1      -8.553  14.462  66.612  1.00  0.00     0.000 HD 
HETATM   25  O   UNL     1      -9.305  14.538  66.037  1.00  0.00    -0.259 OA 
ENDROOT
BRANCH  23  26
HETATM   26  C   UNL     1      -9.825  16.255  67.313  1.00  0.00    -0.243 C  
HETATM   27  O   UNL     1      -8.677  16.248  67.773  1.00  0.00    -0.177 OA 
HETATM   28  C   UNL     1     -10.710  17.481  67.474  1.00  0.00    -0.280 C  
HETATM   29 CL   UNL     1     -10.482  18.562  66.107  1.00  0.00    -0.467 Cl 
ENDBRANCH  23  26
TORSDOF 1
ENDMDL
MODEL       22
REMARK 921   NORMALIZED FREE ENERGY PREDICTED BY IDOCK:   -6.42 KCAL/MOL
REMARK 922        TOTAL FREE ENERGY PREDICTED BY IDOCK:   -6.84 KCAL/MOL
REMARK 923 INTER-LIGAND FREE ENERGY PREDICTED BY IDOCK:   -6.45 KCAL/MOL
REMARK 924 INTRA-LIGAND FREE ENERGY PREDICTED BY IDOCK:   -0.39 KCAL/MOL
REMARK 927      BINDING AFFINITY PREDICTED BY RF-SCORE:    0.00 PKD
ROOT
HETATM    1  C   UNL     1     -10.301  12.446  67.012  1.00  0.00    -0.235 C  
HETATM    2  C   UNL     1     -11.697  12.632  67.677  1.00  0.00    -0.420 C  
HETATM    3  C   UNL     1      -9.312  12.479  68.248  1.00  0.00    -0.193 C  
HETATM    4  C   UNL     1      -9.051  10.976  68.410  1.00  0.00    -0.161 C  
HETATM    5  C   UNL     1      -9.320   9.988  69.610  1.00  0.00    -0.242 C  
HETATM    6  C   UNL     1     -10.822  10.133  70.109  1.00  0.00    -0.368 C  
HETATM    7  C   UNL     1     -11.338   8.984  70.964  1.00  0.00    -0.362 C  
HETATM    8  C   UNL     1     -11.128   7.629  70.291  1.00  0.00    -0.256 C  
HETATM    9  C   UNL     1     -11.894   6.593  70.688  1.00  0.00    -0.443 C  
HETATM   10  C   UNL     1     -11.359   6.196  72.040  1.00  0.00    -0.297 C  
HETATM   11  O   UNL     1     -12.095   5.701  72.884  1.00  0.00    -0.121 OA 
HETATM   12  C   UNL     1      -9.876   6.418  72.279  1.00  0.00    -0.168 C  
HETATM   13  C   UNL     1      -9.068   6.961  71.333  1.00  0.00    -0.148 C  
HETATM   14  C   UNL     1      -9.637   7.335  69.969  1.00  0.00    -0.167 C  
HETATM   15  C   UNL     1      -9.230   8.529  69.081  1.00  0.00    -0.150 C  
HETATM   16  C   UNL     1      -9.450   6.049  69.082  1.00  0.00    -0.146 C  
HETATM   17  C   UNL     1      -7.913   8.474  68.315  1.00  0.00    -0.114 C  
HETATM   18  F   UNL     1     -10.197   8.446  68.079  1.00  0.00    -0.201 F  
HETATM   19  C   UNL     1      -8.073   9.054  66.921  1.00  0.00    -0.112 C  
HETATM   20  O   UNL     1      -6.840   8.111  68.805  1.00  0.00    -0.062 OA 
HETATM   21  C   UNL     1      -8.545  10.543  66.975  1.00  0.00    -0.127 C  
HETATM   22  C   UNL     1      -7.279  11.340  66.519  1.00  0.00    -0.096 C  
HETATM   23  C   UNL     1      -9.919  11.030  66.239  1.00  0.00    -0.224 C  
HETATM   24  H   UNL     1     -10.752   9.241  66.062  1.00  0.00     0.000 HD 
HETATM   25  O   UNL     1     -10.970  10.052  66.504  1.00  0.00    -0.008 OA 
ENDROOT
BRANCH  23  26
HETATM   26  C   UNL     1     -10.092  10.999  64.721  1.00  0.00    -0.308 C  
HETATM   27  O   UNL     1      -9.599  10.077  64.061  1.00  0.00    -0.285 OA 
HETATM   28  C   UNL     1     -10.631  12.240  64.025  1.00  0.00    -0.400 C  
HETATM   29 CL   UNL     1     -12.331  12.012  63.640  1.00  0.00    -0.641 Cl 
ENDBRANCH  23  26
TORSDOF 1
ENDMDL
MODEL       23
REMARK 921   NORMALIZED FREE ENERGY PREDICTED BY IDOCK:   -6.42 KCAL/MOL
REMARK 922        TOTAL FREE ENERGY PREDICTED BY IDOCK:   -6.84 KCAL/MOL
REMARK 923 INTER-LIGAND FREE ENERGY PREDICTED BY IDOCK:   -6.53 KCAL/MOL
REMARK 924 INTRA-LIGAND FREE ENERGY PREDICTED BY IDOCK:   -0.30 KCAL/MOL
REMARK 927      BINDING AFFINITY PREDICTED BY RF-SCORE:    0.00 PKD
ROOT
HETATM    1  C   UNL     1     -10.585  13.561  67.832  1.00  0.00    -0.255 C  
HETATM    2  C   UNL     1     -11.077  13.595  69.310  1.00  0.00    -0.241 C  
HETATM    3  C   UNL     1      -9.110  12.997  67.961  1.00  0.00    -0.210 C  
HETATM    4  C   UNL     1      -9.355  11.540  67.550  1.00  0.00    -0.166 C  
HETATM    5  C   UNL     1      -9.138  10.181  68.323  1.00  0.00    -0.122 C  
HETATM    6  C   UNL     1      -9.822  10.254  69.756  1.00  0.00    -0.201 C  
HETATM    7  C   UNL     1     -10.050   8.913  70.438  1.00  0.00    -0.232 C  
HETATM    8  C   UNL     1     -10.800   7.933  69.539  1.00  0.00    -0.141 C  
HETATM    9  C   UNL     1     -11.448   6.903  70.118  1.00  0.00    -0.354 C  
HETATM   10  C   UNL     1     -10.370   5.944  70.552  1.00  0.00    -0.235 C  
HETATM   11  O   UNL     1     -10.528   5.223  71.528  1.00  0.00    -0.220 OA 
HETATM   12  C   UNL     1      -9.109   5.908  69.707  1.00  0.00    -0.147 C  
HETATM   13  C   UNL     1      -8.947   6.708  68.621  1.00  0.00    -0.124 C  
HETATM   14  C   UNL     1     -10.065   7.653  68.199  1.00  0.00    -0.220 C  
HETATM   15  C   UNL     1      -9.918   9.060  67.582  1.00  0.00    -0.201 C  
HETATM   16  C   UNL     1     -10.941   6.823  67.188  1.00  0.00    -0.458 C  
HETATM   17  C   UNL     1      -9.499   9.194  66.122  1.00  0.00    -0.245 C  
HETATM   18  F   UNL     1     -11.248   9.480  67.582  1.00  0.00    -0.308 F  
HETATM   19  C   UNL     1     -10.279  10.300  65.435  1.00  0.00    -0.312 C  
HETATM   20  O   UNL     1      -8.572   8.563  65.606  1.00  0.00    -0.158 OA 
HETATM   21  C   UNL     1     -10.051  11.678  66.136  1.00  0.00    -0.259 C  
HETATM   22  C   UNL     1      -9.176  12.467  65.109  1.00  0.00     0.421 C  
HETATM   23  C   UNL     1     -11.299  12.549  66.730  1.00  0.00    -0.334 C  
HETATM   24  H   UNL     1     -12.617  11.073  66.806  1.00  0.00     0.000 HD 
HETATM   25  O   UNL     1     -12.208  11.652  67.438  1.00  0.00    -0.458 OA 
ENDROOT
BRANCH  23  26
HETATM   26  C   UNL     1     -12.379  13.151  65.833  1.00  0.00    -0.398 C  
HETATM   27  O   UNL     1     -13.001  14.154  66.202  1.00  0.00    -0.280 OA 
HETATM   28  C   UNL     1     -12.857  12.350  64.631  1.00  0.00    -0.159 C  
HETATM   29 CL   UNL     1     -12.112  12.975  63.167  1.00  0.00    -0.518 Cl 
ENDBRANCH  23  26
TORSDOF 1
ENDMDL
MODEL       24
REMARK 921   NORMALIZED FREE ENERGY PREDICTED BY IDOCK:   -6.30 KCAL/MOL
REMARK 922        TOTAL FREE ENERGY PREDICTED BY IDOCK:   -6.72 KCAL/MOL
REMARK 923 INTER-LIGAND FREE ENERGY PREDICTED BY IDOCK:   -6.33 KCAL/MOL
REMARK 924 INTRA-LIGAND FREE ENERGY PREDICTED BY IDOCK:   -0.39 KCAL/MOL
REMARK 927      BINDING AFFINITY PREDICTED BY RF-SCORE:    0.00 PKD
ROOT
HETATM    1  C   UNL     1      -7.342   9.448  67.761  1.00  0.00    -0.083 C  
HETATM    2  C   UNL     1      -6.275  10.184  66.896  1.00  0.00    -0.064 C  
HETATM    3  C   UNL     1      -7.427  10.349  69.061  1.00  0.00    -0.106 C  
HETATM    4  C   UNL     1      -8.715  11.124  68.753  1.00  0.00    -0.130 C  
HETATM    5  C   UNL     1      -8.994  12.667  68.578  1.00  0.00    -0.046 C  
HETATM    6  C   UNL     1      -7.960  13.294  67.547  1.00  0.00    -0.186 C  
HETATM    7  C   UNL     1      -8.351  14.648  66.973  1.00  0.00    -0.214 C  
HETATM    8  C   UNL     1      -9.757  14.634  66.376  1.00  0.00    -0.315 C  
HETATM    9  C   UNL     1     -10.075  15.578  65.469  1.00  0.00    -0.406 C  
HETATM   10  C   UNL     1     -10.240  16.852  66.259  1.00  0.00    -0.329 C  
HETATM   11  O   UNL     1      -9.999  17.939  65.751  1.00  0.00    -0.551 OA 
HETATM   12  C   UNL     1     -10.738  16.709  67.686  1.00  0.00    -0.306 C  
HETATM   13  C   UNL     1     -11.009  15.498  68.237  1.00  0.00    -0.305 C  
HETATM   14  C   UNL     1     -10.850  14.231  67.404  1.00  0.00    -0.288 C  
HETATM   15  C   UNL     1     -10.377  12.845  67.891  1.00  0.00    -0.231 C  
HETATM   16  C   UNL     1     -12.256  14.001  66.737  1.00  0.00    -0.439 C  
HETATM   17  C   UNL     1     -11.330  11.975  68.703  1.00  0.00    -0.277 C  
HETATM   18  F   UNL     1     -10.269  12.169  66.676  1.00  0.00    -0.207 F  
HETATM   19  C   UNL     1     -11.221  10.519  68.287  1.00  0.00    -0.354 C  
HETATM   20  O   UNL     1     -12.010  12.386  69.648  1.00  0.00    -0.304 OA 
HETATM   21  C   UNL     1      -9.770   9.975  68.489  1.00  0.00    -0.164 C  
HETATM   22  C   UNL     1      -9.915   9.001  69.704  1.00  0.00    -0.196 C  
HETATM   23  C   UNL     1      -8.915   9.344  67.249  1.00  0.00    -0.130 C  
HETATM   24  H   UNL     1      -9.985  10.136  65.782  1.00  0.00     0.000 HD 
HETATM   25  O   UNL     1      -9.083  10.196  66.076  1.00  0.00    -0.146 OA 
ENDROOT
BRANCH  23  26
HETATM   26  C   UNL     1      -9.329   8.057  66.538  1.00  0.00    -0.205 C  
HETATM   27  O   UNL     1     -10.527   7.811  66.354  1.00  0.00    -0.116 OA 
HETATM   28  C   UNL     1      -8.279   6.980  66.312  1.00  0.00    -0.120 C  
HETATM   29 CL   UNL     1      -7.722   7.033  64.647  1.00  0.00    -0.110 Cl 
ENDBRANCH  23  26
TORSDOF 1
ENDMDL
MODEL       25
REMARK 921   NORMALIZED FREE ENERGY PREDICTED BY IDOCK:   -6.24 KCAL/MOL
REMARK 922        TOTAL FREE ENERGY PREDICTED BY IDOCK:   -6.64 KCAL/MOL
REMARK 923 INTER-LIGAND FREE ENERGY PREDICTED BY IDOCK:   -6.24 KCAL/MOL
REMARK 924 INTRA-LIGAND FREE ENERGY PREDICTED BY IDOCK:   -0.41 KCAL/MOL
REMARK 927      BINDING AFFINITY PREDICTED BY RF-SCORE:    0.00 PKD
ROOT
HETATM    1  C   UNL     1     -11.775  13.744  69.314  1.00  0.00    -0.376 C  
HETATM    2  C   UNL     1     -11.246  14.227  70.697  1.00  0.00     0.108 C  
HETATM    3  C   UNL     1     -12.619  14.983  68.804  1.00  0.00     0.347 C  
HETATM    4  C   UNL     1     -11.613  15.592  67.818  1.00  0.00    -0.193 C  
HETATM    5  C   UNL     1     -10.915  17.006  67.772  1.00  0.00    -0.199 C  
HETATM    6  C   UNL     1     -10.259  17.336  69.182  1.00  0.00    -0.283 C  
HETATM    7  C   UNL     1      -9.221  18.449  69.173  1.00  0.00     0.010 C  
HETATM    8  C   UNL     1      -8.138  18.215  68.123  1.00  0.00    -0.289 C  
HETATM    9  C   UNL     1      -6.954  18.841  68.275  1.00  0.00    -0.266 C  
HETATM   10  C   UNL     1      -7.217  20.284  67.928  1.00  0.00    -0.284 C  
HETATM   11  O   UNL     1      -6.568  21.182  68.447  1.00  0.00    -0.135 OA 
HETATM   12  C   UNL     1      -8.299  20.551  66.896  1.00  0.00    -0.264 C  
HETATM   13  C   UNL     1      -9.009  19.546  66.321  1.00  0.00    -0.400 C  
HETATM   14  C   UNL     1      -8.704  18.096  66.681  1.00  0.00    -0.279 C  
HETATM   15  C   UNL     1      -9.709  16.931  66.796  1.00  0.00    -0.266 C  
HETATM   16  C   UNL     1      -7.620  17.637  65.638  1.00  0.00     0.241 C  
HETATM   17  C   UNL     1     -10.275  16.306  65.525  1.00  0.00    -0.298 C  
HETATM   18  F   UNL     1      -8.884  15.931  67.312  1.00  0.00    -0.182 F  
HETATM   19  C   UNL     1     -10.365  14.797  65.657  1.00  0.00    -0.369 C  
HETATM   20  O   UNL     1     -10.707  16.955  64.567  1.00  0.00    -0.677 OA 
HETATM   21  C   UNL     1     -11.280  14.383  66.854  1.00  0.00    -0.340 C  
HETATM   22  C   UNL     1     -12.552  13.804  66.154  1.00  0.00    -0.423 C  
HETATM   23  C   UNL     1     -10.723  13.444  68.069  1.00  0.00    -0.248 C  
HETATM   24  H   UNL     1      -8.791  13.736  67.742  1.00  0.00     0.000 HD 
HETATM   25  O   UNL     1      -9.394  13.908  68.455  1.00  0.00    -0.203 OA 
ENDROOT
BRANCH  23  26
HETATM   26  C   UNL     1     -10.298  11.992  67.854  1.00  0.00    -0.197 C  
HETATM   27  O   UNL     1      -9.335  11.732  67.122  1.00  0.00    -0.172 OA 
HETATM   28  C   UNL     1     -11.228  10.884  68.324  1.00  0.00    -0.286 C  
HETATM   29 CL   UNL     1     -10.643  10.221  69.843  1.00  0.00    -0.315 Cl 
ENDBRANCH  23  26
TORSDOF 1
ENDMDL
MODEL       26
REMARK 921   NORMALIZED FREE ENERGY PREDICTED BY IDOCK:   -6.23 KCAL/MOL
REMARK 922        TOTAL FREE ENERGY PREDICTED BY IDOCK:   -6.64 KCAL/MOL
REMARK 923 INTER-LIGAND FREE ENERGY PREDICTED BY IDOCK:   -6.25 KCAL/MOL
REMARK 924 INTRA-LIGAND FREE ENERGY PREDICTED BY IDOCK:   -0.39 KCAL/MOL
REMARK 927      BINDING AFFINITY PREDICTED BY RF-SCORE:    0.00 PKD
ROOT
HETATM    1  C   UNL     1      -8.481  11.875  67.247  1.00  0.00    -0.172 C  
HETATM    2  C   UNL     1      -8.082  12.588  68.573  1.00  0.00    -0.089 C  
HETATM    3  C   UNL     1      -7.569  10.580  67.253  1.00  0.00    -0.096 C  
HETATM    4  C   UNL     1      -8.599   9.541  67.717  1.00  0.00    -0.115 C  
HETATM    5  C   UNL     1      -8.642   8.600  68.982  1.00  0.00    -0.129 C  
HETATM    6  C   UNL     1      -8.391   9.450  70.302  1.00  0.00    -0.217 C  
HETATM    7  C   UNL     1      -8.803   8.773  71.601  1.00  0.00    -0.278 C  
HETATM    8  C   UNL     1     -10.246   8.274  71.555  1.00  0.00    -0.277 C  
HETATM    9  C   UNL     1     -10.886   8.060  72.722  1.00  0.00    -0.438 C  
HETATM   10  C   UNL     1     -10.286   6.796  73.282  1.00  0.00    -0.269 C  
HETATM   11  O   UNL     1     -10.226   6.612  74.490  1.00  0.00    -0.356 OA 
HETATM   12  C   UNL     1      -9.795   5.771  72.275  1.00  0.00    -0.185 C  
HETATM   13  C   UNL     1      -9.874   5.981  70.936  1.00  0.00    -0.222 C  
HETATM   14  C   UNL     1     -10.503   7.264  70.403  1.00  0.00    -0.232 C  
HETATM   15  C   UNL     1     -10.089   8.056  69.146  1.00  0.00    -0.201 C  
HETATM   16  C   UNL     1     -12.029   6.925  70.222  1.00  0.00    -0.257 C  
HETATM   17  C   UNL     1     -10.459   7.517  67.768  1.00  0.00    -0.223 C  
HETATM   18  F   UNL     1     -10.891   9.190  69.281  1.00  0.00    -0.229 F  
HETATM   19  C   UNL     1     -10.901   8.640  66.848  1.00  0.00     0.029 C  
HETATM   20  O   UNL     1     -10.310   6.342  67.421  1.00  0.00    -0.157 OA 
HETATM   21  C   UNL     1      -9.772   9.706  66.667  1.00  0.00    -0.266 C  
HETATM   22  C   UNL     1      -9.296   9.483  65.195  1.00  0.00    -0.316 C  
HETATM   23  C   UNL     1     -10.014  11.277  67.041  1.00  0.00    -0.198 C  
HETATM   24  H   UNL     1     -11.601  11.015  68.197  1.00  0.00     0.000 HD 
HETATM   25  O   UNL     1     -10.723  11.357  68.314  1.00  0.00    -0.184 OA 
ENDROOT
BRANCH  23  26
HETATM   26  C   UNL     1     -11.006  12.157  66.283  1.00  0.00    -0.295 C  
HETATM   27  O   UNL     1     -12.090  11.691  65.915  1.00  0.00    -0.252 OA 
HETATM   28  C   UNL     1     -10.530  13.504  65.758  1.00  0.00    -0.291 C  
HETATM   29 CL   UNL     1     -11.095  14.787  66.819  1.00  0.00    -0.332 Cl 
ENDBRANCH  23  26
TORSDOF 1
ENDMDL
MODEL       27
REMARK 921   NORMALIZED FREE ENERGY PREDICTED BY IDOCK:   -6.19 KCAL/MOL
REMARK 922        TOTAL FREE ENERGY PREDICTED BY IDOCK:   -6.59 KCAL/MOL
REMARK 923 INTER-LIGAND FREE ENERGY PREDICTED BY IDOCK:   -6.15 KCAL/MOL
REMARK 924 INTRA-LIGAND FREE ENERGY PREDICTED BY IDOCK:   -0.44 KCAL/MOL
REMARK 927      BINDING AFFINITY PREDICTED BY RF-SCORE:    0.00 PKD
ROOT
HETATM    1  C   UNL     1     -11.748  14.553  66.014  1.00  0.00    -0.347 C  
HETATM    2  C   UNL     1     -11.560  14.711  64.475  1.00  0.00    -0.377 C  
HETATM    3  C   UNL     1     -12.490  13.160  66.140  1.00  0.00    -0.274 C  
HETATM    4  C   UNL     1     -11.305  12.272  66.542  1.00  0.00    -0.403 C  
HETATM    5  C   UNL     1     -10.657  11.012  65.848  1.00  0.00    -0.270 C  
HETATM    6  C   UNL     1     -10.348  11.329  64.322  1.00  0.00    -0.399 C  
HETATM    7  C   UNL     1      -9.369  10.381  63.645  1.00  0.00    -0.329 C  
HETATM    8  C   UNL     1      -8.069  10.240  64.433  1.00  0.00    -0.149 C  
HETATM    9  C   UNL     1      -6.970   9.810  63.782  1.00  0.00    -0.119 C  
HETATM   10  C   UNL     1      -7.190   8.337  63.553  1.00  0.00    -0.093 C  
HETATM   11  O   UNL     1      -6.702   7.774  62.582  1.00  0.00    -0.077 OA 
HETATM   12  C   UNL     1      -8.017   7.602  64.593  1.00  0.00    -0.136 C  
HETATM   13  C   UNL     1      -8.547   8.235  65.671  1.00  0.00    -0.189 C  
HETATM   14  C   UNL     1      -8.290   9.723  65.882  1.00  0.00    -0.128 C  
HETATM   15  C   UNL     1      -9.259  10.764  66.479  1.00  0.00    -0.168 C  
HETATM   16  C   UNL     1      -6.983   9.790  66.757  1.00  0.00    -0.085 C  
HETATM   17  C   UNL     1      -9.503  10.778  67.985  1.00  0.00    -0.160 C  
HETATM   18  F   UNL     1      -8.543  11.940  66.252  1.00  0.00    -0.182 F  
HETATM   19  C   UNL     1      -9.576  12.201  68.508  1.00  0.00    -0.137 C  
HETATM   20  O   UNL     1      -9.725   9.769  68.660  1.00  0.00    -0.150 OA 
HETATM   21  C   UNL     1     -10.726  13.003  67.819  1.00  0.00    -0.242 C  
HETATM   22  C   UNL     1     -11.788  13.160  68.955  1.00  0.00    -0.358 C  
HETATM   23  C   UNL     1     -10.432  14.391  67.009  1.00  0.00    -0.268 C  
HETATM   24  H   UNL     1      -8.486  14.121  66.755  1.00  0.00     0.000 HD 
HETATM   25  O   UNL     1      -9.240  14.214  66.185  1.00  0.00    -0.189 OA 
ENDROOT
BRANCH  23  26
HETATM   26  C   UNL     1      -9.926  15.654  67.703  1.00  0.00    -0.237 C  
HETATM   27  O   UNL     1     -10.728  16.517  68.077  1.00  0.00    -0.321 OA 
HETATM   28  C   UNL     1      -8.434  15.951  67.677  1.00  0.00    -0.159 C  
HETATM   29 CL   UNL     1      -7.715  15.515  69.220  1.00  0.00    -0.208 Cl 
ENDBRANCH  23  26
TORSDOF 1
ENDMDL
MODEL       28
REMARK 921   NORMALIZED FREE ENERGY PREDICTED BY IDOCK:   -6.13 KCAL/MOL
REMARK 922        TOTAL FREE ENERGY PREDICTED BY IDOCK:   -6.54 KCAL/MOL
REMARK 923 INTER-LIGAND FREE ENERGY PREDICTED BY IDOCK:   -6.13 KCAL/MOL
REMARK 924 INTRA-LIGAND FREE ENERGY PREDICTED BY IDOCK:   -0.41 KCAL/MOL
REMARK 927      BINDING AFFINITY PREDICTED BY RF-SCORE:    0.00 PKD
ROOT
HETATM    1  C   UNL     1     -10.437   8.022  71.305  1.00  0.00    -0.238 C  
HETATM    2  C   UNL     1     -11.195   9.330  71.683  1.00  0.00    -0.449 C  
HETATM    3  C   UNL     1     -11.283   7.460  70.089  1.00  0.00    -0.239 C  
HETATM    4  C   UNL     1     -10.388   7.905  68.925  1.00  0.00    -0.225 C  
HETATM    5  C   UNL     1     -10.661   8.859  67.698  1.00  0.00    -0.292 C  
HETATM    6  C   UNL     1     -11.279  10.233  68.203  1.00  0.00    -0.294 C  
HETATM    7  C   UNL     1     -11.212  11.382  67.207  1.00  0.00    -0.370 C  
HETATM    8  C   UNL     1      -9.797  11.598  66.674  1.00  0.00    -0.223 C  
HETATM    9  C   UNL     1      -9.488  12.801  66.150  1.00  0.00    -0.169 C  
HETATM   10  C   UNL     1     -10.182  12.845  64.813  1.00  0.00    -0.285 C  
HETATM   11  O   UNL     1     -10.560  13.907  64.338  1.00  0.00    -0.400 OA 
HETATM   12  C   UNL     1     -10.358  11.520  64.092  1.00  0.00    -0.386 C  
HETATM   13  C   UNL     1      -9.929  10.347  64.626  1.00  0.00    -0.408 C  
HETATM   14  C   UNL     1      -9.214  10.340  65.972  1.00  0.00    -0.200 C  
HETATM   15  C   UNL     1      -9.297   9.259  67.069  1.00  0.00    -0.144 C  
HETATM   16  C   UNL     1      -7.687  10.492  65.624  1.00  0.00    -0.139 C  
HETATM   17  C   UNL     1      -8.557   7.940  66.874  1.00  0.00    -0.129 C  
HETATM   18  F   UNL     1      -8.591   9.882  68.098  1.00  0.00    -0.115 F  
HETATM   19  C   UNL     1      -7.915   7.482  68.171  1.00  0.00    -0.123 C  
HETATM   20  O   UNL     1      -8.577   7.282  65.830  1.00  0.00    -0.145 OA 
HETATM   21  C   UNL     1      -8.982   7.281  69.295  1.00  0.00    -0.135 C  
HETATM   22  C   UNL     1      -9.040   5.729  69.466  1.00  0.00    -0.143 C  
HETATM   23  C   UNL     1      -8.890   8.088  70.713  1.00  0.00    -0.139 C  
HETATM   24  H   UNL     1      -7.664   9.520  70.104  1.00  0.00     0.000 HD 
HETATM   25  O   UNL     1      -8.550   9.482  70.443  1.00  0.00    -0.200 OA 
ENDROOT
BRANCH  23  26
HETATM   26  C   UNL     1      -7.755   7.867  71.710  1.00  0.00    -0.094 C  
HETATM   27  O   UNL     1      -6.595   8.168  71.404  1.00  0.00    -0.041 OA 
HETATM   28  C   UNL     1      -8.030   7.033  72.952  1.00  0.00    -0.105 C  
HETATM   29 CL   UNL     1      -8.262   8.089  74.338  1.00  0.00    -0.298 Cl 
ENDBRANCH  23  26
TORSDOF 1
ENDMDL
MODEL       29
REMARK 921   NORMALIZED FREE ENERGY PREDICTED BY IDOCK:   -6.12 KCAL/MOL
REMARK 922        TOTAL FREE ENERGY PREDICTED BY IDOCK:   -6.52 KCAL/MOL
REMARK 923 INTER-LIGAND FREE ENERGY PREDICTED BY IDOCK:   -6.07 KCAL/MOL
REMARK 924 INTRA-LIGAND FREE ENERGY PREDICTED BY IDOCK:   -0.45 KCAL/MOL
REMARK 927      BINDING AFFINITY PREDICTED BY RF-SCORE:    0.00 PKD
ROOT
HETATM    1  C   UNL     1      -7.329   9.350  67.945  1.00  0.00    -0.083 C  
HETATM    2  C   UNL     1      -6.120  10.182  68.467  1.00  0.00    -0.044 C  
HETATM    3  C   UNL     1      -8.501   9.774  68.923  1.00  0.00    -0.129 C  
HETATM    4  C   UNL     1      -9.241  10.771  68.022  1.00  0.00    -0.150 C  
HETATM    5  C   UNL     1      -9.554  12.307  68.195  1.00  0.00    -0.213 C  
HETATM    6  C   UNL     1      -8.224  13.097  68.563  1.00  0.00    -0.076 C  
HETATM    7  C   UNL     1      -8.283  14.603  68.359  1.00  0.00    -0.154 C  
HETATM    8  C   UNL     1      -8.752  14.975  66.954  1.00  0.00    -0.285 C  
HETATM    9  C   UNL     1      -8.447  16.200  66.481  1.00  0.00    -0.346 C  
HETATM   10  C   UNL     1      -9.355  17.150  67.219  1.00  0.00    -0.242 C  
HETATM   11  O   UNL     1      -9.007  18.301  67.443  1.00  0.00    -0.254 OA 
HETATM   12  C   UNL     1     -10.712  16.611  67.636  1.00  0.00    -0.306 C  
HETATM   13  C   UNL     1     -11.091  15.334  67.375  1.00  0.00    -0.326 C  
HETATM   14  C   UNL     1     -10.156  14.404  66.611  1.00  0.00    -0.276 C  
HETATM   15  C   UNL     1      -9.974  12.885  66.815  1.00  0.00    -0.243 C  
HETATM   16  C   UNL     1     -10.537  14.598  65.096  1.00  0.00    -0.441 C  
HETATM   17  C   UNL     1     -11.048  11.930  66.304  1.00  0.00    -0.314 C  
HETATM   18  F   UNL     1      -8.889  12.641  65.973  1.00  0.00    -0.073 F  
HETATM   19  C   UNL     1     -10.422  10.694  65.685  1.00  0.00    -0.235 C  
HETATM   20  O   UNL     1     -12.259  12.093  66.475  1.00  0.00    -0.584 OA 
HETATM   21  C   UNL     1      -9.536   9.925  66.718  1.00  0.00    -0.231 C  
HETATM   22  C   UNL     1     -10.365   8.633  67.014  1.00  0.00    -0.368 C  
HETATM   23  C   UNL     1      -7.955   9.632  66.435  1.00  0.00    -0.108 C  
HETATM   24  H   UNL     1      -7.697  10.999  65.026  1.00  0.00     0.000 HD 
HETATM   25  O   UNL     1      -7.339  10.838  65.890  1.00  0.00    -0.146 OA 
ENDROOT
BRANCH  23  26
HETATM   26  C   UNL     1      -7.479   8.720  65.306  1.00  0.00    -0.086 C  
HETATM   27  O   UNL     1      -7.112   7.566  65.555  1.00  0.00    -0.058 OA 
HETATM   28  C   UNL     1      -7.210   9.334  63.940  1.00  0.00    -0.098 C  
HETATM   29 CL   UNL     1      -8.556   8.997  62.861  1.00  0.00    -0.203 Cl 
ENDBRANCH  23  26
TORSDOF 1
ENDMDL
MODEL       30
REMARK 921   NORMALIZED FREE ENERGY PREDICTED BY IDOCK:   -6.08 KCAL/MOL
REMARK 922        TOTAL FREE ENERGY PREDICTED BY IDOCK:   -6.48 KCAL/MOL
REMARK 923 INTER-LIGAND FREE ENERGY PREDICTED BY IDOCK:   -6.12 KCAL/MOL
REMARK 924 INTRA-LIGAND FREE ENERGY PREDICTED BY IDOCK:   -0.35 KCAL/MOL
REMARK 927      BINDING AFFINITY PREDICTED BY RF-SCORE:    0.00 PKD
ROOT
HETATM    1  C   UNL     1      -9.328  12.259  66.245  1.00  0.00    -0.206 C  
HETATM    2  C   UNL     1      -8.154  11.314  65.848  1.00  0.00     0.050 C  
HETATM    3  C   UNL     1     -10.609  11.367  65.975  1.00  0.00    -0.319 C  
HETATM    4  C   UNL     1     -10.928  10.934  67.412  1.00  0.00    -0.353 C  
HETATM    5  C   UNL     1     -11.004   9.509  68.085  1.00  0.00    -0.144 C  
HETATM    6  C   UNL     1      -9.685   8.683  67.762  1.00  0.00    -0.202 C  
HETATM    7  C   UNL     1      -9.434   7.480  68.660  1.00  0.00    -0.146 C  
HETATM    8  C   UNL     1      -9.481   7.850  70.141  1.00  0.00    -0.160 C  
HETATM    9  C   UNL     1      -8.865   7.037  71.022  1.00  0.00    -0.146 C  
HETATM   10  C   UNL     1      -9.746   5.817  71.124  1.00  0.00    -0.169 C  
HETATM   11  O   UNL     1      -9.269   4.720  71.378  1.00  0.00    -0.134 OA 
HETATM   12  C   UNL     1     -11.235   6.033  70.921  1.00  0.00    -0.335 C  
HETATM   13  C   UNL     1     -11.755   7.257  70.646  1.00  0.00    -0.310 C  
HETATM   14  C   UNL     1     -10.838   8.473  70.568  1.00  0.00    -0.252 C  
HETATM   15  C   UNL     1     -10.976   9.689  69.629  1.00  0.00    -0.229 C  
HETATM   16  C   UNL     1     -10.806   9.053  72.031  1.00  0.00    -0.342 C  
HETATM   17  C   UNL     1     -12.043  10.739  69.918  1.00  0.00    -0.337 C  
HETATM   18  F   UNL     1      -9.779  10.355  69.895  1.00  0.00    -0.234 F  
HETATM   19  C   UNL     1     -11.510  12.137  69.665  1.00  0.00    -0.308 C  
HETATM   20  O   UNL     1     -13.214  10.475  70.208  1.00  0.00    -0.175 OA 
HETATM   21  C   UNL     1     -11.044  12.310  68.184  1.00  0.00    -0.285 C  
HETATM   22  C   UNL     1     -12.129  13.253  67.571  1.00  0.00    -0.312 C  
HETATM   23  C   UNL     1      -9.516  12.753  67.816  1.00  0.00    -0.205 C  
HETATM   24  H   UNL     1      -8.697  12.286  69.558  1.00  0.00     0.000 HD 
HETATM   25  O   UNL     1      -8.589  12.002  68.658  1.00  0.00    -0.116 OA 
ENDROOT
BRANCH  23  26
HETATM   26  C   UNL     1      -8.948  14.123  68.185  1.00  0.00    -0.188 C  
HETATM   27  O   UNL     1      -9.425  14.754  69.135  1.00  0.00    -0.188 OA 
HETATM   28  C   UNL     1      -7.993  14.800  67.214  1.00  0.00    -0.205 C  
HETATM   29 CL   UNL     1      -6.339  14.609  67.777  1.00  0.00    -0.175 Cl 
ENDBRANCH  23  26
TORSDOF 1
ENDMDL
MODEL       31
REMARK 921   NORMALIZED FREE ENERGY PREDICTED BY IDOCK:   -6.07 KCAL/MOL
REMARK 922        TOTAL FREE ENERGY PREDICTED BY IDOCK:   -6.47 KCAL/MOL
REMARK 923 INTER-LIGAND FREE ENERGY PREDICTED BY IDOCK:   -6.02 KCAL/MOL
REMARK 924 INTRA-LIGAND FREE ENERGY PREDICTED BY IDOCK:   -0.45 KCAL/MOL
REMARK 927      BINDING AFFINITY PREDICTED BY RF-SCORE:    0.00 PKD
ROOT
HETATM    1  C   UNL     1      -8.524  16.179  67.719  1.00  0.00    -0.165 C  
HETATM    2  C   UNL     1      -7.147  15.729  68.293  1.00  0.00    -0.115 C  
HETATM    3  C   UNL     1      -8.538  15.524  66.277  1.00  0.00    -0.208 C  
HETATM    4  C   UNL     1      -9.439  14.313  66.554  1.00  0.00    -0.306 C  
HETATM    5  C   UNL     1      -9.176  12.762  66.433  1.00  0.00    -0.149 C  
HETATM    6  C   UNL     1      -7.835  12.375  67.194  1.00  0.00    -0.138 C  
HETATM    7  C   UNL     1      -7.670  10.896  67.512  1.00  0.00    -0.109 C  
HETATM    8  C   UNL     1      -8.882  10.328  68.246  1.00  0.00    -0.126 C  
HETATM    9  C   UNL     1      -8.723   9.199  68.966  1.00  0.00    -0.135 C  
HETATM   10  C   UNL     1      -8.605   8.091  67.951  1.00  0.00    -0.129 C  
HETATM   11  O   UNL     1      -7.946   7.089  68.192  1.00  0.00    -0.115 OA 
HETATM   12  C   UNL     1      -9.358   8.279  66.646  1.00  0.00    -0.246 C  
HETATM   13  C   UNL     1     -10.092   9.393  66.392  1.00  0.00    -0.332 C  
HETATM   14  C   UNL     1     -10.206  10.486  67.448  1.00  0.00    -0.253 C  
HETATM   15  C   UNL     1     -10.290  12.009  67.211  1.00  0.00    -0.212 C  
HETATM   16  C   UNL     1     -11.476  10.105  68.295  1.00  0.00    -0.074 C  
HETATM   17  C   UNL     1     -11.596  12.614  66.705  1.00  0.00    -0.374 C  
HETATM   18  F   UNL     1     -10.198  12.477  68.522  1.00  0.00    -0.215 F  
HETATM   19  C   UNL     1     -11.888  13.930  67.401  1.00  0.00    -0.437 C  
HETATM   20  O   UNL     1     -12.260  12.148  65.775  1.00  0.00    -0.586 OA 
HETATM   21  C   UNL     1     -10.744  14.968  67.162  1.00  0.00    -0.303 C  
HETATM   22  C   UNL     1     -11.397  16.012  66.200  1.00  0.00     0.299 C  
HETATM   23  C   UNL     1      -9.936  15.649  68.407  1.00  0.00    -0.210 C  
HETATM   24  H   UNL     1     -10.429  14.312  69.784  1.00  0.00     0.000 HD 
HETATM   25  O   UNL     1      -9.620  14.616  69.389  1.00  0.00    -0.082 OA 
ENDROOT
BRANCH  23  26
HETATM   26  C   UNL     1     -10.611  16.582  69.411  1.00  0.00    -0.329 C  
HETATM   27  O   UNL     1     -10.529  17.807  69.269  1.00  0.00    -0.267 OA 
HETATM   28  C   UNL     1     -11.140  15.992  70.710  1.00  0.00    -0.293 C  
HETATM   29 CL   UNL     1     -12.883  15.792  70.605  1.00  0.00    -0.411 Cl 
ENDBRANCH  23  26
TORSDOF 1
ENDMDL
MODEL       32
REMARK 921   NORMALIZED FREE ENERGY PREDICTED BY IDOCK:   -6.03 KCAL/MOL
REMARK 922        TOTAL FREE ENERGY PREDICTED BY IDOCK:   -6.43 KCAL/MOL
REMARK 923 INTER-LIGAND FREE ENERGY PREDICTED BY IDOCK:   -6.35 KCAL/MOL
REMARK 924 INTRA-LIGAND FREE ENERGY PREDICTED BY IDOCK:   -0.08 KCAL/MOL
REMARK 927      BINDING AFFINITY PREDICTED BY RF-SCORE:    0.00 PKD
ROOT
HETATM    1  C   UNL     1     -11.842  14.399  66.755  1.00  0.00    -0.431 C  
HETATM    2  C   UNL     1     -12.711  13.549  65.781  1.00  0.00    -0.433 C  
HETATM    3  C   UNL     1     -11.783  13.499  68.057  1.00  0.00    -0.394 C  
HETATM    4  C   UNL     1     -10.384  12.894  67.888  1.00  0.00    -0.233 C  
HETATM    5  C   UNL     1      -9.898  11.400  67.744  1.00  0.00    -0.186 C  
HETATM    6  C   UNL     1     -10.731  10.663  66.608  1.00  0.00    -0.246 C  
HETATM    7  C   UNL     1     -10.115   9.375  66.080  1.00  0.00    -0.324 C  
HETATM    8  C   UNL     1      -8.667   9.571  65.636  1.00  0.00    -0.173 C  
HETATM    9  C   UNL     1      -8.139   8.685  64.769  1.00  0.00    -0.149 C  
HETATM   10  C   UNL     1      -7.902   7.432  65.571  1.00  0.00    -0.115 C  
HETATM   11  O   UNL     1      -7.951   6.330  65.042  1.00  0.00    -0.108 OA 
HETATM   12  C   UNL     1      -7.580   7.616  67.044  1.00  0.00    -0.103 C  
HETATM   13  C   UNL     1      -7.521   8.844  67.620  1.00  0.00    -0.092 C  
HETATM   14  C   UNL     1      -7.748  10.093  66.775  1.00  0.00    -0.105 C  
HETATM   15  C   UNL     1      -8.439  11.402  67.209  1.00  0.00    -0.148 C  
HETATM   16  C   UNL     1      -6.318  10.503  66.262  1.00  0.00    -0.106 C  
HETATM   17  C   UNL     1      -7.693  12.374  68.118  1.00  0.00    -0.139 C  
HETATM   18  F   UNL     1      -8.500  12.076  65.989  1.00  0.00    -0.078 F  
HETATM   19  C   UNL     1      -7.937  13.810  67.692  1.00  0.00    -0.179 C  
HETATM   20  O   UNL     1      -7.070  12.037  69.129  1.00  0.00    -0.096 OA 
HETATM   21  C   UNL     1      -9.458  14.168  67.738  1.00  0.00    -0.207 C  
HETATM   22  C   UNL     1      -9.565  15.136  68.961  1.00  0.00    -0.229 C  
HETATM   23  C   UNL     1     -10.249  14.704  66.414  1.00  0.00    -0.289 C  
HETATM   24  H   UNL     1      -8.939  14.070  65.070  1.00  0.00     0.000 HD 
HETATM   25  O   UNL     1      -9.852  13.895  65.265  1.00  0.00    -0.252 OA 
ENDROOT
BRANCH  23  26
HETATM   26  C   UNL     1      -9.924  16.041  65.751  1.00  0.00    -0.351 C  
HETATM   27  O   UNL     1     -10.603  16.439  64.797  1.00  0.00    -0.676 OA 
HETATM   28  C   UNL     1      -8.612  16.727  66.099  1.00  0.00    -0.264 C  
HETATM   29 CL   UNL     1      -8.907  18.028  67.244  1.00  0.00    -0.244 Cl 
ENDBRANCH  23  26
TORSDOF 1
ENDMDL
MODEL       33
REMARK 921   NORMALIZED FREE ENERGY PREDICTED BY IDOCK:   -6.03 KCAL/MOL
REMARK 922        TOTAL FREE ENERGY PREDICTED BY IDOCK:   -6.43 KCAL/MOL
REMARK 923 INTER-LIGAND FREE ENERGY PREDICTED BY IDOCK:   -6.02 KCAL/MOL
REMARK 924 INTRA-LIGAND FREE ENERGY PREDICTED BY IDOCK:   -0.41 KCAL/MOL
REMARK 927      BINDING AFFINITY PREDICTED BY RF-SCORE:    0.00 PKD
ROOT
HETATM    1  C   UNL     1     -10.151   7.554  71.236  1.00  0.00    -0.197 C  
HETATM    2  C   UNL     1     -10.634   8.461  72.408  1.00  0.00    -0.405 C  
HETATM    3  C   UNL     1     -11.378   7.584  70.235  1.00  0.00    -0.219 C  
HETATM    4  C   UNL     1     -10.850   8.597  69.211  1.00  0.00    -0.082 C  
HETATM    5  C   UNL     1     -11.400   9.999  68.743  1.00  0.00    -0.117 C  
HETATM    6  C   UNL     1     -11.705  10.914  70.006  1.00  0.00    -0.427 C  
HETATM    7  C   UNL     1     -11.845  12.401  69.715  1.00  0.00    -0.387 C  
HETATM    8  C   UNL     1     -10.651  12.949  68.937  1.00  0.00    -0.154 C  
HETATM    9  C   UNL     1     -10.411  14.274  68.983  1.00  0.00    -0.212 C  
HETATM   10  C   UNL     1     -11.477  14.904  68.123  1.00  0.00    -0.330 C  
HETATM   11  O   UNL     1     -11.885  16.033  68.357  1.00  0.00    -0.304 OA 
HETATM   12  C   UNL     1     -11.986  14.078  66.955  1.00  0.00    -0.479 C  
HETATM   13  C   UNL     1     -11.521  12.828  66.699  1.00  0.00    -0.404 C  
HETATM   14  C   UNL     1     -10.429  12.228  67.578  1.00  0.00    -0.230 C  
HETATM   15  C   UNL     1     -10.267  10.750  67.989  1.00  0.00    -0.178 C  
HETATM   16  C   UNL     1      -9.077  12.639  66.886  1.00  0.00    -0.218 C  
HETATM   17  C   UNL     1      -9.746   9.744  66.968  1.00  0.00    -0.183 C  
HETATM   18  F   UNL     1      -9.224  10.853  68.910  1.00  0.00    -0.167 F  
HETATM   19  C   UNL     1      -8.779   8.769  67.615  1.00  0.00    -0.135 C  
HETATM   20  O   UNL     1     -10.147   9.668  65.803  1.00  0.00    -0.290 OA 
HETATM   21  C   UNL     1      -9.461   7.976  68.776  1.00  0.00    -0.147 C  
HETATM   22  C   UNL     1      -9.603   6.532  68.195  1.00  0.00    -0.123 C  
HETATM   23  C   UNL     1      -8.863   8.008  70.296  1.00  0.00    -0.145 C  
HETATM   24  H   UNL     1      -7.761   9.642  70.094  1.00  0.00     0.000 HD 
HETATM   25  O   UNL     1      -8.498   9.381  70.633  1.00  0.00    -0.205 OA 
ENDROOT
BRANCH  23  26
HETATM   26  C   UNL     1      -7.500   7.419  70.654  1.00  0.00    -0.078 C  
HETATM   27  O   UNL     1      -6.494   7.761  70.023  1.00  0.00    -0.033 OA 
HETATM   28  C   UNL     1      -7.449   6.225  71.595  1.00  0.00    -0.094 C  
HETATM   29 CL   UNL     1      -6.992   6.758  73.207  1.00  0.00    -0.075 Cl 
ENDBRANCH  23  26
TORSDOF 1
ENDMDL
MODEL       34
REMARK 921   NORMALIZED FREE ENERGY PREDICTED BY IDOCK:   -6.00 KCAL/MOL
REMARK 922        TOTAL FREE ENERGY PREDICTED BY IDOCK:   -6.39 KCAL/MOL
REMARK 923 INTER-LIGAND FREE ENERGY PREDICTED BY IDOCK:   -5.93 KCAL/MOL
REMARK 924 INTRA-LIGAND FREE ENERGY PREDICTED BY IDOCK:   -0.46 KCAL/MOL
REMARK 927      BINDING AFFINITY PREDICTED BY RF-SCORE:    0.00 PKD
ROOT
HETATM    1  C   UNL     1     -11.058  10.451  68.981  1.00  0.00    -0.297 C  
HETATM    2  C   UNL     1     -11.321  11.035  70.401  1.00  0.00    -0.222 C  
HETATM    3  C   UNL     1     -12.160  11.163  68.094  1.00  0.00     0.047 C  
HETATM    4  C   UNL     1     -11.299  12.245  67.431  1.00  0.00    -0.389 C  
HETATM    5  C   UNL     1     -11.385  13.820  67.464  1.00  0.00    -0.334 C  
HETATM    6  C   UNL     1     -11.482  14.329  68.967  1.00  0.00    -0.318 C  
HETATM    7  C   UNL     1     -11.162  15.802  69.177  1.00  0.00    -0.322 C  
HETATM    8  C   UNL     1      -9.816  16.190  68.570  1.00  0.00    -0.226 C  
HETATM    9  C   UNL     1      -9.201  17.297  69.032  1.00  0.00    -0.109 C  
HETATM   10  C   UNL     1      -9.983  18.455  68.465  1.00  0.00    -0.387 C  
HETATM   11  O   UNL     1     -10.055  19.516  69.068  1.00  0.00    -0.442 OA 
HETATM   12  C   UNL     1     -10.642  18.236  67.115  1.00  0.00    -0.392 C  
HETATM   13  C   UNL     1     -10.550  17.055  66.451  1.00  0.00    -0.172 C  
HETATM   14  C   UNL     1      -9.736  15.911  67.043  1.00  0.00    -0.235 C  
HETATM   15  C   UNL     1     -10.039  14.401  66.948  1.00  0.00    -0.259 C  
HETATM   16  C   UNL     1      -8.284  16.101  66.466  1.00  0.00    -0.343 C  
HETATM   17  C   UNL     1      -9.777  13.668  65.637  1.00  0.00    -0.094 C  
HETATM   18  F   UNL     1      -9.068  13.890  67.810  1.00  0.00    -0.166 F  
HETATM   19  C   UNL     1      -9.178  12.297  65.893  1.00  0.00    -0.031 C  
HETATM   20  O   UNL     1     -10.113  14.092  64.527  1.00  0.00    -0.302 OA 
HETATM   21  C   UNL     1     -10.130  11.414  66.764  1.00  0.00    -0.250 C  
HETATM   22  C   UNL     1     -10.655  10.343  65.753  1.00  0.00    -0.100 C  
HETATM   23  C   UNL     1      -9.640  10.779  68.187  1.00  0.00    -0.160 C  
HETATM   24  H   UNL     1      -8.097  11.987  68.478  1.00  0.00     0.000 HD 
HETATM   25  O   UNL     1      -8.909  11.799  68.933  1.00  0.00    -0.031 OA 
ENDROOT
BRANCH  23  26
HETATM   26  C   UNL     1      -8.534   9.730  68.279  1.00  0.00    -0.114 C  
HETATM   27  O   UNL     1      -8.817   8.554  68.534  1.00  0.00    -0.138 OA 
HETATM   28  C   UNL     1      -7.088  10.200  68.324  1.00  0.00    -0.075 C  
HETATM   29 CL   UNL     1      -6.347   9.997  66.743  1.00  0.00    -0.068 Cl 
ENDBRANCH  23  26
TORSDOF 1
ENDMDL
MODEL       35
REMARK 921   NORMALIZED FREE ENERGY PREDICTED BY IDOCK:   -5.99 KCAL/MOL
REMARK 922        TOTAL FREE ENERGY PREDICTED BY IDOCK:   -6.39 KCAL/MOL
REMARK 923 INTER-LIGAND FREE ENERGY PREDICTED BY IDOCK:   -5.92 KCAL/MOL
REMARK 924 INTRA-LIGAND FREE ENERGY PREDICTED BY IDOCK:   -0.46 KCAL/MOL
REMARK 927      BINDING AFFINITY PREDICTED BY RF-SCORE:    0.00 PKD
ROOT
HETATM    1  C   UNL     1     -11.846   7.435  72.264  1.00  0.00    -0.307 C  
HETATM    2  C   UNL     1     -12.795   8.660  72.417  1.00  0.00    -0.413 C  
HETATM    3  C   UNL     1     -12.127   6.951  70.782  1.00  0.00    -0.400 C  
HETATM    4  C   UNL     1     -10.902   7.550  70.080  1.00  0.00    -0.260 C  
HETATM    5  C   UNL     1     -10.774   8.602  68.911  1.00  0.00    -0.109 C  
HETATM    6  C   UNL     1     -11.647   9.889  69.239  1.00  0.00     0.034 C  
HETATM    7  C   UNL     1     -11.308  11.131  68.427  1.00  0.00    -0.357 C  
HETATM    8  C   UNL     1      -9.819  11.467  68.486  1.00  0.00    -0.200 C  
HETATM    9  C   UNL     1      -9.437  12.729  68.205  1.00  0.00    -0.219 C  
HETATM   10  C   UNL     1      -9.582  12.867  66.711  1.00  0.00    -0.246 C  
HETATM   11  O   UNL     1      -9.841  13.950  66.204  1.00  0.00    -0.294 OA 
HETATM   12  C   UNL     1      -9.367  11.610  65.886  1.00  0.00    -0.232 C  
HETATM   13  C   UNL     1      -9.073  10.414  66.459  1.00  0.00    -0.175 C  
HETATM   14  C   UNL     1      -8.915  10.313  67.971  1.00  0.00    -0.132 C  
HETATM   15  C   UNL     1      -9.312   9.128  68.876  1.00  0.00    -0.146 C  
HETATM   16  C   UNL     1      -7.386  10.574  68.240  1.00  0.00    -0.088 C  
HETATM   17  C   UNL     1      -8.446   7.873  68.884  1.00  0.00    -0.128 C  
HETATM   18  F   UNL     1      -9.095   9.685  70.137  1.00  0.00    -0.198 F  
HETATM   19  C   UNL     1      -8.300   7.325  70.292  1.00  0.00    -0.135 C  
HETATM   20  O   UNL     1      -8.020   7.318  67.867  1.00  0.00    -0.115 OA 
HETATM   21  C   UNL     1      -9.689   6.964  70.910  1.00  0.00    -0.183 C  
HETATM   22  C   UNL     1      -9.678   5.401  70.937  1.00  0.00    -0.237 C  
HETATM   23  C   UNL     1     -10.201   7.634  72.309  1.00  0.00    -0.216 C  
HETATM   24  H   UNL     1      -8.959   9.177  72.313  1.00  0.00     0.000 HD 
HETATM   25  O   UNL     1      -9.901   9.063  72.288  1.00  0.00    -0.218 OA 
ENDROOT
BRANCH  23  26
HETATM   26  C   UNL     1      -9.506   7.374  73.645  1.00  0.00    -0.272 C  
HETATM   27  O   UNL     1     -10.074   6.708  74.518  1.00  0.00    -0.352 OA 
HETATM   28  C   UNL     1      -8.249   8.164  73.977  1.00  0.00    -0.253 C  
HETATM   29 CL   UNL     1      -6.830   7.163  73.707  1.00  0.00    -0.072 Cl 
ENDBRANCH  23  26
TORSDOF 1
ENDMDL
MODEL       36
REMARK 921   NORMALIZED FREE ENERGY PREDICTED BY IDOCK:   -5.89 KCAL/MOL
REMARK 922        TOTAL FREE ENERGY PREDICTED BY IDOCK:   -6.28 KCAL/MOL
REMARK 923 INTER-LIGAND FREE ENERGY PREDICTED BY IDOCK:   -6.06 KCAL/MOL
REMARK 924 INTRA-LIGAND FREE ENERGY PREDICTED BY IDOCK:   -0.22 KCAL/MOL
REMARK 927      BINDING AFFINITY PREDICTED BY RF-SCORE:    0.00 PKD
ROOT
HETATM    1  C   UNL     1     -11.634  12.321  66.994  1.00  0.00    -0.418 C  
HETATM    2  C   UNL     1     -12.646  13.505  66.953  1.00  0.00     0.035 C  
HETATM    3  C   UNL     1     -10.686  12.622  65.761  1.00  0.00    -0.295 C  
HETATM    4  C   UNL     1      -9.484  13.222  66.502  1.00  0.00    -0.251 C  
HETATM    5  C   UNL     1      -8.799  14.640  66.413  1.00  0.00    -0.113 C  
HETATM    6  C   UNL     1      -9.894  15.784  66.551  1.00  0.00    -0.286 C  
HETATM    7  C   UNL     1      -9.354  17.165  66.892  1.00  0.00    -0.260 C  
HETATM    8  C   UNL     1      -8.451  17.141  68.124  1.00  0.00    -0.227 C  
HETATM    9  C   UNL     1      -8.258  18.292  68.797  1.00  0.00    -0.253 C  
HETATM   10  C   UNL     1      -7.339  19.114  67.930  1.00  0.00    -0.250 C  
HETATM   11  O   UNL     1      -7.388  20.336  67.948  1.00  0.00    -0.294 OA 
HETATM   12  C   UNL     1      -6.351  18.349  67.068  1.00  0.00    -0.191 C  
HETATM   13  C   UNL     1      -6.300  16.992  67.061  1.00  0.00    -0.231 C  
HETATM   14  C   UNL     1      -7.232  16.192  67.964  1.00  0.00    -0.139 C  
HETATM   15  C   UNL     1      -7.888  14.829  67.658  1.00  0.00    -0.175 C  
HETATM   16  C   UNL     1      -6.432  15.999  69.306  1.00  0.00    -0.169 C  
HETATM   17  C   UNL     1      -7.040  13.563  67.715  1.00  0.00    -0.159 C  
HETATM   18  F   UNL     1      -8.740  14.703  68.755  1.00  0.00    -0.161 F  
HETATM   19  C   UNL     1      -7.812  12.423  68.354  1.00  0.00    -0.142 C  
HETATM   20  O   UNL     1      -5.920  13.455  67.207  1.00  0.00    -0.341 OA 
HETATM   21  C   UNL     1      -9.116  12.101  67.556  1.00  0.00    -0.180 C  
HETATM   22  C   UNL     1      -8.800  10.725  66.885  1.00  0.00    -0.144 C  
HETATM   23  C   UNL     1     -10.586  12.154  68.267  1.00  0.00    -0.217 C  
HETATM   24  H   UNL     1     -10.065  13.253  69.830  1.00  0.00     0.000 HD 
HETATM   25  O   UNL     1     -10.666  13.349  69.101  1.00  0.00    -0.179 OA 
ENDROOT
BRANCH  23  26
HETATM   26  C   UNL     1     -10.994  11.190  69.380  1.00  0.00    -0.244 C  
HETATM   27  O   UNL     1     -10.166  10.399  69.847  1.00  0.00    -0.230 OA 
HETATM   28  C   UNL     1     -12.472  11.035  69.703  1.00  0.00    -0.140 C  
HETATM   29 CL   UNL     1     -12.864  11.953  71.149  1.00  0.00    -0.405 Cl 
ENDBRANCH  23  26
TORSDOF 1
ENDMDL
MODEL       37
REMARK 921   NORMALIZED FREE ENERGY PREDICTED BY IDOCK:   -5.87 KCAL/MOL
REMARK 922        TOTAL FREE ENERGY PREDICTED BY IDOCK:   -6.25 KCAL/MOL
REMARK 923 INTER-LIGAND FREE ENERGY PREDICTED BY IDOCK:   -5.97 KCAL/MOL
REMARK 924 INTRA-LIGAND FREE ENERGY PREDICTED BY IDOCK:   -0.28 KCAL/MOL
REMARK 927      BINDING AFFINITY PREDICTED BY RF-SCORE:    0.00 PKD
ROOT
HETATM    1  C   UNL     1      -7.766  11.645  67.328  1.00  0.00    -0.154 C  
HETATM    2  C   UNL     1      -7.164  12.205  68.651  1.00  0.00    -0.109 C  
HETATM    3  C   UNL     1      -7.143  10.191  67.242  1.00  0.00    -0.088 C  
HETATM    4  C   UNL     1      -8.342   9.368  67.731  1.00  0.00    -0.115 C  
HETATM    5  C   UNL     1      -8.517   8.403  68.967  1.00  0.00    -0.123 C  
HETATM    6  C   UNL     1      -8.031   9.127  70.296  1.00  0.00    -0.139 C  
HETATM    7  C   UNL     1      -8.510   8.495  71.595  1.00  0.00    -0.235 C  
HETATM    8  C   UNL     1     -10.025   8.305  71.615  1.00  0.00    -0.277 C  
HETATM    9  C   UNL     1     -10.637   8.179  72.810  1.00  0.00    -0.386 C  
HETATM   10  C   UNL     1     -10.286   6.795  73.295  1.00  0.00    -0.269 C  
HETATM   11  O   UNL     1     -10.205   6.553  74.491  1.00  0.00    -0.358 OA 
HETATM   12  C   UNL     1     -10.068   5.735  72.231  1.00  0.00    -0.216 C  
HETATM   13  C   UNL     1     -10.167   6.013  70.905  1.00  0.00    -0.259 C  
HETATM   14  C   UNL     1     -10.542   7.418  70.449  1.00  0.00    -0.238 C  
HETATM   15  C   UNL     1     -10.035   8.161  69.195  1.00  0.00    -0.192 C  
HETATM   16  C   UNL     1     -12.112   7.407  70.344  1.00  0.00     0.006 C  
HETATM   17  C   UNL     1     -10.576   7.767  67.825  1.00  0.00    -0.185 C  
HETATM   18  F   UNL     1     -10.577   9.428  69.411  1.00  0.00    -0.199 F  
HETATM   19  C   UNL     1     -10.819   8.995  66.966  1.00  0.00    -0.044 C  
HETATM   20  O   UNL     1     -10.690   6.602  67.433  1.00  0.00    -0.251 OA 
HETATM   21  C   UNL     1      -9.504   9.813  66.755  1.00  0.00    -0.209 C  
HETATM   22  C   UNL     1      -9.158   9.559  65.252  1.00  0.00    -0.276 C  
HETATM   23  C   UNL     1      -9.397  11.383  67.191  1.00  0.00    -0.172 C  
HETATM   24  H   UNL     1     -10.946  11.404  68.425  1.00  0.00     0.000 HD 
HETATM   25  O   UNL     1     -10.012  11.554  68.504  1.00  0.00    -0.196 OA 
ENDROOT
BRANCH  23  26
HETATM   26  C   UNL     1     -10.222  12.479  66.517  1.00  0.00    -0.240 C  
HETATM   27  O   UNL     1      -9.831  13.652  66.544  1.00  0.00    -0.276 OA 
HETATM   28  C   UNL     1     -11.636  12.150  66.063  1.00  0.00    -0.358 C  
HETATM   29 CL   UNL     1     -11.654  11.877  64.327  1.00  0.00    -0.416 Cl 
ENDBRANCH  23  26
TORSDOF 1
ENDMDL
MODEL       38
REMARK 921   NORMALIZED FREE ENERGY PREDICTED BY IDOCK:   -5.81 KCAL/MOL
REMARK 922        TOTAL FREE ENERGY PREDICTED BY IDOCK:   -6.20 KCAL/MOL
REMARK 923 INTER-LIGAND FREE ENERGY PREDICTED BY IDOCK:   -5.79 KCAL/MOL
REMARK 924 INTRA-LIGAND FREE ENERGY PREDICTED BY IDOCK:   -0.41 KCAL/MOL
REMARK 927      BINDING AFFINITY PREDICTED BY RF-SCORE:    0.00 PKD
ROOT
HETATM    1  C   UNL     1      -9.424   7.101  69.571  1.00  0.00    -0.151 C  
HETATM    2  C   UNL     1      -9.817   7.706  70.952  1.00  0.00    -0.179 C  
HETATM    3  C   UNL     1     -10.768   7.211  68.740  1.00  0.00    -0.199 C  
HETATM    4  C   UNL     1     -10.449   8.453  67.897  1.00  0.00    -0.255 C  
HETATM    5  C   UNL     1     -11.154   9.861  67.796  1.00  0.00    -0.196 C  
HETATM    6  C   UNL     1     -11.359  10.473  69.249  1.00  0.00    -0.325 C  
HETATM    7  C   UNL     1     -11.641  11.968  69.292  1.00  0.00    -0.380 C  
HETATM    8  C   UNL     1     -10.598  12.771  68.518  1.00  0.00    -0.270 C  
HETATM    9  C   UNL     1     -10.450  14.078  68.813  1.00  0.00    -0.238 C  
HETATM   10  C   UNL     1     -11.659  14.760  68.226  1.00  0.00    -0.323 C  
HETATM   11  O   UNL     1     -12.113  15.776  68.735  1.00  0.00    -0.314 OA 
HETATM   12  C   UNL     1     -12.253  14.138  66.975  1.00  0.00    -0.374 C  
HETATM   13  C   UNL     1     -11.737  13.014  66.415  1.00  0.00    -0.444 C  
HETATM   14  C   UNL     1     -10.502  12.359  67.023  1.00  0.00    -0.238 C  
HETATM   15  C   UNL     1     -10.183  10.852  67.096  1.00  0.00    -0.210 C  
HETATM   16  C   UNL     1      -9.282  13.028  66.286  1.00  0.00    -0.077 C  
HETATM   17  C   UNL     1      -9.726  10.124  65.836  1.00  0.00    -0.232 C  
HETATM   18  F   UNL     1      -9.041  10.870  67.897  1.00  0.00    -0.139 F  
HETATM   19  C   UNL     1      -8.617   9.137  66.153  1.00  0.00    -0.149 C  
HETATM   20  O   UNL     1     -10.266  10.242  64.733  1.00  0.00    -0.329 OA 
HETATM   21  C   UNL     1      -9.086   8.067  67.192  1.00  0.00    -0.159 C  
HETATM   22  C   UNL     1      -9.198   6.761  66.342  1.00  0.00    -0.185 C  
HETATM   23  C   UNL     1      -8.303   7.854  68.610  1.00  0.00    -0.128 C  
HETATM   24  H   UNL     1      -7.355   9.593  68.633  1.00  0.00     0.000 HD 
HETATM   25  O   UNL     1      -7.997   9.162  69.183  1.00  0.00    -0.093 OA 
ENDROOT
BRANCH  23  26
HETATM   26  C   UNL     1      -6.867   7.339  68.684  1.00  0.00    -0.076 C  
HETATM   27  O   UNL     1      -5.958   7.958  68.119  1.00  0.00    -0.038 OA 
HETATM   28  C   UNL     1      -6.624   5.936  69.219  1.00  0.00    -0.051 C  
HETATM   29 CL   UNL     1      -6.062   6.023  70.882  1.00  0.00    -0.036 Cl 
ENDBRANCH  23  26
TORSDOF 1
ENDMDL
MODEL       39
REMARK 921   NORMALIZED FREE ENERGY PREDICTED BY IDOCK:   -5.60 KCAL/MOL
REMARK 922        TOTAL FREE ENERGY PREDICTED BY IDOCK:   -5.97 KCAL/MOL
REMARK 923 INTER-LIGAND FREE ENERGY PREDICTED BY IDOCK:   -5.57 KCAL/MOL
REMARK 924 INTRA-LIGAND FREE ENERGY PREDICTED BY IDOCK:   -0.40 KCAL/MOL
REMARK 927      BINDING AFFINITY PREDICTED BY RF-SCORE:    0.00 PKD
ROOT
HETATM    1  C   UNL     1      -9.075  15.712  66.824  1.00  0.00    -0.281 C  
HETATM    2  C   UNL     1      -7.525  15.722  66.982  1.00  0.00    -0.242 C  
HETATM    3  C   UNL     1      -9.316  14.570  65.754  1.00  0.00    -0.035 C  
HETATM    4  C   UNL     1      -9.750  13.432  66.686  1.00  0.00    -0.275 C  
HETATM    5  C   UNL     1      -9.131  12.006  66.960  1.00  0.00    -0.191 C  
HETATM    6  C   UNL     1      -7.579  12.138  67.276  1.00  0.00    -0.156 C  
HETATM    7  C   UNL     1      -6.947  10.929  67.950  1.00  0.00    -0.073 C  
HETATM    8  C   UNL     1      -7.712  10.504  69.202  1.00  0.00    -0.131 C  
HETATM    9  C   UNL     1      -7.065   9.765  70.126  1.00  0.00    -0.130 C  
HETATM   10  C   UNL     1      -6.946   8.388  69.525  1.00  0.00    -0.045 C  
HETATM   11  O   UNL     1      -6.006   7.659  69.811  1.00  0.00    -0.024 OA 
HETATM   12  C   UNL     1      -8.054   7.958  68.581  1.00  0.00    -0.126 C  
HETATM   13  C   UNL     1      -9.097   8.772  68.275  1.00  0.00    -0.141 C  
HETATM   14  C   UNL     1      -9.198  10.152  68.915  1.00  0.00    -0.172 C  
HETATM   15  C   UNL     1      -9.744  11.444  68.272  1.00  0.00    -0.202 C  
HETATM   16  C   UNL     1     -10.034   9.932  70.230  1.00  0.00    -0.261 C  
HETATM   17  C   UNL     1     -11.250  11.613  68.102  1.00  0.00    -0.263 C  
HETATM   18  F   UNL     1      -9.418  12.378  69.256  1.00  0.00     0.189 F  
HETATM   19  C   UNL     1     -11.675  13.035  68.419  1.00  0.00    -0.386 C  
HETATM   20  O   UNL     1     -12.000  10.739  67.656  1.00  0.00    -0.411 OA 
HETATM   21  C   UNL     1     -10.959  14.065  67.487  1.00  0.00    -0.288 C  
HETATM   22  C   UNL     1     -12.107  14.561  66.548  1.00  0.00    -0.330 C  
HETATM   23  C   UNL     1     -10.047  15.276  68.094  1.00  0.00    -0.229 C  
HETATM   24  H   UNL     1      -9.766  14.496  69.893  1.00  0.00     0.000 HD 
HETATM   25  O   UNL     1      -9.209  14.746  69.165  1.00  0.00    -0.170 OA 
ENDROOT
BRANCH  23  26
HETATM   26  C   UNL     1     -10.638  16.405  68.936  1.00  0.00    -0.307 C  
HETATM   27  O   UNL     1     -11.095  16.165  70.059  1.00  0.00    -0.324 OA 
HETATM   28  C   UNL     1     -10.900  17.748  68.271  1.00  0.00    -0.145 C  
HETATM   29 CL   UNL     1      -9.626  18.881  68.698  1.00  0.00    -0.419 Cl 
ENDBRANCH  23  26
TORSDOF 1
ENDMDL
MODEL       40
REMARK 921   NORMALIZED FREE ENERGY PREDICTED BY IDOCK:   -5.59 KCAL/MOL
REMARK 922        TOTAL FREE ENERGY PREDICTED BY IDOCK:   -5.96 KCAL/MOL
REMARK 923 INTER-LIGAND FREE ENERGY PREDICTED BY IDOCK:   -5.70 KCAL/MOL
REMARK 924 INTRA-LIGAND FREE ENERGY PREDICTED BY IDOCK:   -0.26 KCAL/MOL
REMARK 927      BINDING AFFINITY PREDICTED BY RF-SCORE:    0.00 PKD
ROOT
HETATM    1  C   UNL     1      -8.183  10.525  67.931  1.00  0.00    -0.107 C  
HETATM    2  C   UNL     1      -6.742  11.090  68.108  1.00  0.00    -0.062 C  
HETATM    3  C   UNL     1      -8.997  11.266  69.070  1.00  0.00     0.024 C  
HETATM    4  C   UNL     1      -9.689  12.347  68.229  1.00  0.00    -0.218 C  
HETATM    5  C   UNL     1      -9.627  13.922  68.290  1.00  0.00    -0.218 C  
HETATM    6  C   UNL     1      -8.114  14.408  68.298  1.00  0.00    -0.139 C  
HETATM    7  C   UNL     1      -7.898  15.873  67.945  1.00  0.00    -0.148 C  
HETATM    8  C   UNL     1      -8.573  16.251  66.628  1.00  0.00    -0.302 C  
HETATM    9  C   UNL     1      -8.128  17.342  65.972  1.00  0.00    -0.187 C  
HETATM   10  C   UNL     1      -8.633  18.520  66.766  1.00  0.00    -0.284 C  
HETATM   11  O   UNL     1      -8.010  19.573  66.789  1.00  0.00    -0.264 OA 
HETATM   12  C   UNL     1      -9.948  18.333  67.501  1.00  0.00    -0.345 C  
HETATM   13  C   UNL     1     -10.635  17.162  67.463  1.00  0.00    -0.323 C  
HETATM   14  C   UNL     1     -10.105  15.996  66.636  1.00  0.00    -0.287 C  
HETATM   15  C   UNL     1     -10.207  14.493  66.966  1.00  0.00    -0.262 C  
HETATM   16  C   UNL     1     -10.758  16.176  65.215  1.00  0.00    -0.386 C  
HETATM   17  C   UNL     1     -11.542  13.778  66.787  1.00  0.00    -0.370 C  
HETATM   18  F   UNL     1      -9.408  13.954  65.957  1.00  0.00    -0.261 F  
HETATM   19  C   UNL     1     -11.341  12.394  66.196  1.00  0.00    -0.398 C  
HETATM   20  O   UNL     1     -12.625  14.224  67.176  1.00  0.00    -0.134 OA 
HETATM   21  C   UNL     1     -10.433  11.511  67.111  1.00  0.00    -0.259 C  
HETATM   22  C   UNL     1     -11.430  10.464  67.707  1.00  0.00    -0.055 C  
HETATM   23  C   UNL     1      -9.049  10.846  66.554  1.00  0.00    -0.169 C  
HETATM   24  H   UNL     1      -8.824  12.026  64.980  1.00  0.00     0.000 HD 
HETATM   25  O   UNL     1      -8.328  11.843  65.768  1.00  0.00     0.229 OA 
ENDROOT
BRANCH  23  26
HETATM   26  C   UNL     1      -9.034   9.780  65.460  1.00  0.00    -0.176 C  
HETATM   27  O   UNL     1      -9.488   8.653  65.689  1.00  0.00    -0.170 OA 
HETATM   28  C   UNL     1      -8.217  10.039  64.203  1.00  0.00    -0.159 C  
HETATM   29 CL   UNL     1      -9.282  10.535  62.896  1.00  0.00    -0.275 Cl 
ENDBRANCH  23  26
TORSDOF 1
ENDMDL
MODEL       41
REMARK 921   NORMALIZED FREE ENERGY PREDICTED BY IDOCK:   -5.59 KCAL/MOL
REMARK 922        TOTAL FREE ENERGY PREDICTED BY IDOCK:   -5.96 KCAL/MOL
REMARK 923 INTER-LIGAND FREE ENERGY PREDICTED BY IDOCK:   -5.54 KCAL/MOL
REMARK 924 INTRA-LIGAND FREE ENERGY PREDICTED BY IDOCK:   -0.42 KCAL/MOL
REMARK 927      BINDING AFFINITY PREDICTED BY RF-SCORE:    0.00 PKD
ROOT
HETATM    1  C   UNL     1      -7.192  10.854  67.431  1.00  0.00    -0.094 C  
HETATM    2  C   UNL     1      -6.272  10.957  68.683  1.00  0.00    -0.043 C  
HETATM    3  C   UNL     1      -6.919   9.383  66.909  1.00  0.00    -0.081 C  
HETATM    4  C   UNL     1      -8.168   8.680  67.456  1.00  0.00    -0.110 C  
HETATM    5  C   UNL     1      -8.338   7.483  68.469  1.00  0.00    -0.126 C  
HETATM    6  C   UNL     1      -7.494   7.759  69.787  1.00  0.00    -0.089 C  
HETATM    7  C   UNL     1      -7.875   6.915  70.994  1.00  0.00    -0.097 C  
HETATM    8  C   UNL     1      -9.370   6.986  71.295  1.00  0.00    -0.160 C  
HETATM    9  C   UNL     1      -9.787   6.672  72.538  1.00  0.00    -0.176 C  
HETATM   10  C   UNL     1      -9.666   5.173  72.634  1.00  0.00    -0.152 C  
HETATM   11  O   UNL     1      -9.441   4.630  73.707  1.00  0.00    -0.123 OA 
HETATM   12  C   UNL     1      -9.861   4.389  71.348  1.00  0.00    -0.262 C  
HETATM   13  C   UNL     1     -10.117   5.001  70.164  1.00  0.00    -0.338 C  
HETATM   14  C   UNL     1     -10.252   6.519  70.105  1.00  0.00    -0.226 C  
HETATM   15  C   UNL     1      -9.813   7.453  68.958  1.00  0.00    -0.168 C  
HETATM   16  C   UNL     1     -11.783   6.801  70.336  1.00  0.00    -0.418 C  
HETATM   17  C   UNL     1     -10.647   7.511  67.682  1.00  0.00    -0.233 C  
HETATM   18  F   UNL     1     -10.027   8.699  69.547  1.00  0.00    -0.180 F  
HETATM   19  C   UNL     1     -10.760   8.936  67.174  1.00  0.00    -0.203 C  
HETATM   20  O   UNL     1     -11.073   6.517  67.087  1.00  0.00    -0.390 OA 
HETATM   21  C   UNL     1      -9.354   9.545  66.866  1.00  0.00    -0.185 C  
HETATM   22  C   UNL     1      -9.326   9.619  65.305  1.00  0.00    -0.322 C  
HETATM   23  C   UNL     1      -8.841  10.916  67.591  1.00  0.00    -0.133 C  
HETATM   24  H   UNL     1     -10.121  10.892  69.102  1.00  0.00     0.000 HD 
HETATM   25  O   UNL     1      -9.177  10.856  69.010  1.00  0.00    -0.176 OA 
ENDROOT
BRANCH  23  26
HETATM   26  C   UNL     1      -9.511  12.269  67.355  1.00  0.00    -0.181 C  
HETATM   27  O   UNL     1      -8.821  13.267  67.115  1.00  0.00    -0.208 OA 
HETATM   28  C   UNL     1     -10.988  12.417  67.686  1.00  0.00    -0.236 C  
HETATM   29 CL   UNL     1     -11.938  12.343  66.209  1.00  0.00    -0.429 Cl 
ENDBRANCH  23  26
TORSDOF 1
ENDMDL
MODEL       42
REMARK 921   NORMALIZED FREE ENERGY PREDICTED BY IDOCK:   -5.57 KCAL/MOL
REMARK 922        TOTAL FREE ENERGY PREDICTED BY IDOCK:   -5.94 KCAL/MOL
REMARK 923 INTER-LIGAND FREE ENERGY PREDICTED BY IDOCK:   -5.49 KCAL/MOL
REMARK 924 INTRA-LIGAND FREE ENERGY PREDICTED BY IDOCK:   -0.44 KCAL/MOL
REMARK 927      BINDING AFFINITY PREDICTED BY RF-SCORE:    0.00 PKD
ROOT
HETATM    1  C   UNL     1     -10.486   7.411  71.286  1.00  0.00    -0.221 C  
HETATM    2  C   UNL     1     -11.180   8.688  71.846  1.00  0.00    -0.413 C  
HETATM    3  C   UNL     1     -11.384   7.037  70.036  1.00  0.00    -0.293 C  
HETATM    4  C   UNL     1     -10.502   7.590  68.910  1.00  0.00    -0.214 C  
HETATM    5  C   UNL     1     -10.767   8.699  67.819  1.00  0.00    -0.178 C  
HETATM    6  C   UNL     1     -11.316  10.022  68.509  1.00  0.00    -0.115 C  
HETATM    7  C   UNL     1     -11.228  11.283  67.661  1.00  0.00    -0.357 C  
HETATM    8  C   UNL     1      -9.820  11.511  67.116  1.00  0.00    -0.210 C  
HETATM    9  C   UNL     1      -9.476  12.758  66.736  1.00  0.00    -0.243 C  
HETATM   10  C   UNL     1     -10.202  12.994  65.436  1.00  0.00    -0.288 C  
HETATM   11  O   UNL     1     -10.548  14.121  65.108  1.00  0.00    -0.348 OA 
HETATM   12  C   UNL     1     -10.450  11.777  64.563  1.00  0.00    -0.352 C  
HETATM   13  C   UNL     1     -10.055  10.532  64.934  1.00  0.00    -0.403 C  
HETATM   14  C   UNL     1      -9.307  10.330  66.246  1.00  0.00    -0.206 C  
HETATM   15  C   UNL     1      -9.406   9.124  67.203  1.00  0.00    -0.143 C  
HETATM   16  C   UNL     1      -7.784  10.468  65.873  1.00  0.00    -0.148 C  
HETATM   17  C   UNL     1      -8.725   7.813  66.824  1.00  0.00    -0.135 C  
HETATM   18  F   UNL     1      -8.648   9.588  68.279  1.00  0.00    -0.117 F  
HETATM   19  C   UNL     1      -8.069   7.174  68.034  1.00  0.00    -0.120 C  
HETATM   20  O   UNL     1      -8.798   7.292  65.707  1.00  0.00    -0.144 OA 
HETATM   21  C   UNL     1      -9.114   6.874  69.156  1.00  0.00    -0.136 C  
HETATM   22  C   UNL     1      -9.230   5.315  69.136  1.00  0.00    -0.153 C  
HETATM   23  C   UNL     1      -8.953   7.493  70.659  1.00  0.00    -0.154 C  
HETATM   24  H   UNL     1      -7.686   8.943  70.195  1.00  0.00     0.000 HD 
HETATM   25  O   UNL     1      -8.564   8.896  70.554  1.00  0.00    -0.147 OA 
ENDROOT
BRANCH  23  26
HETATM   26  C   UNL     1      -7.802   7.107  71.587  1.00  0.00    -0.097 C  
HETATM   27  O   UNL     1      -8.040   6.689  72.726  1.00  0.00    -0.107 OA 
HETATM   28  C   UNL     1      -6.386   7.498  71.191  1.00  0.00    -0.035 C  
HETATM   29 CL   UNL     1      -5.549   6.103  70.525  1.00  0.00    -0.017 Cl 
ENDBRANCH  23  26
TORSDOF 1
ENDMDL
MODEL       43
REMARK 921   NORMALIZED FREE ENERGY PREDICTED BY IDOCK:   -5.54 KCAL/MOL
REMARK 922        TOTAL FREE ENERGY PREDICTED BY IDOCK:   -5.91 KCAL/MOL
REMARK 923 INTER-LIGAND FREE ENERGY PREDICTED BY IDOCK:   -5.45 KCAL/MOL
REMARK 924 INTRA-LIGAND FREE ENERGY PREDICTED BY IDOCK:   -0.46 KCAL/MOL
REMARK 927      BINDING AFFINITY PREDICTED BY RF-SCORE:    0.00 PKD
ROOT
HETATM    1  C   UNL     1      -9.816   5.142  70.916  1.00  0.00    -0.266 C  
HETATM    2  C   UNL     1     -10.018   4.258  69.649  1.00  0.00    -0.149 C  
HETATM    3  C   UNL     1      -8.284   5.536  70.834  1.00  0.00    -0.118 C  
HETATM    4  C   UNL     1      -8.414   6.962  70.283  1.00  0.00    -0.139 C  
HETATM    5  C   UNL     1      -7.881   7.625  68.955  1.00  0.00    -0.123 C  
HETATM    6  C   UNL     1      -8.282   6.733  67.701  1.00  0.00    -0.119 C  
HETATM    7  C   UNL     1      -8.202   7.432  66.352  1.00  0.00    -0.122 C  
HETATM    8  C   UNL     1      -8.978   8.748  66.340  1.00  0.00    -0.194 C  
HETATM    9  C   UNL     1      -9.366   9.250  65.151  1.00  0.00    -0.239 C  
HETATM   10  C   UNL     1      -8.111   9.788  64.515  1.00  0.00    -0.146 C  
HETATM   11  O   UNL     1      -7.986   9.812  63.298  1.00  0.00    -0.130 OA 
HETATM   12  C   UNL     1      -7.041  10.313  65.456  1.00  0.00    -0.142 C  
HETATM   13  C   UNL     1      -7.192  10.289  66.805  1.00  0.00    -0.105 C  
HETATM   14  C   UNL     1      -8.483   9.754  67.415  1.00  0.00    -0.121 C  
HETATM   15  C   UNL     1      -8.637   8.964  68.731  1.00  0.00    -0.136 C  
HETATM   16  C   UNL     1      -9.421  11.011  67.549  1.00  0.00    -0.175 C  
HETATM   17  C   UNL     1      -8.526   9.700  70.062  1.00  0.00    -0.204 C  
HETATM   18  F   UNL     1      -9.986   8.613  68.662  1.00  0.00    -0.164 F  
HETATM   19  C   UNL     1      -9.558   9.190  71.051  1.00  0.00    -0.350 C  
HETATM   20  O   UNL     1      -7.641  10.519  70.329  1.00  0.00    -0.132 OA 
HETATM   21  C   UNL     1      -9.379   7.661  71.323  1.00  0.00    -0.161 C  
HETATM   22  C   UNL     1      -8.824   7.616  72.784  1.00  0.00    -0.203 C  
HETATM   23  C   UNL     1     -10.592   6.600  71.056  1.00  0.00    -0.226 C  
HETATM   24  H   UNL     1     -11.671   7.753  69.860  1.00  0.00     0.000 HD 
HETATM   25  O   UNL     1     -11.227   6.918  69.780  1.00  0.00    -0.283 OA 
ENDROOT
BRANCH  23  26
HETATM   26  C   UNL     1     -11.892   6.621  71.858  1.00  0.00    -0.332 C  
HETATM   27  O   UNL     1     -12.091   5.772  72.734  1.00  0.00    -0.155 OA 
HETATM   28  C   UNL     1     -13.026   7.515  71.382  1.00  0.00    -0.335 C  
HETATM   29 CL   UNL     1     -13.082   8.976  72.357  1.00  0.00    -0.484 Cl 
ENDBRANCH  23  26
TORSDOF 1
ENDMDL
MODEL       44
REMARK 921   NORMALIZED FREE ENERGY PREDICTED BY IDOCK:   -5.37 KCAL/MOL
REMARK 922        TOTAL FREE ENERGY PREDICTED BY IDOCK:   -5.73 KCAL/MOL
REMARK 923 INTER-LIGAND FREE ENERGY PREDICTED BY IDOCK:   -5.35 KCAL/MOL
REMARK 924 INTRA-LIGAND FREE ENERGY PREDICTED BY IDOCK:   -0.38 KCAL/MOL
REMARK 927      BINDING AFFINITY PREDICTED BY RF-SCORE:    0.00 PKD
ROOT
HETATM    1  C   UNL     1     -10.930   8.162  71.977  1.00  0.00    -0.350 C  
HETATM    2  C   UNL     1     -11.050   9.308  70.929  1.00  0.00    -0.374 C  
HETATM    3  C   UNL     1     -11.952   7.078  71.438  1.00  0.00    -0.380 C  
HETATM    4  C   UNL     1     -10.969   6.106  70.774  1.00  0.00    -0.365 C  
HETATM    5  C   UNL     1     -10.824   5.618  69.281  1.00  0.00    -0.309 C  
HETATM    6  C   UNL     1     -10.786   6.868  68.300  1.00  0.00    -0.265 C  
HETATM    7  C   UNL     1     -10.247   6.586  66.905  1.00  0.00    -0.279 C  
HETATM    8  C   UNL     1      -8.884   5.899  66.944  1.00  0.00    -0.115 C  
HETATM    9  C   UNL     1      -8.097   5.978  65.853  1.00  0.00    -0.119 C  
HETATM   10  C   UNL     1      -8.723   5.054  64.840  1.00  0.00    -0.150 C  
HETATM   11  O   UNL     1      -8.616   5.273  63.641  1.00  0.00    -0.126 OA 
HETATM   12  C   UNL     1      -9.460   3.843  65.386  1.00  0.00    -0.170 C  
HETATM   13  C   UNL     1      -9.567   3.606  66.718  1.00  0.00    -0.176 C  
HETATM   14  C   UNL     1      -8.906   4.550  67.715  1.00  0.00    -0.119 C  
HETATM   15  C   UNL     1      -9.429   4.954  69.110  1.00  0.00    -0.141 C  
HETATM   16  C   UNL     1      -7.466   3.958  67.944  1.00  0.00    -0.067 C  
HETATM   17  C   UNL     1      -9.328   3.959  70.261  1.00  0.00    -0.168 C  
HETATM   18  F   UNL     1      -8.509   5.946  69.451  1.00  0.00    -0.108 F  
HETATM   19  C   UNL     1      -8.926   4.659  71.547  1.00  0.00    -0.165 C  
HETATM   20  O   UNL     1      -9.642   2.768  70.178  1.00  0.00    -0.137 OA 
HETATM   21  C   UNL     1      -9.961   5.761  71.943  1.00  0.00    -0.214 C  
HETATM   22  C   UNL     1     -10.675   5.153  73.194  1.00  0.00    -0.318 C  
HETATM   23  C   UNL     1      -9.513   7.319  72.144  1.00  0.00    -0.135 C  
HETATM   24  H   UNL     1      -7.800   7.213  71.155  1.00  0.00     0.000 HD 
HETATM   25  O   UNL     1      -8.612   7.696  71.059  1.00  0.00    -0.128 OA 
ENDROOT
BRANCH  23  26
HETATM   26  C   UNL     1      -8.568   7.763  73.260  1.00  0.00    -0.187 C  
HETATM   27  O   UNL     1      -9.003   7.945  74.402  1.00  0.00    -0.122 OA 
HETATM   28  C   UNL     1      -7.171   8.233  72.885  1.00  0.00    -0.103 C  
HETATM   29 CL   UNL     1      -6.008   6.954  73.204  1.00  0.00    -0.056 Cl 
ENDBRANCH  23  26
TORSDOF 1
ENDMDL
MODEL       45
REMARK 921   NORMALIZED FREE ENERGY PREDICTED BY IDOCK:   -5.25 KCAL/MOL
REMARK 922        TOTAL FREE ENERGY PREDICTED BY IDOCK:   -5.60 KCAL/MOL
REMARK 923 INTER-LIGAND FREE ENERGY PREDICTED BY IDOCK:   -5.14 KCAL/MOL
REMARK 924 INTRA-LIGAND FREE ENERGY PREDICTED BY IDOCK:   -0.46 KCAL/MOL
REMARK 927      BINDING AFFINITY PREDICTED BY RF-SCORE:    0.00 PKD
ROOT
HETATM    1  C   UNL     1      -7.340   6.850  73.736  1.00  0.00    -0.083 C  
HETATM    2  C   UNL     1      -6.042   7.528  73.203  1.00  0.00    -0.059 C  
HETATM    3  C   UNL     1      -8.344   8.067  73.878  1.00  0.00    -0.319 C  
HETATM    4  C   UNL     1      -9.175   7.865  72.605  1.00  0.00    -0.269 C  
HETATM    5  C   UNL     1      -9.412   8.791  71.349  1.00  0.00    -0.330 C  
HETATM    6  C   UNL     1      -8.019   9.298  70.775  1.00  0.00    -0.187 C  
HETATM    7  C   UNL     1      -8.060   9.847  69.357  1.00  0.00    -0.139 C  
HETATM    8  C   UNL     1      -8.714   8.871  68.382  1.00  0.00    -0.134 C  
HETATM    9  C   UNL     1      -8.443   9.001  67.068  1.00  0.00    -0.120 C  
HETATM   10  C   UNL     1      -9.205  10.223  66.621  1.00  0.00    -0.155 C  
HETATM   11  O   UNL     1      -8.792  10.916  65.702  1.00  0.00    -0.185 OA 
HETATM   12  C   UNL     1     -10.503  10.521  67.350  1.00  0.00    -0.291 C  
HETATM   13  C   UNL     1     -10.956   9.740  68.364  1.00  0.00    -0.200 C  
HETATM   14  C   UNL     1     -10.170   8.501  68.779  1.00  0.00    -0.217 C  
HETATM   15  C   UNL     1     -10.009   7.929  70.203  1.00  0.00    -0.190 C  
HETATM   16  C   UNL     1     -10.760   7.332  67.905  1.00  0.00    -0.239 C  
HETATM   17  C   UNL     1     -11.174   7.183  70.844  1.00  0.00    -0.276 C  
HETATM   18  F   UNL     1      -9.065   6.928  69.972  1.00  0.00    -0.143 F  
HETATM   19  C   UNL     1     -10.683   5.968  71.610  1.00  0.00    -0.303 C  
HETATM   20  O   UNL     1     -12.342   7.581  70.833  1.00  0.00    -0.266 OA 
HETATM   21  C   UNL     1      -9.682   6.373  72.740  1.00  0.00    -0.163 C  
HETATM   22  C   UNL     1     -10.499   6.132  74.051  1.00  0.00    -0.272 C  
HETATM   23  C   UNL     1      -8.168   5.763  72.797  1.00  0.00    -0.112 C  
HETATM   24  H   UNL     1      -8.074   5.155  70.915  1.00  0.00     0.000 HD 
HETATM   25  O   UNL     1      -7.600   5.778  71.453  1.00  0.00    -0.099 OA 
ENDROOT
BRANCH  23  26
HETATM   26  C   UNL     1      -7.889   4.281  73.042  1.00  0.00    -0.086 C  
HETATM   27  O   UNL     1      -7.241   3.930  74.034  1.00  0.00    -0.058 OA 
HETATM   28  C   UNL     1      -8.180   3.292  71.923  1.00  0.00    -0.062 C  
HETATM   29 CL   UNL     1      -9.696   2.463  72.243  1.00  0.00    -0.186 Cl 
ENDBRANCH  23  26
TORSDOF 1
ENDMDL
MODEL       46
REMARK 921   NORMALIZED FREE ENERGY PREDICTED BY IDOCK:   -5.24 KCAL/MOL
REMARK 922        TOTAL FREE ENERGY PREDICTED BY IDOCK:   -5.59 KCAL/MOL
REMARK 923 INTER-LIGAND FREE ENERGY PREDICTED BY IDOCK:   -5.15 KCAL/MOL
REMARK 924 INTRA-LIGAND FREE ENERGY PREDICTED BY IDOCK:   -0.44 KCAL/MOL
REMARK 927      BINDING AFFINITY PREDICTED BY RF-SCORE:    0.00 PKD
ROOT
HETATM    1  C   UNL     1     -11.553   7.741  72.103  1.00  0.00    -0.367 C  
HETATM    2  C   UNL     1     -12.013   9.194  71.779  1.00  0.00    -0.449 C  
HETATM    3  C   UNL     1     -12.090   6.914  70.863  1.00  0.00    -0.424 C  
HETATM    4  C   UNL     1     -10.788   6.778  70.062  1.00  0.00    -0.311 C  
HETATM    5  C   UNL     1     -10.394   7.261  68.613  1.00  0.00    -0.208 C  
HETATM    6  C   UNL     1     -10.748   8.801  68.436  1.00  0.00    -0.112 C  
HETATM    7  C   UNL     1     -10.066   9.496  67.267  1.00  0.00    -0.272 C  
HETATM    8  C   UNL     1      -8.552   9.297  67.285  1.00  0.00    -0.125 C  
HETATM    9  C   UNL     1      -7.783  10.175  66.610  1.00  0.00    -0.106 C  
HETATM   10  C   UNL     1      -7.981   9.841  65.153  1.00  0.00    -0.129 C  
HETATM   11  O   UNL     1      -7.890  10.708  64.295  1.00  0.00    -0.033 OA 
HETATM   12  C   UNL     1      -8.268   8.388  64.819  1.00  0.00    -0.162 C  
HETATM   13  C   UNL     1      -8.359   7.433  65.780  1.00  0.00    -0.141 C  
HETATM   14  C   UNL     1      -8.136   7.800  67.242  1.00  0.00    -0.119 C  
HETATM   15  C   UNL     1      -8.847   7.205  68.475  1.00  0.00    -0.125 C  
HETATM   16  C   UNL     1      -6.595   7.591  67.485  1.00  0.00    -0.062 C  
HETATM   17  C   UNL     1      -8.464   5.809  68.956  1.00  0.00    -0.104 C  
HETATM   18  F   UNL     1      -8.362   8.043  69.480  1.00  0.00    -0.118 F  
HETATM   19  C   UNL     1      -8.412   5.754  70.472  1.00  0.00    -0.127 C  
HETATM   20  O   UNL     1      -8.329   4.833  68.213  1.00  0.00    -0.091 OA 
HETATM   21  C   UNL     1      -9.792   6.127  71.104  1.00  0.00    -0.210 C  
HETATM   22  C   UNL     1     -10.314   4.763  71.663  1.00  0.00    -0.215 C  
HETATM   23  C   UNL     1      -9.941   7.362  72.162  1.00  0.00    -0.170 C  
HETATM   24  H   UNL     1      -8.249   8.285  71.703  1.00  0.00     0.000 HD 
HETATM   25  O   UNL     1      -9.173   8.502  71.669  1.00  0.00    -0.189 OA 
ENDROOT
BRANCH  23  26
HETATM   26  C   UNL     1      -9.281   7.345  73.540  1.00  0.00    -0.227 C  
HETATM   27  O   UNL     1      -9.914   6.943  74.523  1.00  0.00    -0.287 OA 
HETATM   28  C   UNL     1      -7.959   8.075  73.722  1.00  0.00    -0.202 C  
HETATM   29 CL   UNL     1      -6.636   6.917  73.718  1.00  0.00    -0.067 Cl 
ENDBRANCH  23  26
TORSDOF 1
ENDMDL
MODEL       47
REMARK 921   NORMALIZED FREE ENERGY PREDICTED BY IDOCK:   -5.23 KCAL/MOL
REMARK 922        TOTAL FREE ENERGY PREDICTED BY IDOCK:   -5.58 KCAL/MOL
REMARK 923 INTER-LIGAND FREE ENERGY PREDICTED BY IDOCK:   -5.18 KCAL/MOL
REMARK 924 INTRA-LIGAND FREE ENERGY PREDICTED BY IDOCK:   -0.40 KCAL/MOL
REMARK 927      BINDING AFFINITY PREDICTED BY RF-SCORE:    0.00 PKD
ROOT
HETATM    1  C   UNL     1      -9.419  14.993  68.427  1.00  0.00    -0.201 C  
HETATM    2  C   UNL     1      -8.145  14.729  69.283  1.00  0.00    -0.088 C  
HETATM    3  C   UNL     1      -8.873  14.912  66.942  1.00  0.00    -0.284 C  
HETATM    4  C   UNL     1      -9.340  13.498  66.573  1.00  0.00    -0.227 C  
HETATM    5  C   UNL     1      -8.539  12.210  66.139  1.00  0.00     0.169 C  
HETATM    6  C   UNL     1      -7.363  11.926  67.169  1.00  0.00    -0.142 C  
HETATM    7  C   UNL     1      -6.777  10.523  67.119  1.00  0.00    -0.079 C  
HETATM    8  C   UNL     1      -7.855   9.447  67.232  1.00  0.00    -0.099 C  
HETATM    9  C   UNL     1      -7.488   8.214  67.637  1.00  0.00    -0.094 C  
HETATM   10  C   UNL     1      -6.764   7.606  66.463  1.00  0.00    -0.058 C  
HETATM   11  O   UNL     1      -5.876   6.782  66.633  1.00  0.00    -0.020 OA 
HETATM   12  C   UNL     1      -7.213   8.050  65.082  1.00  0.00    -0.065 C  
HETATM   13  C   UNL     1      -8.204   8.961  64.904  1.00  0.00    -0.161 C  
HETATM   14  C   UNL     1      -8.928   9.542  66.113  1.00  0.00    -0.191 C  
HETATM   15  C   UNL     1      -9.475  10.976  66.275  1.00  0.00    -0.193 C  
HETATM   16  C   UNL     1     -10.149   8.580  66.359  1.00  0.00    -0.271 C  
HETATM   17  C   UNL     1     -10.753  11.375  65.546  1.00  0.00    -0.253 C  
HETATM   18  F   UNL     1      -9.856  10.955  67.617  1.00  0.00    -0.172 F  
HETATM   19  C   UNL     1     -11.633  12.240  66.429  1.00  0.00    -0.445 C  
HETATM   20  O   UNL     1     -10.982  11.120  64.360  1.00  0.00    -0.322 OA 
HETATM   21  C   UNL     1     -10.894  13.545  66.866  1.00  0.00    -0.286 C  
HETATM   22  C   UNL     1     -11.625  14.664  66.055  1.00  0.00    -0.328 C  
HETATM   23  C   UNL     1     -10.681  13.919  68.442  1.00  0.00    -0.257 C  
HETATM   24  H   UNL     1     -10.989  12.102  69.170  1.00  0.00     0.000 HD 
HETATM   25  O   UNL     1     -10.266  12.718  69.161  1.00  0.00     0.045 OA 
ENDROOT
BRANCH  23  26
HETATM   26  C   UNL     1     -11.849  14.233  69.375  1.00  0.00    -0.326 C  
HETATM   27  O   UNL     1     -12.647  13.342  69.689  1.00  0.00    -0.102 OA 
HETATM   28  C   UNL     1     -12.165  15.690  69.681  1.00  0.00    -0.240 C  
HETATM   29 CL   UNL     1     -11.540  16.112  71.268  1.00  0.00    -0.485 Cl 
ENDBRANCH  23  26
TORSDOF 1
ENDMDL
MODEL       48
REMARK 921   NORMALIZED FREE ENERGY PREDICTED BY IDOCK:   -5.20 KCAL/MOL
REMARK 922        TOTAL FREE ENERGY PREDICTED BY IDOCK:   -5.55 KCAL/MOL
REMARK 923 INTER-LIGAND FREE ENERGY PREDICTED BY IDOCK:   -5.53 KCAL/MOL
REMARK 924 INTRA-LIGAND FREE ENERGY PREDICTED BY IDOCK:   -0.02 KCAL/MOL
REMARK 927      BINDING AFFINITY PREDICTED BY RF-SCORE:    0.00 PKD
ROOT
HETATM    1  C   UNL     1      -9.947  12.906  66.147  1.00  0.00    -0.274 C  
HETATM    2  C   UNL     1     -11.182  13.701  66.667  1.00  0.00    -0.324 C  
HETATM    3  C   UNL     1      -8.975  12.902  67.397  1.00  0.00    -0.199 C  
HETATM    4  C   UNL     1      -9.233  11.482  67.919  1.00  0.00    -0.168 C  
HETATM    5  C   UNL     1      -9.790  10.959  69.299  1.00  0.00    -0.113 C  
HETATM    6  C   UNL     1     -11.143  11.711  69.662  1.00  0.00    -0.177 C  
HETATM    7  C   UNL     1     -11.995  11.040  70.729  1.00  0.00    -0.436 C  
HETATM    8  C   UNL     1     -12.272   9.574  70.405  1.00  0.00     0.003 C  
HETATM    9  C   UNL     1     -13.333   8.980  70.987  1.00  0.00    -0.037 C  
HETATM   10  C   UNL     1     -12.931   8.762  72.424  1.00  0.00    -0.383 C  
HETATM   11  O   UNL     1     -13.769   8.758  73.315  1.00  0.00    -0.109 OA 
HETATM   12  C   UNL     1     -11.455   8.527  72.690  1.00  0.00    -0.267 C  
HETATM   13  C   UNL     1     -10.533   8.526  71.692  1.00  0.00    -0.345 C  
HETATM   14  C   UNL     1     -10.976   8.731  70.248  1.00  0.00    -0.255 C  
HETATM   15  C   UNL     1     -10.211   9.472  69.131  1.00  0.00    -0.201 C  
HETATM   16  C   UNL     1     -11.256   7.284  69.698  1.00  0.00    -0.109 C  
HETATM   17  C   UNL     1      -9.010   8.799  68.477  1.00  0.00    -0.138 C  
HETATM   18  F   UNL     1     -11.174   9.479  68.122  1.00  0.00    -0.228 F  
HETATM   19  C   UNL     1      -8.999   9.048  66.980  1.00  0.00    -0.144 C  
HETATM   20  O   UNL     1      -8.111   8.227  69.100  1.00  0.00    -0.116 OA 
HETATM   21  C   UNL     1      -8.938  10.576  66.657  1.00  0.00    -0.155 C  
HETATM   22  C   UNL     1      -7.490  10.771  66.102  1.00  0.00    -0.129 C  
HETATM   23  C   UNL     1     -10.085  11.302  65.749  1.00  0.00    -0.247 C  
HETATM   24  H   UNL     1     -11.477   9.907  65.945  1.00  0.00     0.000 HD 
HETATM   25  O   UNL     1     -11.398  10.825  66.173  1.00  0.00     0.042 OA 
ENDROOT
BRANCH  23  26
HETATM   26  C   UNL     1     -10.295  10.969  64.273  1.00  0.00    -0.364 C  
HETATM   27  O   UNL     1     -11.258  11.448  63.662  1.00  0.00    -0.402 OA 
HETATM   28  C   UNL     1      -9.476   9.845  63.657  1.00  0.00    -0.095 C  
HETATM   29 CL   UNL     1      -8.154  10.520  62.716  1.00  0.00    -0.162 Cl 
ENDBRANCH  23  26
TORSDOF 1
ENDMDL
MODEL       49
REMARK 921   NORMALIZED FREE ENERGY PREDICTED BY IDOCK:   -5.08 KCAL/MOL
REMARK 922        TOTAL FREE ENERGY PREDICTED BY IDOCK:   -5.43 KCAL/MOL
REMARK 923 INTER-LIGAND FREE ENERGY PREDICTED BY IDOCK:   -5.42 KCAL/MOL
REMARK 924 INTRA-LIGAND FREE ENERGY PREDICTED BY IDOCK:   -0.00 KCAL/MOL
REMARK 927      BINDING AFFINITY PREDICTED BY RF-SCORE:    0.00 PKD
ROOT
HETATM    1  C   UNL     1      -9.599   8.949  71.774  1.00  0.00    -0.353 C  
HETATM    2  C   UNL     1      -9.109   7.758  72.651  1.00  0.00    -0.228 C  
HETATM    3  C   UNL     1      -8.384   9.187  70.786  1.00  0.00    -0.248 C  
HETATM    4  C   UNL     1      -8.930   8.489  69.534  1.00  0.00    -0.149 C  
HETATM    5  C   UNL     1      -8.393   7.264  68.698  1.00  0.00    -0.125 C  
HETATM    6  C   UNL     1      -8.080   6.041  69.664  1.00  0.00    -0.107 C  
HETATM    7  C   UNL     1      -7.952   4.687  68.981  1.00  0.00    -0.071 C  
HETATM    8  C   UNL     1      -9.158   4.373  68.098  1.00  0.00    -0.161 C  
HETATM    9  C   UNL     1      -9.406   3.085  67.788  1.00  0.00    -0.251 C  
HETATM   10  C   UNL     1      -8.353   2.708  66.777  1.00  0.00    -0.092 C  
HETATM   11  O   UNL     1      -7.950   1.556  66.693  1.00  0.00    -0.068 OA 
HETATM   12  C   UNL     1      -7.852   3.816  65.869  1.00  0.00    -0.090 C  
HETATM   13  C   UNL     1      -8.312   5.091  65.966  1.00  0.00    -0.114 C  
HETATM   14  C   UNL     1      -9.390   5.434  66.987  1.00  0.00    -0.121 C  
HETATM   15  C   UNL     1      -9.539   6.747  67.784  1.00  0.00    -0.124 C  
HETATM   16  C   UNL     1     -10.752   5.229  66.226  1.00  0.00    -0.260 C  
HETATM   17  C   UNL     1     -10.065   7.993  67.079  1.00  0.00    -0.279 C  
HETATM   18  F   UNL     1     -10.572   6.402  68.656  1.00  0.00    -0.179 F  
HETATM   19  C   UNL     1     -11.018   8.761  67.976  1.00  0.00     0.066 C  
HETATM   20  O   UNL     1      -9.677   8.379  65.972  1.00  0.00    -0.195 OA 
HETATM   21  C   UNL     1     -10.319   9.208  69.300  1.00  0.00    -0.223 C  
HETATM   22  C   UNL     1     -10.175  10.755  69.128  1.00  0.00    -0.229 C  
HETATM   23  C   UNL     1     -10.900   8.769  70.762  1.00  0.00    -0.234 C  
HETATM   24  H   UNL     1     -12.015   7.254  70.141  1.00  0.00     0.000 HD 
HETATM   25  O   UNL     1     -11.270   7.357  70.720  1.00  0.00    -0.260 OA 
ENDROOT
BRANCH  23  26
HETATM   26  C   UNL     1     -12.255   9.244  71.282  1.00  0.00    -0.334 C  
HETATM   27  O   UNL     1     -12.809   8.639  72.207  1.00  0.00    -0.360 OA 
HETATM   28  C   UNL     1     -13.020  10.283  70.477  1.00  0.00    -0.186 C  
HETATM   29 CL   UNL     1     -12.834  11.866  71.219  1.00  0.00    -0.448 Cl 
ENDBRANCH  23  26
TORSDOF 1
ENDMDL
MODEL       50
REMARK 921   NORMALIZED FREE ENERGY PREDICTED BY IDOCK:   -5.08 KCAL/MOL
REMARK 922        TOTAL FREE ENERGY PREDICTED BY IDOCK:   -5.42 KCAL/MOL
REMARK 923 INTER-LIGAND FREE ENERGY PREDICTED BY IDOCK:   -4.96 KCAL/MOL
REMARK 924 INTRA-LIGAND FREE ENERGY PREDICTED BY IDOCK:   -0.45 KCAL/MOL
REMARK 927      BINDING AFFINITY PREDICTED BY RF-SCORE:    0.00 PKD
ROOT
HETATM    1  C   UNL     1      -9.715  18.181  68.448  1.00  0.00    -0.363 C  
HETATM    2  C   UNL     1     -10.993  18.734  67.750  1.00  0.00    -0.204 C  
HETATM    3  C   UNL     1     -10.269  16.956  69.286  1.00  0.00    -0.262 C  
HETATM    4  C   UNL     1      -9.846  15.803  68.366  1.00  0.00    -0.206 C  
HETATM    5  C   UNL     1     -10.687  14.700  67.614  1.00  0.00    -0.271 C  
HETATM    6  C   UNL     1     -11.868  15.379  66.795  1.00  0.00     0.255 C  
HETATM    7  C   UNL     1     -12.496  14.510  65.715  1.00  0.00    -0.222 C  
HETATM    8  C   UNL     1     -11.450  13.932  64.763  1.00  0.00    -0.368 C  
HETATM    9  C   UNL     1     -11.853  13.525  63.543  1.00  0.00    -0.313 C  
HETATM   10  C   UNL     1     -12.599  12.236  63.777  1.00  0.00    -0.470 C  
HETATM   11  O   UNL     1     -13.511  11.897  63.036  1.00  0.00    -0.290 OA 
HETATM   12  C   UNL     1     -12.143  11.388  64.951  1.00  0.00     0.615 C  
HETATM   13  C   UNL     1     -11.125  11.771  65.764  1.00  0.00    -0.351 C  
HETATM   14  C   UNL     1     -10.379  13.072  65.488  1.00  0.00    -0.304 C  
HETATM   15  C   UNL     1      -9.789  14.050  66.525  1.00  0.00    -0.290 C  
HETATM   16  C   UNL     1      -9.187  12.666  64.544  1.00  0.00     0.856 C  
HETATM   17  C   UNL     1      -8.502  13.678  67.254  1.00  0.00    -0.194 C  
HETATM   18  F   UNL     1      -9.404  15.102  65.695  1.00  0.00    -0.350 F  
HETATM   19  C   UNL     1      -7.592  14.885  67.396  1.00  0.00    -0.232 C  
HETATM   20  O   UNL     1      -8.285  12.572  67.757  1.00  0.00    -0.142 OA 
HETATM   21  C   UNL     1      -8.291  16.033  68.194  1.00  0.00    -0.160 C  
HETATM   22  C   UNL     1      -7.529  16.040  69.559  1.00  0.00    -0.125 C  
HETATM   23  C   UNL     1      -8.486  17.522  67.552  1.00  0.00    -0.213 C  
HETATM   24  H   UNL     1      -8.230  17.009  65.655  1.00  0.00     0.000 HD 
HETATM   25  O   UNL     1      -8.934  17.386  66.169  1.00  0.00    -0.437 OA 
ENDROOT
BRANCH  23  26
HETATM   26  C   UNL     1      -7.305  18.432  67.218  1.00  0.00    -0.212 C  
HETATM   27  O   UNL     1      -7.026  19.381  67.960  1.00  0.00    -0.242 OA 
HETATM   28  C   UNL     1      -6.665  18.319  65.842  1.00  0.00    -0.280 C  
HETATM   29 CL   UNL     1      -5.173  17.397  65.955  1.00  0.00    -0.187 Cl 
ENDBRANCH  23  26
TORSDOF 1
ENDMDL
MODEL       51
REMARK 921   NORMALIZED FREE ENERGY PREDICTED BY IDOCK:   -5.06 KCAL/MOL
REMARK 922        TOTAL FREE ENERGY PREDICTED BY IDOCK:   -5.40 KCAL/MOL
REMARK 923 INTER-LIGAND FREE ENERGY PREDICTED BY IDOCK:   -4.99 KCAL/MOL
REMARK 924 INTRA-LIGAND FREE ENERGY PREDICTED BY IDOCK:   -0.41 KCAL/MOL
REMARK 927      BINDING AFFINITY PREDICTED BY RF-SCORE:    0.00 PKD
ROOT
HETATM    1  C   UNL     1      -8.556   3.673  67.191  1.00  0.00    -0.115 C  
HETATM    2  C   UNL     1      -9.512   2.858  68.113  1.00  0.00    -0.220 C  
HETATM    3  C   UNL     1      -9.546   4.638  66.417  1.00  0.00    -0.188 C  
HETATM    4  C   UNL     1      -9.319   5.930  67.211  1.00  0.00    -0.113 C  
HETATM    5  C   UNL     1     -10.304   6.828  68.056  1.00  0.00    -0.224 C  
HETATM    6  C   UNL     1     -11.114   5.928  69.086  1.00  0.00    -0.328 C  
HETATM    7  C   UNL     1     -11.782   6.683  70.226  1.00  0.00    -0.432 C  
HETATM    8  C   UNL     1     -10.802   7.589  70.967  1.00  0.00    -0.249 C  
HETATM    9  C   UNL     1     -11.109   7.971  72.223  1.00  0.00    -0.393 C  
HETATM   10  C   UNL     1     -12.206   8.994  72.074  1.00  0.00    -0.375 C  
HETATM   11  O   UNL     1     -13.051   9.137  72.946  1.00  0.00    -0.304 OA 
HETATM   12  C   UNL     1     -12.184   9.837  70.811  1.00  0.00    -0.342 C  
HETATM   13  C   UNL     1     -11.237   9.674  69.852  1.00  0.00    -0.244 C  
HETATM   14  C   UNL     1     -10.131   8.642  70.043  1.00  0.00    -0.195 C  
HETATM   15  C   UNL     1      -9.462   7.776  68.955  1.00  0.00    -0.150 C  
HETATM   16  C   UNL     1      -8.965   9.422  70.757  1.00  0.00    -0.254 C  
HETATM   17  C   UNL     1      -8.453   8.416  68.007  1.00  0.00    -0.132 C  
HETATM   18  F   UNL     1      -8.681   6.931  69.744  1.00  0.00    -0.135 F  
HETATM   19  C   UNL     1      -7.281   7.485  67.754  1.00  0.00    -0.094 C  
HETATM   20  O   UNL     1      -8.627   9.497  67.437  1.00  0.00    -0.125 OA 
HETATM   21  C   UNL     1      -7.752   6.134  67.126  1.00  0.00    -0.101 C  
HETATM   22  C   UNL     1      -7.237   6.220  65.653  1.00  0.00    -0.074 C  
HETATM   23  C   UNL     1      -7.432   4.702  67.843  1.00  0.00    -0.077 C  
HETATM   24  H   UNL     1      -7.039   5.412  69.650  1.00  0.00     0.000 HD 
HETATM   25  O   UNL     1      -7.683   4.823  69.276  1.00  0.00    -0.063 OA 
ENDROOT
BRANCH  23  26
HETATM   26  C   UNL     1      -6.011   4.165  68.004  1.00  0.00    -0.027 C  
HETATM   27  O   UNL     1      -5.155   4.845  68.582  1.00  0.00     0.000 OA 
HETATM   28  C   UNL     1      -5.606   2.928  67.216  1.00  0.00    -0.021 C  
HETATM   29 CL   UNL     1      -5.634   1.519  68.266  1.00  0.00    -0.017 Cl 
ENDBRANCH  23  26
TORSDOF 1
ENDMDL
MODEL       52
REMARK 921   NORMALIZED FREE ENERGY PREDICTED BY IDOCK:   -5.06 KCAL/MOL
REMARK 922        TOTAL FREE ENERGY PREDICTED BY IDOCK:   -5.40 KCAL/MOL
REMARK 923 INTER-LIGAND FREE ENERGY PREDICTED BY IDOCK:   -5.00 KCAL/MOL
REMARK 924 INTRA-LIGAND FREE ENERGY PREDICTED BY IDOCK:   -0.40 KCAL/MOL
REMARK 927      BINDING AFFINITY PREDICTED BY RF-SCORE:    0.00 PKD
ROOT
HETATM    1  C   UNL     1      -9.378  11.536  65.371  1.00  0.00    -0.177 C  
HETATM    2  C   UNL     1     -10.895  11.773  65.636  1.00  0.00    -0.342 C  
HETATM    3  C   UNL     1      -8.688  12.217  66.624  1.00  0.00    -0.153 C  
HETATM    4  C   UNL     1      -8.383  10.967  67.460  1.00  0.00    -0.117 C  
HETATM    5  C   UNL     1      -8.852  10.530  68.902  1.00  0.00    -0.166 C  
HETATM    6  C   UNL     1     -10.433  10.646  69.020  1.00  0.00    -0.237 C  
HETATM    7  C   UNL     1     -11.057   9.887  70.181  1.00  0.00    -0.353 C  
HETATM    8  C   UNL     1     -10.628   8.422  70.206  1.00  0.00    -0.234 C  
HETATM    9  C   UNL     1     -11.402   7.540  70.870  1.00  0.00    -0.297 C  
HETATM   10  C   UNL     1     -11.155   7.814  72.332  1.00  0.00    -0.323 C  
HETATM   11  O   UNL     1     -12.028   7.607  73.164  1.00  0.00    -0.017 OA 
HETATM   12  C   UNL     1      -9.776   8.327  72.706  1.00  0.00    -0.336 C  
HETATM   13  C   UNL     1      -8.812   8.546  71.775  1.00  0.00    -0.278 C  
HETATM   14  C   UNL     1      -9.088   8.242  70.308  1.00  0.00    -0.150 C  
HETATM   15  C   UNL     1      -8.565   9.013  69.078  1.00  0.00    -0.134 C  
HETATM   16  C   UNL     1      -8.637   6.747  70.109  1.00  0.00    -0.140 C  
HETATM   17  C   UNL     1      -7.111   8.840  68.653  1.00  0.00    -0.072 C  
HETATM   18  F   UNL     1      -9.282   8.386  68.058  1.00  0.00    -0.136 F  
HETATM   19  C   UNL     1      -6.994   8.769  67.141  1.00  0.00    -0.071 C  
HETATM   20  O   UNL     1      -6.153   8.870  69.430  1.00  0.00    -0.040 OA 
HETATM   21  C   UNL     1      -7.550  10.063  66.464  1.00  0.00    -0.106 C  
HETATM   22  C   UNL     1      -6.263  10.778  65.938  1.00  0.00    -0.121 C  
HETATM   23  C   UNL     1      -8.755  10.000  65.363  1.00  0.00    -0.159 C  
HETATM   24  H   UNL     1      -9.424   8.195  65.832  1.00  0.00     0.000 HD 
HETATM   25  O   UNL     1      -9.781   9.076  65.836  1.00  0.00    -0.271 OA 
ENDROOT
BRANCH  23  26
HETATM   26  C   UNL     1      -8.588   9.325  64.003  1.00  0.00    -0.186 C  
HETATM   27  O   UNL     1      -9.050   9.859  62.987  1.00  0.00    -0.245 OA 
HETATM   28  C   UNL     1      -8.097   7.886  63.960  1.00  0.00    -0.078 C  
HETATM   29 CL   UNL     1      -6.392   7.852  63.535  1.00  0.00    -0.063 Cl 
ENDBRANCH  23  26
TORSDOF 1
ENDMDL
MODEL       53
REMARK 921   NORMALIZED FREE ENERGY PREDICTED BY IDOCK:   -5.03 KCAL/MOL
REMARK 922        TOTAL FREE ENERGY PREDICTED BY IDOCK:   -5.37 KCAL/MOL
REMARK 923 INTER-LIGAND FREE ENERGY PREDICTED BY IDOCK:   -4.96 KCAL/MOL
REMARK 924 INTRA-LIGAND FREE ENERGY PREDICTED BY IDOCK:   -0.41 KCAL/MOL
REMARK 927      BINDING AFFINITY PREDICTED BY RF-SCORE:    0.00 PKD
ROOT
HETATM    1  C   UNL     1      -9.343  10.177  67.393  1.00  0.00    -0.167 C  
HETATM    2  C   UNL     1     -10.644   9.418  66.996  1.00  0.00    -0.272 C  
HETATM    3  C   UNL     1      -9.737  10.865  68.764  1.00  0.00    -0.196 C  
HETATM    4  C   UNL     1      -9.058   9.897  69.742  1.00  0.00    -0.249 C  
HETATM    5  C   UNL     1      -9.641   8.990  70.894  1.00  0.00    -0.328 C  
HETATM    6  C   UNL     1     -10.859   8.128  70.346  1.00  0.00    -0.237 C  
HETATM    7  C   UNL     1     -11.249   6.933  71.203  1.00  0.00    -0.314 C  
HETATM    8  C   UNL     1     -10.055   6.032  71.510  1.00  0.00    -0.232 C  
HETATM    9  C   UNL     1     -10.293   4.754  71.864  1.00  0.00    -0.242 C  
HETATM   10  C   UNL     1     -10.822   4.820  73.274  1.00  0.00    -0.281 C  
HETATM   11  O   UNL     1     -11.606   3.978  73.688  1.00  0.00    -0.182 OA 
HETATM   12  C   UNL     1     -10.312   5.958  74.140  1.00  0.00    -0.295 C  
HETATM   13  C   UNL     1      -9.436   6.884  73.671  1.00  0.00    -0.218 C  
HETATM   14  C   UNL     1      -8.906   6.777  72.246  1.00  0.00    -0.135 C  
HETATM   15  C   UNL     1      -8.569   7.935  71.284  1.00  0.00    -0.125 C  
HETATM   16  C   UNL     1      -7.597   5.911  72.361  1.00  0.00    -0.101 C  
HETATM   17  C   UNL     1      -7.293   8.740  71.505  1.00  0.00    -0.085 C  
HETATM   18  F   UNL     1      -8.311   7.227  70.110  1.00  0.00    -0.126 F  
HETATM   19  C   UNL     1      -6.617   9.056  70.183  1.00  0.00    -0.045 C  
HETATM   20  O   UNL     1      -6.926   9.171  72.602  1.00  0.00    -0.307 OA 
HETATM   21  C   UNL     1      -7.557   9.879  69.244  1.00  0.00    -0.101 C  
HETATM   22  C   UNL     1      -6.908  11.301  69.238  1.00  0.00    -0.116 C  
HETATM   23  C   UNL     1      -7.958   9.341  67.755  1.00  0.00    -0.100 C  
HETATM   24  H   UNL     1      -7.482   7.440  68.041  1.00  0.00     0.000 HD 
HETATM   25  O   UNL     1      -8.276   7.919  67.834  1.00  0.00    -0.126 OA 
ENDROOT
BRANCH  23  26
HETATM   26  C   UNL     1      -6.930   9.184  66.636  1.00  0.00    -0.081 C  
HETATM   27  O   UNL     1      -5.901   8.525  66.829  1.00  0.00    -0.046 OA 
HETATM   28  C   UNL     1      -7.060  10.061  65.400  1.00  0.00    -0.138 C  
HETATM   29 CL   UNL     1      -7.771   9.134  64.086  1.00  0.00    -0.116 Cl 
ENDBRANCH  23  26
TORSDOF 1
ENDMDL
MODEL       54
REMARK 921   NORMALIZED FREE ENERGY PREDICTED BY IDOCK:   -5.01 KCAL/MOL
REMARK 922        TOTAL FREE ENERGY PREDICTED BY IDOCK:   -5.35 KCAL/MOL
REMARK 923 INTER-LIGAND FREE ENERGY PREDICTED BY IDOCK:   -4.91 KCAL/MOL
REMARK 924 INTRA-LIGAND FREE ENERGY PREDICTED BY IDOCK:   -0.44 KCAL/MOL
REMARK 927      BINDING AFFINITY PREDICTED BY RF-SCORE:    0.00 PKD
ROOT
HETATM    1  C   UNL     1      -6.069   4.694  72.365  1.00  0.00    -0.017 C  
HETATM    2  C   UNL     1      -5.336   5.947  71.802  1.00  0.00    -0.021 C  
HETATM    3  C   UNL     1      -6.790   5.255  73.659  1.00  0.00    -0.080 C  
HETATM    4  C   UNL     1      -8.215   5.414  73.111  1.00  0.00    -0.115 C  
HETATM    5  C   UNL     1      -9.145   6.679  72.959  1.00  0.00    -0.140 C  
HETATM    6  C   UNL     1      -8.360   7.848  72.221  1.00  0.00    -0.172 C  
HETATM    7  C   UNL     1      -9.231   8.956  71.647  1.00  0.00    -0.302 C  
HETATM    8  C   UNL     1     -10.338   8.408  70.749  1.00  0.00    -0.228 C  
HETATM    9  C   UNL     1     -10.896   9.238  69.845  1.00  0.00    -0.252 C  
HETATM   10  C   UNL     1     -11.771  10.170  70.644  1.00  0.00    -0.338 C  
HETATM   11  O   UNL     1     -11.980  11.314  70.262  1.00  0.00    -0.325 OA 
HETATM   12  C   UNL     1     -12.386   9.608  71.913  1.00  0.00    -0.437 C  
HETATM   13  C   UNL     1     -12.153   8.335  72.324  1.00  0.00    -0.439 C  
HETATM   14  C   UNL     1     -11.278   7.412  71.483  1.00  0.00    -0.271 C  
HETATM   15  C   UNL     1     -10.307   6.326  71.990  1.00  0.00    -0.202 C  
HETATM   16  C   UNL     1     -12.275   6.685  70.505  1.00  0.00    -0.209 C  
HETATM   17  C   UNL     1     -10.870   5.011  72.520  1.00  0.00    -0.196 C  
HETATM   18  F   UNL     1      -9.687   5.959  70.796  1.00  0.00    -0.176 F  
HETATM   19  C   UNL     1     -10.025   3.836  72.062  1.00  0.00    -0.238 C  
HETATM   20  O   UNL     1     -11.817   4.930  73.307  1.00  0.00    -0.264 OA 
HETATM   21  C   UNL     1      -8.548   3.970  72.556  1.00  0.00    -0.107 C  
HETATM   22  C   UNL     1      -8.432   2.863  73.654  1.00  0.00    -0.073 C  
HETATM   23  C   UNL     1      -7.295   3.980  71.508  1.00  0.00    -0.054 C  
HETATM   24  H   UNL     1      -8.336   4.425  69.882  1.00  0.00     0.000 HD 
HETATM   25  O   UNL     1      -7.633   4.834  70.374  1.00  0.00    -0.053 OA 
ENDROOT
BRANCH  23  26
HETATM   26  C   UNL     1      -6.931   2.766  70.655  1.00  0.00    -0.033 C  
HETATM   27  O   UNL     1      -6.087   1.958  71.058  1.00  0.00    -0.017 OA 
HETATM   28  C   UNL     1      -7.411   2.720  69.212  1.00  0.00    -0.044 C  
HETATM   29 CL   UNL     1      -8.808   1.662  69.084  1.00  0.00    -0.109 Cl 
ENDBRANCH  23  26
TORSDOF 1
ENDMDL
MODEL       55
REMARK 921   NORMALIZED FREE ENERGY PREDICTED BY IDOCK:   -5.01 KCAL/MOL
REMARK 922        TOTAL FREE ENERGY PREDICTED BY IDOCK:   -5.34 KCAL/MOL
REMARK 923 INTER-LIGAND FREE ENERGY PREDICTED BY IDOCK:   -4.89 KCAL/MOL
REMARK 924 INTRA-LIGAND FREE ENERGY PREDICTED BY IDOCK:   -0.45 KCAL/MOL
REMARK 927      BINDING AFFINITY PREDICTED BY RF-SCORE:    0.00 PKD
ROOT
HETATM    1  C   UNL     1      -9.533   5.027  72.570  1.00  0.00    -0.164 C  
HETATM    2  C   UNL     1     -10.265   3.684  72.274  1.00  0.00    -0.188 C  
HETATM    3  C   UNL     1      -8.090   4.786  71.963  1.00  0.00    -0.106 C  
HETATM    4  C   UNL     1      -8.234   5.555  70.643  1.00  0.00    -0.116 C  
HETATM    5  C   UNL     1      -8.123   5.088  69.140  1.00  0.00    -0.083 C  
HETATM    6  C   UNL     1      -9.037   3.810  68.897  1.00  0.00    -0.201 C  
HETATM    7  C   UNL     1      -9.350   3.501  67.440  1.00  0.00    -0.246 C  
HETATM    8  C   UNL     1      -9.921   4.712  66.705  1.00  0.00    -0.250 C  
HETATM    9  C   UNL     1     -10.636   4.501  65.583  1.00  0.00    -0.231 C  
HETATM   10  C   UNL     1      -9.627   4.124  64.529  1.00  0.00    -0.168 C  
HETATM   11  O   UNL     1      -9.931   3.379  63.608  1.00  0.00    -0.140 OA 
HETATM   12  C   UNL     1      -8.242   4.733  64.664  1.00  0.00    -0.113 C  
HETATM   13  C   UNL     1      -7.917   5.564  65.687  1.00  0.00    -0.109 C  
HETATM   14  C   UNL     1      -8.968   5.939  66.726  1.00  0.00    -0.120 C  
HETATM   15  C   UNL     1      -8.746   6.185  68.233  1.00  0.00    -0.114 C  
HETATM   16  C   UNL     1      -9.646   7.245  66.166  1.00  0.00    -0.019 C  
HETATM   17  C   UNL     1      -8.093   7.485  68.689  1.00  0.00    -0.124 C  
HETATM   18  F   UNL     1     -10.066   6.310  68.668  1.00  0.00    -0.136 F  
HETATM   19  C   UNL     1      -8.768   8.021  69.938  1.00  0.00    -0.139 C  
HETATM   20  O   UNL     1      -7.081   7.969  68.175  1.00  0.00    -0.084 OA 
HETATM   21  C   UNL     1      -8.688   6.995  71.115  1.00  0.00    -0.137 C  
HETATM   22  C   UNL     1      -7.669   7.653  72.100  1.00  0.00    -0.099 C  
HETATM   23  C   UNL     1     -10.034   6.434  71.851  1.00  0.00    -0.175 C  
HETATM   24  H   UNL     1     -11.318   6.918  70.422  1.00  0.00     0.000 HD 
HETATM   25  O   UNL     1     -11.031   6.112  70.834  1.00  0.00    -0.267 OA 
ENDROOT
BRANCH  23  26
HETATM   26  C   UNL     1     -10.961   7.336  72.663  1.00  0.00    -0.299 C  
HETATM   27  O   UNL     1     -10.864   7.375  73.895  1.00  0.00    -0.281 OA 
HETATM   28  C   UNL     1     -12.161   7.961  71.967  1.00  0.00    -0.320 C  
HETATM   29 CL   UNL     1     -11.816   9.641  71.583  1.00  0.00    -0.466 Cl 
ENDBRANCH  23  26
TORSDOF 1
ENDMDL
MODEL       56
REMARK 921   NORMALIZED FREE ENERGY PREDICTED BY IDOCK:   -4.99 KCAL/MOL
REMARK 922        TOTAL FREE ENERGY PREDICTED BY IDOCK:   -5.33 KCAL/MOL
REMARK 923 INTER-LIGAND FREE ENERGY PREDICTED BY IDOCK:   -5.24 KCAL/MOL
REMARK 924 INTRA-LIGAND FREE ENERGY PREDICTED BY IDOCK:   -0.09 KCAL/MOL
REMARK 927      BINDING AFFINITY PREDICTED BY RF-SCORE:    0.00 PKD
ROOT
HETATM    1  C   UNL     1      -9.406  11.228  66.138  1.00  0.00    -0.230 C  
HETATM    2  C   UNL     1      -8.404  10.460  65.225  1.00  0.00    -0.166 C  
HETATM    3  C   UNL     1     -10.701  10.316  66.090  1.00  0.00    -0.042 C  
HETATM    4  C   UNL     1     -10.559   9.597  67.438  1.00  0.00    -0.333 C  
HETATM    5  C   UNL     1     -10.413   8.069  67.801  1.00  0.00    -0.280 C  
HETATM    6  C   UNL     1      -9.251   7.412  66.937  1.00  0.00    -0.183 C  
HETATM    7  C   UNL     1      -8.726   6.082  67.455  1.00  0.00    -0.107 C  
HETATM    8  C   UNL     1      -8.318   6.159  68.925  1.00  0.00    -0.115 C  
HETATM    9  C   UNL     1      -7.455   5.238  69.398  1.00  0.00    -0.065 C  
HETATM   10  C   UNL     1      -8.251   3.964  69.510  1.00  0.00    -0.053 C  
HETATM   11  O   UNL     1      -7.710   2.874  69.383  1.00  0.00    -0.044 OA 
HETATM   12  C   UNL     1      -9.732   4.110  69.811  1.00  0.00    -0.278 C  
HETATM   13  C   UNL     1     -10.321   5.325  69.958  1.00  0.00    -0.365 C  
HETATM   14  C   UNL     1      -9.483   6.594  69.857  1.00  0.00    -0.159 C  
HETATM   15  C   UNL     1      -9.912   7.953  69.267  1.00  0.00    -0.190 C  
HETATM   16  C   UNL     1      -9.007   6.887  71.328  1.00  0.00    -0.142 C  
HETATM   17  C   UNL     1     -10.847   8.852  70.069  1.00  0.00    -0.227 C  
HETATM   18  F   UNL     1      -8.697   8.639  69.292  1.00  0.00    -0.126 F  
HETATM   19  C   UNL     1     -10.429  10.307  69.956  1.00  0.00    -0.293 C  
HETATM   20  O   UNL     1     -11.870   8.458  70.637  1.00  0.00    -0.224 OA 
HETATM   21  C   UNL     1     -10.443  10.790  68.470  1.00  0.00    -0.208 C  
HETATM   22  C   UNL     1     -11.672  11.755  68.415  1.00  0.00    -0.389 C  
HETATM   23  C   UNL     1      -9.105  11.401  67.759  1.00  0.00    -0.158 C  
HETATM   24  H   UNL     1      -7.786  10.669  69.043  1.00  0.00     0.000 HD 
HETATM   25  O   UNL     1      -7.959  10.570  68.114  1.00  0.00    -0.106 OA 
ENDROOT
BRANCH  23  26
HETATM   26  C   UNL     1      -8.462  12.711  68.210  1.00  0.00    -0.163 C  
HETATM   27  O   UNL     1      -7.357  12.699  68.763  1.00  0.00    -0.107 OA 
HETATM   28  C   UNL     1      -9.310  13.974  68.214  1.00  0.00    -0.208 C  
HETATM   29 CL   UNL     1      -8.932  14.949  66.802  1.00  0.00    -0.279 Cl 
ENDBRANCH  23  26
TORSDOF 1
ENDMDL
MODEL       57
REMARK 921   NORMALIZED FREE ENERGY PREDICTED BY IDOCK:   -4.90 KCAL/MOL
REMARK 922        TOTAL FREE ENERGY PREDICTED BY IDOCK:   -5.23 KCAL/MOL
REMARK 923 INTER-LIGAND FREE ENERGY PREDICTED BY IDOCK:   -4.77 KCAL/MOL
REMARK 924 INTRA-LIGAND FREE ENERGY PREDICTED BY IDOCK:   -0.46 KCAL/MOL
REMARK 927      BINDING AFFINITY PREDICTED BY RF-SCORE:    0.00 PKD
ROOT
HETATM    1  C   UNL     1      -7.953   7.584  65.472  1.00  0.00    -0.121 C  
HETATM    2  C   UNL     1      -8.994   8.722  65.253  1.00  0.00    -0.184 C  
HETATM    3  C   UNL     1      -7.083   8.127  66.679  1.00  0.00    -0.077 C  
HETATM    4  C   UNL     1      -7.697   7.313  67.825  1.00  0.00    -0.112 C  
HETATM    5  C   UNL     1      -8.440   7.756  69.145  1.00  0.00    -0.138 C  
HETATM    6  C   UNL     1      -9.596   8.791  68.798  1.00  0.00    -0.160 C  
HETATM    7  C   UNL     1     -10.642   8.987  69.886  1.00  0.00    -0.240 C  
HETATM    8  C   UNL     1     -11.237   7.661  70.356  1.00  0.00    -0.258 C  
HETATM    9  C   UNL     1     -12.439   7.680  70.965  1.00  0.00    -0.205 C  
HETATM   10  C   UNL     1     -12.183   8.247  72.338  1.00  0.00    -0.352 C  
HETATM   11  O   UNL     1     -13.048   8.882  72.925  1.00  0.00    -0.339 OA 
HETATM   12  C   UNL     1     -10.821   7.966  72.948  1.00  0.00    -0.451 C  
HETATM   13  C   UNL     1      -9.870   7.254  72.290  1.00  0.00    -0.182 C  
HETATM   14  C   UNL     1     -10.169   6.679  70.911  1.00  0.00    -0.219 C  
HETATM   15  C   UNL     1      -9.188   6.526  69.729  1.00  0.00    -0.145 C  
HETATM   16  C   UNL     1     -10.749   5.242  71.185  1.00  0.00    -0.189 C  
HETATM   17  C   UNL     1      -8.143   5.416  69.766  1.00  0.00    -0.096 C  
HETATM   18  F   UNL     1     -10.063   6.120  68.721  1.00  0.00    -0.148 F  
HETATM   19  C   UNL     1      -7.987   4.773  68.400  1.00  0.00    -0.084 C  
HETATM   20  O   UNL     1      -7.441   5.158  70.748  1.00  0.00    -0.069 OA 
HETATM   21  C   UNL     1      -7.551   5.820  67.324  1.00  0.00    -0.096 C  
HETATM   22  C   UNL     1      -6.068   5.430  67.021  1.00  0.00    -0.030 C  
HETATM   23  C   UNL     1      -8.441   6.084  65.980  1.00  0.00    -0.139 C  
HETATM   24  H   UNL     1     -10.130   5.290  66.643  1.00  0.00     0.000 HD 
HETATM   25  O   UNL     1      -9.851   6.150  66.352  1.00  0.00    -0.157 OA 
ENDROOT
BRANCH  23  26
HETATM   26  C   UNL     1      -8.638   5.017  64.905  1.00  0.00    -0.150 C  
HETATM   27  O   UNL     1      -8.059   5.120  63.817  1.00  0.00    -0.101 OA 
HETATM   28  C   UNL     1      -9.749   3.994  65.090  1.00  0.00    -0.196 C  
HETATM   29 CL   UNL     1      -9.070   2.474  65.651  1.00  0.00    -0.132 Cl 
ENDBRANCH  23  26
TORSDOF 1
ENDMDL
MODEL       58
REMARK 921   NORMALIZED FREE ENERGY PREDICTED BY IDOCK:   -4.87 KCAL/MOL
REMARK 922        TOTAL FREE ENERGY PREDICTED BY IDOCK:   -5.20 KCAL/MOL
REMARK 923 INTER-LIGAND FREE ENERGY PREDICTED BY IDOCK:   -4.81 KCAL/MOL
REMARK 924 INTRA-LIGAND FREE ENERGY PREDICTED BY IDOCK:   -0.39 KCAL/MOL
REMARK 927      BINDING AFFINITY PREDICTED BY RF-SCORE:    0.00 PKD
ROOT
HETATM    1  C   UNL     1      -8.095   5.249  67.739  1.00  0.00    -0.099 C  
HETATM    2  C   UNL     1      -8.651   5.170  66.286  1.00  0.00    -0.114 C  
HETATM    3  C   UNL     1      -6.883   6.260  67.601  1.00  0.00    -0.069 C  
HETATM    4  C   UNL     1      -7.543   7.530  68.153  1.00  0.00    -0.114 C  
HETATM    5  C   UNL     1      -7.815   8.940  67.499  1.00  0.00    -0.101 C  
HETATM    6  C   UNL     1      -8.537   8.759  66.094  1.00  0.00    -0.162 C  
HETATM    7  C   UNL     1      -9.219  10.004  65.547  1.00  0.00    -0.247 C  
HETATM    8  C   UNL     1     -10.175  10.627  66.561  1.00  0.00    -0.288 C  
HETATM    9  C   UNL     1     -11.151  11.438  66.105  1.00  0.00    -0.259 C  
HETATM   10  C   UNL     1     -10.459  12.719  65.717  1.00  0.00    -0.276 C  
HETATM   11  O   UNL     1     -10.900  13.422  64.818  1.00  0.00    -0.332 OA 
HETATM   12  C   UNL     1      -9.218  13.091  66.509  1.00  0.00    -0.187 C  
HETATM   13  C   UNL     1      -8.740  12.307  67.510  1.00  0.00    -0.177 C  
HETATM   14  C   UNL     1      -9.476  11.027  67.890  1.00  0.00    -0.170 C  
HETATM   15  C   UNL     1      -8.854   9.698  68.370  1.00  0.00    -0.123 C  
HETATM   16  C   UNL     1     -10.496  11.459  69.007  1.00  0.00    -0.196 C  
HETATM   17  C   UNL     1      -8.317   9.597  69.793  1.00  0.00    -0.174 C  
HETATM   18  F   UNL     1      -9.983   8.878  68.386  1.00  0.00    -0.164 F  
HETATM   19  C   UNL     1      -8.662   8.253  70.408  1.00  0.00    -0.139 C  
HETATM   20  O   UNL     1      -7.600  10.450  70.326  1.00  0.00    -0.180 OA 
HETATM   21  C   UNL     1      -8.064   7.074  69.575  1.00  0.00    -0.130 C  
HETATM   22  C   UNL     1      -6.918   6.531  70.489  1.00  0.00    -0.064 C  
HETATM   23  C   UNL     1      -9.013   5.899  68.957  1.00  0.00    -0.122 C  
HETATM   24  H   UNL     1     -10.730   6.881  69.069  1.00  0.00     0.000 HD 
HETATM   25  O   UNL     1     -10.203   6.509  68.372  1.00  0.00    -0.150 OA 
ENDROOT
BRANCH  23  26
HETATM   26  C   UNL     1      -9.788   4.921  69.839  1.00  0.00    -0.225 C  
HETATM   27  O   UNL     1      -9.870   3.730  69.517  1.00  0.00    -0.149 OA 
HETATM   28  C   UNL     1     -10.667   5.480  70.947  1.00  0.00    -0.213 C  
HETATM   29 CL   UNL     1      -9.847   5.321  72.493  1.00  0.00    -0.186 Cl 
ENDBRANCH  23  26
TORSDOF 1
ENDMDL
MODEL       59
REMARK 921   NORMALIZED FREE ENERGY PREDICTED BY IDOCK:   -4.87 KCAL/MOL
REMARK 922        TOTAL FREE ENERGY PREDICTED BY IDOCK:   -5.20 KCAL/MOL
REMARK 923 INTER-LIGAND FREE ENERGY PREDICTED BY IDOCK:   -4.76 KCAL/MOL
REMARK 924 INTRA-LIGAND FREE ENERGY PREDICTED BY IDOCK:   -0.44 KCAL/MOL
REMARK 927      BINDING AFFINITY PREDICTED BY RF-SCORE:    0.00 PKD
ROOT
HETATM    1  C   UNL     1     -11.929   6.824  71.550  1.00  0.00    -0.396 C  
HETATM    2  C   UNL     1     -12.566   8.244  71.625  1.00  0.00    -0.355 C  
HETATM    3  C   UNL     1     -11.858   6.548  69.991  1.00  0.00    -0.284 C  
HETATM    4  C   UNL     1     -10.375   6.849  69.743  1.00  0.00    -0.224 C  
HETATM    5  C   UNL     1      -9.660   7.916  68.826  1.00  0.00    -0.152 C  
HETATM    6  C   UNL     1     -10.265   9.361  69.097  1.00  0.00    -0.209 C  
HETATM    7  C   UNL     1      -9.417  10.524  68.603  1.00  0.00    -0.172 C  
HETATM    8  C   UNL     1      -7.980  10.444  69.112  1.00  0.00    -0.141 C  
HETATM    9  C   UNL     1      -7.247  11.575  69.138  1.00  0.00    -0.084 C  
HETATM   10  C   UNL     1      -6.902  11.861  67.698  1.00  0.00    -0.112 C  
HETATM   11  O   UNL     1      -6.736  13.009  67.311  1.00  0.00    -0.148 OA 
HETATM   12  C   UNL     1      -6.750  10.660  66.782  1.00  0.00    -0.103 C  
HETATM   13  C   UNL     1      -6.929   9.389  67.225  1.00  0.00    -0.085 C  
HETATM   14  C   UNL     1      -7.259   9.133  68.691  1.00  0.00    -0.075 C  
HETATM   15  C   UNL     1      -8.175   8.032  69.266  1.00  0.00    -0.127 C  
HETATM   16  C   UNL     1      -5.865   8.954  69.398  1.00  0.00    -0.034 C  
HETATM   17  C   UNL     1      -7.670   6.594  69.317  1.00  0.00    -0.102 C  
HETATM   18  F   UNL     1      -8.221   8.411  70.607  1.00  0.00    -0.095 F  
HETATM   19  C   UNL     1      -8.084   5.920  70.612  1.00  0.00    -0.118 C  
HETATM   20  O   UNL     1      -7.101   6.025  68.380  1.00  0.00    -0.076 OA 
HETATM   21  C   UNL     1      -9.639   5.899  70.771  1.00  0.00    -0.203 C  
HETATM   22  C   UNL     1     -10.002   4.392  70.564  1.00  0.00    -0.256 C  
HETATM   23  C   UNL     1     -10.374   6.572  72.066  1.00  0.00    -0.199 C  
HETATM   24  H   UNL     1      -8.864   7.720  72.637  1.00  0.00     0.000 HD 
HETATM   25  O   UNL     1      -9.755   7.865  72.342  1.00  0.00    -0.177 OA 
ENDROOT
BRANCH  23  26
HETATM   26  C   UNL     1     -10.191   6.034  73.484  1.00  0.00    -0.221 C  
HETATM   27  O   UNL     1     -10.996   5.214  73.942  1.00  0.00    -0.292 OA 
HETATM   28  C   UNL     1      -9.186   6.717  74.397  1.00  0.00    -0.220 C  
HETATM   29 CL   UNL     1      -7.709   5.767  74.472  1.00  0.00    -0.097 Cl 
ENDBRANCH  23  26
TORSDOF 1
ENDMDL
MODEL       60
REMARK 921   NORMALIZED FREE ENERGY PREDICTED BY IDOCK:   -4.87 KCAL/MOL
REMARK 922        TOTAL FREE ENERGY PREDICTED BY IDOCK:   -5.19 KCAL/MOL
REMARK 923 INTER-LIGAND FREE ENERGY PREDICTED BY IDOCK:   -4.85 KCAL/MOL
REMARK 924 INTRA-LIGAND FREE ENERGY PREDICTED BY IDOCK:   -0.34 KCAL/MOL
REMARK 927      BINDING AFFINITY PREDICTED BY RF-SCORE:    0.00 PKD
ROOT
HETATM    1  C   UNL     1      -7.295  10.207  66.385  1.00  0.00    -0.108 C  
HETATM    2  C   UNL     1      -8.131  11.506  66.587  1.00  0.00    -0.139 C  
HETATM    3  C   UNL     1      -6.615   9.998  67.800  1.00  0.00    -0.067 C  
HETATM    4  C   UNL     1      -7.532   8.906  68.367  1.00  0.00    -0.086 C  
HETATM    5  C   UNL     1      -8.457   8.873  69.644  1.00  0.00    -0.129 C  
HETATM    6  C   UNL     1      -9.392  10.158  69.674  1.00  0.00    -0.215 C  
HETATM    7  C   UNL     1     -10.598  10.066  70.598  1.00  0.00    -0.272 C  
HETATM    8  C   UNL     1     -11.426   8.810  70.337  1.00  0.00    -0.163 C  
HETATM    9  C   UNL     1     -12.712   8.798  70.741  1.00  0.00     0.189 C  
HETATM   10  C   UNL     1     -12.660   8.657  72.240  1.00  0.00    -0.395 C  
HETATM   11  O   UNL     1     -13.540   9.133  72.945  1.00  0.00    -0.348 OA 
HETATM   12  C   UNL     1     -11.485   7.884  72.812  1.00  0.00    -0.428 C  
HETATM   13  C   UNL     1     -10.517   7.354  72.020  1.00  0.00    -0.230 C  
HETATM   14  C   UNL     1     -10.611   7.499  70.505  1.00  0.00    -0.232 C  
HETATM   15  C   UNL     1      -9.446   7.682  69.510  1.00  0.00    -0.152 C  
HETATM   16  C   UNL     1     -11.401   6.226  70.022  1.00  0.00    -0.486 C  
HETATM   17  C   UNL     1      -8.568   6.485  69.160  1.00  0.00    -0.129 C  
HETATM   18  F   UNL     1     -10.152   7.927  68.331  1.00  0.00    -0.175 F  
HETATM   19  C   UNL     1      -8.230   6.476  67.680  1.00  0.00    -0.122 C  
HETATM   20  O   UNL     1      -8.105   5.699  69.991  1.00  0.00    -0.101 OA 
HETATM   21  C   UNL     1      -7.472   7.777  67.260  1.00  0.00    -0.093 C  
HETATM   22  C   UNL     1      -6.016   7.276  66.991  1.00  0.00    -0.041 C  
HETATM   23  C   UNL     1      -8.048   8.760  66.090  1.00  0.00    -0.107 C  
HETATM   24  H   UNL     1      -9.916   8.103  66.112  1.00  0.00     0.000 HD 
HETATM   25  O   UNL     1      -9.485   8.932  66.281  1.00  0.00    -0.200 OA 
ENDROOT
BRANCH  23  26
HETATM   26  C   UNL     1      -8.160   8.320  64.632  1.00  0.00    -0.150 C  
HETATM   27  O   UNL     1      -8.221   7.118  64.351  1.00  0.00    -0.090 OA 
HETATM   28  C   UNL     1      -7.923   9.353  63.540  1.00  0.00    -0.141 C  
HETATM   29 CL   UNL     1      -9.464   9.894  62.889  1.00  0.00    -0.242 Cl 
ENDBRANCH  23  26
TORSDOF 1
ENDMDL
MODEL       61
REMARK 921   NORMALIZED FREE ENERGY PREDICTED BY IDOCK:   -4.83 KCAL/MOL
REMARK 922        TOTAL FREE ENERGY PREDICTED BY IDOCK:   -5.16 KCAL/MOL
REMARK 923 INTER-LIGAND FREE ENERGY PREDICTED BY IDOCK:   -4.72 KCAL/MOL
REMARK 924 INTRA-LIGAND FREE ENERGY PREDICTED BY IDOCK:   -0.44 KCAL/MOL
REMARK 927      BINDING AFFINITY PREDICTED BY RF-SCORE:    0.00 PKD
ROOT
HETATM    1  C   UNL     1     -10.202  11.408  67.972  1.00  0.00    -0.201 C  
HETATM    2  C   UNL     1     -11.475  10.731  68.564  1.00  0.00    -0.362 C  
HETATM    3  C   UNL     1      -9.049  10.891  68.926  1.00  0.00    -0.151 C  
HETATM    4  C   UNL     1      -8.455   9.790  68.038  1.00  0.00    -0.118 C  
HETATM    5  C   UNL     1      -8.304   8.234  68.255  1.00  0.00    -0.132 C  
HETATM    6  C   UNL     1      -9.697   7.608  68.695  1.00  0.00    -0.157 C  
HETATM    7  C   UNL     1      -9.809   6.098  68.544  1.00  0.00    -0.157 C  
HETATM    8  C   UNL     1      -9.436   5.632  67.138  1.00  0.00    -0.120 C  
HETATM    9  C   UNL     1      -9.889   4.434  66.721  1.00  0.00    -0.241 C  
HETATM   10  C   UNL     1      -9.063   3.413  67.462  1.00  0.00    -0.169 C  
HETATM   11  O   UNL     1      -9.525   2.315  67.739  1.00  0.00    -0.188 OA 
HETATM   12  C   UNL     1      -7.641   3.814  67.814  1.00  0.00    -0.067 C  
HETATM   13  C   UNL     1      -7.135   5.033  67.495  1.00  0.00    -0.066 C  
HETATM   14  C   UNL     1      -7.992   6.034  66.729  1.00  0.00    -0.102 C  
HETATM   15  C   UNL     1      -8.000   7.570  66.884  1.00  0.00    -0.115 C  
HETATM   16  C   UNL     1      -7.690   5.751  65.210  1.00  0.00    -0.093 C  
HETATM   17  C   UNL     1      -6.849   8.384  66.303  1.00  0.00    -0.073 C  
HETATM   18  F   UNL     1      -9.082   7.904  66.070  1.00  0.00    -0.183 F  
HETATM   19  C   UNL     1      -7.359   9.661  65.661  1.00  0.00    -0.101 C  
HETATM   20  O   UNL     1      -5.656   8.095  66.441  1.00  0.00    -0.031 OA 
HETATM   21  C   UNL     1      -8.117  10.555  66.695  1.00  0.00    -0.127 C  
HETATM   22  C   UNL     1      -7.143  11.757  66.917  1.00  0.00    -0.097 C  
HETATM   23  C   UNL     1      -9.667  11.011  66.454  1.00  0.00    -0.201 C  
HETATM   24  H   UNL     1     -10.123   9.635  65.104  1.00  0.00     0.000 HD 
HETATM   25  O   UNL     1     -10.429   9.863  65.974  1.00  0.00    -0.170 OA 
ENDROOT
BRANCH  23  26
HETATM   26  C   UNL     1     -10.082  11.933  65.309  1.00  0.00    -0.257 C  
HETATM   27  O   UNL     1     -10.152  13.153  65.491  1.00  0.00    -0.289 OA 
HETATM   28  C   UNL     1     -10.662  11.310  64.048  1.00  0.00    -0.377 C  
HETATM   29 CL   UNL     1      -9.434  11.261  62.791  1.00  0.00    -0.375 Cl 
ENDBRANCH  23  26
TORSDOF 1
ENDMDL
MODEL       62
REMARK 921   NORMALIZED FREE ENERGY PREDICTED BY IDOCK:   -4.69 KCAL/MOL
REMARK 922        TOTAL FREE ENERGY PREDICTED BY IDOCK:   -5.00 KCAL/MOL
REMARK 923 INTER-LIGAND FREE ENERGY PREDICTED BY IDOCK:   -4.56 KCAL/MOL
REMARK 924 INTRA-LIGAND FREE ENERGY PREDICTED BY IDOCK:   -0.44 KCAL/MOL
REMARK 927      BINDING AFFINITY PREDICTED BY RF-SCORE:    0.00 PKD
ROOT
HETATM    1  C   UNL     1      -7.279  16.672  68.586  1.00  0.00    -0.192 C  
HETATM    2  C   UNL     1      -6.207  16.462  69.696  1.00  0.00    -0.210 C  
HETATM    3  C   UNL     1      -6.624  15.975  67.323  1.00  0.00    -0.219 C  
HETATM    4  C   UNL     1      -7.394  14.648  67.333  1.00  0.00    -0.195 C  
HETATM    5  C   UNL     1      -6.906  13.154  67.470  1.00  0.00    -0.156 C  
HETATM    6  C   UNL     1      -5.950  13.007  68.732  1.00  0.00    -0.076 C  
HETATM    7  C   UNL     1      -5.737  11.583  69.225  1.00  0.00    -0.052 C  
HETATM    8  C   UNL     1      -7.058  10.857  69.470  1.00  0.00    -0.123 C  
HETATM    9  C   UNL     1      -7.058   9.792  70.296  1.00  0.00    -0.145 C  
HETATM   10  C   UNL     1      -6.397   8.683  69.518  1.00  0.00    -0.040 C  
HETATM   11  O   UNL     1      -5.768   7.804  70.092  1.00  0.00    -0.023 OA 
HETATM   12  C   UNL     1      -6.576   8.707  68.011  1.00  0.00    -0.058 C  
HETATM   13  C   UNL     1      -7.282   9.684  67.385  1.00  0.00    -0.086 C  
HETATM   14  C   UNL     1      -7.953  10.781  68.203  1.00  0.00    -0.114 C  
HETATM   15  C   UNL     1      -8.132  12.262  67.812  1.00  0.00    -0.155 C  
HETATM   16  C   UNL     1      -9.397  10.234  68.511  1.00  0.00    -0.155 C  
HETATM   17  C   UNL     1      -9.187  12.639  66.777  1.00  0.00    -0.225 C  
HETATM   18  F   UNL     1      -8.640  12.782  69.003  1.00  0.00     0.053 F  
HETATM   19  C   UNL     1      -9.905  13.916  67.176  1.00  0.00    -0.241 C  
HETATM   20  O   UNL     1      -9.352  12.045  65.708  1.00  0.00    -0.215 OA 
HETATM   21  C   UNL     1      -8.907  15.111  67.312  1.00  0.00    -0.216 C  
HETATM   22  C   UNL     1      -9.245  16.008  66.077  1.00  0.00    -0.375 C  
HETATM   23  C   UNL     1      -8.767  15.951  68.706  1.00  0.00    -0.213 C  
HETATM   24  H   UNL     1      -9.597  14.600  69.893  1.00  0.00     0.000 HD 
HETATM   25  O   UNL     1      -8.745  15.013  69.824  1.00  0.00    -0.085 OA 
ENDROOT
BRANCH  23  26
HETATM   26  C   UNL     1      -9.906  16.799  69.270  1.00  0.00    -0.168 C  
HETATM   27  O   UNL     1      -9.950  18.012  69.032  1.00  0.00    -0.357 OA 
HETATM   28  C   UNL     1     -10.810  16.191  70.331  1.00  0.00    -0.247 C  
HETATM   29 CL   UNL     1     -12.326  15.684  69.601  1.00  0.00    -0.273 Cl 
ENDBRANCH  23  26
TORSDOF 1
ENDMDL
MODEL       63
REMARK 921   NORMALIZED FREE ENERGY PREDICTED BY IDOCK:   -4.68 KCAL/MOL
REMARK 922        TOTAL FREE ENERGY PREDICTED BY IDOCK:   -5.00 KCAL/MOL
REMARK 923 INTER-LIGAND FREE ENERGY PREDICTED BY IDOCK:   -4.60 KCAL/MOL
REMARK 924 INTRA-LIGAND FREE ENERGY PREDICTED BY IDOCK:   -0.40 KCAL/MOL
REMARK 927      BINDING AFFINITY PREDICTED BY RF-SCORE:    0.00 PKD
ROOT
HETATM    1  C   UNL     1     -10.548   7.074  70.674  1.00  0.00    -0.246 C  
HETATM    2  C   UNL     1     -10.904   8.584  70.527  1.00  0.00    -0.252 C  
HETATM    3  C   UNL     1     -11.252   6.419  69.415  1.00  0.00    -0.459 C  
HETATM    4  C   UNL     1     -10.036   6.260  68.493  1.00  0.00    -0.182 C  
HETATM    5  C   UNL     1      -9.719   6.852  67.065  1.00  0.00    -0.210 C  
HETATM    6  C   UNL     1      -9.951   8.424  67.063  1.00  0.00    -0.323 C  
HETATM    7  C   UNL     1      -9.307   9.176  65.907  1.00  0.00    -0.306 C  
HETATM    8  C   UNL     1      -7.820   8.856  65.772  1.00  0.00    -0.099 C  
HETATM    9  C   UNL     1      -7.034   9.733  65.115  1.00  0.00    -0.117 C  
HETATM   10  C   UNL     1      -7.377   9.562  63.657  1.00  0.00    -0.109 C  
HETATM   11  O   UNL     1      -7.281  10.499  62.877  1.00  0.00    -0.128 OA 
HETATM   12  C   UNL     1      -7.816   8.176  63.218  1.00  0.00    -0.149 C  
HETATM   13  C   UNL     1      -7.912   7.141  64.091  1.00  0.00    -0.085 C  
HETATM   14  C   UNL     1      -7.541   7.343  65.556  1.00  0.00    -0.094 C  
HETATM   15  C   UNL     1      -8.199   6.687  66.787  1.00  0.00    -0.114 C  
HETATM   16  C   UNL     1      -6.009   6.990  65.641  1.00  0.00    -0.036 C  
HETATM   17  C   UNL     1      -7.902   5.225  67.102  1.00  0.00    -0.100 C  
HETATM   18  F   UNL     1      -7.564   7.381  67.818  1.00  0.00    -0.095 F  
HETATM   19  C   UNL     1      -7.733   5.016  68.596  1.00  0.00    -0.078 C  
HETATM   20  O   UNL     1      -7.912   4.319  66.263  1.00  0.00    -0.097 OA 
HETATM   21  C   UNL     1      -9.020   5.433  69.379  1.00  0.00    -0.124 C  
HETATM   22  C   UNL     1      -9.612   4.066  69.855  1.00  0.00    -0.281 C  
HETATM   23  C   UNL     1      -8.975   6.565  70.555  1.00  0.00    -0.152 C  
HETATM   24  H   UNL     1      -7.251   7.393  70.035  1.00  0.00     0.000 HD 
HETATM   25  O   UNL     1      -8.153   7.684  70.103  1.00  0.00    -0.114 OA 
ENDROOT
BRANCH  23  26
HETATM   26  C   UNL     1      -8.210   6.361  71.861  1.00  0.00    -0.109 C  
HETATM   27  O   UNL     1      -7.057   5.915  71.840  1.00  0.00    -0.078 OA 
HETATM   28  C   UNL     1      -8.975   6.452  73.173  1.00  0.00    -0.128 C  
HETATM   29 CL   UNL     1      -8.683   8.014  73.924  1.00  0.00    -0.331 Cl 
ENDBRANCH  23  26
TORSDOF 1
ENDMDL
MODEL       64
REMARK 921   NORMALIZED FREE ENERGY PREDICTED BY IDOCK:   -4.67 KCAL/MOL
REMARK 922        TOTAL FREE ENERGY PREDICTED BY IDOCK:   -4.99 KCAL/MOL
REMARK 923 INTER-LIGAND FREE ENERGY PREDICTED BY IDOCK:   -4.54 KCAL/MOL
REMARK 924 INTRA-LIGAND FREE ENERGY PREDICTED BY IDOCK:   -0.46 KCAL/MOL
REMARK 927      BINDING AFFINITY PREDICTED BY RF-SCORE:    0.00 PKD
ROOT
HETATM    1  C   UNL     1     -10.399   7.467  71.644  1.00  0.00    -0.217 C  
HETATM    2  C   UNL     1     -11.407   6.279  71.662  1.00  0.00    -0.347 C  
HETATM    3  C   UNL     1      -8.994   6.743  71.731  1.00  0.00    -0.139 C  
HETATM    4  C   UNL     1      -8.575   6.817  70.256  1.00  0.00    -0.140 C  
HETATM    5  C   UNL     1      -8.246   5.691  69.202  1.00  0.00    -0.100 C  
HETATM    6  C   UNL     1      -9.414   4.613  69.174  1.00  0.00    -0.224 C  
HETATM    7  C   UNL     1      -9.441   3.714  67.947  1.00  0.00    -0.224 C  
HETATM    8  C   UNL     1      -9.425   4.515  66.647  1.00  0.00    -0.183 C  
HETATM    9  C   UNL     1      -9.875   3.921  65.524  1.00  0.00    -0.156 C  
HETATM   10  C   UNL     1      -8.801   2.939  65.132  1.00  0.00    -0.129 C  
HETATM   11  O   UNL     1      -9.082   1.910  64.533  1.00  0.00    -0.113 OA 
HETATM   12  C   UNL     1      -7.374   3.309  65.494  1.00  0.00    -0.075 C  
HETATM   13  C   UNL     1      -7.073   4.458  66.153  1.00  0.00    -0.071 C  
HETATM   14  C   UNL     1      -8.182   5.438  66.518  1.00  0.00    -0.109 C  
HETATM   15  C   UNL     1      -8.271   6.321  67.781  1.00  0.00    -0.118 C  
HETATM   16  C   UNL     1      -8.279   6.420  65.292  1.00  0.00    -0.137 C  
HETATM   17  C   UNL     1      -7.388   7.560  67.889  1.00  0.00    -0.099 C  
HETATM   18  F   UNL     1      -9.556   6.845  67.637  1.00  0.00    -0.126 F  
HETATM   19  C   UNL     1      -8.154   8.718  68.503  1.00  0.00    -0.116 C  
HETATM   20  O   UNL     1      -6.184   7.579  67.619  1.00  0.00    -0.045 OA 
HETATM   21  C   UNL     1      -8.674   8.363  69.933  1.00  0.00    -0.136 C  
HETATM   22  C   UNL     1      -7.776   9.233  70.871  1.00  0.00    -0.134 C  
HETATM   23  C   UNL     1     -10.263   8.435  70.305  1.00  0.00    -0.196 C  
HETATM   24  H   UNL     1     -10.954   8.393  68.449  1.00  0.00     0.000 HD 
HETATM   25  O   UNL     1     -11.032   7.839  69.216  1.00  0.00    -0.136 OA 
ENDROOT
BRANCH  23  26
HETATM   26  C   UNL     1     -11.044   9.747  70.314  1.00  0.00    -0.292 C  
HETATM   27  O   UNL     1     -11.606  10.125  71.349  1.00  0.00    -0.348 OA 
HETATM   28  C   UNL     1     -11.343  10.426  68.986  1.00  0.00    -0.219 C  
HETATM   29 CL   UNL     1     -10.231  11.764  68.739  1.00  0.00    -0.204 Cl 
ENDBRANCH  23  26
TORSDOF 1
ENDMDL
MODEL       65
REMARK 921   NORMALIZED FREE ENERGY PREDICTED BY IDOCK:   -4.63 KCAL/MOL
REMARK 922        TOTAL FREE ENERGY PREDICTED BY IDOCK:   -4.94 KCAL/MOL
REMARK 923 INTER-LIGAND FREE ENERGY PREDICTED BY IDOCK:   -4.70 KCAL/MOL
REMARK 924 INTRA-LIGAND FREE ENERGY PREDICTED BY IDOCK:   -0.24 KCAL/MOL
REMARK 927      BINDING AFFINITY PREDICTED BY RF-SCORE:    0.00 PKD
ROOT
HETATM    1  C   UNL     1      -7.114   6.971  66.645  1.00  0.00    -0.078 C  
HETATM    2  C   UNL     1      -6.942   7.563  65.214  1.00  0.00    -0.059 C  
HETATM    3  C   UNL     1      -6.529   8.113  67.574  1.00  0.00    -0.057 C  
HETATM    4  C   UNL     1      -7.839   8.749  68.056  1.00  0.00    -0.102 C  
HETATM    5  C   UNL     1      -8.414  10.210  67.900  1.00  0.00    -0.118 C  
HETATM    6  C   UNL     1      -8.351  10.661  66.377  1.00  0.00    -0.151 C  
HETATM    7  C   UNL     1      -9.227  11.851  66.013  1.00  0.00    -0.176 C  
HETATM    8  C   UNL     1     -10.676  11.652  66.450  1.00  0.00    -0.316 C  
HETATM    9  C   UNL     1     -11.634  12.378  65.838  1.00  0.00    -0.449 C  
HETATM   10  C   UNL     1     -11.484  13.776  66.381  1.00  0.00    -0.336 C  
HETATM   11  O   UNL     1     -11.787  14.747  65.701  1.00  0.00    -0.314 OA 
HETATM   12  C   UNL     1     -10.969  13.904  67.803  1.00  0.00    -0.271 C  
HETATM   13  C   UNL     1     -10.642  12.819  68.551  1.00  0.00    -0.270 C  
HETATM   14  C   UNL     1     -10.823  11.418  67.979  1.00  0.00    -0.264 C  
HETATM   15  C   UNL     1      -9.932  10.183  68.230  1.00  0.00    -0.148 C  
HETATM   16  C   UNL     1     -12.282  10.994  68.391  1.00  0.00     0.208 C  
HETATM   17  C   UNL     1     -10.027   9.453  69.565  1.00  0.00    -0.191 C  
HETATM   18  F   UNL     1     -10.486   9.279  67.322  1.00  0.00    -0.272 F  
HETATM   19  C   UNL     1      -9.962   7.950  69.367  1.00  0.00    -0.189 C  
HETATM   20  O   UNL     1     -10.040  10.016  70.664  1.00  0.00    -0.177 OA 
HETATM   21  C   UNL     1      -8.628   7.524  68.671  1.00  0.00    -0.129 C  
HETATM   22  C   UNL     1      -7.835   6.812  69.815  1.00  0.00    -0.115 C  
HETATM   23  C   UNL     1      -8.626   6.694  67.265  1.00  0.00    -0.119 C  
HETATM   24  H   UNL     1     -10.483   7.122  66.722  1.00  0.00     0.000 HD 
HETATM   25  O   UNL     1      -9.616   7.281  66.367  1.00  0.00    -0.172 OA 
ENDROOT
BRANCH  23  26
HETATM   26  C   UNL     1      -9.173   5.272  67.151  1.00  0.00    -0.113 C  
HETATM   27  O   UNL     1      -8.835   4.553  66.204  1.00  0.00    -0.116 OA 
HETATM   28  C   UNL     1     -10.329   4.863  68.052  1.00  0.00     0.026 C  
HETATM   29 CL   UNL     1      -9.725   3.901  69.394  1.00  0.00    -0.236 Cl 
ENDBRANCH  23  26
TORSDOF 1
ENDMDL
MODEL       66
REMARK 921   NORMALIZED FREE ENERGY PREDICTED BY IDOCK:   -4.62 KCAL/MOL
REMARK 922        TOTAL FREE ENERGY PREDICTED BY IDOCK:   -4.94 KCAL/MOL
REMARK 923 INTER-LIGAND FREE ENERGY PREDICTED BY IDOCK:   -4.58 KCAL/MOL
REMARK 924 INTRA-LIGAND FREE ENERGY PREDICTED BY IDOCK:   -0.36 KCAL/MOL
REMARK 927      BINDING AFFINITY PREDICTED BY RF-SCORE:    0.00 PKD
ROOT
HETATM    1  C   UNL     1      -9.423   5.023  68.989  1.00  0.00    -0.194 C  
HETATM    2  C   UNL     1     -10.225   5.827  70.056  1.00  0.00    -0.304 C  
HETATM    3  C   UNL     1     -10.328   5.149  67.695  1.00  0.00    -0.173 C  
HETATM    4  C   UNL     1      -9.557   6.245  66.947  1.00  0.00    -0.173 C  
HETATM    5  C   UNL     1      -9.982   7.686  66.468  1.00  0.00    -0.226 C  
HETATM    6  C   UNL     1     -10.639   8.489  67.673  1.00  0.00    -0.268 C  
HETATM    7  C   UNL     1     -10.720   9.997  67.484  1.00  0.00    -0.339 C  
HETATM    8  C   UNL     1      -9.367  10.602  67.115  1.00  0.00    -0.172 C  
HETATM    9  C   UNL     1      -9.173  11.917  67.340  1.00  0.00    -0.177 C  
HETATM   10  C   UNL     1      -9.973  12.627  66.277  1.00  0.00    -0.258 C  
HETATM   11  O   UNL     1     -10.449  13.734  66.487  1.00  0.00    -0.276 OA 
HETATM   12  C   UNL     1     -10.126  11.910  64.947  1.00  0.00    -0.296 C  
HETATM   13  C   UNL     1      -9.587  10.685  64.723  1.00  0.00    -0.334 C  
HETATM   14  C   UNL     1      -8.769  10.003  65.813  1.00  0.00    -0.160 C  
HETATM   15  C   UNL     1      -8.699   8.493  66.124  1.00  0.00    -0.152 C  
HETATM   16  C   UNL     1      -7.286  10.463  65.558  1.00  0.00    -0.138 C  
HETATM   17  C   UNL     1      -7.900   7.577  65.203  1.00  0.00    -0.122 C  
HETATM   18  F   UNL     1      -7.952   8.508  67.302  1.00  0.00    -0.097 F  
HETATM   19  C   UNL     1      -7.131   6.542  66.004  1.00  0.00    -0.063 C  
HETATM   20  O   UNL     1      -7.964   7.607  63.971  1.00  0.00    -0.134 OA 
HETATM   21  C   UNL     1      -8.091   5.655  66.860  1.00  0.00    -0.102 C  
HETATM   22  C   UNL     1      -8.043   4.269  66.139  1.00  0.00    -0.102 C  
HETATM   23  C   UNL     1      -7.935   5.550  68.482  1.00  0.00    -0.088 C  
HETATM   24  H   UNL     1      -6.849   7.187  68.734  1.00  0.00     0.000 HD 
HETATM   25  O   UNL     1      -7.701   6.885  69.024  1.00  0.00    -0.105 OA 
ENDROOT
BRANCH  23  26
HETATM   26  C   UNL     1      -6.713   4.922  69.150  1.00  0.00    -0.049 C  
HETATM   27  O   UNL     1      -5.626   4.906  68.560  1.00  0.00    -0.014 OA 
HETATM   28  C   UNL     1      -6.917   4.089  70.406  1.00  0.00    -0.034 C  
HETATM   29 CL   UNL     1      -6.480   5.035  71.822  1.00  0.00    -0.030 Cl 
ENDBRANCH  23  26
TORSDOF 1
ENDMDL
MODEL       67
REMARK 921   NORMALIZED FREE ENERGY PREDICTED BY IDOCK:   -4.59 KCAL/MOL
REMARK 922        TOTAL FREE ENERGY PREDICTED BY IDOCK:   -4.91 KCAL/MOL
REMARK 923 INTER-LIGAND FREE ENERGY PREDICTED BY IDOCK:   -4.52 KCAL/MOL
REMARK 924 INTRA-LIGAND FREE ENERGY PREDICTED BY IDOCK:   -0.39 KCAL/MOL
REMARK 927      BINDING AFFINITY PREDICTED BY RF-SCORE:    0.00 PKD
ROOT
HETATM    1  C   UNL     1     -10.167   5.591  70.160  1.00  0.00    -0.333 C  
HETATM    2  C   UNL     1     -11.511   6.261  70.575  1.00  0.00    -0.407 C  
HETATM    3  C   UNL     1     -10.238   5.602  68.578  1.00  0.00    -0.253 C  
HETATM    4  C   UNL     1      -9.329   6.803  68.288  1.00  0.00    -0.124 C  
HETATM    5  C   UNL     1      -9.605   8.176  67.561  1.00  0.00    -0.196 C  
HETATM    6  C   UNL     1     -10.902   8.864  68.170  1.00  0.00    -0.062 C  
HETATM    7  C   UNL     1     -11.055  10.348  67.867  1.00  0.00    -0.363 C  
HETATM    8  C   UNL     1      -9.805  11.142  68.239  1.00  0.00    -0.195 C  
HETATM    9  C   UNL     1      -9.929  12.469  68.445  1.00  0.00    -0.212 C  
HETATM   10  C   UNL     1     -10.109  13.070  67.074  1.00  0.00    -0.243 C  
HETATM   11  O   UNL     1     -10.757  14.097  66.922  1.00  0.00    -0.282 OA 
HETATM   12  C   UNL     1      -9.431  12.354  65.921  1.00  0.00    -0.134 C  
HETATM   13  C   UNL     1      -8.708  11.219  66.102  1.00  0.00    -0.179 C  
HETATM   14  C   UNL     1      -8.529  10.647  67.504  1.00  0.00    -0.121 C  
HETATM   15  C   UNL     1      -8.451   9.159  67.904  1.00  0.00    -0.117 C  
HETATM   16  C   UNL     1      -7.214  11.315  68.053  1.00  0.00    -0.079 C  
HETATM   17  C   UNL     1      -7.175   8.375  67.618  1.00  0.00    -0.088 C  
HETATM   18  F   UNL     1      -8.466   9.266  69.295  1.00  0.00    -0.119 F  
HETATM   19  C   UNL     1      -6.837   7.450  68.773  1.00  0.00    -0.072 C  
HETATM   20  O   UNL     1      -6.566   8.409  66.545  1.00  0.00    -0.054 OA 
HETATM   21  C   UNL     1      -7.988   6.427  69.039  1.00  0.00    -0.111 C  
HETATM   22  C   UNL     1      -7.386   5.070  68.551  1.00  0.00    -0.063 C  
HETATM   23  C   UNL     1      -8.721   6.327  70.496  1.00  0.00    -0.143 C  
HETATM   24  H   UNL     1      -8.155   8.098  71.180  1.00  0.00     0.000 HD 
HETATM   25  O   UNL     1      -8.984   7.676  70.987  1.00  0.00    -0.144 OA 
ENDROOT
BRANCH  23  26
HETATM   26  C   UNL     1      -7.985   5.870  71.754  1.00  0.00    -0.111 C  
HETATM   27  O   UNL     1      -6.815   6.221  71.948  1.00  0.00    -0.065 OA 
HETATM   28  C   UNL     1      -8.610   4.776  72.606  1.00  0.00    -0.115 C  
HETATM   29 CL   UNL     1      -9.378   5.489  74.018  1.00  0.00    -0.132 Cl 
ENDBRANCH  23  26
TORSDOF 1
ENDMDL
MODEL       68
REMARK 921   NORMALIZED FREE ENERGY PREDICTED BY IDOCK:   -4.49 KCAL/MOL
REMARK 922        TOTAL FREE ENERGY PREDICTED BY IDOCK:   -4.79 KCAL/MOL
REMARK 923 INTER-LIGAND FREE ENERGY PREDICTED BY IDOCK:   -4.46 KCAL/MOL
REMARK 924 INTRA-LIGAND FREE ENERGY PREDICTED BY IDOCK:   -0.33 KCAL/MOL
REMARK 927      BINDING AFFINITY PREDICTED BY RF-SCORE:    0.00 PKD
ROOT
HETATM    1  C   UNL     1     -10.216   9.322  69.858  1.00  0.00    -0.235 C  
HETATM    2  C   UNL     1     -10.875   7.938  70.139  1.00  0.00    -0.243 C  
HETATM    3  C   UNL     1      -8.670   9.021  70.029  1.00  0.00    -0.164 C  
HETATM    4  C   UNL     1      -8.264   8.916  68.553  1.00  0.00    -0.116 C  
HETATM    5  C   UNL     1      -7.635   7.733  67.721  1.00  0.00    -0.113 C  
HETATM    6  C   UNL     1      -8.477   6.403  67.942  1.00  0.00    -0.118 C  
HETATM    7  C   UNL     1      -8.247   5.308  66.911  1.00  0.00    -0.108 C  
HETATM    8  C   UNL     1      -8.423   5.818  65.482  1.00  0.00    -0.150 C  
HETATM    9  C   UNL     1      -8.684   4.921  64.511  1.00  0.00    -0.148 C  
HETATM   10  C   UNL     1      -7.383   4.197  64.274  1.00  0.00    -0.070 C  
HETATM   11  O   UNL     1      -7.373   3.035  63.893  1.00  0.00    -0.062 OA 
HETATM   12  C   UNL     1      -6.110   4.991  64.506  1.00  0.00    -0.022 C  
HETATM   13  C   UNL     1      -6.132   6.284  64.922  1.00  0.00    -0.030 C  
HETATM   14  C   UNL     1      -7.465   6.991  65.135  1.00  0.00    -0.094 C  
HETATM   15  C   UNL     1      -7.803   8.047  66.208  1.00  0.00    -0.099 C  
HETATM   16  C   UNL     1      -7.799   7.657  63.748  1.00  0.00    -0.117 C  
HETATM   17  C   UNL     1      -7.280   9.470  66.046  1.00  0.00    -0.093 C  
HETATM   18  F   UNL     1      -9.178   8.178  66.015  1.00  0.00    -0.205 F  
HETATM   19  C   UNL     1      -8.333  10.484  66.455  1.00  0.00    -0.141 C  
HETATM   20  O   UNL     1      -6.119   9.750  65.733  1.00  0.00    -0.059 OA 
HETATM   21  C   UNL     1      -8.763  10.289  67.945  1.00  0.00    -0.122 C  
HETATM   22  C   UNL     1      -8.140  11.528  68.666  1.00  0.00    -0.132 C  
HETATM   23  C   UNL     1     -10.320  10.013  68.354  1.00  0.00    -0.191 C  
HETATM   24  H   UNL     1     -10.947   9.434  66.567  1.00  0.00     0.000 HD 
HETATM   25  O   UNL     1     -10.888   9.039  67.428  1.00  0.00    -0.230 OA 
ENDROOT
BRANCH  23  26
HETATM   26  C   UNL     1     -11.419  11.052  68.142  1.00  0.00    -0.302 C  
HETATM   27  O   UNL     1     -12.401  11.076  68.894  1.00  0.00    -0.516 OA 
HETATM   28  C   UNL     1     -11.419  11.859  66.853  1.00  0.00    -0.322 C  
HETATM   29 CL   UNL     1     -10.767  13.463  67.155  1.00  0.00    -0.263 Cl 
ENDBRANCH  23  26
TORSDOF 1
ENDMDL
MODEL       69
REMARK 921   NORMALIZED FREE ENERGY PREDICTED BY IDOCK:   -4.43 KCAL/MOL
REMARK 922        TOTAL FREE ENERGY PREDICTED BY IDOCK:   -4.73 KCAL/MOL
REMARK 923 INTER-LIGAND FREE ENERGY PREDICTED BY IDOCK:   -4.60 KCAL/MOL
REMARK 924 INTRA-LIGAND FREE ENERGY PREDICTED BY IDOCK:   -0.13 KCAL/MOL
REMARK 927      BINDING AFFINITY PREDICTED BY RF-SCORE:    0.00 PKD
ROOT
HETATM    1  C   UNL     1     -10.290  12.243  65.015  1.00  0.00    -0.321 C  
HETATM    2  C   UNL     1      -9.428  11.678  63.847  1.00  0.00    -0.099 C  
HETATM    3  C   UNL     1     -11.301  11.061  65.314  1.00  0.00     0.238 C  
HETATM    4  C   UNL     1     -10.633  10.458  66.557  1.00  0.00    -0.220 C  
HETATM    5  C   UNL     1     -10.045   9.022  66.838  1.00  0.00    -0.338 C  
HETATM    6  C   UNL     1      -9.047   8.604  65.673  1.00  0.00    -0.221 C  
HETATM    7  C   UNL     1      -8.107   7.453  66.002  1.00  0.00    -0.124 C  
HETATM    8  C   UNL     1      -7.340   7.691  67.301  1.00  0.00    -0.091 C  
HETATM    9  C   UNL     1      -6.192   7.013  67.499  1.00  0.00    -0.041 C  
HETATM   10  C   UNL     1      -6.612   5.598  67.807  1.00  0.00    -0.053 C  
HETATM   11  O   UNL     1      -5.891   4.654  67.515  1.00  0.00    -0.021 OA 
HETATM   12  C   UNL     1      -7.945   5.420  68.511  1.00  0.00    -0.091 C  
HETATM   13  C   UNL     1      -8.735   6.476  68.837  1.00  0.00    -0.127 C  
HETATM   14  C   UNL     1      -8.272   7.895  68.528  1.00  0.00    -0.127 C  
HETATM   15  C   UNL     1      -9.148   9.093  68.105  1.00  0.00    -0.132 C  
HETATM   16  C   UNL     1      -7.491   8.359  69.813  1.00  0.00    -0.072 C  
HETATM   17  C   UNL     1     -10.008   9.795  69.151  1.00  0.00    -0.189 C  
HETATM   18  F   UNL     1      -8.165  10.035  67.802  1.00  0.00    -0.110 F  
HETATM   19  C   UNL     1      -9.983  11.299  68.951  1.00  0.00    -0.169 C  
HETATM   20  O   UNL     1     -10.716   9.207  69.974  1.00  0.00    -0.219 OA 
HETATM   21  C   UNL     1     -10.516  11.695  67.536  1.00  0.00    -0.228 C  
HETATM   22  C   UNL     1     -11.901  12.353  67.842  1.00  0.00    -0.370 C  
HETATM   23  C   UNL     1      -9.603  12.557  66.491  1.00  0.00    -0.242 C  
HETATM   24  H   UNL     1      -7.851  12.204  67.345  1.00  0.00     0.000 HD 
HETATM   25  O   UNL     1      -8.244  12.024  66.499  1.00  0.00    -0.112 OA 
ENDROOT
BRANCH  23  26
HETATM   26  C   UNL     1      -9.181  13.999  66.768  1.00  0.00    -0.265 C  
HETATM   27  O   UNL     1      -8.014  14.251  67.088  1.00  0.00    -0.185 OA 
HETATM   28  C   UNL     1     -10.263  15.059  66.909  1.00  0.00    -0.258 C  
HETATM   29 CL   UNL     1     -10.378  15.991  65.423  1.00  0.00    -0.408 Cl 
ENDBRANCH  23  26
TORSDOF 1
ENDMDL
MODEL       70
REMARK 921   NORMALIZED FREE ENERGY PREDICTED BY IDOCK:   -4.41 KCAL/MOL
REMARK 922        TOTAL FREE ENERGY PREDICTED BY IDOCK:   -4.72 KCAL/MOL
REMARK 923 INTER-LIGAND FREE ENERGY PREDICTED BY IDOCK:   -4.58 KCAL/MOL
REMARK 924 INTRA-LIGAND FREE ENERGY PREDICTED BY IDOCK:   -0.13 KCAL/MOL
REMARK 927      BINDING AFFINITY PREDICTED BY RF-SCORE:    0.00 PKD
ROOT
HETATM    1  C   UNL     1     -11.918  12.878  67.199  1.00  0.00    -0.374 C  
HETATM    2  C   UNL     1     -12.791  13.836  66.336  1.00  0.00     0.034 C  
HETATM    3  C   UNL     1     -10.667  12.600  66.268  1.00  0.00    -0.280 C  
HETATM    4  C   UNL     1      -9.650  13.549  66.914  1.00  0.00    -0.258 C  
HETATM    5  C   UNL     1      -8.856  14.785  66.338  1.00  0.00    -0.152 C  
HETATM    6  C   UNL     1      -9.858  15.790  65.621  1.00  0.00    -0.357 C  
HETATM    7  C   UNL     1      -9.316  17.192  65.385  1.00  0.00     0.898 C  
HETATM    8  C   UNL     1      -8.761  17.816  66.664  1.00  0.00    -0.281 C  
HETATM    9  C   UNL     1      -8.656  19.158  66.727  1.00  0.00    -0.321 C  
HETATM   10  C   UNL     1      -7.486  19.510  65.845  1.00  0.00    -0.300 C  
HETATM   11  O   UNL     1      -7.443  20.585  65.262  1.00  0.00    -0.094 OA 
HETATM   12  C   UNL     1      -6.374  18.482  65.745  1.00  0.00    -0.291 C  
HETATM   13  C   UNL     1      -6.429  17.295  66.402  1.00  0.00    -0.267 C  
HETATM   14  C   UNL     1      -7.619  16.978  67.301  1.00  0.00    -0.192 C  
HETATM   15  C   UNL     1      -8.279  15.602  67.527  1.00  0.00    -0.166 C  
HETATM   16  C   UNL     1      -7.204  17.502  68.726  1.00  0.00    -0.257 C  
HETATM   17  C   UNL     1      -7.575  14.570  68.402  1.00  0.00    -0.122 C  
HETATM   18  F   UNL     1      -9.390  15.973  68.286  1.00  0.00    -0.190 F  
HETATM   19  C   UNL     1      -8.570  13.838  69.283  1.00  0.00     0.566 C  
HETATM   20  O   UNL     1      -6.375  14.294  68.318  1.00  0.00    -0.096 OA 
HETATM   21  C   UNL     1      -9.650  13.098  68.430  1.00  0.00    -0.186 C  
HETATM   22  C   UNL     1      -9.281  11.589  68.608  1.00  0.00    -0.136 C  
HETATM   23  C   UNL     1     -11.243  13.404  68.619  1.00  0.00    -0.269 C  
HETATM   24  H   UNL     1     -11.053  15.148  69.538  1.00  0.00     0.000 HD 
HETATM   25  O   UNL     1     -11.439  14.847  68.725  1.00  0.00    -0.277 OA 
ENDROOT
BRANCH  23  26
HETATM   26  C   UNL     1     -11.994  13.075  69.908  1.00  0.00    -0.311 C  
HETATM   27  O   UNL     1     -11.986  11.921  70.352  1.00  0.00    -0.351 OA 
HETATM   28  C   UNL     1     -12.957  14.108  70.473  1.00  0.00    -0.167 C  
HETATM   29 CL   UNL     1     -12.201  14.954  71.816  1.00  0.00    -0.385 Cl 
ENDBRANCH  23  26
TORSDOF 1
ENDMDL
MODEL       71
REMARK 921   NORMALIZED FREE ENERGY PREDICTED BY IDOCK:   -4.41 KCAL/MOL
REMARK 922        TOTAL FREE ENERGY PREDICTED BY IDOCK:   -4.72 KCAL/MOL
REMARK 923 INTER-LIGAND FREE ENERGY PREDICTED BY IDOCK:   -4.25 KCAL/MOL
REMARK 924 INTRA-LIGAND FREE ENERGY PREDICTED BY IDOCK:   -0.46 KCAL/MOL
REMARK 927      BINDING AFFINITY PREDICTED BY RF-SCORE:    0.00 PKD
ROOT
HETATM    1  C   UNL     1      -8.543   4.174  66.711  1.00  0.00    -0.108 C  
HETATM    2  C   UNL     1      -9.771   4.434  65.788  1.00  0.00    -0.213 C  
HETATM    3  C   UNL     1      -7.498   5.262  66.226  1.00  0.00    -0.087 C  
HETATM    4  C   UNL     1      -7.677   6.304  67.339  1.00  0.00    -0.097 C  
HETATM    5  C   UNL     1      -8.133   7.814  67.298  1.00  0.00    -0.119 C  
HETATM    6  C   UNL     1      -9.487   7.952  66.475  1.00  0.00    -0.277 C  
HETATM    7  C   UNL     1     -10.251   9.250  66.693  1.00  0.00    -0.323 C  
HETATM    8  C   UNL     1     -10.497   9.530  68.174  1.00  0.00    -0.268 C  
HETATM    9  C   UNL     1     -11.501  10.365  68.508  1.00  0.00    -0.231 C  
HETATM   10  C   UNL     1     -11.007  11.745  68.154  1.00  0.00    -0.228 C  
HETATM   11  O   UNL     1     -11.790  12.624  67.823  1.00  0.00    -0.347 OA 
HETATM   12  C   UNL     1      -9.511  11.981  68.256  1.00  0.00    -0.199 C  
HETATM   13  C   UNL     1      -8.651  10.999  68.632  1.00  0.00    -0.157 C  
HETATM   14  C   UNL     1      -9.185   9.620  69.001  1.00  0.00    -0.156 C  
HETATM   15  C   UNL     1      -8.513   8.256  68.738  1.00  0.00    -0.125 C  
HETATM   16  C   UNL     1      -9.448   9.685  70.551  1.00  0.00    -0.243 C  
HETATM   17  C   UNL     1      -7.330   7.829  69.601  1.00  0.00    -0.088 C  
HETATM   18  F   UNL     1      -9.534   7.388  69.128  1.00  0.00    -0.149 F  
HETATM   19  C   UNL     1      -7.416   6.353  69.945  1.00  0.00    -0.088 C  
HETATM   20  O   UNL     1      -6.377   8.561  69.882  1.00  0.00    -0.034 OA 
HETATM   21  C   UNL     1      -7.427   5.467  68.658  1.00  0.00    -0.075 C  
HETATM   22  C   UNL     1      -6.021   4.783  68.677  1.00  0.00    -0.026 C  
HETATM   23  C   UNL     1      -8.649   4.430  68.345  1.00  0.00    -0.094 C  
HETATM   24  H   UNL     1      -9.979   5.239  69.571  1.00  0.00     0.000 HD 
HETATM   25  O   UNL     1      -9.918   5.093  68.635  1.00  0.00    -0.155 OA 
ENDROOT
BRANCH  23  26
HETATM   26  C   UNL     1      -8.935   3.212  69.221  1.00  0.00    -0.117 C  
HETATM   27  O   UNL     1      -8.763   2.073  68.772  1.00  0.00    -0.064 OA 
HETATM   28  C   UNL     1      -9.681   3.416  70.531  1.00  0.00    -0.091 C  
HETATM   29 CL   UNL     1      -8.546   3.388  71.872  1.00  0.00    -0.096 Cl 
ENDBRANCH  23  26
TORSDOF 1
ENDMDL
MODEL       72
REMARK 921   NORMALIZED FREE ENERGY PREDICTED BY IDOCK:   -4.34 KCAL/MOL
REMARK 922        TOTAL FREE ENERGY PREDICTED BY IDOCK:   -4.64 KCAL/MOL
REMARK 923 INTER-LIGAND FREE ENERGY PREDICTED BY IDOCK:   -4.28 KCAL/MOL
REMARK 924 INTRA-LIGAND FREE ENERGY PREDICTED BY IDOCK:   -0.36 KCAL/MOL
REMARK 927      BINDING AFFINITY PREDICTED BY RF-SCORE:    0.00 PKD
ROOT
HETATM    1  C   UNL     1      -6.596   6.440  68.124  1.00  0.00    -0.066 C  
HETATM    2  C   UNL     1      -6.418   7.937  67.731  1.00  0.00    -0.052 C  
HETATM    3  C   UNL     1      -6.502   6.474  69.704  1.00  0.00    -0.047 C  
HETATM    4  C   UNL     1      -7.994   6.384  70.052  1.00  0.00    -0.112 C  
HETATM    5  C   UNL     1      -8.948   7.364  70.838  1.00  0.00    -0.149 C  
HETATM    6  C   UNL     1      -8.820   8.836  70.252  1.00  0.00    -0.171 C  
HETATM    7  C   UNL     1      -9.951   9.785  70.620  1.00  0.00    -0.215 C  
HETATM    8  C   UNL     1     -11.322   9.199  70.290  1.00  0.00    -0.217 C  
HETATM    9  C   UNL     1     -12.361  10.045  70.143  1.00  0.00    -0.068 C  
HETATM   10  C   UNL     1     -12.704  10.504  71.537  1.00  0.00    -0.452 C  
HETATM   11  O   UNL     1     -13.186  11.611  71.731  1.00  0.00    -0.453 OA 
HETATM   12  C   UNL     1     -12.443   9.518  72.662  1.00  0.00     0.164 C  
HETATM   13  C   UNL     1     -11.913   8.289  72.435  1.00  0.00    -0.447 C  
HETATM   14  C   UNL     1     -11.595   7.849  71.010  1.00  0.00    -0.299 C  
HETATM   15  C   UNL     1     -10.421   6.962  70.546  1.00  0.00    -0.211 C  
HETATM   16  C   UNL     1     -12.904   7.142  70.500  1.00  0.00     0.192 C  
HETATM   17  C   UNL     1     -10.473   5.460  70.804  1.00  0.00    -0.247 C  
HETATM   18  F   UNL     1     -10.557   7.062  69.161  1.00  0.00    -0.192 F  
HETATM   19  C   UNL     1      -9.941   4.687  69.611  1.00  0.00    -0.281 C  
HETATM   20  O   UNL     1     -10.797   4.953  71.882  1.00  0.00    -0.121 OA 
HETATM   21  C   UNL     1      -8.461   5.077  69.293  1.00  0.00    -0.091 C  
HETATM   22  C   UNL     1      -7.652   3.810  69.725  1.00  0.00    -0.052 C  
HETATM   23  C   UNL     1      -8.027   5.657  67.830  1.00  0.00    -0.098 C  
HETATM   24  H   UNL     1      -9.838   6.190  67.228  1.00  0.00     0.000 HD 
HETATM   25  O   UNL     1      -9.018   6.638  67.397  1.00  0.00    -0.115 OA 
ENDROOT
BRANCH  23  26
HETATM   26  C   UNL     1      -8.110   4.816  66.557  1.00  0.00    -0.107 C  
HETATM   27  O   UNL     1      -7.271   4.966  65.661  1.00  0.00    -0.069 OA 
HETATM   28  C   UNL     1      -9.373   4.008  66.299  1.00  0.00    -0.174 C  
HETATM   29 CL   UNL     1      -9.091   2.321  66.701  1.00  0.00    -0.124 Cl 
ENDBRANCH  23  26
TORSDOF 1
ENDMDL
MODEL       73
REMARK 921   NORMALIZED FREE ENERGY PREDICTED BY IDOCK:   -4.28 KCAL/MOL
REMARK 922        TOTAL FREE ENERGY PREDICTED BY IDOCK:   -4.57 KCAL/MOL
REMARK 923 INTER-LIGAND FREE ENERGY PREDICTED BY IDOCK:   -4.17 KCAL/MOL
REMARK 924 INTRA-LIGAND FREE ENERGY PREDICTED BY IDOCK:   -0.40 KCAL/MOL
REMARK 927      BINDING AFFINITY PREDICTED BY RF-SCORE:    0.00 PKD
ROOT
HETATM    1  C   UNL     1      -7.283   5.368  66.261  1.00  0.00    -0.077 C  
HETATM    2  C   UNL     1      -8.541   5.838  65.472  1.00  0.00    -0.151 C  
HETATM    3  C   UNL     1      -6.817   6.687  67.004  1.00  0.00    -0.066 C  
HETATM    4  C   UNL     1      -7.374   6.403  68.405  1.00  0.00    -0.087 C  
HETATM    5  C   UNL     1      -8.427   7.176  69.290  1.00  0.00    -0.133 C  
HETATM    6  C   UNL     1      -9.744   7.462  68.447  1.00  0.00    -0.158 C  
HETATM    7  C   UNL     1     -10.976   7.822  69.264  1.00  0.00    -0.007 C  
HETATM    8  C   UNL     1     -11.258   6.797  70.360  1.00  0.00    -0.378 C  
HETATM    9  C   UNL     1     -12.506   6.726  70.863  1.00  0.00    -0.270 C  
HETATM   10  C   UNL     1     -12.656   7.949  71.733  1.00  0.00    -0.328 C  
HETATM   11  O   UNL     1     -13.750   8.472  71.894  1.00  0.00    -0.375 OA 
HETATM   12  C   UNL     1     -11.397   8.467  72.404  1.00  0.00    -0.448 C  
HETATM   13  C   UNL     1     -10.188   7.874  72.224  1.00  0.00    -0.302 C  
HETATM   14  C   UNL     1     -10.075   6.628  71.353  1.00  0.00    -0.209 C  
HETATM   15  C   UNL     1      -8.900   6.234  70.432  1.00  0.00    -0.147 C  
HETATM   16  C   UNL     1     -10.278   5.420  72.340  1.00  0.00    -0.241 C  
HETATM   17  C   UNL     1      -7.614   5.698  71.052  1.00  0.00    -0.095 C  
HETATM   18  F   UNL     1      -9.442   5.123  69.787  1.00  0.00    -0.152 F  
HETATM   19  C   UNL     1      -7.055   4.551  70.230  1.00  0.00    -0.048 C  
HETATM   20  O   UNL     1      -7.049   6.205  72.025  1.00  0.00    -0.079 OA 
HETATM   21  C   UNL     1      -6.741   4.999  68.766  1.00  0.00    -0.050 C  
HETATM   22  C   UNL     1      -5.179   5.014  68.719  1.00  0.00     0.000 C  
HETATM   23  C   UNL     1      -7.423   4.255  67.482  1.00  0.00    -0.069 C  
HETATM   24  H   UNL     1      -8.920   3.399  68.457  1.00  0.00     0.000 HD 
HETATM   25  O   UNL     1      -8.839   4.037  67.757  1.00  0.00    -0.104 OA 
ENDROOT
BRANCH  23  26
HETATM   26  C   UNL     1      -7.132   2.798  67.129  1.00  0.00    -0.053 C  
HETATM   27  O   UNL     1      -7.167   1.929  68.008  1.00  0.00    -0.045 OA 
HETATM   28  C   UNL     1      -6.541   2.484  65.763  1.00  0.00    -0.031 C  
HETATM   29 CL   UNL     1      -7.800   1.884  64.694  1.00  0.00    -0.068 Cl 
ENDBRANCH  23  26
TORSDOF 1
ENDMDL
MODEL       74
REMARK 921   NORMALIZED FREE ENERGY PREDICTED BY IDOCK:   -4.26 KCAL/MOL
REMARK 922        TOTAL FREE ENERGY PREDICTED BY IDOCK:   -4.56 KCAL/MOL
REMARK 923 INTER-LIGAND FREE ENERGY PREDICTED BY IDOCK:   -4.56 KCAL/MOL
REMARK 924 INTRA-LIGAND FREE ENERGY PREDICTED BY IDOCK:    0.01 KCAL/MOL
REMARK 927      BINDING AFFINITY PREDICTED BY RF-SCORE:    0.00 PKD
ROOT
HETATM    1  C   UNL     1      -9.385   8.366  67.477  1.00  0.00    -0.172 C  
HETATM    2  C   UNL     1     -10.750   8.735  66.823  1.00  0.00    -0.088 C  
HETATM    3  C   UNL     1      -8.331   8.994  66.476  1.00  0.00    -0.115 C  
HETATM    4  C   UNL     1      -7.965  10.266  67.252  1.00  0.00    -0.107 C  
HETATM    5  C   UNL     1      -8.100  11.794  66.884  1.00  0.00    -0.160 C  
HETATM    6  C   UNL     1      -9.577  12.107  66.387  1.00  0.00    -0.243 C  
HETATM    7  C   UNL     1      -9.968  13.577  66.390  1.00  0.00    -0.296 C  
HETATM    8  C   UNL     1      -9.711  14.236  67.744  1.00  0.00    -0.222 C  
HETATM    9  C   UNL     1     -10.385  15.365  68.043  1.00  0.00    -0.249 C  
HETATM   10  C   UNL     1      -9.748  16.445  67.205  1.00  0.00    -0.239 C  
HETATM   11  O   UNL     1     -10.401  17.406  66.823  1.00  0.00    -0.313 OA 
HETATM   12  C   UNL     1      -8.272  16.283  66.892  1.00  0.00    -0.261 C  
HETATM   13  C   UNL     1      -7.555  15.215  67.328  1.00  0.00    -0.236 C  
HETATM   14  C   UNL     1      -8.225  14.150  68.189  1.00  0.00    -0.149 C  
HETATM   15  C   UNL     1      -7.947  12.632  68.184  1.00  0.00    -0.158 C  
HETATM   16  C   UNL     1      -8.007  14.628  69.672  1.00  0.00     0.138 C  
HETATM   17  C   UNL     1      -6.676  12.104  68.840  1.00  0.00    -0.094 C  
HETATM   18  F   UNL     1      -8.963  12.183  69.028  1.00  0.00    -0.009 F  
HETATM   19  C   UNL     1      -6.953  10.822  69.604  1.00  0.00    -0.134 C  
HETATM   20  O   UNL     1      -5.555  12.595  68.674  1.00  0.00    -0.060 OA 
HETATM   21  C   UNL     1      -7.515   9.708  68.663  1.00  0.00    -0.075 C  
HETATM   22  C   UNL     1      -6.332   8.692  68.558  1.00  0.00    -0.054 C  
HETATM   23  C   UNL     1      -8.958   8.999  68.948  1.00  0.00    -0.140 C  
HETATM   24  H   UNL     1      -9.683  10.389  70.159  1.00  0.00     0.000 HD 
HETATM   25  O   UNL     1      -9.927  10.027  69.315  1.00  0.00    -0.189 OA 
ENDROOT
BRANCH  23  26
HETATM   26  C   UNL     1      -9.216   8.130  70.178  1.00  0.00    -0.155 C  
HETATM   27  O   UNL     1      -8.292   7.480  70.681  1.00  0.00    -0.122 OA 
HETATM   28  C   UNL     1     -10.655   7.870  70.597  1.00  0.00    -0.219 C  
HETATM   29 CL   UNL     1     -11.074   8.902  71.957  1.00  0.00    -0.441 Cl 
ENDBRANCH  23  26
TORSDOF 1
ENDMDL
MODEL       75
REMARK 921   NORMALIZED FREE ENERGY PREDICTED BY IDOCK:   -4.25 KCAL/MOL
REMARK 922        TOTAL FREE ENERGY PREDICTED BY IDOCK:   -4.54 KCAL/MOL
REMARK 923 INTER-LIGAND FREE ENERGY PREDICTED BY IDOCK:   -4.09 KCAL/MOL
REMARK 924 INTRA-LIGAND FREE ENERGY PREDICTED BY IDOCK:   -0.45 KCAL/MOL
REMARK 927      BINDING AFFINITY PREDICTED BY RF-SCORE:    0.00 PKD
ROOT
HETATM    1  C   UNL     1      -8.837   7.285  73.397  1.00  0.00    -0.194 C  
HETATM    2  C   UNL     1      -7.555   8.078  73.792  1.00  0.00    -0.213 C  
HETATM    3  C   UNL     1      -9.817   8.423  72.894  1.00  0.00    -0.232 C  
HETATM    4  C   UNL     1      -9.660   8.247  71.378  1.00  0.00    -0.231 C  
HETATM    5  C   UNL     1      -9.151   9.231  70.255  1.00  0.00    -0.271 C  
HETATM    6  C   UNL     1      -7.754   9.862  70.676  1.00  0.00     0.131 C  
HETATM    7  C   UNL     1      -6.958  10.494  69.543  1.00  0.00    -0.114 C  
HETATM    8  C   UNL     1      -6.778   9.539  68.365  1.00  0.00    -0.058 C  
HETATM    9  C   UNL     1      -5.766   9.768  67.505  1.00  0.00    -0.039 C  
HETATM   10  C   UNL     1      -6.193  10.962  66.692  1.00  0.00    -0.113 C  
HETATM   11  O   UNL     1      -5.364  11.737  66.234  1.00  0.00    -0.317 OA 
HETATM   12  C   UNL     1      -7.684  11.129  66.458  1.00  0.00    -0.146 C  
HETATM   13  C   UNL     1      -8.595  10.259  66.965  1.00  0.00    -0.129 C  
HETATM   14  C   UNL     1      -8.127   9.051  67.768  1.00  0.00    -0.109 C  
HETATM   15  C   UNL     1      -8.831   8.404  68.979  1.00  0.00    -0.146 C  
HETATM   16  C   UNL     1      -7.942   7.903  66.707  1.00  0.00    -0.107 C  
HETATM   17  C   UNL     1     -10.070   7.545  68.751  1.00  0.00    -0.185 C  
HETATM   18  F   UNL     1      -7.862   7.483  69.377  1.00  0.00    -0.108 F  
HETATM   19  C   UNL     1     -10.052   6.320  69.647  1.00  0.00    -0.215 C  
HETATM   20  O   UNL     1     -11.011   7.866  68.020  1.00  0.00    -0.021 OA 
HETATM   21  C   UNL     1     -10.006   6.719  71.157  1.00  0.00    -0.194 C  
HETATM   22  C   UNL     1     -11.433   6.345  71.674  1.00  0.00    -0.354 C  
HETATM   23  C   UNL     1      -8.805   6.207  72.139  1.00  0.00    -0.138 C  
HETATM   24  H   UNL     1      -7.513   5.723  70.717  1.00  0.00     0.000 HD 
HETATM   25  O   UNL     1      -7.531   6.341  71.438  1.00  0.00    -0.086 OA 
ENDROOT
BRANCH  23  26
HETATM   26  C   UNL     1      -8.606   4.734  72.492  1.00  0.00    -0.116 C  
HETATM   27  O   UNL     1      -8.627   4.373  73.674  1.00  0.00    -0.096 OA 
HETATM   28  C   UNL     1      -8.117   3.786  71.407  1.00  0.00    -0.068 C  
HETATM   29 CL   UNL     1      -9.468   2.852  70.781  1.00  0.00    -0.223 Cl 
ENDBRANCH  23  26
TORSDOF 1
ENDMDL
MODEL       76
REMARK 921   NORMALIZED FREE ENERGY PREDICTED BY IDOCK:   -4.19 KCAL/MOL
REMARK 922        TOTAL FREE ENERGY PREDICTED BY IDOCK:   -4.47 KCAL/MOL
REMARK 923 INTER-LIGAND FREE ENERGY PREDICTED BY IDOCK:   -4.49 KCAL/MOL
REMARK 924 INTRA-LIGAND FREE ENERGY PREDICTED BY IDOCK:    0.02 KCAL/MOL
REMARK 927      BINDING AFFINITY PREDICTED BY RF-SCORE:    0.00 PKD
ROOT
HETATM    1  C   UNL     1      -6.454   9.937  66.459  1.00  0.00    -0.071 C  
HETATM    2  C   UNL     1      -6.234  10.977  67.598  1.00  0.00    -0.052 C  
HETATM    3  C   UNL     1      -5.793   8.622  67.046  1.00  0.00    -0.042 C  
HETATM    4  C   UNL     1      -7.056   7.878  67.498  1.00  0.00    -0.083 C  
HETATM    5  C   UNL     1      -7.525   7.374  68.917  1.00  0.00    -0.101 C  
HETATM    6  C   UNL     1      -7.424   8.555  69.976  1.00  0.00    -0.060 C  
HETATM    7  C   UNL     1      -8.211   8.346  71.262  1.00  0.00    -0.161 C  
HETATM    8  C   UNL     1      -9.673   7.999  70.990  1.00  0.00    -0.185 C  
HETATM    9  C   UNL     1     -10.574   8.212  71.969  1.00  0.00    -0.334 C  
HETATM   10  C   UNL     1     -10.327   7.125  72.983  1.00  0.00    -0.271 C  
HETATM   11  O   UNL     1     -10.557   7.311  74.170  1.00  0.00    -0.253 OA 
HETATM   12  C   UNL     1      -9.810   5.800  72.450  1.00  0.00    -0.186 C  
HETATM   13  C   UNL     1      -9.564   5.602  71.129  1.00  0.00    -0.208 C  
HETATM   14  C   UNL     1      -9.842   6.717  70.128  1.00  0.00    -0.187 C  
HETATM   15  C   UNL     1      -9.043   7.047  68.850  1.00  0.00    -0.134 C  
HETATM   16  C   UNL     1     -11.329   6.488  69.665  1.00  0.00    -0.443 C  
HETATM   17  C   UNL     1      -9.195   6.154  67.624  1.00  0.00    -0.107 C  
HETATM   18  F   UNL     1      -9.655   8.240  68.466  1.00  0.00    -0.145 F  
HETATM   19  C   UNL     1      -9.236   6.983  66.352  1.00  0.00    -0.186 C  
HETATM   20  O   UNL     1      -9.173   4.921  67.657  1.00  0.00    -0.116 OA 
HETATM   21  C   UNL     1      -7.933   7.829  66.182  1.00  0.00    -0.105 C  
HETATM   22  C   UNL     1      -7.198   7.126  64.995  1.00  0.00    -0.074 C  
HETATM   23  C   UNL     1      -7.984   9.456  66.042  1.00  0.00    -0.110 C  
HETATM   24  H   UNL     1      -9.803   9.711  66.784  1.00  0.00     0.000 HD 
HETATM   25  O   UNL     1      -8.926   9.986  67.023  1.00  0.00    -0.137 OA 
ENDROOT
BRANCH  23  26
HETATM   26  C   UNL     1      -8.631  10.156  64.848  1.00  0.00    -0.178 C  
HETATM   27  O   UNL     1      -9.421  11.089  65.032  1.00  0.00    -0.216 OA 
HETATM   28  C   UNL     1      -8.500   9.519  63.473  1.00  0.00    -0.197 C  
HETATM   29 CL   UNL     1      -7.258  10.352  62.548  1.00  0.00    -0.150 Cl 
ENDBRANCH  23  26
TORSDOF 1
ENDMDL
MODEL       77
REMARK 921   NORMALIZED FREE ENERGY PREDICTED BY IDOCK:   -3.93 KCAL/MOL
REMARK 922        TOTAL FREE ENERGY PREDICTED BY IDOCK:   -4.21 KCAL/MOL
REMARK 923 INTER-LIGAND FREE ENERGY PREDICTED BY IDOCK:   -3.76 KCAL/MOL
REMARK 924 INTRA-LIGAND FREE ENERGY PREDICTED BY IDOCK:   -0.45 KCAL/MOL
REMARK 927      BINDING AFFINITY PREDICTED BY RF-SCORE:    0.00 PKD
ROOT
HETATM    1  C   UNL     1      -7.851   5.880  64.934  1.00  0.00    -0.108 C  
HETATM    2  C   UNL     1      -8.855   6.170  63.779  1.00  0.00     0.598 C  
HETATM    3  C   UNL     1      -6.761   7.016  64.751  1.00  0.00    -0.046 C  
HETATM    4  C   UNL     1      -7.212   7.985  65.851  1.00  0.00    -0.065 C  
HETATM    5  C   UNL     1      -7.696   9.485  65.792  1.00  0.00    -0.100 C  
HETATM    6  C   UNL     1      -8.841   9.646  64.701  1.00  0.00    -0.253 C  
HETATM    7  C   UNL     1      -9.675  10.914  64.815  1.00  0.00    -0.323 C  
HETATM    8  C   UNL     1     -10.248  11.100  66.218  1.00  0.00    -0.286 C  
HETATM    9  C   UNL     1     -11.326  11.895  66.368  1.00  0.00    -0.400 C  
HETATM   10  C   UNL     1     -10.812  13.302  66.207  1.00  0.00    -0.284 C  
HETATM   11  O   UNL     1     -11.532  14.184  65.759  1.00  0.00    -0.316 OA 
HETATM   12  C   UNL     1      -9.382  13.560  66.648  1.00  0.00    -0.254 C  
HETATM   13  C   UNL     1      -8.594  12.575  67.150  1.00  0.00    -0.200 C  
HETATM   14  C   UNL     1      -9.152  11.166  67.317  1.00  0.00    -0.152 C  
HETATM   15  C   UNL     1      -8.395   9.833  67.136  1.00  0.00    -0.121 C  
HETATM   16  C   UNL     1      -9.749  11.134  68.773  1.00  0.00    -0.194 C  
HETATM   17  C   UNL     1      -7.416   9.378  68.213  1.00  0.00    -0.078 C  
HETATM   18  F   UNL     1      -9.448   8.924  67.244  1.00  0.00    -0.155 F  
HETATM   19  C   UNL     1      -7.528   7.883  68.450  1.00  0.00    -0.100 C  
HETATM   20  O   UNL     1      -6.571  10.111  68.736  1.00  0.00    -0.052 OA 
HETATM   21  C   UNL     1      -7.229   7.076  67.146  1.00  0.00    -0.089 C  
HETATM   22  C   UNL     1      -5.840   6.419  67.437  1.00  0.00    -0.016 C  
HETATM   23  C   UNL     1      -8.320   6.036  66.517  1.00  0.00    -0.113 C  
HETATM   24  H   UNL     1      -9.910   6.744  67.461  1.00  0.00     0.000 HD 
HETATM   25  O   UNL     1      -9.641   6.655  66.555  1.00  0.00    -0.168 OA 
ENDROOT
BRANCH  23  26
HETATM   26  C   UNL     1      -8.751   4.762  67.241  1.00  0.00    -0.103 C  
HETATM   27  O   UNL     1      -8.258   3.673  66.925  1.00  0.00    -0.094 OA 
HETATM   28  C   UNL     1      -9.971   4.818  68.148  1.00  0.00    -0.087 C  
HETATM   29 CL   UNL     1      -9.460   4.906  69.827  1.00  0.00    -0.200 Cl 
ENDBRANCH  23  26
TORSDOF 1
ENDMDL
MODEL       78
REMARK 921   NORMALIZED FREE ENERGY PREDICTED BY IDOCK:   -3.82 KCAL/MOL
REMARK 922        TOTAL FREE ENERGY PREDICTED BY IDOCK:   -4.09 KCAL/MOL
REMARK 923 INTER-LIGAND FREE ENERGY PREDICTED BY IDOCK:   -3.85 KCAL/MOL
REMARK 924 INTRA-LIGAND FREE ENERGY PREDICTED BY IDOCK:   -0.24 KCAL/MOL
REMARK 927      BINDING AFFINITY PREDICTED BY RF-SCORE:    0.00 PKD
ROOT
HETATM    1  C   UNL     1     -11.071  12.264  67.962  1.00  0.00    -0.285 C  
HETATM    2  C   UNL     1     -12.128  11.335  68.630  1.00  0.00    -0.211 C  
HETATM    3  C   UNL     1      -9.975  12.427  69.094  1.00  0.00     0.339 C  
HETATM    4  C   UNL     1      -8.923  11.437  68.576  1.00  0.00    -0.158 C  
HETATM    5  C   UNL     1      -8.307  10.133  69.216  1.00  0.00    -0.160 C  
HETATM    6  C   UNL     1      -9.469   9.170  69.716  1.00  0.00    -0.191 C  
HETATM    7  C   UNL     1      -9.056   7.728  69.972  1.00  0.00    -0.150 C  
HETATM    8  C   UNL     1      -8.337   7.116  68.772  1.00  0.00    -0.126 C  
HETATM    9  C   UNL     1      -8.302   5.773  68.665  1.00  0.00    -0.107 C  
HETATM   10  C   UNL     1      -7.314   5.314  69.706  1.00  0.00    -0.064 C  
HETATM   11  O   UNL     1      -7.428   4.219  70.239  1.00  0.00    -0.045 OA 
HETATM   12  C   UNL     1      -6.174   6.264  70.030  1.00  0.00    -0.031 C  
HETATM   13  C   UNL     1      -6.052   7.475  69.427  1.00  0.00    -0.031 C  
HETATM   14  C   UNL     1      -7.059   7.900  68.364  1.00  0.00    -0.081 C  
HETATM   15  C   UNL     1      -7.593   9.323  68.098  1.00  0.00    -0.084 C  
HETATM   16  C   UNL     1      -6.449   7.401  67.002  1.00  0.00    -0.060 C  
HETATM   17  C   UNL     1      -6.697  10.337  67.395  1.00  0.00    -0.072 C  
HETATM   18  F   UNL     1      -8.585   9.052  67.155  1.00  0.00    -0.114 F  
HETATM   19  C   UNL     1      -7.491  11.163  66.400  1.00  0.00    -0.103 C  
HETATM   20  O   UNL     1      -5.512  10.532  67.683  1.00  0.00    -0.043 OA 
HETATM   21  C   UNL     1      -8.650  11.941  67.102  1.00  0.00    -0.172 C  
HETATM   22  C   UNL     1      -8.170  13.428  67.054  1.00  0.00    -0.051 C  
HETATM   23  C   UNL     1     -10.207  11.746  66.646  1.00  0.00    -0.210 C  
HETATM   24  H   UNL     1      -9.971  10.026  65.691  1.00  0.00     0.000 HD 
HETATM   25  O   UNL     1     -10.466  10.324  66.445  1.00  0.00    -0.224 OA 
ENDROOT
BRANCH  23  26
HETATM   26  C   UNL     1     -10.717  12.168  65.270  1.00  0.00    -0.288 C  
HETATM   27  O   UNL     1     -10.770  11.344  64.350  1.00  0.00    -0.317 OA 
HETATM   28  C   UNL     1     -10.894  13.652  64.983  1.00  0.00    -0.352 C  
HETATM   29 CL   UNL     1     -12.594  14.082  65.103  1.00  0.00    -0.461 Cl 
ENDBRANCH  23  26
TORSDOF 1
ENDMDL
MODEL       79
REMARK 921   NORMALIZED FREE ENERGY PREDICTED BY IDOCK:   -3.79 KCAL/MOL
REMARK 922        TOTAL FREE ENERGY PREDICTED BY IDOCK:   -4.05 KCAL/MOL
REMARK 923 INTER-LIGAND FREE ENERGY PREDICTED BY IDOCK:   -3.68 KCAL/MOL
REMARK 924 INTRA-LIGAND FREE ENERGY PREDICTED BY IDOCK:   -0.37 KCAL/MOL
REMARK 927      BINDING AFFINITY PREDICTED BY RF-SCORE:    0.00 PKD
ROOT
HETATM    1  C   UNL     1      -7.668   5.508  65.246  1.00  0.00    -0.090 C  
HETATM    2  C   UNL     1      -8.594   6.750  65.087  1.00  0.00     0.038 C  
HETATM    3  C   UNL     1      -6.579   6.007  66.282  1.00  0.00    -0.048 C  
HETATM    4  C   UNL     1      -7.112   5.341  67.557  1.00  0.00    -0.067 C  
HETATM    5  C   UNL     1      -7.604   5.945  68.928  1.00  0.00    -0.090 C  
HETATM    6  C   UNL     1      -8.673   7.092  68.666  1.00  0.00    -0.127 C  
HETATM    7  C   UNL     1      -9.525   7.476  69.867  1.00  0.00    -0.160 C  
HETATM    8  C   UNL     1     -10.193   6.261  70.509  1.00  0.00    -0.240 C  
HETATM    9  C   UNL     1     -11.286   6.462  71.271  1.00  0.00    -0.361 C  
HETATM   10  C   UNL     1     -10.774   7.070  72.552  1.00  0.00    -0.242 C  
HETATM   11  O   UNL     1     -11.470   7.838  73.202  1.00  0.00    -0.330 OA 
HETATM   12  C   UNL     1      -9.380   6.660  72.992  1.00  0.00    -0.149 C  
HETATM   13  C   UNL     1      -8.619   5.800  72.266  1.00  0.00    -0.125 C  
HETATM   14  C   UNL     1      -9.175   5.189  70.985  1.00  0.00    -0.187 C  
HETATM   15  C   UNL     1      -8.396   4.851  69.697  1.00  0.00    -0.083 C  
HETATM   16  C   UNL     1      -9.869   3.852  71.439  1.00  0.00    -0.243 C  
HETATM   17  C   UNL     1      -7.488   3.626  69.673  1.00  0.00    -0.051 C  
HETATM   18  F   UNL     1      -9.446   4.498  68.848  1.00  0.00    -0.159 F  
HETATM   19  C   UNL     1      -7.603   2.892  68.349  1.00  0.00    -0.052 C  
HETATM   20  O   UNL     1      -6.688   3.339  70.568  1.00  0.00    -0.032 OA 
HETATM   21  C   UNL     1      -7.208   3.815  67.151  1.00  0.00    -0.064 C  
HETATM   22  C   UNL     1      -5.837   3.230  66.680  1.00  0.00    -0.023 C  
HETATM   23  C   UNL     1      -8.245   4.109  65.923  1.00  0.00    -0.109 C  
HETATM   24  H   UNL     1      -9.902   3.567  66.864  1.00  0.00     0.000 HD 
HETATM   25  O   UNL     1      -9.571   4.368  66.476  1.00  0.00    -0.165 OA 
ENDROOT
BRANCH  23  26
HETATM   26  C   UNL     1      -8.713   3.015  64.965  1.00  0.00    -0.112 C  
HETATM   27  O   UNL     1      -8.795   1.845  65.355  1.00  0.00    -0.113 OA 
HETATM   28  C   UNL     1      -8.808   3.340  63.482  1.00  0.00    -0.092 C  
HETATM   29 CL   UNL     1     -10.486   3.631  63.044  1.00  0.00    -0.201 Cl 
ENDBRANCH  23  26
TORSDOF 1
ENDMDL
MODEL       80
REMARK 921   NORMALIZED FREE ENERGY PREDICTED BY IDOCK:   -3.75 KCAL/MOL
REMARK 922        TOTAL FREE ENERGY PREDICTED BY IDOCK:   -4.02 KCAL/MOL
REMARK 923 INTER-LIGAND FREE ENERGY PREDICTED BY IDOCK:   -3.63 KCAL/MOL
REMARK 924 INTRA-LIGAND FREE ENERGY PREDICTED BY IDOCK:   -0.39 KCAL/MOL
REMARK 927      BINDING AFFINITY PREDICTED BY RF-SCORE:    0.00 PKD
ROOT
HETATM    1  C   UNL     1      -9.045   8.633  68.946  1.00  0.00    -0.145 C  
HETATM    2  C   UNL     1     -10.396   7.919  69.251  1.00  0.00    -0.222 C  
HETATM    3  C   UNL     1      -7.974   7.497  69.215  1.00  0.00    -0.121 C  
HETATM    4  C   UNL     1      -7.680   7.074  67.770  1.00  0.00    -0.112 C  
HETATM    5  C   UNL     1      -7.851   5.692  67.027  1.00  0.00    -0.101 C  
HETATM    6  C   UNL     1      -9.318   5.126  67.260  1.00  0.00    -0.129 C  
HETATM    7  C   UNL     1      -9.756   4.036  66.293  1.00  0.00    -0.201 C  
HETATM    8  C   UNL     1      -9.572   4.454  64.836  1.00  0.00    -0.160 C  
HETATM    9  C   UNL     1     -10.293   3.816  63.892  1.00  0.00    -0.252 C  
HETATM   10  C   UNL     1      -9.661   2.453  63.759  1.00  0.00    -0.134 C  
HETATM   11  O   UNL     1     -10.330   1.483  63.431  1.00  0.00    -0.122 OA 
HETATM   12  C   UNL     1      -8.169   2.365  64.025  1.00  0.00    -0.082 C  
HETATM   13  C   UNL     1      -7.435   3.451  64.381  1.00  0.00    -0.075 C  
HETATM   14  C   UNL     1      -8.102   4.818  64.489  1.00  0.00    -0.109 C  
HETATM   15  C   UNL     1      -7.775   5.941  65.495  1.00  0.00    -0.091 C  
HETATM   16  C   UNL     1      -7.956   5.457  63.058  1.00  0.00    -0.097 C  
HETATM   17  C   UNL     1      -6.513   6.774  65.298  1.00  0.00    -0.043 C  
HETATM   18  F   UNL     1      -8.807   6.839  65.220  1.00  0.00    -0.116 F  
HETATM   19  C   UNL     1      -6.776   8.237  65.604  1.00  0.00    -0.052 C  
HETATM   20  O   UNL     1      -5.403   6.300  65.037  1.00  0.00    -0.016 OA 
HETATM   21  C   UNL     1      -7.266   8.433  67.075  1.00  0.00    -0.080 C  
HETATM   22  C   UNL     1      -6.048   9.119  67.773  1.00  0.00    -0.050 C  
HETATM   23  C   UNL     1      -8.695   9.150  67.410  1.00  0.00    -0.115 C  
HETATM   24  H   UNL     1      -9.510   8.927  65.618  1.00  0.00     0.000 HD 
HETATM   25  O   UNL     1      -9.710   8.631  66.498  1.00  0.00    -0.212 OA 
ENDROOT
BRANCH  23  26
HETATM   26  C   UNL     1      -8.971  10.618  67.092  1.00  0.00    -0.136 C  
HETATM   27  O   UNL     1      -8.550  11.113  66.040  1.00  0.00    -0.172 OA 
HETATM   28  C   UNL     1      -9.520  11.511  68.195  1.00  0.00    -0.184 C  
HETATM   29 CL   UNL     1     -11.248  11.740  67.968  1.00  0.00    -0.296 Cl 
ENDBRANCH  23  26
TORSDOF 1
ENDMDL
MODEL       81
REMARK 921   NORMALIZED FREE ENERGY PREDICTED BY IDOCK:   -3.74 KCAL/MOL
REMARK 922        TOTAL FREE ENERGY PREDICTED BY IDOCK:   -4.01 KCAL/MOL
REMARK 923 INTER-LIGAND FREE ENERGY PREDICTED BY IDOCK:   -4.00 KCAL/MOL
REMARK 924 INTRA-LIGAND FREE ENERGY PREDICTED BY IDOCK:   -0.01 KCAL/MOL
REMARK 927      BINDING AFFINITY PREDICTED BY RF-SCORE:    0.00 PKD
ROOT
HETATM    1  C   UNL     1      -6.421   9.818  68.214  1.00  0.00    -0.056 C  
HETATM    2  C   UNL     1      -6.185  10.402  69.639  1.00  0.00    -0.058 C  
HETATM    3  C   UNL     1      -5.826   8.354  68.327  1.00  0.00    -0.042 C  
HETATM    4  C   UNL     1      -7.129   7.560  68.492  1.00  0.00    -0.081 C  
HETATM    5  C   UNL     1      -7.649   6.628  69.654  1.00  0.00    -0.098 C  
HETATM    6  C   UNL     1      -7.524   7.378  71.050  1.00  0.00    -0.074 C  
HETATM    7  C   UNL     1      -8.348   6.785  72.184  1.00  0.00    -0.107 C  
HETATM    8  C   UNL     1      -9.816   6.616  71.799  1.00  0.00    -0.171 C  
HETATM    9  C   UNL     1     -10.730   6.528  72.787  1.00  0.00    -0.269 C  
HETATM   10  C   UNL     1     -10.550   5.152  73.376  1.00  0.00    -0.255 C  
HETATM   11  O   UNL     1     -10.799   4.938  74.555  1.00  0.00    -0.343 OA 
HETATM   12  C   UNL     1     -10.075   4.063  72.431  1.00  0.00    -0.242 C  
HETATM   13  C   UNL     1      -9.808   4.310  71.123  1.00  0.00    -0.250 C  
HETATM   14  C   UNL     1     -10.018   5.709  70.555  1.00  0.00    -0.265 C  
HETATM   15  C   UNL     1      -9.177   6.413  69.469  1.00  0.00    -0.144 C  
HETATM   16  C   UNL     1     -11.502   5.717  70.031  1.00  0.00     0.181 C  
HETATM   17  C   UNL     1      -9.338   5.994  68.012  1.00  0.00    -0.114 C  
HETATM   18  F   UNL     1      -9.732   7.693  69.506  1.00  0.00    -0.164 F  
HETATM   19  C   UNL     1      -9.317   7.203  67.095  1.00  0.00    -0.166 C  
HETATM   20  O   UNL     1      -9.366   4.821  67.627  1.00  0.00    -0.126 OA 
HETATM   21  C   UNL     1      -7.977   7.997  67.230  1.00  0.00    -0.121 C  
HETATM   22  C   UNL     1      -7.244   7.702  65.881  1.00  0.00    -0.069 C  
HETATM   23  C   UNL     1      -7.960   9.576  67.647  1.00  0.00    -0.106 C  
HETATM   24  H   UNL     1      -9.783   9.649  68.418  1.00  0.00     0.000 HD 
HETATM   25  O   UNL     1      -8.901   9.787  68.743  1.00  0.00    -0.122 OA 
ENDROOT
BRANCH  23  26
HETATM   26  C   UNL     1      -8.550  10.667  66.755  1.00  0.00    -0.129 C  
HETATM   27  O   UNL     1      -8.429  10.593  65.527  1.00  0.00    -0.173 OA 
HETATM   28  C   UNL     1      -9.036  11.954  67.404  1.00  0.00    -0.173 C  
HETATM   29 CL   UNL     1     -10.788  11.927  67.538  1.00  0.00    -0.265 Cl 
ENDBRANCH  23  26
TORSDOF 1
ENDMDL
MODEL       82
REMARK 921   NORMALIZED FREE ENERGY PREDICTED BY IDOCK:   -3.74 KCAL/MOL
REMARK 922        TOTAL FREE ENERGY PREDICTED BY IDOCK:   -4.00 KCAL/MOL
REMARK 923 INTER-LIGAND FREE ENERGY PREDICTED BY IDOCK:   -3.59 KCAL/MOL
REMARK 924 INTRA-LIGAND FREE ENERGY PREDICTED BY IDOCK:   -0.41 KCAL/MOL
REMARK 927      BINDING AFFINITY PREDICTED BY RF-SCORE:    0.00 PKD
ROOT
HETATM    1  C   UNL     1      -7.767  10.853  67.010  1.00  0.00    -0.129 C  
HETATM    2  C   UNL     1      -6.787  10.489  65.855  1.00  0.00    -0.132 C  
HETATM    3  C   UNL     1      -9.137  10.223  66.525  1.00  0.00    -0.169 C  
HETATM    4  C   UNL     1      -9.151   8.948  67.379  1.00  0.00    -0.147 C  
HETATM    5  C   UNL     1      -9.175   7.421  66.984  1.00  0.00    -0.169 C  
HETATM    6  C   UNL     1      -8.029   7.114  65.926  1.00  0.00    -0.116 C  
HETATM    7  C   UNL     1      -7.667   5.645  65.765  1.00  0.00    -0.088 C  
HETATM    8  C   UNL     1      -7.348   4.983  67.103  1.00  0.00    -0.082 C  
HETATM    9  C   UNL     1      -6.609   3.856  67.099  1.00  0.00    -0.046 C  
HETATM   10  C   UNL     1      -7.529   2.776  66.590  1.00  0.00    -0.071 C  
HETATM   11  O   UNL     1      -7.088   1.817  65.972  1.00  0.00    -0.048 OA 
HETATM   12  C   UNL     1      -9.006   2.933  66.908  1.00  0.00    -0.176 C  
HETATM   13  C   UNL     1      -9.484   3.998  67.601  1.00  0.00    -0.231 C  
HETATM   14  C   UNL     1      -8.523   5.064  68.117  1.00  0.00    -0.099 C  
HETATM   15  C   UNL     1      -8.782   6.581  68.230  1.00  0.00    -0.117 C  
HETATM   16  C   UNL     1      -8.116   4.582  69.559  1.00  0.00    -0.061 C  
HETATM   17  C   UNL     1      -9.676   7.103  69.350  1.00  0.00    -0.160 C  
HETATM   18  F   UNL     1      -7.511   7.032  68.587  1.00  0.00    -0.090 F  
HETATM   19  C   UNL     1      -9.114   8.385  69.938  1.00  0.00    -0.146 C  
HETATM   20  O   UNL     1     -10.766   6.610  69.654  1.00  0.00    -0.222 OA 
HETATM   21  C   UNL     1      -8.987   9.502  68.852  1.00  0.00    -0.141 C  
HETATM   22  C   UNL     1     -10.112  10.515  69.242  1.00  0.00    -0.244 C  
HETATM   23  C   UNL     1      -7.555  10.216  68.526  1.00  0.00    -0.088 C  
HETATM   24  H   UNL     1      -6.396   8.825  69.331  1.00  0.00     0.000 HD 
HETATM   25  O   UNL     1      -6.518   9.190  68.462  1.00  0.00    -0.053 OA 
ENDROOT
BRANCH  23  26
HETATM   26  C   UNL     1      -6.819  11.083  69.546  1.00  0.00    -0.133 C  
HETATM   27  O   UNL     1      -6.484  10.605  70.636  1.00  0.00    -0.310 OA 
HETATM   28  C   UNL     1      -6.754  12.584  69.312  1.00  0.00    -0.060 C  
HETATM   29 CL   UNL     1      -5.175  13.018  68.673  1.00  0.00    -0.065 Cl 
ENDBRANCH  23  26
TORSDOF 1
ENDMDL
MODEL       83
REMARK 921   NORMALIZED FREE ENERGY PREDICTED BY IDOCK:   -3.63 KCAL/MOL
REMARK 922        TOTAL FREE ENERGY PREDICTED BY IDOCK:   -3.88 KCAL/MOL
REMARK 923 INTER-LIGAND FREE ENERGY PREDICTED BY IDOCK:   -3.42 KCAL/MOL
REMARK 924 INTRA-LIGAND FREE ENERGY PREDICTED BY IDOCK:   -0.46 KCAL/MOL
REMARK 927      BINDING AFFINITY PREDICTED BY RF-SCORE:    0.00 PKD
ROOT
HETATM    1  C   UNL     1      -8.208   5.013  72.211  1.00  0.00    -0.120 C  
HETATM    2  C   UNL     1      -8.115   3.660  71.446  1.00  0.00    -0.061 C  
HETATM    3  C   UNL     1      -6.772   5.645  71.992  1.00  0.00    -0.063 C  
HETATM    4  C   UNL     1      -7.100   6.649  70.879  1.00  0.00    -0.069 C  
HETATM    5  C   UNL     1      -6.562   6.790  69.402  1.00  0.00    -0.048 C  
HETATM    6  C   UNL     1      -6.665   5.394  68.649  1.00  0.00    -0.053 C  
HETATM    7  C   UNL     1      -6.574   5.465  67.132  1.00  0.00    -0.053 C  
HETATM    8  C   UNL     1      -7.570   6.463  66.543  1.00  0.00    -0.094 C  
HETATM    9  C   UNL     1      -7.918   6.329  65.248  1.00  0.00    -0.117 C  
HETATM   10  C   UNL     1      -6.722   6.799  64.461  1.00  0.00    -0.042 C  
HETATM   11  O   UNL     1      -6.479   6.337  63.354  1.00  0.00    -0.031 OA 
HETATM   12  C   UNL     1      -5.867   7.879  65.100  1.00  0.00    -0.037 C  
HETATM   13  C   UNL     1      -6.150   8.390  66.326  1.00  0.00    -0.048 C  
HETATM   14  C   UNL     1      -7.378   7.905  67.087  1.00  0.00    -0.091 C  
HETATM   15  C   UNL     1      -7.521   7.724  68.613  1.00  0.00    -0.100 C  
HETATM   16  C   UNL     1      -8.537   8.877  66.653  1.00  0.00    -0.130 C  
HETATM   17  C   UNL     1      -7.682   8.955  69.499  1.00  0.00    -0.088 C  
HETATM   18  F   UNL     1      -8.770   7.105  68.681  1.00  0.00    -0.126 F  
HETATM   19  C   UNL     1      -8.701   8.704  70.596  1.00  0.00    -0.188 C  
HETATM   20  O   UNL     1      -6.992   9.974  69.401  1.00  0.00    -0.055 OA 
HETATM   21  C   UNL     1      -8.278   7.502  71.501  1.00  0.00    -0.105 C  
HETATM   22  C   UNL     1      -7.877   8.188  72.848  1.00  0.00    -0.202 C  
HETATM   23  C   UNL     1      -9.244   6.201  71.698  1.00  0.00    -0.145 C  
HETATM   24  H   UNL     1     -10.386   6.497  70.107  1.00  0.00     0.000 HD 
HETATM   25  O   UNL     1      -9.792   5.817  70.401  1.00  0.00    -0.172 OA 
ENDROOT
BRANCH  23  26
HETATM   26  C   UNL     1     -10.602   6.285  72.394  1.00  0.00    -0.211 C  
HETATM   27  O   UNL     1     -10.767   5.749  73.495  1.00  0.00    -0.254 OA 
HETATM   28  C   UNL     1     -11.796   6.792  71.599  1.00  0.00    -0.326 C  
HETATM   29 CL   UNL     1     -12.126   8.465  72.024  1.00  0.00    -0.386 Cl 
ENDBRANCH  23  26
TORSDOF 1
ENDMDL
MODEL       84
REMARK 921   NORMALIZED FREE ENERGY PREDICTED BY IDOCK:   -3.61 KCAL/MOL
REMARK 922        TOTAL FREE ENERGY PREDICTED BY IDOCK:   -3.86 KCAL/MOL
REMARK 923 INTER-LIGAND FREE ENERGY PREDICTED BY IDOCK:   -3.43 KCAL/MOL
REMARK 924 INTRA-LIGAND FREE ENERGY PREDICTED BY IDOCK:   -0.43 KCAL/MOL
REMARK 927      BINDING AFFINITY PREDICTED BY RF-SCORE:    0.00 PKD
ROOT
HETATM    1  C   UNL     1      -7.715  10.402  66.407  1.00  0.00    -0.125 C  
HETATM    2  C   UNL     1      -6.280  10.265  65.816  1.00  0.00    -0.109 C  
HETATM    3  C   UNL     1      -8.633   9.837  65.246  1.00  0.00    -0.168 C  
HETATM    4  C   UNL     1      -8.913   8.434  65.800  1.00  0.00    -0.207 C  
HETATM    5  C   UNL     1      -8.596   6.998  65.227  1.00  0.00     0.001 C  
HETATM    6  C   UNL     1      -7.066   6.904  64.808  1.00  0.00    -0.060 C  
HETATM    7  C   UNL     1      -6.525   5.492  64.630  1.00  0.00    -0.038 C  
HETATM    8  C   UNL     1      -6.798   4.615  65.850  1.00  0.00    -0.058 C  
HETATM    9  C   UNL     1      -6.032   3.522  66.035  1.00  0.00    -0.023 C  
HETATM   10  C   UNL     1      -6.498   2.527  65.003  1.00  0.00    -0.027 C  
HETATM   11  O   UNL     1      -5.726   1.699  64.539  1.00  0.00    -0.008 OA 
HETATM   12  C   UNL     1      -7.960   2.596  64.602  1.00  0.00    -0.078 C  
HETATM   13  C   UNL     1      -8.810   3.514  65.129  1.00  0.00    -0.122 C  
HETATM   14  C   UNL     1      -8.311   4.494  66.185  1.00  0.00    -0.113 C  
HETATM   15  C   UNL     1      -8.744   5.963  66.377  1.00  0.00    -0.131 C  
HETATM   16  C   UNL     1      -8.572   3.779  67.562  1.00  0.00    -0.113 C  
HETATM   17  C   UNL     1     -10.103   6.264  67.000  1.00  0.00    -0.176 C  
HETATM   18  F   UNL     1      -7.836   6.372  67.354  1.00  0.00    -0.098 F  
HETATM   19  C   UNL     1     -10.010   7.436  67.960  1.00  0.00    -0.195 C  
HETATM   20  O   UNL     1     -11.153   5.702  66.678  1.00  0.00    -0.202 OA 
HETATM   21  C   UNL     1      -9.507   8.727  67.236  1.00  0.00    -0.200 C  
HETATM   22  C   UNL     1     -10.780   9.633  67.187  1.00  0.00    -0.258 C  
HETATM   23  C   UNL     1      -8.167   9.517  67.734  1.00  0.00    -0.114 C  
HETATM   24  H   UNL     1      -7.380   8.033  68.784  1.00  0.00     0.000 HD 
HETATM   25  O   UNL     1      -7.122   8.540  68.024  1.00  0.00    -0.082 OA 
ENDROOT
BRANCH  23  26
HETATM   26  C   UNL     1      -8.080  10.210  69.092  1.00  0.00    -0.134 C  
HETATM   27  O   UNL     1      -7.681  11.378  69.167  1.00  0.00    -0.102 OA 
HETATM   28  C   UNL     1      -8.226   9.366  70.350  1.00  0.00    -0.188 C  
HETATM   29 CL   UNL     1      -9.844   9.555  71.008  1.00  0.00    -0.307 Cl 
ENDBRANCH  23  26
TORSDOF 1
ENDMDL
MODEL       85
REMARK 921   NORMALIZED FREE ENERGY PREDICTED BY IDOCK:   -3.57 KCAL/MOL
REMARK 922        TOTAL FREE ENERGY PREDICTED BY IDOCK:   -3.83 KCAL/MOL
REMARK 923 INTER-LIGAND FREE ENERGY PREDICTED BY IDOCK:   -3.47 KCAL/MOL
REMARK 924 INTRA-LIGAND FREE ENERGY PREDICTED BY IDOCK:   -0.35 KCAL/MOL
REMARK 927      BINDING AFFINITY PREDICTED BY RF-SCORE:    0.00 PKD
ROOT
HETATM    1  C   UNL     1      -8.906  11.265  68.520  1.00  0.00    -0.159 C  
HETATM    2  C   UNL     1     -10.186  11.185  67.635  1.00  0.00    -0.208 C  
HETATM    3  C   UNL     1      -9.153  10.137  69.605  1.00  0.00    -0.195 C  
HETATM    4  C   UNL     1      -8.266   9.026  69.028  1.00  0.00    -0.119 C  
HETATM    5  C   UNL     1      -8.603   7.568  68.529  1.00  0.00    -0.129 C  
HETATM    6  C   UNL     1      -9.814   7.610  67.501  1.00  0.00    -0.214 C  
HETATM    7  C   UNL     1      -9.981   6.367  66.639  1.00  0.00    -0.207 C  
HETATM    8  C   UNL     1      -8.687   5.988  65.923  1.00  0.00    -0.157 C  
HETATM    9  C   UNL     1      -8.769   5.213  64.822  1.00  0.00    -0.133 C  
HETATM   10  C   UNL     1      -9.094   3.831  65.329  1.00  0.00    -0.143 C  
HETATM   11  O   UNL     1      -9.741   3.050  64.645  1.00  0.00    -0.153 OA 
HETATM   12  C   UNL     1      -8.557   3.465  66.701  1.00  0.00    -0.115 C  
HETATM   13  C   UNL     1      -7.834   4.338  67.449  1.00  0.00    -0.092 C  
HETATM   14  C   UNL     1      -7.508   5.722  66.899  1.00  0.00    -0.084 C  
HETATM   15  C   UNL     1      -7.405   7.042  67.690  1.00  0.00    -0.096 C  
HETATM   16  C   UNL     1      -6.131   5.551  66.155  1.00  0.00    -0.033 C  
HETATM   17  C   UNL     1      -6.179   7.298  68.560  1.00  0.00    -0.035 C  
HETATM   18  F   UNL     1      -7.263   7.957  66.646  1.00  0.00    -0.076 F  
HETATM   19  C   UNL     1      -5.727   8.742  68.447  1.00  0.00    -0.038 C  
HETATM   20  O   UNL     1      -5.694   6.468  69.335  1.00  0.00    -0.013 OA 
HETATM   21  C   UNL     1      -6.855   9.729  68.892  1.00  0.00    -0.054 C  
HETATM   22  C   UNL     1      -6.329  10.290  70.253  1.00  0.00    -0.123 C  
HETATM   23  C   UNL     1      -7.421  10.885  67.888  1.00  0.00    -0.090 C  
HETATM   24  H   UNL     1      -6.760  10.092  66.198  1.00  0.00     0.000 HD 
HETATM   25  O   UNL     1      -7.610  10.309  66.560  1.00  0.00    -0.105 OA 
ENDROOT
BRANCH  23  26
HETATM   26  C   UNL     1      -6.555  12.047  67.404  1.00  0.00    -0.134 C  
HETATM   27  O   UNL     1      -5.750  11.876  66.482  1.00  0.00    -0.265 OA 
HETATM   28  C   UNL     1      -6.506  13.316  68.242  1.00  0.00    -0.099 C  
HETATM   29 CL   UNL     1      -7.535  14.545  67.521  1.00  0.00    -0.203 Cl 
ENDBRANCH  23  26
TORSDOF 1
ENDMDL
MODEL       86
REMARK 921   NORMALIZED FREE ENERGY PREDICTED BY IDOCK:   -3.44 KCAL/MOL
REMARK 922        TOTAL FREE ENERGY PREDICTED BY IDOCK:   -3.69 KCAL/MOL
REMARK 923 INTER-LIGAND FREE ENERGY PREDICTED BY IDOCK:   -3.28 KCAL/MOL
REMARK 924 INTRA-LIGAND FREE ENERGY PREDICTED BY IDOCK:   -0.41 KCAL/MOL
REMARK 927      BINDING AFFINITY PREDICTED BY RF-SCORE:    0.00 PKD
ROOT
HETATM    1  C   UNL     1     -10.069  10.495  68.513  1.00  0.00    -0.187 C  
HETATM    2  C   UNL     1     -11.496   9.875  68.426  1.00  0.00     0.072 C  
HETATM    3  C   UNL     1      -9.706  10.338  70.046  1.00  0.00    -0.030 C  
HETATM    4  C   UNL     1      -8.791   9.109  69.970  1.00  0.00    -0.193 C  
HETATM    5  C   UNL     1      -8.901   7.677  70.622  1.00  0.00    -0.145 C  
HETATM    6  C   UNL     1     -10.336   7.056  70.335  1.00  0.00    -0.219 C  
HETATM    7  C   UNL     1     -10.448   5.552  70.539  1.00  0.00    -0.347 C  
HETATM    8  C   UNL     1      -9.373   4.787  69.769  1.00  0.00    -0.208 C  
HETATM    9  C   UNL     1      -9.590   3.486  69.491  1.00  0.00    -0.179 C  
HETATM   10  C   UNL     1      -9.409   2.762  70.801  1.00  0.00    -0.150 C  
HETATM   11  O   UNL     1     -10.023   1.730  71.036  1.00  0.00    -0.085 OA 
HETATM   12  C   UNL     1      -8.419   3.364  71.782  1.00  0.00    -0.087 C  
HETATM   13  C   UNL     1      -7.737   4.506  71.508  1.00  0.00    -0.082 C  
HETATM   14  C   UNL     1      -7.930   5.204  70.166  1.00  0.00    -0.079 C  
HETATM   15  C   UNL     1      -7.917   6.722  69.892  1.00  0.00    -0.120 C  
HETATM   16  C   UNL     1      -6.837   4.580  69.222  1.00  0.00    -0.049 C  
HETATM   17  C   UNL     1      -6.586   7.467  69.883  1.00  0.00    -0.039 C  
HETATM   18  F   UNL     1      -8.314   6.744  68.554  1.00  0.00    -0.116 F  
HETATM   19  C   UNL     1      -6.548   8.493  68.765  1.00  0.00    -0.054 C  
HETATM   20  O   UNL     1      -5.710   7.330  70.741  1.00  0.00    -0.027 OA 
HETATM   21  C   UNL     1      -7.695   9.543  68.915  1.00  0.00    -0.076 C  
HETATM   22  C   UNL     1      -6.940  10.846  69.335  1.00  0.00    -0.125 C  
HETATM   23  C   UNL     1      -8.793   9.783  67.730  1.00  0.00    -0.129 C  
HETATM   24  H   UNL     1      -8.493   8.079  66.766  1.00  0.00     0.000 HD 
HETATM   25  O   UNL     1      -9.224   8.487  67.214  1.00  0.00    -0.137 OA 
ENDROOT
BRANCH  23  26
HETATM   26  C   UNL     1      -8.414  10.349  66.363  1.00  0.00    -0.138 C  
HETATM   27  O   UNL     1      -8.359  11.572  66.194  1.00  0.00    -0.129 OA 
HETATM   28  C   UNL     1      -8.378   9.406  65.170  1.00  0.00    -0.145 C  
HETATM   29 CL   UNL     1      -6.714   8.974  64.805  1.00  0.00    -0.076 Cl 
ENDBRANCH  23  26
TORSDOF 1
ENDMDL
MODEL       87
REMARK 921   NORMALIZED FREE ENERGY PREDICTED BY IDOCK:   -3.43 KCAL/MOL
REMARK 922        TOTAL FREE ENERGY PREDICTED BY IDOCK:   -3.67 KCAL/MOL
REMARK 923 INTER-LIGAND FREE ENERGY PREDICTED BY IDOCK:   -3.35 KCAL/MOL
REMARK 924 INTRA-LIGAND FREE ENERGY PREDICTED BY IDOCK:   -0.33 KCAL/MOL
REMARK 927      BINDING AFFINITY PREDICTED BY RF-SCORE:    0.00 PKD
ROOT
HETATM    1  C   UNL     1      -7.271  11.743  66.481  1.00  0.00     0.109 C  
HETATM    2  C   UNL     1      -6.386  12.361  67.604  1.00  0.00    -0.131 C  
HETATM    3  C   UNL     1      -6.408  10.511  65.986  1.00  0.00    -0.124 C  
HETATM    4  C   UNL     1      -7.141   9.375  66.710  1.00  0.00    -0.082 C  
HETATM    5  C   UNL     1      -6.649   8.326  67.781  1.00  0.00    -0.061 C  
HETATM    6  C   UNL     1      -5.904   9.070  68.972  1.00  0.00    -0.040 C  
HETATM    7  C   UNL     1      -5.742   8.257  70.248  1.00  0.00    -0.021 C  
HETATM    8  C   UNL     1      -7.070   7.676  70.731  1.00  0.00    -0.054 C  
HETATM    9  C   UNL     1      -7.179   7.322  72.027  1.00  0.00    -0.071 C  
HETATM   10  C   UNL     1      -6.378   6.053  72.164  1.00  0.00    -0.049 C  
HETATM   11  O   UNL     1      -5.831   5.768  73.220  1.00  0.00    -0.034 OA 
HETATM   12  C   UNL     1      -6.314   5.152  70.943  1.00  0.00    -0.023 C  
HETATM   13  C   UNL     1      -6.932   5.474  69.777  1.00  0.00    -0.062 C  
HETATM   14  C   UNL     1      -7.749   6.757  69.678  1.00  0.00    -0.110 C  
HETATM   15  C   UNL     1      -7.895   7.681  68.451  1.00  0.00    -0.121 C  
HETATM   16  C   UNL     1      -9.211   6.342  70.088  1.00  0.00    -0.160 C  
HETATM   17  C   UNL     1      -8.778   7.243  67.288  1.00  0.00    -0.121 C  
HETATM   18  F   UNL     1      -8.597   8.747  69.014  1.00  0.00    -0.124 F  
HETATM   19  C   UNL     1      -9.577   8.414  66.744  1.00  0.00    -0.283 C  
HETATM   20  O   UNL     1      -8.758   6.114  66.788  1.00  0.00    -0.113 OA 
HETATM   21  C   UNL     1      -8.640   9.558  66.241  1.00  0.00    -0.141 C  
HETATM   22  C   UNL     1      -8.795   9.495  64.687  1.00  0.00    -0.250 C  
HETATM   23  C   UNL     1      -8.743  11.073  66.843  1.00  0.00    -0.148 C  
HETATM   24  H   UNL     1      -9.723  10.613  68.502  1.00  0.00     0.000 HD 
HETATM   25  O   UNL     1      -8.880  10.997  68.295  1.00  0.00    -0.132 OA 
ENDROOT
BRANCH  23  26
HETATM   26  C   UNL     1      -9.976  11.953  66.642  1.00  0.00    -0.199 C  
HETATM   27  O   UNL     1     -11.062  11.439  66.350  1.00  0.00    -0.295 OA 
HETATM   28  C   UNL     1      -9.785  13.459  66.537  1.00  0.00    -0.282 C  
HETATM   29 CL   UNL     1     -10.209  14.219  68.063  1.00  0.00    -0.223 Cl 
ENDBRANCH  23  26
TORSDOF 1
ENDMDL
MODEL       88
REMARK 921   NORMALIZED FREE ENERGY PREDICTED BY IDOCK:   -3.41 KCAL/MOL
REMARK 922        TOTAL FREE ENERGY PREDICTED BY IDOCK:   -3.65 KCAL/MOL
REMARK 923 INTER-LIGAND FREE ENERGY PREDICTED BY IDOCK:   -3.20 KCAL/MOL
REMARK 924 INTRA-LIGAND FREE ENERGY PREDICTED BY IDOCK:   -0.46 KCAL/MOL
REMARK 927      BINDING AFFINITY PREDICTED BY RF-SCORE:    0.00 PKD
ROOT
HETATM    1  C   UNL     1     -10.991  12.110  68.586  1.00  0.00    -0.284 C  
HETATM    2  C   UNL     1     -11.987  11.012  68.108  1.00  0.00    -0.061 C  
HETATM    3  C   UNL     1      -9.888  11.277  69.360  1.00  0.00     0.186 C  
HETATM    4  C   UNL     1      -8.793  11.239  68.286  1.00  0.00    -0.158 C  
HETATM    5  C   UNL     1      -8.101  10.035  67.537  1.00  0.00    -0.110 C  
HETATM    6  C   UNL     1      -9.203   9.058  66.940  1.00  0.00    -0.179 C  
HETATM    7  C   UNL     1      -8.711   8.100  65.865  1.00  0.00    -0.184 C  
HETATM    8  C   UNL     1      -7.978   8.828  64.740  1.00  0.00    -0.132 C  
HETATM    9  C   UNL     1      -7.873   8.215  63.544  1.00  0.00    -0.152 C  
HETATM   10  C   UNL     1      -6.848   7.128  63.739  1.00  0.00    -0.048 C  
HETATM   11  O   UNL     1      -6.897   6.096  63.085  1.00  0.00    -0.041 OA 
HETATM   12  C   UNL     1      -5.755   7.397  64.759  1.00  0.00    -0.037 C  
HETATM   13  C   UNL     1      -5.706   8.550  65.475  1.00  0.00    -0.044 C  
HETATM   14  C   UNL     1      -6.749   9.637  65.239  1.00  0.00    -0.088 C  
HETATM   15  C   UNL     1      -7.361  10.589  66.288  1.00  0.00    -0.133 C  
HETATM   16  C   UNL     1      -6.133  10.558  64.122  1.00  0.00    -0.016 C  
HETATM   17  C   UNL     1      -6.529  11.754  66.814  1.00  0.00    -0.069 C  
HETATM   18  F   UNL     1      -8.350  11.209  65.525  1.00  0.00    -0.159 F  
HETATM   19  C   UNL     1      -7.379  13.002  66.962  1.00  0.00     0.173 C  
HETATM   20  O   UNL     1      -5.352  11.658  67.175  1.00  0.00    -0.076 OA 
HETATM   21  C   UNL     1      -8.568  12.768  67.949  1.00  0.00    -0.181 C  
HETATM   22  C   UNL     1      -8.168  13.608  69.205  1.00  0.00     0.376 C  
HETATM   23  C   UNL     1     -10.118  12.991  67.485  1.00  0.00    -0.218 C  
HETATM   24  H   UNL     1      -9.806  12.910  65.531  1.00  0.00     0.000 HD 
HETATM   25  O   UNL     1     -10.306  12.405  66.161  1.00  0.00    -0.239 OA 
ENDROOT
BRANCH  23  26
HETATM   26  C   UNL     1     -10.670  14.363  67.101  1.00  0.00    -0.283 C  
HETATM   27  O   UNL     1     -11.607  14.854  67.740  1.00  0.00    -0.330 OA 
HETATM   28  C   UNL     1     -10.237  14.976  65.777  1.00  0.00    -0.338 C  
HETATM   29 CL   UNL     1      -9.005  16.196  66.062  1.00  0.00    -0.368 Cl 
ENDBRANCH  23  26
TORSDOF 1
ENDMDL
MODEL       89
REMARK 921   NORMALIZED FREE ENERGY PREDICTED BY IDOCK:   -3.26 KCAL/MOL
REMARK 922        TOTAL FREE ENERGY PREDICTED BY IDOCK:   -3.50 KCAL/MOL
REMARK 923 INTER-LIGAND FREE ENERGY PREDICTED BY IDOCK:   -3.49 KCAL/MOL
REMARK 924 INTRA-LIGAND FREE ENERGY PREDICTED BY IDOCK:   -0.01 KCAL/MOL
REMARK 927      BINDING AFFINITY PREDICTED BY RF-SCORE:    0.00 PKD
ROOT
HETATM    1  C   UNL     1      -7.458  11.012  68.298  1.00  0.00    -0.092 C  
HETATM    2  C   UNL     1      -7.046  10.906  69.797  1.00  0.00    -0.092 C  
HETATM    3  C   UNL     1      -6.355  10.145  67.564  1.00  0.00    -0.059 C  
HETATM    4  C   UNL     1      -7.153   8.855  67.335  1.00  0.00    -0.079 C  
HETATM    5  C   UNL     1      -6.916   7.374  67.825  1.00  0.00    -0.076 C  
HETATM    6  C   UNL     1      -6.671   7.352  69.396  1.00  0.00    -0.041 C  
HETATM    7  C   UNL     1      -6.835   5.994  70.062  1.00  0.00    -0.057 C  
HETATM    8  C   UNL     1      -8.176   5.347  69.723  1.00  0.00    -0.100 C  
HETATM    9  C   UNL     1      -8.651   4.392  70.547  1.00  0.00    -0.110 C  
HETATM   10  C   UNL     1      -7.804   3.175  70.280  1.00  0.00    -0.043 C  
HETATM   11  O   UNL     1      -7.592   2.354  71.162  1.00  0.00    -0.033 OA 
HETATM   12  C   UNL     1      -7.260   3.019  68.871  1.00  0.00    -0.048 C  
HETATM   13  C   UNL     1      -7.507   3.933  67.898  1.00  0.00    -0.067 C  
HETATM   14  C   UNL     1      -8.384   5.144  68.197  1.00  0.00    -0.097 C  
HETATM   15  C   UNL     1      -8.232   6.571  67.631  1.00  0.00    -0.122 C  
HETATM   16  C   UNL     1      -9.847   4.686  67.839  1.00  0.00    -0.177 C  
HETATM   17  C   UNL     1      -8.650   6.851  66.191  1.00  0.00    -0.143 C  
HETATM   18  F   UNL     1      -9.187   7.250  68.388  1.00  0.00    -0.138 F  
HETATM   19  C   UNL     1      -9.356   8.190  66.083  1.00  0.00    -0.232 C  
HETATM   20  O   UNL     1      -8.350   6.136  65.231  1.00  0.00    -0.145 OA 
HETATM   21  C   UNL     1      -8.437   9.360  66.561  1.00  0.00    -0.137 C  
HETATM   22  C   UNL     1      -8.084  10.108  65.235  1.00  0.00    -0.151 C  
HETATM   23  C   UNL     1      -8.888  10.360  67.771  1.00  0.00    -0.128 C  
HETATM   24  H   UNL     1     -10.287   9.193  68.548  1.00  0.00     0.000 HD 
HETATM   25  O   UNL     1      -9.468   9.567  68.850  1.00  0.00    -0.150 OA 
ENDROOT
BRANCH  23  26
HETATM   26  C   UNL     1     -10.080  11.308  67.650  1.00  0.00    -0.179 C  
HETATM   27  O   UNL     1     -10.537  11.859  68.658  1.00  0.00    -0.223 OA 
HETATM   28  C   UNL     1     -10.850  11.345  66.338  1.00  0.00    -0.271 C  
HETATM   29 CL   UNL     1     -10.374  12.759  65.409  1.00  0.00    -0.303 Cl 
ENDBRANCH  23  26
TORSDOF 1
ENDMDL
MODEL       90
REMARK 921   NORMALIZED FREE ENERGY PREDICTED BY IDOCK:   -2.91 KCAL/MOL
REMARK 922        TOTAL FREE ENERGY PREDICTED BY IDOCK:   -3.13 KCAL/MOL
REMARK 923 INTER-LIGAND FREE ENERGY PREDICTED BY IDOCK:   -2.87 KCAL/MOL
REMARK 924 INTRA-LIGAND FREE ENERGY PREDICTED BY IDOCK:   -0.25 KCAL/MOL
REMARK 927      BINDING AFFINITY PREDICTED BY RF-SCORE:    0.00 PKD
ROOT
HETATM    1  C   UNL     1     -10.384  15.730  68.680  1.00  0.00    -0.225 C  
HETATM    2  C   UNL     1      -8.967  16.059  69.236  1.00  0.00    -0.228 C  
HETATM    3  C   UNL     1     -10.076  15.176  67.228  1.00  0.00    -0.235 C  
HETATM    4  C   UNL     1     -10.210  13.671  67.494  1.00  0.00    -0.241 C  
HETATM    5  C   UNL     1      -9.180  12.485  67.348  1.00  0.00    -0.186 C  
HETATM    6  C   UNL     1      -7.823  12.847  68.093  1.00  0.00    -0.147 C  
HETATM    7  C   UNL     1      -6.908  11.668  68.388  1.00  0.00    -0.071 C  
HETATM    8  C   UNL     1      -7.636  10.545  69.124  1.00  0.00    -0.123 C  
HETATM    9  C   UNL     1      -6.901   9.659  69.825  1.00  0.00    -0.070 C  
HETATM   10  C   UNL     1      -6.238   8.783  68.793  1.00  0.00    -0.045 C  
HETATM   11  O   UNL     1      -5.151   8.268  69.015  1.00  0.00    -0.026 OA 
HETATM   12  C   UNL     1      -6.998   8.561  67.498  1.00  0.00    -0.079 C  
HETATM   13  C   UNL     1      -8.208   9.132  67.265  1.00  0.00    -0.114 C  
HETATM   14  C   UNL     1      -8.859   9.998  68.338  1.00  0.00    -0.117 C  
HETATM   15  C   UNL     1      -9.728  11.255  68.125  1.00  0.00    -0.185 C  
HETATM   16  C   UNL     1      -9.733   9.004  69.189  1.00  0.00    -0.167 C  
HETATM   17  C   UNL     1     -11.164  11.096  67.638  1.00  0.00    -0.297 C  
HETATM   18  F   UNL     1      -9.874  11.692  69.442  1.00  0.00    -0.022 F  
HETATM   19  C   UNL     1     -12.090  12.062  68.355  1.00  0.00    -0.090 C  
HETATM   20  O   UNL     1     -11.503  10.360  66.706  1.00  0.00    -0.026 OA 
HETATM   21  C   UNL     1     -11.657  13.545  68.122  1.00  0.00    -0.368 C  
HETATM   22  C   UNL     1     -12.772  14.104  67.180  1.00  0.00     0.483 C  
HETATM   23  C   UNL     1     -11.304  14.537  69.371  1.00  0.00    -0.279 C  
HETATM   24  H   UNL     1     -11.009  13.128  70.731  1.00  0.00     0.000 HD 
HETATM   25  O   UNL     1     -10.482  13.811  70.335  1.00  0.00     1.095 OA 
ENDROOT
BRANCH  23  26
HETATM   26  C   UNL     1     -12.352  14.973  70.394  1.00  0.00    -0.348 C  
HETATM   27  O   UNL     1     -13.282  15.712  70.050  1.00  0.00    -0.071 OA 
HETATM   28  C   UNL     1     -12.082  14.712  71.868  1.00  0.00    -0.299 C  
HETATM   29 CL   UNL     1     -12.993  13.306  72.399  1.00  0.00    -0.393 Cl 
ENDBRANCH  23  26
TORSDOF 1
ENDMDL
MODEL       91
REMARK 921   NORMALIZED FREE ENERGY PREDICTED BY IDOCK:   -2.88 KCAL/MOL
REMARK 922        TOTAL FREE ENERGY PREDICTED BY IDOCK:   -3.10 KCAL/MOL
REMARK 923 INTER-LIGAND FREE ENERGY PREDICTED BY IDOCK:   -2.71 KCAL/MOL
REMARK 924 INTRA-LIGAND FREE ENERGY PREDICTED BY IDOCK:   -0.39 KCAL/MOL
REMARK 927      BINDING AFFINITY PREDICTED BY RF-SCORE:    0.00 PKD
ROOT
HETATM    1  C   UNL     1      -9.469  15.542  67.120  1.00  0.00    -0.223 C  
HETATM    2  C   UNL     1     -10.102  15.255  65.725  1.00  0.00    -0.384 C  
HETATM    3  C   UNL     1     -10.210  14.509  68.064  1.00  0.00    -0.233 C  
HETATM    4  C   UNL     1      -9.120  13.434  68.176  1.00  0.00    -0.207 C  
HETATM    5  C   UNL     1      -9.106  11.909  67.773  1.00  0.00    -0.180 C  
HETATM    6  C   UNL     1      -9.610  11.736  66.275  1.00  0.00    -0.242 C  
HETATM    7  C   UNL     1      -9.269  10.404  65.624  1.00  0.00    -0.220 C  
HETATM    8  C   UNL     1      -7.780  10.079  65.726  1.00  0.00    -0.122 C  
HETATM    9  C   UNL     1      -7.257   9.196  64.853  1.00  0.00    -0.097 C  
HETATM   10  C   UNL     1      -7.756   7.846  65.301  1.00  0.00    -0.097 C  
HETATM   11  O   UNL     1      -7.932   6.944  64.493  1.00  0.00    -0.122 OA 
HETATM   12  C   UNL     1      -7.999   7.668  66.789  1.00  0.00    -0.111 C  
HETATM   13  C   UNL     1      -7.794   8.675  67.677  1.00  0.00    -0.103 C  
HETATM   14  C   UNL     1      -7.271  10.022  67.193  1.00  0.00    -0.090 C  
HETATM   15  C   UNL     1      -7.632  11.418  67.742  1.00  0.00    -0.105 C  
HETATM   16  C   UNL     1      -5.704   9.909  67.288  1.00  0.00    -0.046 C  
HETATM   17  C   UNL     1      -7.043  11.871  69.074  1.00  0.00    -0.092 C  
HETATM   18  F   UNL     1      -6.996  12.234  66.807  1.00  0.00    -0.112 F  
HETATM   19  C   UNL     1      -6.641  13.334  69.017  1.00  0.00    -0.104 C  
HETATM   20  O   UNL     1      -7.006  11.172  70.090  1.00  0.00    -0.131 OA 
HETATM   21  C   UNL     1      -7.864  14.249  68.688  1.00  0.00    -0.140 C  
HETATM   22  C   UNL     1      -8.137  14.989  70.038  1.00  0.00     0.343 C  
HETATM   23  C   UNL     1      -7.861  15.243  67.392  1.00  0.00    -0.194 C  
HETATM   24  H   UNL     1      -6.396  14.352  66.400  1.00  0.00     0.000 HD 
HETATM   25  O   UNL     1      -7.317  14.523  66.244  1.00  0.00     1.305 OA 
ENDROOT
BRANCH  23  26
HETATM   26  C   UNL     1      -6.905  16.428  67.269  1.00  0.00    -0.187 C  
HETATM   27  O   UNL     1      -5.704  16.233  67.047  1.00  0.00    -0.314 OA 
HETATM   28  C   UNL     1      -7.395  17.805  67.689  1.00  0.00    -0.200 C  
HETATM   29 CL   UNL     1      -7.817  18.746  66.266  1.00  0.00    -0.300 Cl 
ENDBRANCH  23  26
TORSDOF 1
ENDMDL
MODEL       92
REMARK 921   NORMALIZED FREE ENERGY PREDICTED BY IDOCK:   -2.43 KCAL/MOL
REMARK 922        TOTAL FREE ENERGY PREDICTED BY IDOCK:   -2.62 KCAL/MOL
REMARK 923 INTER-LIGAND FREE ENERGY PREDICTED BY IDOCK:   -2.60 KCAL/MOL
REMARK 924 INTRA-LIGAND FREE ENERGY PREDICTED BY IDOCK:   -0.02 KCAL/MOL
REMARK 927      BINDING AFFINITY PREDICTED BY RF-SCORE:    0.00 PKD
ROOT
HETATM    1  C   UNL     1     -11.657  12.740  68.012  1.00  0.00    -0.388 C  
HETATM    2  C   UNL     1     -12.371  11.362  68.150  1.00  0.00     0.580 C  
HETATM    3  C   UNL     1     -10.736  12.793  69.300  1.00  0.00     0.040 C  
HETATM    4  C   UNL     1      -9.388  12.421  68.668  1.00  0.00    -0.004 C  
HETATM    5  C   UNL     1      -8.402  11.218  68.934  1.00  0.00    -0.074 C  
HETATM    6  C   UNL     1      -9.197   9.842  68.888  1.00  0.00    -0.160 C  
HETATM    7  C   UNL     1      -8.336   8.599  68.719  1.00  0.00    -0.121 C  
HETATM    8  C   UNL     1      -7.395   8.711  67.521  1.00  0.00    -0.089 C  
HETATM    9  C   UNL     1      -6.905   7.576  66.985  1.00  0.00    -0.071 C  
HETATM   10  C   UNL     1      -5.872   7.082  67.966  1.00  0.00    -0.025 C  
HETATM   11  O   UNL     1      -5.639   5.887  68.081  1.00  0.00    -0.007 OA 
HETATM   12  C   UNL     1      -5.136   8.139  68.770  1.00  0.00    -0.024 C  
HETATM   13  C   UNL     1      -5.399   9.464  68.629  1.00  0.00    -0.037 C  
HETATM   14  C   UNL     1      -6.436   9.930  67.614  1.00  0.00    -0.064 C  
HETATM   15  C   UNL     1      -7.403  11.125  67.748  1.00  0.00    -0.093 C  
HETATM   16  C   UNL     1      -5.627  10.170  66.286  1.00  0.00    -0.057 C  
HETATM   17  C   UNL     1      -6.866  12.542  67.579  1.00  0.00    -0.150 C  
HETATM   18  F   UNL     1      -8.198  10.938  66.616  1.00  0.00    -0.124 F  
HETATM   19  C   UNL     1      -7.842  13.401  66.794  1.00  0.00     0.425 C  
HETATM   20  O   UNL     1      -5.832  12.959  68.108  1.00  0.00    -0.069 OA 
HETATM   21  C   UNL     1      -9.228  13.486  67.510  1.00  0.00    -0.219 C  
HETATM   22  C   UNL     1      -9.274  14.958  68.036  1.00  0.00    -0.185 C  
HETATM   23  C   UNL     1     -10.604  13.021  66.762  1.00  0.00    -0.262 C  
HETATM   24  H   UNL     1      -9.758  11.923  65.347  1.00  0.00     0.000 HD 
HETATM   25  O   UNL     1     -10.360  11.763  66.063  1.00  0.00    -0.224 OA 
ENDROOT
BRANCH  23  26
HETATM   26  C   UNL     1     -11.158  13.747  65.538  1.00  0.00    -0.298 C  
HETATM   27  O   UNL     1     -12.127  13.280  64.929  1.00  0.00    -0.358 OA 
HETATM   28  C   UNL     1     -10.343  14.879  64.933  1.00  0.00    -0.313 C  
HETATM   29 CL   UNL     1     -11.013  16.426  65.430  1.00  0.00    -0.229 Cl 
ENDBRANCH  23  26
TORSDOF 1
ENDMDL
MODEL       93
REMARK 921   NORMALIZED FREE ENERGY PREDICTED BY IDOCK:   -2.25 KCAL/MOL
REMARK 922        TOTAL FREE ENERGY PREDICTED BY IDOCK:   -2.43 KCAL/MOL
REMARK 923 INTER-LIGAND FREE ENERGY PREDICTED BY IDOCK:   -1.96 KCAL/MOL
REMARK 924 INTRA-LIGAND FREE ENERGY PREDICTED BY IDOCK:   -0.46 KCAL/MOL
REMARK 927      BINDING AFFINITY PREDICTED BY RF-SCORE:    0.00 PKD
ROOT
HETATM    1  C   UNL     1      -6.438   9.964  70.008  1.00  0.00    -0.082 C  
HETATM    2  C   UNL     1      -6.404   9.961  71.565  1.00  0.00     0.263 C  
HETATM    3  C   UNL     1      -5.209   9.041  69.623  1.00  0.00    -0.034 C  
HETATM    4  C   UNL     1      -5.956   7.743  69.292  1.00  0.00    -0.034 C  
HETATM    5  C   UNL     1      -5.878   6.299  69.922  1.00  0.00    -0.018 C  
HETATM    6  C   UNL     1      -6.022   6.385  71.503  1.00  0.00    -0.036 C  
HETATM    7  C   UNL     1      -6.373   5.078  72.197  1.00  0.00    -0.035 C  
HETATM    8  C   UNL     1      -7.606   4.416  71.586  1.00  0.00    -0.074 C  
HETATM    9  C   UNL     1      -8.288   3.523  72.331  1.00  0.00    -0.084 C  
HETATM   10  C   UNL     1      -7.428   2.286  72.359  1.00  0.00    -0.043 C  
HETATM   11  O   UNL     1      -7.455   1.527  73.318  1.00  0.00    -0.027 OA 
HETATM   12  C   UNL     1      -6.563   2.029  71.138  1.00  0.00    -0.023 C  
HETATM   13  C   UNL     1      -6.547   2.875  70.076  1.00  0.00    -0.033 C  
HETATM   14  C   UNL     1      -7.443   4.108  70.072  1.00  0.00    -0.046 C  
HETATM   15  C   UNL     1      -7.126   5.492  69.467  1.00  0.00    -0.064 C  
HETATM   16  C   UNL     1      -8.785   3.635  69.400  1.00  0.00    -0.131 C  
HETATM   17  C   UNL     1      -7.176   5.674  67.954  1.00  0.00    -0.072 C  
HETATM   18  F   UNL     1      -8.221   6.227  69.922  1.00  0.00    -0.111 F  
HETATM   19  C   UNL     1      -7.805   7.006  67.589  1.00  0.00    -0.113 C  
HETATM   20  O   UNL     1      -6.669   4.891  67.144  1.00  0.00    -0.052 OA 
HETATM   21  C   UNL     1      -7.003   8.201  68.198  1.00  0.00    -0.077 C  
HETATM   22  C   UNL     1      -6.323   8.853  66.951  1.00  0.00    -0.060 C  
HETATM   23  C   UNL     1      -7.711   9.285  69.192  1.00  0.00    -0.078 C  
HETATM   24  H   UNL     1      -9.283   8.183  69.681  1.00  0.00     0.000 HD 
HETATM   25  O   UNL     1      -8.553   8.572  70.148  1.00  0.00    -0.124 OA 
ENDROOT
BRANCH  23  26
HETATM   26  C   UNL     1      -8.817  10.229  68.722  1.00  0.00    -0.148 C  
HETATM   27  O   UNL     1      -8.615  11.448  68.686  1.00  0.00    -0.157 OA 
HETATM   28  C   UNL     1     -10.227   9.679  68.568  1.00  0.00    -0.193 C  
HETATM   29 CL   UNL     1     -10.564   9.376  66.870  1.00  0.00    -0.277 Cl 
ENDBRANCH  23  26
TORSDOF 1
ENDMDL
MODEL       94
REMARK 921   NORMALIZED FREE ENERGY PREDICTED BY IDOCK:   -2.15 KCAL/MOL
REMARK 922        TOTAL FREE ENERGY PREDICTED BY IDOCK:   -2.31 KCAL/MOL
REMARK 923 INTER-LIGAND FREE ENERGY PREDICTED BY IDOCK:   -1.85 KCAL/MOL
REMARK 924 INTRA-LIGAND FREE ENERGY PREDICTED BY IDOCK:   -0.46 KCAL/MOL
REMARK 927      BINDING AFFINITY PREDICTED BY RF-SCORE:    0.00 PKD
ROOT
HETATM    1  C   UNL     1      -7.285   4.835  66.791  1.00  0.00    -0.080 C  
HETATM    2  C   UNL     1      -7.773   5.426  65.435  1.00  0.00    -0.092 C  
HETATM    3  C   UNL     1      -5.798   5.369  66.897  1.00  0.00    -0.018 C  
HETATM    4  C   UNL     1      -6.010   6.531  67.876  1.00  0.00    -0.020 C  
HETATM    5  C   UNL     1      -5.759   8.082  67.732  1.00  0.00    -0.038 C  
HETATM    6  C   UNL     1      -6.439   8.623  66.401  1.00  0.00    -0.062 C  
HETATM    7  C   UNL     1      -6.634  10.131  66.336  1.00  0.00    -0.084 C  
HETATM    8  C   UNL     1      -7.364  10.669  67.564  1.00  0.00    -0.091 C  
HETATM    9  C   UNL     1      -7.987  11.861  67.467  1.00  0.00    -0.155 C  
HETATM   10  C   UNL     1      -6.885  12.889  67.461  1.00  0.00    -0.153 C  
HETATM   11  O   UNL     1      -7.023  13.952  66.871  1.00  0.00     0.163 OA 
HETATM   12  C   UNL     1      -5.626  12.543  68.238  1.00  0.00    -0.060 C  
HETATM   13  C   UNL     1      -5.486  11.363  68.895  1.00  0.00    -0.039 C  
HETATM   14  C   UNL     1      -6.628  10.353  68.895  1.00  0.00    -0.053 C  
HETATM   15  C   UNL     1      -6.515   8.814  68.875  1.00  0.00    -0.049 C  
HETATM   16  C   UNL     1      -7.488  10.710  70.164  1.00  0.00     0.241 C  
HETATM   17  C   UNL     1      -6.105   8.079  70.147  1.00  0.00    -0.032 C  
HETATM   18  F   UNL     1      -7.855   8.461  68.709  1.00  0.00    -0.104 F  
HETATM   19  C   UNL     1      -6.912   6.806  70.320  1.00  0.00    -0.066 C  
HETATM   20  O   UNL     1      -5.165   8.419  70.871  1.00  0.00    -0.028 OA 
HETATM   21  C   UNL     1      -6.715   5.836  69.110  1.00  0.00    -0.060 C  
HETATM   22  C   UNL     1      -5.861   4.674  69.714  1.00  0.00    -0.017 C  
HETATM   23  C   UNL     1      -7.980   5.317  68.218  1.00  0.00    -0.088 C  
HETATM   24  H   UNL     1      -9.264   6.722  68.767  1.00  0.00     0.000 HD 
HETATM   25  O   UNL     1      -8.866   6.446  67.950  1.00  0.00    -0.115 OA 
ENDROOT
BRANCH  23  26
HETATM   26  C   UNL     1      -9.077   4.423  68.792  1.00  0.00    -0.124 C  
HETATM   27  O   UNL     1      -9.184   3.252  68.410  1.00  0.00    -0.146 OA 
HETATM   28  C   UNL     1     -10.181   5.066  69.618  1.00  0.00    -0.236 C  
HETATM   29 CL   UNL     1      -9.875   4.799  71.329  1.00  0.00    -0.243 Cl 
ENDBRANCH  23  26
TORSDOF 1
ENDMDL
MODEL       95
REMARK 921   NORMALIZED FREE ENERGY PREDICTED BY IDOCK:   -2.08 KCAL/MOL
REMARK 922        TOTAL FREE ENERGY PREDICTED BY IDOCK:   -2.25 KCAL/MOL
REMARK 923 INTER-LIGAND FREE ENERGY PREDICTED BY IDOCK:   -2.26 KCAL/MOL
REMARK 924 INTRA-LIGAND FREE ENERGY PREDICTED BY IDOCK:    0.01 KCAL/MOL
REMARK 927      BINDING AFFINITY PREDICTED BY RF-SCORE:    0.00 PKD
ROOT
HETATM    1  C   UNL     1      -5.949   8.694  66.297  1.00  0.00    -0.051 C  
HETATM    2  C   UNL     1      -5.508   9.375  67.626  1.00  0.00    -0.037 C  
HETATM    3  C   UNL     1      -5.257   7.271  66.380  1.00  0.00    -0.023 C  
HETATM    4  C   UNL     1      -6.462   6.424  66.810  1.00  0.00    -0.046 C  
HETATM    5  C   UNL     1      -6.718   5.541  68.092  1.00  0.00    -0.054 C  
HETATM    6  C   UNL     1      -6.401   6.379  69.404  1.00  0.00    -0.035 C  
HETATM    7  C   UNL     1      -6.981   5.816  70.694  1.00  0.00    -0.058 C  
HETATM    8  C   UNL     1      -8.480   5.551  70.581  1.00  0.00    -0.121 C  
HETATM    9  C   UNL     1      -9.203   5.477  71.716  1.00  0.00    -0.158 C  
HETATM   10  C   UNL     1      -8.843   4.151  72.335  1.00  0.00    -0.107 C  
HETATM   11  O   UNL     1      -8.873   3.997  73.548  1.00  0.00    -0.094 OA 
HETATM   12  C   UNL     1      -8.472   3.031  71.379  1.00  0.00    -0.092 C  
HETATM   13  C   UNL     1      -8.449   3.210  70.033  1.00  0.00    -0.090 C  
HETATM   14  C   UNL     1      -8.838   4.560  69.439  1.00  0.00    -0.129 C  
HETATM   15  C   UNL     1      -8.240   5.238  68.189  1.00  0.00    -0.098 C  
HETATM   16  C   UNL     1     -10.387   4.462  69.183  1.00  0.00     0.374 C  
HETATM   17  C   UNL     1      -8.622   4.722  66.805  1.00  0.00    -0.108 C  
HETATM   18  F   UNL     1      -8.856   6.488  68.256  1.00  0.00    -0.120 F  
HETATM   19  C   UNL     1      -8.832   5.873  65.838  1.00  0.00    -0.154 C  
HETATM   20  O   UNL     1      -8.646   3.529  66.492  1.00  0.00    -0.108 OA 
HETATM   21  C   UNL     1      -7.539   6.740  65.695  1.00  0.00    -0.090 C  
HETATM   22  C   UNL     1      -7.032   6.400  64.256  1.00  0.00    -0.044 C  
HETATM   23  C   UNL     1      -7.545   8.341  66.021  1.00  0.00    -0.078 C  
HETATM   24  H   UNL     1      -9.210   8.369  67.094  1.00  0.00     0.000 HD 
HETATM   25  O   UNL     1      -8.296   8.571  67.252  1.00  0.00    -0.114 OA 
ENDROOT
BRANCH  23  26
HETATM   26  C   UNL     1      -8.344   9.343  65.191  1.00  0.00    -0.145 C  
HETATM   27  O   UNL     1      -9.086  10.159  65.751  1.00  0.00    -0.157 OA 
HETATM   28  C   UNL     1      -8.422   9.143  63.685  1.00  0.00    -0.184 C  
HETATM   29 CL   UNL     1      -7.313  10.244  62.881  1.00  0.00    -0.142 Cl 
ENDBRANCH  23  26
TORSDOF 1
ENDMDL
MODEL       96
REMARK 921   NORMALIZED FREE ENERGY PREDICTED BY IDOCK:   -1.92 KCAL/MOL
REMARK 922        TOTAL FREE ENERGY PREDICTED BY IDOCK:   -2.08 KCAL/MOL
REMARK 923 INTER-LIGAND FREE ENERGY PREDICTED BY IDOCK:   -1.83 KCAL/MOL
REMARK 924 INTRA-LIGAND FREE ENERGY PREDICTED BY IDOCK:   -0.25 KCAL/MOL
REMARK 927      BINDING AFFINITY PREDICTED BY RF-SCORE:    0.00 PKD
ROOT
HETATM    1  C   UNL     1      -9.666  14.721  66.157  1.00  0.00    -0.338 C  
HETATM    2  C   UNL     1      -9.422  13.226  65.791  1.00  0.00     0.031 C  
HETATM    3  C   UNL     1     -11.246  14.835  66.149  1.00  0.00    -0.337 C  
HETATM    4  C   UNL     1     -11.515  14.781  67.659  1.00  0.00    -0.363 C  
HETATM    5  C   UNL     1     -12.343  13.768  68.541  1.00  0.00    -0.004 C  
HETATM    6  C   UNL     1     -11.903  12.276  68.215  1.00  0.00    -0.367 C  
HETATM    7  C   UNL     1     -12.305  11.238  69.253  1.00  0.00    -0.172 C  
HETATM    8  C   UNL     1     -11.859  11.629  70.660  1.00  0.00    -0.238 C  
HETATM    9  C   UNL     1     -11.744  10.658  71.587  1.00  0.00     0.422 C  
HETATM   10  C   UNL     1     -13.157  10.286  71.955  1.00  0.00    -0.463 C  
HETATM   11  O   UNL     1     -13.431   9.151  72.321  1.00  0.00    -0.424 OA 
HETATM   12  C   UNL     1     -14.197  11.389  71.869  1.00  0.00     1.299 C  
HETATM   13  C   UNL     1     -13.881  12.647  71.468  1.00  0.00     0.591 C  
HETATM   14  C   UNL     1     -12.438  12.995  71.121  1.00  0.00    -0.364 C  
HETATM   15  C   UNL     1     -11.947  13.969  70.030  1.00  0.00    -0.339 C  
HETATM   16  C   UNL     1     -11.804  13.498  72.471  1.00  0.00     1.888 C  
HETATM   17  C   UNL     1     -12.063  15.472  70.264  1.00  0.00    -0.386 C  
HETATM   18  F   UNL     1     -10.573  13.734  70.076  1.00  0.00     0.122 F  
HETATM   19  C   UNL     1     -10.829  16.195  69.755  1.00  0.00    -0.333 C  
HETATM   20  O   UNL     1     -13.073  16.029  70.703  1.00  0.00    -0.338 OA 
HETATM   21  C   UNL     1     -10.617  15.954  68.226  1.00  0.00    -0.276 C  
HETATM   22  C   UNL     1     -10.966  17.339  67.589  1.00  0.00    -0.133 C  
HETATM   23  C   UNL     1      -9.235  15.303  67.648  1.00  0.00    -0.187 C  
HETATM   24  H   UNL     1      -8.603  14.513  69.351  1.00  0.00     0.000 HD 
HETATM   25  O   UNL     1      -8.850  14.180  68.497  1.00  0.00    -0.187 OA 
ENDROOT
BRANCH  23  26
HETATM   26  C   UNL     1      -7.887  16.014  67.752  1.00  0.00    -0.140 C  
HETATM   27  O   UNL     1      -6.959  15.695  67.000  1.00  0.00    -0.214 OA 
HETATM   28  C   UNL     1      -7.629  16.910  68.954  1.00  0.00    -0.234 C  
HETATM   29 CL   UNL     1      -7.826  18.595  68.494  1.00  0.00    -0.344 Cl 
ENDBRANCH  23  26
TORSDOF 1
ENDMDL
MODEL       97
REMARK 921   NORMALIZED FREE ENERGY PREDICTED BY IDOCK:   -1.87 KCAL/MOL
REMARK 922        TOTAL FREE ENERGY PREDICTED BY IDOCK:   -2.02 KCAL/MOL
REMARK 923 INTER-LIGAND FREE ENERGY PREDICTED BY IDOCK:   -1.56 KCAL/MOL
REMARK 924 INTRA-LIGAND FREE ENERGY PREDICTED BY IDOCK:   -0.46 KCAL/MOL
REMARK 927      BINDING AFFINITY PREDICTED BY RF-SCORE:    0.00 PKD
ROOT
HETATM    1  C   UNL     1     -10.849  16.585  70.529  1.00  0.00     0.011 C  
HETATM    2  C   UNL     1     -12.355  16.202  70.642  1.00  0.00     0.069 C  
HETATM    3  C   UNL     1     -10.123  15.177  70.543  1.00  0.00     0.274 C  
HETATM    4  C   UNL     1      -9.838  15.019  69.044  1.00  0.00    -0.236 C  
HETATM    5  C   UNL     1     -10.297  13.929  67.999  1.00  0.00    -0.245 C  
HETATM    6  C   UNL     1     -11.872  13.731  68.074  1.00  0.00    -0.408 C  
HETATM    7  C   UNL     1     -12.499  13.035  66.875  1.00  0.00     0.168 C  
HETATM    8  C   UNL     1     -12.108  13.699  65.556  1.00  0.00    -0.440 C  
HETATM    9  C   UNL     1     -12.894  13.496  64.480  1.00  0.00    -0.033 C  
HETATM   10  C   UNL     1     -12.619  12.080  64.045  1.00  0.00    -0.359 C  
HETATM   11  O   UNL     1     -13.484  11.415  63.492  1.00  0.00    -0.005 OA 
HETATM   12  C   UNL     1     -11.221  11.546  64.305  1.00  0.00    -0.358 C  
HETATM   13  C   UNL     1     -10.265  12.295  64.913  1.00  0.00    -0.307 C  
HETATM   14  C   UNL     1     -10.572  13.731  65.325  1.00  0.00    -0.363 C  
HETATM   15  C   UNL     1     -10.047  14.480  66.567  1.00  0.00    -0.274 C  
HETATM   16  C   UNL     1     -10.163  14.607  64.083  1.00  0.00     1.481 C  
HETATM   17  C   UNL     1      -8.604  14.973  66.587  1.00  0.00    -0.211 C  
HETATM   18  F   UNL     1     -10.795  15.655  66.493  1.00  0.00    -0.307 F  
HETATM   19  C   UNL     1      -8.512  16.350  67.219  1.00  0.00    -0.196 C  
HETATM   20  O   UNL     1      -7.634  14.294  66.239  1.00  0.00     1.178 OA 
HETATM   21  C   UNL     1      -9.044  16.340  68.688  1.00  0.00    -0.228 C  
HETATM   22  C   UNL     1      -7.747  16.511  69.544  1.00  0.00     0.119 C  
HETATM   23  C   UNL     1     -10.267  17.315  69.159  1.00  0.00    -0.283 C  
HETATM   24  H   UNL     1     -10.976  17.714  67.353  1.00  0.00     0.000 HD 
HETATM   25  O   UNL     1     -11.309  17.295  68.138  1.00  0.00    -0.073 OA 
ENDROOT
BRANCH  23  26
HETATM   26  C   UNL     1     -10.138  18.837  69.186  1.00  0.00    -0.140 C  
HETATM   27  O   UNL     1     -10.034  19.430  70.266  1.00  0.00     0.435 OA 
HETATM   28  C   UNL     1     -10.412  19.613  67.906  1.00  0.00    -0.423 C  
HETATM   29 CL   UNL     1      -8.892  20.079  67.157  1.00  0.00    -0.406 Cl 
ENDBRANCH  23  26
TORSDOF 1
ENDMDL
MODEL       98
REMARK 921   NORMALIZED FREE ENERGY PREDICTED BY IDOCK:   -1.86 KCAL/MOL
REMARK 922        TOTAL FREE ENERGY PREDICTED BY IDOCK:   -2.01 KCAL/MOL
REMARK 923 INTER-LIGAND FREE ENERGY PREDICTED BY IDOCK:   -1.71 KCAL/MOL
REMARK 924 INTRA-LIGAND FREE ENERGY PREDICTED BY IDOCK:   -0.30 KCAL/MOL
REMARK 927      BINDING AFFINITY PREDICTED BY RF-SCORE:    0.00 PKD
ROOT
HETATM    1  C   UNL     1     -10.428  16.615  68.045  1.00  0.00    -0.320 C  
HETATM    2  C   UNL     1     -11.277  16.741  66.745  1.00  0.00     0.424 C  
HETATM    3  C   UNL     1     -11.031  15.325  68.739  1.00  0.00    -0.260 C  
HETATM    4  C   UNL     1      -9.958  14.300  68.352  1.00  0.00    -0.240 C  
HETATM    5  C   UNL     1     -10.036  12.966  67.513  1.00  0.00    -0.214 C  
HETATM    6  C   UNL     1     -10.771  13.234  66.129  1.00  0.00    -0.287 C  
HETATM    7  C   UNL     1     -10.561  12.169  65.063  1.00  0.00    -0.330 C  
HETATM    8  C   UNL     1      -9.081  11.872  64.831  1.00  0.00     0.341 C  
HETATM    9  C   UNL     1      -8.718  11.307  63.662  1.00  0.00     0.218 C  
HETATM   10  C   UNL     1      -9.167   9.871  63.756  1.00  0.00    -0.243 C  
HETATM   11  O   UNL     1      -9.483   9.248  62.752  1.00  0.00     0.165 OA 
HETATM   12  C   UNL     1      -9.177   9.249  65.141  1.00  0.00    -0.264 C  
HETATM   13  C   UNL     1      -8.816   9.948  66.248  1.00  0.00    -0.160 C  
HETATM   14  C   UNL     1      -8.350  11.394  66.116  1.00  0.00    -0.071 C  
HETATM   15  C   UNL     1      -8.595  12.550  67.108  1.00  0.00    -0.200 C  
HETATM   16  C   UNL     1      -6.790  11.303  65.928  1.00  0.00     0.218 C  
HETATM   17  C   UNL     1      -7.796  12.601  68.406  1.00  0.00    -0.136 C  
HETATM   18  F   UNL     1      -8.098  13.627  66.374  1.00  0.00     0.186 F  
HETATM   19  C   UNL     1      -7.380  14.024  68.730  1.00  0.00    -0.127 C  
HETATM   20  O   UNL     1      -7.613  11.630  69.146  1.00  0.00    -0.068 OA 
HETATM   21  C   UNL     1      -8.622  14.960  68.884  1.00  0.00    -0.177 C  
HETATM   22  C   UNL     1      -8.666  15.253  70.419  1.00  0.00     1.094 C  
HETATM   23  C   UNL     1      -8.804  16.296  67.962  1.00  0.00    -0.182 C  
HETATM   24  H   UNL     1      -7.529  15.787  66.534  1.00  0.00     0.000 HD 
HETATM   25  O   UNL     1      -8.460  15.969  66.582  1.00  0.00    -0.230 OA 
ENDROOT
BRANCH  23  26
HETATM   26  C   UNL     1      -7.856  17.491  68.054  1.00  0.00    -0.225 C  
HETATM   27  O   UNL     1      -7.896  18.237  69.039  1.00  0.00    -0.232 OA 
HETATM   28  C   UNL     1      -7.073  17.895  66.815  1.00  0.00    -0.197 C  
HETATM   29 CL   UNL     1      -5.419  17.314  66.941  1.00  0.00    -0.191 Cl 
ENDBRANCH  23  26
TORSDOF 1
ENDMDL
MODEL       99
REMARK 921   NORMALIZED FREE ENERGY PREDICTED BY IDOCK:   -1.82 KCAL/MOL
REMARK 922        TOTAL FREE ENERGY PREDICTED BY IDOCK:   -1.97 KCAL/MOL
REMARK 923 INTER-LIGAND FREE ENERGY PREDICTED BY IDOCK:   -1.84 KCAL/MOL
REMARK 924 INTRA-LIGAND FREE ENERGY PREDICTED BY IDOCK:   -0.13 KCAL/MOL
REMARK 927      BINDING AFFINITY PREDICTED BY RF-SCORE:    0.00 PKD
ROOT
HETATM    1  C   UNL     1      -9.342   6.705  73.531  1.00  0.00    -0.165 C  
HETATM    2  C   UNL     1      -9.732   5.215  73.761  1.00  0.00    -0.149 C  
HETATM    3  C   UNL     1      -7.765   6.642  73.387  1.00  0.00    -0.090 C  
HETATM    4  C   UNL     1      -7.642   6.734  71.861  1.00  0.00    -0.095 C  
HETATM    5  C   UNL     1      -7.027   5.745  70.797  1.00  0.00    -0.062 C  
HETATM    6  C   UNL     1      -7.615   4.283  71.007  1.00  0.00    -0.059 C  
HETATM    7  C   UNL     1      -7.438   3.334  69.831  1.00  0.00    -0.044 C  
HETATM    8  C   UNL     1      -7.958   3.935  68.526  1.00  0.00    -0.067 C  
HETATM    9  C   UNL     1      -8.274   3.097  67.519  1.00  0.00    -0.085 C  
HETATM   10  C   UNL     1      -6.956   2.615  66.970  1.00  0.00    -0.048 C  
HETATM   11  O   UNL     1      -6.857   1.507  66.460  1.00  0.00    -0.036 OA 
HETATM   12  C   UNL     1      -5.786   3.578  67.063  1.00  0.00    -0.022 C  
HETATM   13  C   UNL     1      -5.908   4.808  67.624  1.00  0.00    -0.022 C  
HETATM   14  C   UNL     1      -7.261   5.272  68.153  1.00  0.00    -0.071 C  
HETATM   15  C   UNL     1      -7.528   6.161  69.386  1.00  0.00    -0.093 C  
HETATM   16  C   UNL     1      -7.948   5.996  66.936  1.00  0.00    -0.102 C  
HETATM   17  C   UNL     1      -7.252   7.658  69.300  1.00  0.00    -0.082 C  
HETATM   18  F   UNL     1      -8.919   6.087  69.458  1.00  0.00    -0.126 F  
HETATM   19  C   UNL     1      -8.337   8.450  70.007  1.00  0.00    -0.123 C  
HETATM   20  O   UNL     1      -6.225   8.147  68.820  1.00  0.00    -0.042 OA 
HETATM   21  C   UNL     1      -8.438   8.058  71.516  1.00  0.00    -0.147 C  
HETATM   22  C   UNL     1      -7.867   9.311  72.255  1.00  0.00     0.846 C  
HETATM   23  C   UNL     1      -9.831   7.502  72.162  1.00  0.00    -0.169 C  
HETATM   24  H   UNL     1     -10.706   6.991  70.460  1.00  0.00     0.000 HD 
HETATM   25  O   UNL     1     -10.426   6.535  71.244  1.00  0.00    -0.209 OA 
ENDROOT
BRANCH  23  26
HETATM   26  C   UNL     1     -11.086   8.366  72.273  1.00  0.00    -0.368 C  
HETATM   27  O   UNL     1     -11.046   9.558  71.946  1.00  0.00    -0.290 OA 
HETATM   28  C   UNL     1     -12.282   7.817  73.035  1.00  0.00     0.411 C  
HETATM   29 CL   UNL     1     -13.491   7.232  71.901  1.00  0.00    -0.335 Cl 
ENDBRANCH  23  26
TORSDOF 1
ENDMDL
MODEL      100
REMARK 921   NORMALIZED FREE ENERGY PREDICTED BY IDOCK:   -1.43 KCAL/MOL
REMARK 922        TOTAL FREE ENERGY PREDICTED BY IDOCK:   -1.56 KCAL/MOL
REMARK 923 INTER-LIGAND FREE ENERGY PREDICTED BY IDOCK:   -1.16 KCAL/MOL
REMARK 924 INTRA-LIGAND FREE ENERGY PREDICTED BY IDOCK:   -0.40 KCAL/MOL
REMARK 927      BINDING AFFINITY PREDICTED BY RF-SCORE:    0.00 PKD
ROOT
HETATM    1  C   UNL     1      -9.950  10.278  68.100  1.00  0.00    -0.168 C  
HETATM    2  C   UNL     1     -11.202   9.895  68.945  1.00  0.00    -0.126 C  
HETATM    3  C   UNL     1      -8.752  10.016  69.102  1.00  0.00    -0.168 C  
HETATM    4  C   UNL     1      -8.266   8.660  68.573  1.00  0.00    -0.122 C  
HETATM    5  C   UNL     1      -8.160   7.244  69.260  1.00  0.00    -0.124 C  
HETATM    6  C   UNL     1      -9.541   6.869  69.951  1.00  0.00    -0.156 C  
HETATM    7  C   UNL     1      -9.721   5.396  70.289  1.00  0.00    -0.254 C  
HETATM    8  C   UNL     1      -9.468   4.495  69.082  1.00  0.00    -0.233 C  
HETATM    9  C   UNL     1      -9.995   3.255  69.088  1.00  0.00     0.465 C  
HETATM   10  C   UNL     1      -9.158   2.469  70.065  1.00  0.00    -0.113 C  
HETATM   11  O   UNL     1      -9.642   1.541  70.699  1.00  0.00    -0.109 OA 
HETATM   12  C   UNL     1      -7.701   2.874  70.194  1.00  0.00    -0.044 C  
HETATM   13  C   UNL     1      -7.173   3.902  69.480  1.00  0.00    -0.046 C  
HETATM   14  C   UNL     1      -8.043   4.664  68.487  1.00  0.00    -0.083 C  
HETATM   15  C   UNL     1      -7.981   6.169  68.152  1.00  0.00    -0.107 C  
HETATM   16  C   UNL     1      -7.862   3.905  67.120  1.00  0.00    -0.088 C  
HETATM   17  C   UNL     1      -6.844   6.693  67.282  1.00  0.00    -0.072 C  
HETATM   18  F   UNL     1      -9.105   6.296  67.336  1.00  0.00    -0.115 F  
HETATM   19  C   UNL     1      -7.349   7.735  66.300  1.00  0.00    -0.079 C  
HETATM   20  O   UNL     1      -5.657   6.391  67.436  1.00  0.00    -0.008 OA 
HETATM   21  C   UNL     1      -7.996   8.949  67.041  1.00  0.00    -0.102 C  
HETATM   22  C   UNL     1      -6.963  10.101  66.819  1.00  0.00    -0.091 C  
HETATM   23  C   UNL     1      -9.541   9.398  66.756  1.00  0.00    -0.179 C  
HETATM   24  H   UNL     1     -10.145   7.699  65.935  1.00  0.00     0.000 HD 
HETATM   25  O   UNL     1     -10.379   8.204  66.705  1.00  0.00    -0.304 OA 
ENDROOT
BRANCH  23  26
HETATM   26  C   UNL     1     -10.001   9.940  65.405  1.00  0.00    -0.279 C  
HETATM   27  O   UNL     1      -9.647   9.380  64.361  1.00  0.00     0.009 OA 
HETATM   28  C   UNL     1     -10.660  11.310  65.356  1.00  0.00    -0.250 C  
HETATM   29 CL   UNL     1     -12.403  11.127  65.222  1.00  0.00     1.789 Cl 
ENDBRANCH  23  26
TORSDOF 1
ENDMDL
MODEL      101
REMARK 921   NORMALIZED FREE ENERGY PREDICTED BY IDOCK:   -0.66 KCAL/MOL
REMARK 922        TOTAL FREE ENERGY PREDICTED BY IDOCK:   -0.74 KCAL/MOL
REMARK 923 INTER-LIGAND FREE ENERGY PREDICTED BY IDOCK:   -0.74 KCAL/MOL
REMARK 924 INTRA-LIGAND FREE ENERGY PREDICTED BY IDOCK:   -0.00 KCAL/MOL
REMARK 927      BINDING AFFINITY PREDICTED BY RF-SCORE:    0.00 PKD
ROOT
HETATM    1  C   UNL     1      -8.987  17.873  66.241  1.00  0.00    -0.192 C  
HETATM    2  C   UNL     1      -7.903  17.222  65.332  1.00  0.00     1.447 C  
HETATM    3  C   UNL     1     -10.334  17.237  65.701  1.00  0.00    -0.185 C  
HETATM    4  C   UNL     1     -10.565  16.170  66.779  1.00  0.00    -0.277 C  
HETATM    5  C   UNL     1     -10.669  14.598  66.693  1.00  0.00    -0.305 C  
HETATM    6  C   UNL     1      -9.428  14.013  65.890  1.00  0.00    -0.106 C  
HETATM    7  C   UNL     1      -9.176  12.524  66.075  1.00  0.00    -0.020 C  
HETATM    8  C   UNL     1      -9.087  12.136  67.550  1.00  0.00    -0.180 C  
HETATM    9  C   UNL     1      -8.453  10.991  67.872  1.00  0.00    -0.128 C  
HETATM   10  C   UNL     1      -9.390   9.884  67.462  1.00  0.00    -0.140 C  
HETATM   11  O   UNL     1      -8.957   8.794  67.114  1.00  0.00    -0.129 OA 
HETATM   12  C   UNL     1     -10.876  10.189  67.529  1.00  0.00    -0.349 C  
HETATM   13  C   UNL     1     -11.345  11.401  67.924  1.00  0.00    -0.371 C  
HETATM   14  C   UNL     1     -10.370  12.493  68.350  1.00  0.00    -0.237 C  
HETATM   15  C   UNL     1     -10.511  14.012  68.124  1.00  0.00    -0.243 C  
HETATM   16  C   UNL     1     -10.192  12.297  69.901  1.00  0.00     1.587 C  
HETATM   17  C   UNL     1     -11.492  14.806  68.980  1.00  0.00    -0.293 C  
HETATM   18  F   UNL     1      -9.262  14.453  68.562  1.00  0.00    -0.179 F  
HETATM   19  C   UNL     1     -10.901  16.147  69.377  1.00  0.00    -0.320 C  
HETATM   20  O   UNL     1     -12.649  14.451  69.218  1.00  0.00    -0.138 OA 
HETATM   21  C   UNL     1     -10.542  17.006  68.122  1.00  0.00    -0.369 C  
HETATM   22  C   UNL     1     -11.617  18.141  68.141  1.00  0.00     1.494 C  
HETATM   23  C   UNL     1      -9.024  17.553  67.867  1.00  0.00    -0.251 C  
HETATM   24  H   UNL     1      -8.101  16.294  69.087  1.00  0.00     0.000 HD 
HETATM   25  O   UNL     1      -8.080  16.478  68.155  1.00  0.00    -0.164 OA 
ENDROOT
BRANCH  23  26
HETATM   26  C   UNL     1      -8.353  18.568  68.790  1.00  0.00    -0.246 C  
HETATM   27  O   UNL     1      -9.018  19.480  69.295  1.00  0.00    -0.228 OA 
HETATM   28  C   UNL     1      -6.834  18.599  68.855  1.00  0.00    -0.283 C  
HETATM   29 CL   UNL     1      -6.284  17.783  70.312  1.00  0.00     0.066 Cl 
ENDBRANCH  23  26
TORSDOF 1
ENDMDL
MODEL      102
REMARK 921   NORMALIZED FREE ENERGY PREDICTED BY IDOCK:   -0.53 KCAL/MOL
REMARK 922        TOTAL FREE ENERGY PREDICTED BY IDOCK:   -0.60 KCAL/MOL
REMARK 923 INTER-LIGAND FREE ENERGY PREDICTED BY IDOCK:   -0.46 KCAL/MOL
REMARK 924 INTRA-LIGAND FREE ENERGY PREDICTED BY IDOCK:   -0.14 KCAL/MOL
REMARK 927      BINDING AFFINITY PREDICTED BY RF-SCORE:    0.00 PKD
ROOT
HETATM    1  C   UNL     1      -9.925  16.388  67.137  1.00  0.00    -0.260 C  
HETATM    2  C   UNL     1      -9.464  16.251  65.655  1.00  0.00    -0.097 C  
HETATM    3  C   UNL     1     -11.308  15.616  67.151  1.00  0.00    -0.082 C  
HETATM    4  C   UNL     1     -10.856  14.290  67.777  1.00  0.00    -0.259 C  
HETATM    5  C   UNL     1     -10.892  12.809  67.236  1.00  0.00    -0.277 C  
HETATM    6  C   UNL     1     -10.246  12.743  65.785  1.00  0.00    -0.302 C  
HETATM    7  C   UNL     1      -9.843  11.353  65.314  1.00  0.00    -0.290 C  
HETATM    8  C   UNL     1      -8.950  10.640  66.327  1.00  0.00    -0.180 C  
HETATM    9  C   UNL     1      -8.173   9.628  65.893  1.00  0.00    -0.119 C  
HETATM   10  C   UNL     1      -9.113   8.475  65.655  1.00  0.00    -0.132 C  
HETATM   11  O   UNL     1      -8.870   7.635  64.799  1.00  0.00     0.183 OA 
HETATM   12  C   UNL     1     -10.344   8.405  66.541  1.00  0.00    -0.199 C  
HETATM   13  C   UNL     1     -10.601   9.339  67.493  1.00  0.00    -0.329 C  
HETATM   14  C   UNL     1      -9.619  10.483  67.721  1.00  0.00    -0.173 C  
HETATM   15  C   UNL     1      -9.953  11.937  68.114  1.00  0.00    -0.197 C  
HETATM   16  C   UNL     1      -8.622   9.953  68.816  1.00  0.00    -0.130 C  
HETATM   17  C   UNL     1     -10.365  12.246  69.549  1.00  0.00     0.622 C  
HETATM   18  F   UNL     1      -8.695  12.529  67.999  1.00  0.00    -0.154 F  
HETATM   19  C   UNL     1      -9.737  13.543  70.026  1.00  0.00     2.305 C  
HETATM   20  O   UNL     1     -11.187  11.586  70.192  1.00  0.00    -0.145 OA 
HETATM   21  C   UNL     1     -10.165  14.747  69.125  1.00  0.00    -0.224 C  
HETATM   22  C   UNL     1     -11.127  15.564  70.047  1.00  0.00    -0.326 C  
HETATM   23  C   UNL     1      -9.060  15.672  68.357  1.00  0.00    -0.190 C  
HETATM   24  H   UNL     1      -7.550  14.395  68.465  1.00  0.00     0.000 HD 
HETATM   25  O   UNL     1      -8.045  14.806  67.766  1.00  0.00    -0.131 OA 
ENDROOT
BRANCH  23  26
HETATM   26  C   UNL     1      -8.061  16.551  69.108  1.00  0.00    -0.170 C  
HETATM   27  O   UNL     1      -8.466  17.406  69.904  1.00  0.00     1.055 OA 
HETATM   28  C   UNL     1      -6.607  16.544  68.662  1.00  0.00    -0.145 C  
HETATM   29 CL   UNL     1      -5.657  15.542  69.750  1.00  0.00    -0.114 Cl 
ENDBRANCH  23  26
TORSDOF 1
ENDMDL
MODEL      103
REMARK 921   NORMALIZED FREE ENERGY PREDICTED BY IDOCK:    0.72 KCAL/MOL
REMARK 922        TOTAL FREE ENERGY PREDICTED BY IDOCK:    0.72 KCAL/MOL
REMARK 923 INTER-LIGAND FREE ENERGY PREDICTED BY IDOCK:    0.72 KCAL/MOL
REMARK 924 INTRA-LIGAND FREE ENERGY PREDICTED BY IDOCK:   -0.01 KCAL/MOL
REMARK 927      BINDING AFFINITY PREDICTED BY RF-SCORE:    0.00 PKD
ROOT
HETATM    1  C   UNL     1     -10.531  10.511  66.570  1.00  0.00    -0.276 C  
HETATM    2  C   UNL     1     -11.872  11.252  66.852  1.00  0.00     0.416 C  
HETATM    3  C   UNL     1      -9.803  11.472  65.543  1.00  0.00    -0.269 C  
HETATM    4  C   UNL     1      -8.819  12.167  66.494  1.00  0.00    -0.151 C  
HETATM    5  C   UNL     1      -8.636  13.684  66.888  1.00  0.00    -0.121 C  
HETATM    6  C   UNL     1     -10.033  14.307  67.321  1.00  0.00    -0.252 C  
HETATM    7  C   UNL     1      -9.951  15.609  68.104  1.00  0.00    -0.217 C  
HETATM    8  C   UNL     1      -9.021  15.497  69.309  1.00  0.00    -0.267 C  
HETATM    9  C   UNL     1      -9.173  16.378  70.318  1.00  0.00     1.603 C  
HETATM   10  C   UNL     1      -8.620  17.681  69.799  1.00  0.00     1.347 C  
HETATM   11  O   UNL     1      -9.061  18.750  70.196  1.00  0.00     1.276 OA 
HETATM   12  C   UNL     1      -7.488  17.587  68.792  1.00  0.00    -0.258 C  
HETATM   13  C   UNL     1      -7.001  16.394  68.363  1.00  0.00    -0.144 C  
HETATM   14  C   UNL     1      -7.571  15.095  68.922  1.00  0.00    -0.148 C  
HETATM   15  C   UNL     1      -7.767  13.761  68.173  1.00  0.00    -0.140 C  
HETATM   16  C   UNL     1      -6.677  14.765  70.175  1.00  0.00    -0.114 C  
HETATM   17  C   UNL     1      -6.553  12.888  67.874  1.00  0.00    -0.125 C  
HETATM   18  F   UNL     1      -8.469  13.029  69.132  1.00  0.00     0.138 F  
HETATM   19  C   UNL     1      -6.876  11.420  68.084  1.00  0.00    -0.064 C  
HETATM   20  O   UNL     1      -5.489  13.314  67.414  1.00  0.00    -0.334 OA 
HETATM   21  C   UNL     1      -8.050  10.957  67.161  1.00  0.00    -0.127 C  
HETATM   22  C   UNL     1      -7.343  10.041  66.110  1.00  0.00    -0.109 C  
HETATM   23  C   UNL     1      -9.414  10.306  67.778  1.00  0.00    -0.148 C  
HETATM   24  H   UNL     1      -9.190  10.969  69.631  1.00  0.00     0.000 HD 
HETATM   25  O   UNL     1      -9.830  11.087  68.939  1.00  0.00    -0.193 OA 
ENDROOT
BRANCH  23  26
HETATM   26  C   UNL     1      -9.424   8.966  68.512  1.00  0.00    -0.147 C  
HETATM   27  O   UNL     1     -10.429   8.612  69.139  1.00  0.00    -0.220 OA 
HETATM   28  C   UNL     1      -8.110   8.220  68.682  1.00  0.00    -0.120 C  
HETATM   29 CL   UNL     1      -8.010   6.915  67.508  1.00  0.00    -0.111 Cl 
ENDBRANCH  23  26
TORSDOF 1
ENDMDL
MODEL      104
REMARK 921   NORMALIZED FREE ENERGY PREDICTED BY IDOCK:    1.14 KCAL/MOL
REMARK 922        TOTAL FREE ENERGY PREDICTED BY IDOCK:    1.16 KCAL/MOL
REMARK 923 INTER-LIGAND FREE ENERGY PREDICTED BY IDOCK:    1.17 KCAL/MOL
REMARK 924 INTRA-LIGAND FREE ENERGY PREDICTED BY IDOCK:   -0.01 KCAL/MOL
REMARK 927      BINDING AFFINITY PREDICTED BY RF-SCORE:    0.00 PKD
ROOT
HETATM    1  C   UNL     1      -8.324  12.648  69.435  1.00  0.00     1.096 C  
HETATM    2  C   UNL     1      -7.475  11.447  69.952  1.00  0.00     0.614 C  
HETATM    3  C   UNL     1      -7.398  13.283  68.318  1.00  0.00    -0.113 C  
HETATM    4  C   UNL     1      -8.076  12.712  67.066  1.00  0.00    -0.088 C  
HETATM    5  C   UNL     1      -7.537  11.774  65.918  1.00  0.00     0.692 C  
HETATM    6  C   UNL     1      -6.836  10.493  66.544  1.00  0.00    -0.113 C  
HETATM    7  C   UNL     1      -6.639   9.325  65.588  1.00  0.00    -0.069 C  
HETATM    8  C   UNL     1      -7.937   8.932  64.887  1.00  0.00    -0.129 C  
HETATM    9  C   UNL     1      -8.034   7.691  64.370  1.00  0.00    -0.123 C  
HETATM   10  C   UNL     1      -7.171   7.704  63.134  1.00  0.00    -0.083 C  
HETATM   11  O   UNL     1      -6.615   6.685  62.748  1.00  0.00    -0.037 OA 
HETATM   12  C   UNL     1      -7.057   9.026  62.397  1.00  0.00    -0.098 C  
HETATM   13  C   UNL     1      -7.685  10.149  62.830  1.00  0.00    -0.148 C  
HETATM   14  C   UNL     1      -8.565  10.097  64.074  1.00  0.00    -0.197 C  
HETATM   15  C   UNL     1      -8.752  11.202  65.135  1.00  0.00     0.010 C  
HETATM   16  C   UNL     1     -10.006   9.757  63.540  1.00  0.00     0.913 C  
HETATM   17  C   UNL     1      -9.608  12.419  64.801  1.00  0.00     0.140 C  
HETATM   18  F   UNL     1      -9.509  10.519  66.086  1.00  0.00    -0.182 F  
HETATM   19  C   UNL     1     -10.462  12.822  65.990  1.00  0.00    -0.291 C  
HETATM   20  O   UNL     1      -9.529  13.055  63.746  1.00  0.00     0.329 OA 
HETATM   21  C   UNL     1      -9.581  13.170  67.233  1.00  0.00    -0.233 C  
HETATM   22  C   UNL     1      -9.726  14.722  67.356  1.00  0.00    -0.214 C  
HETATM   23  C   UNL     1      -9.762  12.386  68.654  1.00  0.00    -0.055 C  
HETATM   24  H   UNL     1     -10.725  10.807  67.944  1.00  0.00     0.000 HD 
HETATM   25  O   UNL     1      -9.901  10.957  68.392  1.00  0.00    -0.164 OA 
ENDROOT
BRANCH  23  26
HETATM   26  C   UNL     1     -11.036  12.490  69.491  1.00  0.00    -0.006 C  
HETATM   27  O   UNL     1     -11.632  13.570  69.578  1.00  0.00    -0.279 OA 
HETATM   28  C   UNL     1     -11.395  11.337  70.416  1.00  0.00     0.025 C  
HETATM   29 CL   UNL     1     -12.653  10.355  69.680  1.00  0.00    -0.028 Cl 
ENDBRANCH  23  26
TORSDOF 1
ENDMDL
MODEL      105
REMARK 921   NORMALIZED FREE ENERGY PREDICTED BY IDOCK:    1.53 KCAL/MOL
REMARK 922        TOTAL FREE ENERGY PREDICTED BY IDOCK:    1.57 KCAL/MOL
REMARK 923 INTER-LIGAND FREE ENERGY PREDICTED BY IDOCK:    1.95 KCAL/MOL
REMARK 924 INTRA-LIGAND FREE ENERGY PREDICTED BY IDOCK:   -0.38 KCAL/MOL
REMARK 927      BINDING AFFINITY PREDICTED BY RF-SCORE:    0.00 PKD
ROOT
HETATM    1  C   UNL     1      -6.710  11.451  66.619  1.00  0.00    -0.112 C  
HETATM    2  C   UNL     1      -6.710  12.984  66.343  1.00  0.00     2.326 C  
HETATM    3  C   UNL     1      -6.566  11.373  68.194  1.00  0.00    -0.057 C  
HETATM    4  C   UNL     1      -8.026  11.091  68.573  1.00  0.00    -0.137 C  
HETATM    5  C   UNL     1      -9.053  11.896  69.460  1.00  0.00     1.230 C  
HETATM    6  C   UNL     1      -9.106  13.414  68.991  1.00  0.00     0.402 C  
HETATM    7  C   UNL     1     -10.320  14.200  69.464  1.00  0.00     0.159 C  
HETATM    8  C   UNL     1     -11.630  13.492  69.124  1.00  0.00    -0.359 C  
HETATM    9  C   UNL     1     -12.759  14.227  69.073  1.00  0.00     0.533 C  
HETATM   10  C   UNL     1     -13.100  14.535  70.508  1.00  0.00    -0.174 C  
HETATM   11  O   UNL     1     -13.694  15.564  70.803  1.00  0.00    -0.475 OA 
HETATM   12  C   UNL     1     -12.695  13.501  71.543  1.00  0.00    -0.412 C  
HETATM   13  C   UNL     1     -12.043  12.359  71.203  1.00  0.00     0.120 C  
HETATM   14  C   UNL     1     -11.729  12.069  69.740  1.00  0.00    -0.390 C  
HETATM   15  C   UNL     1     -10.482  11.357  69.175  1.00  0.00    -0.127 C  
HETATM   16  C   UNL     1     -12.971  11.262  69.209  1.00  0.00     1.138 C  
HETATM   17  C   UNL     1     -10.362   9.843  69.313  1.00  0.00    -0.219 C  
HETATM   18  F   UNL     1     -10.677  11.547  67.806  1.00  0.00    -0.198 F  
HETATM   19  C   UNL     1      -9.791   9.227  68.048  1.00  0.00    -0.191 C  
HETATM   20  O   UNL     1     -10.591   9.221  70.354  1.00  0.00    -0.214 OA 
HETATM   21  C   UNL     1      -8.374   9.803  67.724  1.00  0.00    -0.114 C  
HETATM   22  C   UNL     1      -7.418   8.604  68.030  1.00  0.00    -0.097 C  
HETATM   23  C   UNL     1      -8.058  10.539  66.301  1.00  0.00    -0.142 C  
HETATM   24  H   UNL     1      -9.935  10.912  65.792  1.00  0.00     0.000 HD 
HETATM   25  O   UNL     1      -9.164  11.434  65.974  1.00  0.00    -0.206 OA 
ENDROOT
BRANCH  23  26
HETATM   26  C   UNL     1      -8.093   9.795  64.967  1.00  0.00    -0.134 C  
HETATM   27  O   UNL     1      -8.865   8.842  64.810  1.00  0.00    -0.173 OA 
HETATM   28  C   UNL     1      -6.991  10.065  63.953  1.00  0.00    -0.124 C  
HETATM   29 CL   UNL     1      -7.587  11.147  62.702  1.00  0.00     0.097 Cl 
ENDBRANCH  23  26
TORSDOF 1
ENDMDL
MODEL      106
REMARK 921   NORMALIZED FREE ENERGY PREDICTED BY IDOCK:    5.11 KCAL/MOL
REMARK 922        TOTAL FREE ENERGY PREDICTED BY IDOCK:    5.37 KCAL/MOL
REMARK 923 INTER-LIGAND FREE ENERGY PREDICTED BY IDOCK:    5.77 KCAL/MOL
REMARK 924 INTRA-LIGAND FREE ENERGY PREDICTED BY IDOCK:   -0.41 KCAL/MOL
REMARK 927      BINDING AFFINITY PREDICTED BY RF-SCORE:    0.00 PKD
ROOT
HETATM    1  C   UNL     1      -7.872  10.658  67.360  1.00  0.00    -0.110 C  
HETATM    2  C   UNL     1      -8.694  10.997  66.081  1.00  0.00    -0.188 C  
HETATM    3  C   UNL     1      -6.654  11.667  67.277  1.00  0.00    -0.122 C  
HETATM    4  C   UNL     1      -7.128  12.726  68.282  1.00  0.00    -0.104 C  
HETATM    5  C   UNL     1      -7.439  14.264  68.116  1.00  0.00    -0.131 C  
HETATM    6  C   UNL     1      -8.420  14.492  66.886  1.00  0.00    -0.179 C  
HETATM    7  C   UNL     1      -9.123  15.841  66.855  1.00  0.00    -0.259 C  
HETATM    8  C   UNL     1      -9.836  16.147  68.170  1.00  0.00    -0.227 C  
HETATM    9  C   UNL     1     -10.834  17.053  68.160  1.00  0.00    -0.338 C  
HETATM   10  C   UNL     1     -10.157  18.393  68.019  1.00  0.00    -0.368 C  
HETATM   11  O   UNL     1     -10.720  19.323  67.458  1.00  0.00    -0.463 OA 
HETATM   12  C   UNL     1      -8.771  18.523  68.626  1.00  0.00    -0.325 C  
HETATM   13  C   UNL     1      -8.158  17.486  69.253  1.00  0.00     0.181 C  
HETATM   14  C   UNL     1      -8.879  16.150  69.394  1.00  0.00    -0.111 C  
HETATM   15  C   UNL     1      -8.253  14.740  69.351  1.00  0.00    -0.012 C  
HETATM   16  C   UNL     1      -9.646  16.244  70.765  1.00  0.00     2.288 C  
HETATM   17  C   UNL     1      -7.464  14.237  70.555  1.00  0.00     1.223 C  
HETATM   18  F   UNL     1      -9.402  13.949  69.356  1.00  0.00     0.134 F  
HETATM   19  C   UNL     1      -7.762  12.773  70.823  1.00  0.00     5.391 C  
HETATM   20  O   UNL     1      -6.615  14.902  71.155  1.00  0.00     0.280 OA 
HETATM   21  C   UNL     1      -7.396  11.882  69.593  1.00  0.00     0.434 C  
HETATM   22  C   UNL     1      -6.131  11.101  70.075  1.00  0.00    -0.134 C  
HETATM   23  C   UNL     1      -8.509  10.931  68.867  1.00  0.00    -0.141 C  
HETATM   24  H   UNL     1     -10.116  11.840  69.584  1.00  0.00     0.000 HD 
HETATM   25  O   UNL     1      -9.752  11.683  68.721  1.00  0.00    -0.181 OA 
ENDROOT
BRANCH  23  26
HETATM   26  C   UNL     1      -9.157   9.742  69.572  1.00  0.00    -0.216 C  
HETATM   27  O   UNL     1      -9.673   9.889  70.686  1.00  0.00    -0.158 OA 
HETATM   28  C   UNL     1      -8.917   8.347  69.015  1.00  0.00    -0.147 C  
HETATM   29 CL   UNL     1     -10.323   7.824  68.098  1.00  0.00    -0.243 Cl 
ENDBRANCH  23  26
TORSDOF 1
ENDMDL
MODEL      107
REMARK 921   NORMALIZED FREE ENERGY PREDICTED BY IDOCK:    6.48 KCAL/MOL
REMARK 922        TOTAL FREE ENERGY PREDICTED BY IDOCK:    6.81 KCAL/MOL
REMARK 923 INTER-LIGAND FREE ENERGY PREDICTED BY IDOCK:    6.93 KCAL/MOL
REMARK 924 INTRA-LIGAND FREE ENERGY PREDICTED BY IDOCK:   -0.11 KCAL/MOL
REMARK 927      BINDING AFFINITY PREDICTED BY RF-SCORE:    0.00 PKD
ROOT
HETATM    1  C   UNL     1     -10.233  12.162  64.733  1.00  0.00    -0.310 C  
HETATM    2  C   UNL     1      -8.717  11.972  64.428  1.00  0.00     1.199 C  
HETATM    3  C   UNL     1     -10.741  10.677  64.944  1.00  0.00    -0.072 C  
HETATM    4  C   UNL     1     -10.791  10.638  66.477  1.00  0.00    -0.168 C  
HETATM    5  C   UNL     1     -10.041   9.731  67.528  1.00  0.00    -0.246 C  
HETATM    6  C   UNL     1      -8.478   9.736  67.234  1.00  0.00    -0.125 C  
HETATM    7  C   UNL     1      -7.599   9.255  68.379  1.00  0.00    -0.086 C  
HETATM    8  C   UNL     1      -7.898   9.994  69.682  1.00  0.00    -0.171 C  
HETATM    9  C   UNL     1      -6.951  10.008  70.640  1.00  0.00    -0.031 C  
HETATM   10  C   UNL     1      -6.955   8.619  71.228  1.00  0.00    -0.082 C  
HETATM   11  O   UNL     1      -5.934   8.135  71.697  1.00  0.00    -0.035 OA 
HETATM   12  C   UNL     1      -8.282   7.882  71.225  1.00  0.00    -0.107 C  
HETATM   13  C   UNL     1      -9.411   8.432  70.707  1.00  0.00    -0.191 C  
HETATM   14  C   UNL     1      -9.376   9.846  70.138  1.00  0.00    -0.200 C  
HETATM   15  C   UNL     1     -10.169  10.387  68.930  1.00  0.00    -0.205 C  
HETATM   16  C   UNL     1      -9.734  10.783  71.350  1.00  0.00     5.283 C  
HETATM   17  C   UNL     1     -11.657  10.682  69.087  1.00  0.00    -0.271 C  
HETATM   18  F   UNL     1      -9.597  11.652  68.794  1.00  0.00    -0.191 F  
HETATM   19  C   UNL     1     -12.035  11.963  68.365  1.00  0.00    -0.246 C  
HETATM   20  O   UNL     1     -12.461   9.920  69.631  1.00  0.00     0.283 OA 
HETATM   21  C   UNL     1     -11.713  11.872  66.838  1.00  0.00    -0.291 C  
HETATM   22  C   UNL     1     -13.126  11.781  66.175  1.00  0.00     4.820 C  
HETATM   23  C   UNL     1     -10.722  12.946  66.110  1.00  0.00    -0.272 C  
HETATM   24  H   UNL     1      -9.837  13.618  67.750  1.00  0.00     0.000 HD 
HETATM   25  O   UNL     1      -9.557  13.169  66.961  1.00  0.00    -0.226 OA 
ENDROOT
BRANCH  23  26
HETATM   26  C   UNL     1     -11.073  14.427  65.978  1.00  0.00    -0.324 C  
HETATM   27  O   UNL     1     -12.148  14.765  65.469  1.00  0.00    -0.264 OA 
HETATM   28  C   UNL     1      -9.982  15.458  66.224  1.00  0.00    -0.288 C  
HETATM   29 CL   UNL     1     -10.173  16.154  67.827  1.00  0.00    -0.261 Cl 
ENDBRANCH  23  26
TORSDOF 1
ENDMDL
MODEL      108
REMARK 921   NORMALIZED FREE ENERGY PREDICTED BY IDOCK:    8.03 KCAL/MOL
REMARK 922        TOTAL FREE ENERGY PREDICTED BY IDOCK:    8.45 KCAL/MOL
REMARK 923 INTER-LIGAND FREE ENERGY PREDICTED BY IDOCK:    8.53 KCAL/MOL
REMARK 924 INTRA-LIGAND FREE ENERGY PREDICTED BY IDOCK:   -0.08 KCAL/MOL
REMARK 927      BINDING AFFINITY PREDICTED BY RF-SCORE:    0.00 PKD
ROOT
HETATM    1  C   UNL     1      -6.896  17.659  67.268  1.00  0.00    -0.185 C  
HETATM    2  C   UNL     1      -6.062  17.074  66.089  1.00  0.00     0.181 C  
HETATM    3  C   UNL     1      -8.106  18.366  66.530  1.00  0.00    -0.291 C  
HETATM    4  C   UNL     1      -9.193  17.305  66.743  1.00  0.00    -0.270 C  
HETATM    5  C   UNL     1     -10.046  16.457  65.721  1.00  0.00    -0.352 C  
HETATM    6  C   UNL     1      -9.089  15.762  64.659  1.00  0.00     3.878 C  
HETATM    7  C   UNL     1      -9.708  14.610  63.881  1.00  0.00     4.490 C  
HETATM    8  C   UNL     1     -10.329  13.563  64.803  1.00  0.00    -0.405 C  
HETATM    9  C   UNL     1     -10.516  12.318  64.323  1.00  0.00    -0.375 C  
HETATM   10  C   UNL     1     -11.684  12.424  63.377  1.00  0.00    -0.472 C  
HETATM   11  O   UNL     1     -11.778  11.679  62.411  1.00  0.00     1.138 OA 
HETATM   12  C   UNL     1     -12.730  13.476  63.702  1.00  0.00     0.099 C  
HETATM   13  C   UNL     1     -12.619  14.293  64.780  1.00  0.00    -0.310 C  
HETATM   14  C   UNL     1     -11.434  14.146  65.727  1.00  0.00    -0.327 C  
HETATM   15  C   UNL     1     -10.698  15.271  66.485  1.00  0.00    -0.311 C  
HETATM   16  C   UNL     1     -11.912  13.123  66.823  1.00  0.00    -0.434 C  
HETATM   17  C   UNL     1     -11.359  15.908  67.702  1.00  0.00    -0.151 C  
HETATM   18  F   UNL     1      -9.629  14.557  67.028  1.00  0.00    -0.218 F  
HETATM   19  C   UNL     1     -10.343  16.161  68.801  1.00  0.00    -0.248 C  
HETATM   20  O   UNL     1     -12.538  16.271  67.739  1.00  0.00     1.464 OA 
HETATM   21  C   UNL     1      -9.201  17.110  68.313  1.00  0.00    -0.262 C  
HETATM   22  C   UNL     1      -9.483  18.441  69.083  1.00  0.00    -0.050 C  
HETATM   23  C   UNL     1      -7.633  16.652  68.359  1.00  0.00    -0.197 C  
HETATM   24  H   UNL     1      -7.949  14.702  68.500  1.00  0.00     0.000 HD 
HETATM   25  O   UNL     1      -7.527  15.279  67.876  1.00  0.00    -0.122 OA 
ENDROOT
BRANCH  23  26
HETATM   26  C   UNL     1      -6.894  16.388  69.669  1.00  0.00    -0.105 C  
HETATM   27  O   UNL     1      -7.411  16.707  70.746  1.00  0.00     2.585 OA 
HETATM   28  C   UNL     1      -5.428  15.989  69.610  1.00  0.00    -0.124 C  
HETATM   29 CL   UNL     1      -5.274  14.254  69.849  1.00  0.00    -0.092 Cl 
ENDBRANCH  23  26
TORSDOF 1
ENDMDL
MODEL      109
REMARK 921   NORMALIZED FREE ENERGY PREDICTED BY IDOCK:    8.48 KCAL/MOL
REMARK 922        TOTAL FREE ENERGY PREDICTED BY IDOCK:    8.93 KCAL/MOL
REMARK 923 INTER-LIGAND FREE ENERGY PREDICTED BY IDOCK:    9.02 KCAL/MOL
REMARK 924 INTRA-LIGAND FREE ENERGY PREDICTED BY IDOCK:   -0.09 KCAL/MOL
REMARK 927      BINDING AFFINITY PREDICTED BY RF-SCORE:    0.00 PKD
ROOT
HETATM    1  C   UNL     1     -10.484  11.546  70.776  1.00  0.00     3.101 C  
HETATM    2  C   UNL     1     -10.802  10.024  70.675  1.00  0.00    -0.367 C  
HETATM    3  C   UNL     1      -8.944  11.612  70.411  1.00  0.00     4.357 C  
HETATM    4  C   UNL     1      -9.045  12.083  68.955  1.00  0.00     0.193 C  
HETATM    5  C   UNL     1      -8.567  11.423  67.604  1.00  0.00    -0.130 C  
HETATM    6  C   UNL     1      -9.084   9.923  67.517  1.00  0.00    -0.145 C  
HETATM    7  C   UNL     1      -9.057   9.304  66.128  1.00  0.00    -0.224 C  
HETATM    8  C   UNL     1      -9.773  10.174  65.097  1.00  0.00    -0.370 C  
HETATM    9  C   UNL     1     -10.212   9.592  63.964  1.00  0.00     1.567 C  
HETATM   10  C   UNL     1      -8.976   9.338  63.140  1.00  0.00    -0.062 C  
HETATM   11  O   UNL     1      -8.926   8.397  62.360  1.00  0.00    -0.019 OA 
HETATM   12  C   UNL     1      -7.827  10.315  63.314  1.00  0.00    -0.139 C  
HETATM   13  C   UNL     1      -7.896  11.361  64.178  1.00  0.00     1.298 C  
HETATM   14  C   UNL     1      -9.168  11.601  64.982  1.00  0.00     0.031 C  
HETATM   15  C   UNL     1      -9.276  12.142  66.423  1.00  0.00    -0.207 C  
HETATM   16  C   UNL     1     -10.040  12.560  64.090  1.00  0.00    -0.311 C  
HETATM   17  C   UNL     1      -9.049  13.628  66.680  1.00  0.00    -0.174 C  
HETATM   18  F   UNL     1     -10.640  11.972  66.660  1.00  0.00    -0.236 F  
HETATM   19  C   UNL     1     -10.039  14.158  67.702  1.00  0.00    -0.236 C  
HETATM   20  O   UNL     1      -8.115  14.280  66.205  1.00  0.00     0.703 OA 
HETATM   21  C   UNL     1      -9.912  13.402  69.064  1.00  0.00     0.152 C  
HETATM   22  C   UNL     1      -9.270  14.467  70.010  1.00  0.00     0.923 C  
HETATM   23  C   UNL     1     -11.184  12.624  69.730  1.00  0.00     0.075 C  
HETATM   24  H   UNL     1     -12.284  12.496  68.087  1.00  0.00     0.000 HD 
HETATM   25  O   UNL     1     -11.882  11.878  68.687  1.00  0.00    -0.306 OA 
ENDROOT
BRANCH  23  26
HETATM   26  C   UNL     1     -12.430  13.360  70.221  1.00  0.00    -0.215 C  
HETATM   27  O   UNL     1     -13.322  12.739  70.810  1.00  0.00     0.236 OA 
HETATM   28  C   UNL     1     -12.671  14.782  69.740  1.00  0.00    -0.026 C  
HETATM   29 CL   UNL     1     -12.213  15.921  70.998  1.00  0.00    -0.443 Cl 
ENDBRANCH  23  26
TORSDOF 1
ENDMDL
MODEL      110
REMARK 921   NORMALIZED FREE ENERGY PREDICTED BY IDOCK:   12.51 KCAL/MOL
REMARK 922        TOTAL FREE ENERGY PREDICTED BY IDOCK:   13.20 KCAL/MOL
REMARK 923 INTER-LIGAND FREE ENERGY PREDICTED BY IDOCK:   13.60 KCAL/MOL
REMARK 924 INTRA-LIGAND FREE ENERGY PREDICTED BY IDOCK:   -0.40 KCAL/MOL
REMARK 927      BINDING AFFINITY PREDICTED BY RF-SCORE:    0.00 PKD
ROOT
HETATM    1  C   UNL     1     -10.461   3.845  69.118  1.00  0.00     1.380 C  
HETATM    2  C   UNL     1     -11.013   3.654  70.562  1.00  0.00     3.168 C  
HETATM    3  C   UNL     1     -11.694   4.470  68.346  1.00  0.00     7.603 C  
HETATM    4  C   UNL     1     -11.268   5.944  68.332  1.00  0.00     0.027 C  
HETATM    5  C   UNL     1     -11.948   7.237  68.928  1.00  0.00     1.422 C  
HETATM    6  C   UNL     1     -12.323   7.001  70.454  1.00  0.00    -0.061 C  
HETATM    7  C   UNL     1     -12.600   8.263  71.259  1.00  0.00    -0.237 C  
HETATM    8  C   UNL     1     -11.467   9.280  71.140  1.00  0.00    -0.403 C  
HETATM    9  C   UNL     1     -11.348  10.219  72.100  1.00  0.00     1.912 C  
HETATM   10  C   UNL     1     -12.474  11.190  71.851  1.00  0.00     0.106 C  
HETATM   11  O   UNL     1     -12.981  11.811  72.775  1.00  0.00     0.557 OA 
HETATM   12  C   UNL     1     -12.917  11.366  70.409  1.00  0.00     0.060 C  
HETATM   13  C   UNL     1     -12.343  10.676  69.390  1.00  0.00    -0.071 C  
HETATM   14  C   UNL     1     -11.194   9.715  69.674  1.00  0.00    -0.176 C  
HETATM   15  C   UNL     1     -10.894   8.379  68.963  1.00  0.00     0.009 C  
HETATM   16  C   UNL     1      -9.890  10.586  69.533  1.00  0.00    -0.170 C  
HETATM   17  C   UNL     1     -10.293   8.397  67.562  1.00  0.00    -0.265 C  
HETATM   18  F   UNL     1      -9.857   7.892  69.759  1.00  0.00    -0.173 F  
HETATM   19  C   UNL     1      -9.236   7.318  67.412  1.00  0.00    -0.140 C  
HETATM   20  O   UNL     1     -10.696   9.119  66.645  1.00  0.00    -0.145 OA 
HETATM   21  C   UNL     1      -9.833   5.897  67.669  1.00  0.00    -0.133 C  
HETATM   22  C   UNL     1      -9.849   5.249  66.246  1.00  0.00    -0.202 C  
HETATM   23  C   UNL     1      -9.228   4.913  68.824  1.00  0.00    -0.119 C  
HETATM   24  H   UNL     1      -8.279   6.307  69.864  1.00  0.00     0.000 HD 
HETATM   25  O   UNL     1      -8.986   5.695  70.032  1.00  0.00    -0.133 OA 
ENDROOT
BRANCH  23  26
HETATM   26  C   UNL     1      -7.814   4.339  68.753  1.00  0.00    -0.073 C  
HETATM   27  O   UNL     1      -6.836   5.088  68.859  1.00  0.00    -0.048 OA 
HETATM   28  C   UNL     1      -7.634   2.903  68.284  1.00  0.00    -0.055 C  
HETATM   29 CL   UNL     1      -7.365   1.855  69.669  1.00  0.00    -0.039 Cl 
ENDBRANCH  23  26
TORSDOF 1
ENDMDL
MODEL      111
REMARK 921   NORMALIZED FREE ENERGY PREDICTED BY IDOCK:   18.54 KCAL/MOL
REMARK 922        TOTAL FREE ENERGY PREDICTED BY IDOCK:   19.58 KCAL/MOL
REMARK 923 INTER-LIGAND FREE ENERGY PREDICTED BY IDOCK:   19.98 KCAL/MOL
REMARK 924 INTRA-LIGAND FREE ENERGY PREDICTED BY IDOCK:   -0.40 KCAL/MOL
REMARK 927      BINDING AFFINITY PREDICTED BY RF-SCORE:    0.00 PKD
ROOT
HETATM    1  C   UNL     1     -10.747  11.704  69.624  1.00  0.00     0.100 C  
HETATM    2  C   UNL     1     -11.276  11.718  68.159  1.00  0.00    -0.320 C  
HETATM    3  C   UNL     1     -11.737  10.704  70.350  1.00  0.00    -0.446 C  
HETATM    4  C   UNL     1     -10.855   9.450  70.387  1.00  0.00    -0.321 C  
HETATM    5  C   UNL     1     -11.053   8.011  69.770  1.00  0.00    -0.067 C  
HETATM    6  C   UNL     1     -11.427   8.125  68.229  1.00  0.00     1.156 C  
HETATM    7  C   UNL     1     -11.246   6.850  67.419  1.00  0.00    -0.217 C  
HETATM    8  C   UNL     1      -9.849   6.257  67.585  1.00  0.00    -0.135 C  
HETATM    9  C   UNL     1      -9.394   5.416  66.635  1.00  0.00    -0.143 C  
HETATM   10  C   UNL     1     -10.151   4.129  66.843  1.00  0.00     0.030 C  
HETATM   11  O   UNL     1     -10.391   3.385  65.903  1.00  0.00     0.416 OA 
HETATM   12  C   UNL     1     -10.566   3.806  68.267  1.00  0.00     1.991 C  
HETATM   13  C   UNL     1     -10.287   4.636  69.305  1.00  0.00     0.100 C  
HETATM   14  C   UNL     1      -9.504   5.921  69.062  1.00  0.00    -0.149 C  
HETATM   15  C   UNL     1      -9.684   7.275  69.779  1.00  0.00    -0.166 C  
HETATM   16  C   UNL     1      -7.994   5.522  69.258  1.00  0.00    -0.095 C  
HETATM   17  C   UNL     1      -9.163   7.441  71.203  1.00  0.00    -0.155 C  
HETATM   18  F   UNL     1      -8.833   8.081  69.022  1.00  0.00    -0.140 F  
HETATM   19  C   UNL     1      -8.522   8.805  71.389  1.00  0.00    -0.245 C  
HETATM   20  O   UNL     1      -9.343   6.620  72.107  1.00  0.00    -0.143 OA 
HETATM   21  C   UNL     1      -9.540   9.956  71.105  1.00  0.00     0.735 C  
HETATM   22  C   UNL     1      -9.820  10.551  72.523  1.00  0.00     9.334 C  
HETATM   23  C   UNL     1      -9.245  11.094  69.970  1.00  0.00     1.557 C  
HETATM   24  H   UNL     1      -7.855  10.095  68.973  1.00  0.00     0.000 HD 
HETATM   25  O   UNL     1      -8.716  10.445  68.775  1.00  0.00    -0.129 OA 
ENDROOT
BRANCH  23  26
HETATM   26  C   UNL     1      -8.099  12.097  70.093  1.00  0.00     3.205 C  
HETATM   27  O   UNL     1      -8.278  13.281  69.785  1.00  0.00     1.250 OA 
HETATM   28  C   UNL     1      -6.693  11.569  70.331  1.00  0.00     0.624 C  
HETATM   29 CL   UNL     1      -6.267  11.757  72.026  1.00  0.00     2.355 Cl 
ENDBRANCH  23  26
TORSDOF 1
ENDMDL
MODEL      112
REMARK 921   NORMALIZED FREE ENERGY PREDICTED BY IDOCK:   19.60 KCAL/MOL
REMARK 922        TOTAL FREE ENERGY PREDICTED BY IDOCK:   20.70 KCAL/MOL
REMARK 923 INTER-LIGAND FREE ENERGY PREDICTED BY IDOCK:   20.93 KCAL/MOL
REMARK 924 INTRA-LIGAND FREE ENERGY PREDICTED BY IDOCK:   -0.23 KCAL/MOL
REMARK 927      BINDING AFFINITY PREDICTED BY RF-SCORE:    0.00 PKD
ROOT
HETATM    1  C   UNL     1     -10.135   4.877  70.433  1.00  0.00    -0.316 C  
HETATM    2  C   UNL     1      -8.701   4.970  71.035  1.00  0.00    -0.141 C  
HETATM    3  C   UNL     1     -10.847   6.170  71.008  1.00  0.00    -0.338 C  
HETATM    4  C   UNL     1     -10.763   7.079  69.774  1.00  0.00    -0.265 C  
HETATM    5  C   UNL     1     -10.069   8.478  69.548  1.00  0.00    -0.200 C  
HETATM    6  C   UNL     1      -8.558   8.423  70.039  1.00  0.00    -0.131 C  
HETATM    7  C   UNL     1      -7.664   9.538  69.519  1.00  0.00    -0.100 C  
HETATM    8  C   UNL     1      -7.725   9.662  67.998  1.00  0.00    -0.086 C  
HETATM    9  C   UNL     1      -6.704  10.272  67.364  1.00  0.00    -0.072 C  
HETATM   10  C   UNL     1      -6.870  11.741  67.661  1.00  0.00    -0.099 C  
HETATM   11  O   UNL     1      -5.898  12.482  67.715  1.00  0.00    -0.088 OA 
HETATM   12  C   UNL     1      -8.290  12.240  67.858  1.00  0.00    -0.163 C  
HETATM   13  C   UNL     1      -9.362  11.410  67.788  1.00  0.00    -0.162 C  
HETATM   14  C   UNL     1      -9.161   9.933  67.468  1.00  0.00    -0.145 C  
HETATM   15  C   UNL     1      -9.967   8.738  68.019  1.00  0.00    -0.182 C  
HETATM   16  C   UNL     1      -9.258   9.838  65.901  1.00  0.00    -0.236 C  
HETATM   17  C   UNL     1     -11.371   8.476  67.485  1.00  0.00     1.114 C  
HETATM   18  F   UNL     1      -9.221   7.672  67.518  1.00  0.00    -0.130 F  
HETATM   19  C   UNL     1     -11.610   6.989  67.297  1.00  0.00     0.787 C  
HETATM   20  O   UNL     1     -12.231   9.350  67.337  1.00  0.00     3.322 OA 
HETATM   21  C   UNL     1     -11.446   6.211  68.642  1.00  0.00     0.123 C  
HETATM   22  C   UNL     1     -12.910   5.798  69.002  1.00  0.00     8.757 C  
HETATM   23  C   UNL     1     -10.370   4.991  68.796  1.00  0.00    -0.039 C  
HETATM   24  H   UNL     1      -9.247   5.452  67.231  1.00  0.00     0.000 HD 
HETATM   25  O   UNL     1      -9.113   5.386  68.169  1.00  0.00    -0.108 OA 
ENDROOT
BRANCH  23  26
HETATM   26  C   UNL     1     -10.498   3.682  68.020  1.00  0.00     1.756 C  
HETATM   27  O   UNL     1     -11.452   2.925  68.237  1.00  0.00     8.393 OA 
HETATM   28  C   UNL     1      -9.313   3.206  67.195  1.00  0.00    -0.165 C  
HETATM   29 CL   UNL     1      -9.590   3.564  65.496  1.00  0.00    -0.156 Cl 
ENDBRANCH  23  26
TORSDOF 1
ENDMDL
MODEL      113
REMARK 921   NORMALIZED FREE ENERGY PREDICTED BY IDOCK:   20.27 KCAL/MOL
REMARK 922        TOTAL FREE ENERGY PREDICTED BY IDOCK:   21.41 KCAL/MOL
REMARK 923 INTER-LIGAND FREE ENERGY PREDICTED BY IDOCK:   21.72 KCAL/MOL
REMARK 924 INTRA-LIGAND FREE ENERGY PREDICTED BY IDOCK:   -0.30 KCAL/MOL
REMARK 927      BINDING AFFINITY PREDICTED BY RF-SCORE:    0.00 PKD
ROOT
HETATM    1  C   UNL     1     -13.519  17.034  68.227  1.00  0.00     6.763 C  
HETATM    2  C   UNL     1     -13.520  18.583  68.385  1.00  0.00    11.384 C  
HETATM    3  C   UNL     1     -13.029  16.829  66.735  1.00  0.00     6.175 C  
HETATM    4  C   UNL     1     -11.563  16.456  66.994  1.00  0.00     0.691 C  
HETATM    5  C   UNL     1     -10.213  17.141  66.549  1.00  0.00    -0.322 C  
HETATM    6  C   UNL     1     -10.244  18.690  66.905  1.00  0.00    -0.423 C  
HETATM    7  C   UNL     1      -8.889  19.383  66.914  1.00  0.00    -0.345 C  
HETATM    8  C   UNL     1      -7.877  18.653  67.795  1.00  0.00    -0.261 C  
HETATM    9  C   UNL     1      -6.813  19.343  68.252  1.00  0.00    -0.309 C  
HETATM   10  C   UNL     1      -5.907  19.515  67.059  1.00  0.00    -0.174 C  
HETATM   11  O   UNL     1      -5.173  20.490  66.966  1.00  0.00    -0.166 OA 
HETATM   12  C   UNL     1      -5.939  18.414  66.014  1.00  0.00    -0.222 C  
HETATM   13  C   UNL     1      -6.752  17.333  66.132  1.00  0.00    -0.204 C  
HETATM   14  C   UNL     1      -7.643  17.181  67.359  1.00  0.00    -0.188 C  
HETATM   15  C   UNL     1      -9.058  16.570  67.418  1.00  0.00    -0.204 C  
HETATM   16  C   UNL     1      -6.776  16.372  68.394  1.00  0.00    -0.141 C  
HETATM   17  C   UNL     1      -9.221  15.056  67.336  1.00  0.00    -0.195 C  
HETATM   18  F   UNL     1      -9.412  16.867  68.734  1.00  0.00    -0.235 F  
HETATM   19  C   UNL     1     -10.291  14.574  68.298  1.00  0.00    -0.236 C  
HETATM   20  O   UNL     1      -8.641  14.339  66.515  1.00  0.00    -0.083 OA 
HETATM   21  C   UNL     1     -11.675  15.231  67.989  1.00  0.00    -0.268 C  
HETATM   22  C   UNL     1     -12.512  14.051  67.398  1.00  0.00     0.035 C  
HETATM   23  C   UNL     1     -12.479  16.098  69.116  1.00  0.00     0.689 C  
HETATM   24  H   UNL     1     -10.938  16.436  70.314  1.00  0.00     0.000 HD 
HETATM   25  O   UNL     1     -11.534  16.972  69.805  1.00  0.00     0.419 OA 
ENDROOT
BRANCH  23  26
HETATM   26  C   UNL     1     -13.031  15.469  70.394  1.00  0.00    -0.206 C  
HETATM   27  O   UNL     1     -14.021  14.730  70.342  1.00  0.00     0.325 OA 
HETATM   28  C   UNL     1     -12.521  15.976  71.734  1.00  0.00    -0.401 C  
HETATM   29 CL   UNL     1     -11.337  14.851  72.384  1.00  0.00    -0.180 Cl 
ENDBRANCH  23  26
TORSDOF 1
ENDMDL
MODEL      114
REMARK 921   NORMALIZED FREE ENERGY PREDICTED BY IDOCK:   21.72 KCAL/MOL
REMARK 922        TOTAL FREE ENERGY PREDICTED BY IDOCK:   22.94 KCAL/MOL
REMARK 923 INTER-LIGAND FREE ENERGY PREDICTED BY IDOCK:   23.28 KCAL/MOL
REMARK 924 INTRA-LIGAND FREE ENERGY PREDICTED BY IDOCK:   -0.33 KCAL/MOL
REMARK 927      BINDING AFFINITY PREDICTED BY RF-SCORE:    0.00 PKD
ROOT
HETATM    1  C   UNL     1     -13.064  14.791  68.497  1.00  0.00     2.167 C  
HETATM    2  C   UNL     1     -12.458  14.203  69.806  1.00  0.00    -0.266 C  
HETATM    3  C   UNL     1     -13.302  16.313  68.869  1.00  0.00     3.829 C  
HETATM    4  C   UNL     1     -12.084  16.940  68.177  1.00  0.00     1.376 C  
HETATM    5  C   UNL     1     -10.869  17.771  68.745  1.00  0.00     0.170 C  
HETATM    6  C   UNL     1     -10.212  17.006  69.974  1.00  0.00     0.401 C  
HETATM    7  C   UNL     1      -8.812  17.466  70.354  1.00  0.00     3.537 C  
HETATM    8  C   UNL     1      -7.863  17.466  69.157  1.00  0.00    -0.024 C  
HETATM    9  C   UNL     1      -6.537  17.419  69.394  1.00  0.00    -0.213 C  
HETATM   10  C   UNL     1      -6.171  18.790  69.901  1.00  0.00    -0.168 C  
HETATM   11  O   UNL     1      -5.241  18.942  70.681  1.00  0.00    -0.206 OA 
HETATM   12  C   UNL     1      -6.993  19.953  69.375  1.00  0.00    -0.295 C  
HETATM   13  C   UNL     1      -8.019  19.774  68.503  1.00  0.00    -0.293 C  
HETATM   14  C   UNL     1      -8.351  18.375  67.996  1.00  0.00    -0.287 C  
HETATM   15  C   UNL     1      -9.747  17.806  67.670  1.00  0.00    -0.282 C  
HETATM   16  C   UNL     1      -7.493  18.202  66.688  1.00  0.00    -0.254 C  
HETATM   17  C   UNL     1     -10.450  18.241  66.388  1.00  0.00    -0.366 C  
HETATM   18  F   UNL     1      -9.429  16.468  67.432  1.00  0.00    -0.220 F  
HETATM   19  C   UNL     1     -11.154  17.067  65.732  1.00  0.00     0.272 C  
HETATM   20  O   UNL     1     -10.528  19.411  66.003  1.00  0.00    -0.473 OA 
HETATM   21  C   UNL     1     -12.221  16.437  66.684  1.00  0.00     2.356 C  
HETATM   22  C   UNL     1     -13.579  16.853  66.031  1.00  0.00    10.616 C  
HETATM   23  C   UNL     1     -12.160  14.861  67.109  1.00  0.00     0.016 C  
HETATM   24  H   UNL     1     -10.262  14.549  66.635  1.00  0.00     0.000 HD 
HETATM   25  O   UNL     1     -10.780  14.509  67.430  1.00  0.00    -0.274 OA 
ENDROOT
BRANCH  23  26
HETATM   26  C   UNL     1     -12.352  13.731  66.099  1.00  0.00    -0.452 C  
HETATM   27  O   UNL     1     -12.168  13.941  64.894  1.00  0.00    -0.387 OA 
HETATM   28  C   UNL     1     -13.024  12.447  66.562  1.00  0.00     2.683 C  
HETATM   29 CL   UNL     1     -11.810  11.208  66.842  1.00  0.00     0.313 Cl 
ENDBRANCH  23  26
TORSDOF 1
ENDMDL
MODEL      115
REMARK 921   NORMALIZED FREE ENERGY PREDICTED BY IDOCK:   21.72 KCAL/MOL
REMARK 922        TOTAL FREE ENERGY PREDICTED BY IDOCK:   22.95 KCAL/MOL
REMARK 923 INTER-LIGAND FREE ENERGY PREDICTED BY IDOCK:   23.13 KCAL/MOL
REMARK 924 INTRA-LIGAND FREE ENERGY PREDICTED BY IDOCK:   -0.18 KCAL/MOL
REMARK 927      BINDING AFFINITY PREDICTED BY RF-SCORE:    0.00 PKD
ROOT
HETATM    1  C   UNL     1      -9.694  17.947  71.325  1.00  0.00     5.616 C  
HETATM    2  C   UNL     1     -10.811  16.971  71.802  1.00  0.00     1.847 C  
HETATM    3  C   UNL     1      -8.586  16.968  70.757  1.00  0.00     5.123 C  
HETATM    4  C   UNL     1      -8.867  17.105  69.255  1.00  0.00     0.144 C  
HETATM    5  C   UNL     1      -9.291  16.044  68.166  1.00  0.00    -0.200 C  
HETATM    6  C   UNL     1     -10.545  15.211  68.677  1.00  0.00    -0.234 C  
HETATM    7  C   UNL     1     -11.307  14.455  67.599  1.00  0.00    -0.348 C  
HETATM    8  C   UNL     1     -11.707  15.361  66.436  1.00  0.00     0.208 C  
HETATM    9  C   UNL     1     -12.727  14.973  65.645  1.00  0.00     0.493 C  
HETATM   10  C   UNL     1     -12.176  13.850  64.803  1.00  0.00    -0.415 C  
HETATM   11  O   UNL     1     -12.904  12.954  64.400  1.00  0.00    -0.696 OA 
HETATM   12  C   UNL     1     -10.695  13.911  64.471  1.00  0.00    -0.382 C  
HETATM   13  C   UNL     1      -9.897  14.914  64.919  1.00  0.00     0.078 C  
HETATM   14  C   UNL     1     -10.491  16.044  65.752  1.00  0.00    -0.391 C  
HETATM   15  C   UNL     1      -9.817  16.801  66.915  1.00  0.00    -0.266 C  
HETATM   16  C   UNL     1     -10.918  17.140  64.707  1.00  0.00     0.364 C  
HETATM   17  C   UNL     1      -8.741  17.837  66.607  1.00  0.00    -0.261 C  
HETATM   18  F   UNL     1     -10.887  17.567  67.377  1.00  0.00    -0.346 F  
HETATM   19  C   UNL     1      -8.887  19.053  67.504  1.00  0.00    -0.316 C  
HETATM   20  O   UNL     1      -7.812  17.657  65.815  1.00  0.00    -0.548 OA 
HETATM   21  C   UNL     1      -8.773  18.665  69.013  1.00  0.00    -0.102 C  
HETATM   22  C   UNL     1      -7.390  19.257  69.435  1.00  0.00    -0.213 C  
HETATM   23  C   UNL     1      -9.972  18.997  70.072  1.00  0.00     0.846 C  
HETATM   24  H   UNL     1     -11.413  19.264  68.739  1.00  0.00     0.000 HD 
HETATM   25  O   UNL     1     -11.253  18.663  69.457  1.00  0.00     2.027 OA 
ENDROOT
BRANCH  23  26
HETATM   26  C   UNL     1     -10.371  20.425  70.439  1.00  0.00     1.285 C  
HETATM   27  O   UNL     1     -11.367  20.941  69.921  1.00  0.00     1.358 OA 
HETATM   28  C   UNL     1      -9.385  21.276  71.225  1.00  0.00     3.591 C  
HETATM   29 CL   UNL     1      -9.861  21.328  72.916  1.00  0.00     4.869 Cl 
ENDBRANCH  23  26
TORSDOF 1
ENDMDL
MODEL      116
REMARK 921   NORMALIZED FREE ENERGY PREDICTED BY IDOCK:   24.91 KCAL/MOL
REMARK 922        TOTAL FREE ENERGY PREDICTED BY IDOCK:   26.32 KCAL/MOL
REMARK 923 INTER-LIGAND FREE ENERGY PREDICTED BY IDOCK:   26.33 KCAL/MOL
REMARK 924 INTRA-LIGAND FREE ENERGY PREDICTED BY IDOCK:   -0.00 KCAL/MOL
REMARK 927      BINDING AFFINITY PREDICTED BY RF-SCORE:    0.00 PKD
ROOT
HETATM    1  C   UNL     1     -12.105  17.569  69.103  1.00  0.00     3.713 C  
HETATM    2  C   UNL     1     -12.497  18.002  67.659  1.00  0.00     4.713 C  
HETATM    3  C   UNL     1     -13.009  16.292  69.349  1.00  0.00     2.044 C  
HETATM    4  C   UNL     1     -11.968  15.190  69.108  1.00  0.00    -0.304 C  
HETATM    5  C   UNL     1     -11.908  14.017  68.055  1.00  0.00    -0.403 C  
HETATM    6  C   UNL     1     -12.153  14.586  66.591  1.00  0.00    -0.319 C  
HETATM    7  C   UNL     1     -11.725  13.667  65.455  1.00  0.00    -0.352 C  
HETATM    8  C   UNL     1     -10.280  13.199  65.609  1.00  0.00    -0.294 C  
HETATM    9  C   UNL     1      -9.629  12.763  64.512  1.00  0.00     0.253 C  
HETATM   10  C   UNL     1     -10.215  11.408  64.211  1.00  0.00    -0.315 C  
HETATM   11  O   UNL     1     -10.264  10.988  63.063  1.00  0.00    -0.305 OA 
HETATM   12  C   UNL     1     -10.708  10.599  65.398  1.00  0.00    -0.106 C  
HETATM   13  C   UNL     1     -10.642  11.072  66.670  1.00  0.00    -0.315 C  
HETATM   14  C   UNL     1     -10.026  12.440  66.941  1.00  0.00    -0.223 C  
HETATM   15  C   UNL     1     -10.456  13.463  68.013  1.00  0.00    -0.239 C  
HETATM   16  C   UNL     1      -8.499  12.156  67.197  1.00  0.00    -0.182 C  
HETATM   17  C   UNL     1     -10.094  13.211  69.473  1.00  0.00     0.888 C  
HETATM   18  F   UNL     1      -9.660  14.553  67.661  1.00  0.00    -0.204 F  
HETATM   19  C   UNL     1      -9.668  14.499  70.155  1.00  0.00     0.878 C  
HETATM   20  O   UNL     1     -10.239  12.128  70.046  1.00  0.00     1.261 OA 
HETATM   21  C   UNL     1     -10.806  15.569  70.112  1.00  0.00    -0.346 C  
HETATM   22  C   UNL     1     -11.292  15.640  71.596  1.00  0.00    -0.446 C  
HETATM   23  C   UNL     1     -10.571  17.037  69.435  1.00  0.00    -0.236 C  
HETATM   24  H   UNL     1      -8.972  16.564  68.366  1.00  0.00     0.000 HD 
HETATM   25  O   UNL     1      -9.851  16.868  68.176  1.00  0.00    -0.248 OA 
ENDROOT
BRANCH  23  26
HETATM   26  C   UNL     1      -9.591  18.058  70.010  1.00  0.00     1.410 C  
HETATM   27  O   UNL     1      -9.234  19.026  69.328  1.00  0.00    -0.164 OA 
HETATM   28  C   UNL     1      -8.867  17.722  71.305  1.00  0.00     8.664 C  
HETATM   29 CL   UNL     1      -9.629  18.563  72.648  1.00  0.00     7.504 Cl 
ENDBRANCH  23  26
TORSDOF 1
ENDMDL
MODEL      117
REMARK 921   NORMALIZED FREE ENERGY PREDICTED BY IDOCK:   28.81 KCAL/MOL
REMARK 922        TOTAL FREE ENERGY PREDICTED BY IDOCK:   30.45 KCAL/MOL
REMARK 923 INTER-LIGAND FREE ENERGY PREDICTED BY IDOCK:   30.90 KCAL/MOL
REMARK 924 INTRA-LIGAND FREE ENERGY PREDICTED BY IDOCK:   -0.45 KCAL/MOL
REMARK 927      BINDING AFFINITY PREDICTED BY RF-SCORE:    0.00 PKD
ROOT
HETATM    1  C   UNL     1      -5.427   8.831  69.448  1.00  0.00    -0.035 C  
HETATM    2  C   UNL     1      -5.595   8.445  70.948  1.00  0.00    -0.032 C  
HETATM    3  C   UNL     1      -5.159   7.435  68.749  1.00  0.00    -0.018 C  
HETATM    4  C   UNL     1      -6.553   7.167  68.167  1.00  0.00    -0.049 C  
HETATM    5  C   UNL     1      -7.584   5.998  68.411  1.00  0.00    -0.091 C  
HETATM    6  C   UNL     1      -7.816   5.792  69.970  1.00  0.00    -0.091 C  
HETATM    7  C   UNL     1      -9.061   5.001  70.344  1.00  0.00    -0.172 C  
HETATM    8  C   UNL     1     -10.319   5.567  69.688  1.00  0.00    -0.359 C  
HETATM    9  C   UNL     1     -11.514   5.277  70.240  1.00  0.00     1.390 C  
HETATM   10  C   UNL     1     -11.776   3.834  69.892  1.00  0.00    10.087 C  
HETATM   11  O   UNL     1     -12.441   3.122  70.631  1.00  0.00    13.065 OA 
HETATM   12  C   UNL     1     -11.197   3.334  68.580  1.00  0.00     7.722 C  
HETATM   13  C   UNL     1     -10.466   4.135  67.763  1.00  0.00     0.772 C  
HETATM   14  C   UNL     1     -10.235   5.595  68.137  1.00  0.00    -0.236 C  
HETATM   15  C   UNL     1      -8.972   6.440  67.871  1.00  0.00    -0.114 C  
HETATM   16  C   UNL     1     -11.431   6.378  67.478  1.00  0.00     0.201 C  
HETATM   17  C   UNL     1      -8.697   6.947  66.459  1.00  0.00    -0.133 C  
HETATM   18  F   UNL     1      -9.285   7.600  68.581  1.00  0.00    -0.141 F  
HETATM   19  C   UNL     1      -8.166   8.369  66.488  1.00  0.00    -0.105 C  
HETATM   20  O   UNL     1      -8.788   6.252  65.443  1.00  0.00    -0.104 OA 
HETATM   21  C   UNL     1      -6.839   8.464  67.308  1.00  0.00    -0.070 C  
HETATM   22  C   UNL     1      -5.752   8.711  66.211  1.00  0.00    -0.043 C  
HETATM   23  C   UNL     1      -6.701   9.462  68.594  1.00  0.00    -0.053 C  
HETATM   24  H   UNL     1      -8.639   9.717  68.919  1.00  0.00     0.000 HD 
HETATM   25  O   UNL     1      -7.909   9.355  69.407  1.00  0.00    -0.078 OA 
ENDROOT
BRANCH  23  26
HETATM   26  C   UNL     1      -6.764  10.982  68.463  1.00  0.00    -0.061 C  
HETATM   27  O   UNL     1      -5.722  11.647  68.461  1.00  0.00    -0.046 OA 
HETATM   28  C   UNL     1      -8.113  11.670  68.612  1.00  0.00    -0.121 C  
HETATM   29 CL   UNL     1      -8.744  12.089  67.026  1.00  0.00    -0.182 Cl 
ENDBRANCH  23  26
TORSDOF 1
ENDMDL
MODEL      118
REMARK 921   NORMALIZED FREE ENERGY PREDICTED BY IDOCK:   29.75 KCAL/MOL
REMARK 922        TOTAL FREE ENERGY PREDICTED BY IDOCK:   31.45 KCAL/MOL
REMARK 923 INTER-LIGAND FREE ENERGY PREDICTED BY IDOCK:   31.79 KCAL/MOL
REMARK 924 INTRA-LIGAND FREE ENERGY PREDICTED BY IDOCK:   -0.35 KCAL/MOL
REMARK 927      BINDING AFFINITY PREDICTED BY RF-SCORE:    0.00 PKD
ROOT
HETATM    1  C   UNL     1      -8.793  13.990  64.727  1.00  0.00     3.687 C  
HETATM    2  C   UNL     1      -7.377  14.601  64.951  1.00  0.00    13.062 C  
HETATM    3  C   UNL     1      -8.506  12.432  64.693  1.00  0.00     2.400 C  
HETATM    4  C   UNL     1      -8.949  12.058  66.114  1.00  0.00    -0.079 C  
HETATM    5  C   UNL     1      -8.163  11.415  67.321  1.00  0.00    -0.150 C  
HETATM    6  C   UNL     1      -6.813  12.213  67.580  1.00  0.00    -0.127 C  
HETATM    7  C   UNL     1      -6.166  11.976  68.937  1.00  0.00    -0.072 C  
HETATM    8  C   UNL     1      -7.146  12.201  70.087  1.00  0.00     1.123 C  
HETATM    9  C   UNL     1      -6.645  12.460  71.311  1.00  0.00     2.769 C  
HETATM   10  C   UNL     1      -6.101  11.144  71.807  1.00  0.00     1.436 C  
HETATM   11  O   UNL     1      -5.151  11.110  72.578  1.00  0.00    -0.323 OA 
HETATM   12  C   UNL     1      -6.804   9.889  71.322  1.00  0.00     0.354 C  
HETATM   13  C   UNL     1      -7.862   9.939  70.472  1.00  0.00     0.046 C  
HETATM   14  C   UNL     1      -8.399  11.287  70.004  1.00  0.00     1.636 C  
HETATM   15  C   UNL     1      -8.990  11.629  68.620  1.00  0.00    -0.084 C  
HETATM   16  C   UNL     1      -9.503  11.673  71.057  1.00  0.00     8.021 C  
HETATM   17  C   UNL     1     -10.395  11.151  68.270  1.00  0.00    -0.180 C  
HETATM   18  F   UNL     1      -9.132  13.012  68.737  1.00  0.00    -0.123 F  
HETATM   19  C   UNL     1     -11.158  12.223  67.513  1.00  0.00    -0.326 C  
HETATM   20  O   UNL     1     -10.810  10.007  68.476  1.00  0.00    -0.224 OA 
HETATM   21  C   UNL     1     -10.429  12.611  66.186  1.00  0.00    -0.278 C  
HETATM   22  C   UNL     1     -11.351  12.007  65.077  1.00  0.00    -0.365 C  
HETATM   23  C   UNL     1      -9.970  14.149  65.883  1.00  0.00    -0.311 C  
HETATM   24  H   UNL     1     -10.045  14.803  67.751  1.00  0.00     0.000 HD 
HETATM   25  O   UNL     1      -9.370  14.711  67.089  1.00  0.00    -0.207 OA 
ENDROOT
BRANCH  23  26
HETATM   26  C   UNL     1     -10.977  15.283  65.696  1.00  0.00    -0.344 C  
HETATM   27  O   UNL     1     -12.112  15.188  66.177  1.00  0.00     0.045 OA 
HETATM   28  C   UNL     1     -10.655  16.385  64.697  1.00  0.00     0.305 C  
HETATM   29 CL   UNL     1     -10.084  17.812  65.549  1.00  0.00     0.101 Cl 
ENDBRANCH  23  26
TORSDOF 1
ENDMDL
MODEL      119
REMARK 921   NORMALIZED FREE ENERGY PREDICTED BY IDOCK:   30.02 KCAL/MOL
REMARK 922        TOTAL FREE ENERGY PREDICTED BY IDOCK:   31.73 KCAL/MOL
REMARK 923 INTER-LIGAND FREE ENERGY PREDICTED BY IDOCK:   32.05 KCAL/MOL
REMARK 924 INTRA-LIGAND FREE ENERGY PREDICTED BY IDOCK:   -0.31 KCAL/MOL
REMARK 927      BINDING AFFINITY PREDICTED BY RF-SCORE:    0.00 PKD
ROOT
HETATM    1  C   UNL     1      -9.540  15.482  68.674  1.00  0.00    -0.203 C  
HETATM    2  C   UNL     1     -10.694  16.112  67.839  1.00  0.00    -0.321 C  
HETATM    3  C   UNL     1     -10.250  14.267  69.401  1.00  0.00     0.061 C  
HETATM    4  C   UNL     1      -9.769  13.116  68.509  1.00  0.00    -0.138 C  
HETATM    5  C   UNL     1     -10.558  12.072  67.627  1.00  0.00    -0.239 C  
HETATM    6  C   UNL     1     -11.595  12.827  66.688  1.00  0.00    -0.430 C  
HETATM    7  C   UNL     1     -12.122  12.013  65.514  1.00  0.00    -0.067 C  
HETATM    8  C   UNL     1     -10.993  11.407  64.683  1.00  0.00    -0.324 C  
HETATM    9  C   UNL     1     -11.258  11.047  63.412  1.00  0.00     0.315 C  
HETATM   10  C   UNL     1     -12.086   9.792  63.515  1.00  0.00     9.656 C  
HETATM   11  O   UNL     1     -12.912   9.514  62.657  1.00  0.00     9.243 OA 
HETATM   12  C   UNL     1     -11.819   8.896  64.712  1.00  0.00    12.946 C  
HETATM   13  C   UNL     1     -10.894   9.211  65.655  1.00  0.00     2.113 C  
HETATM   14  C   UNL     1     -10.061  10.479  65.511  1.00  0.00    -0.349 C  
HETATM   15  C   UNL     1      -9.562  11.403  66.640  1.00  0.00    -0.191 C  
HETATM   16  C   UNL     1      -8.780  10.036  64.711  1.00  0.00    -0.206 C  
HETATM   17  C   UNL     1      -8.394  10.953  67.512  1.00  0.00    -0.117 C  
HETATM   18  F   UNL     1      -9.028  12.454  65.894  1.00  0.00    -0.132 F  
HETATM   19  C   UNL     1      -7.455  12.110  67.800  1.00  0.00    -0.122 C  
HETATM   20  O   UNL     1      -8.293   9.826  68.006  1.00  0.00    -0.110 OA 
HETATM   21  C   UNL     1      -8.195  13.273  68.538  1.00  0.00    -0.084 C  
HETATM   22  C   UNL     1      -7.611  13.212  69.986  1.00  0.00     1.679 C  
HETATM   23  C   UNL     1      -8.239  14.784  67.918  1.00  0.00    -0.150 C  
HETATM   24  H   UNL     1      -7.772  14.301  66.055  1.00  0.00     0.000 HD 
HETATM   25  O   UNL     1      -8.517  14.701  66.488  1.00  0.00    -0.111 OA 
ENDROOT
BRANCH  23  26
HETATM   26  C   UNL     1      -6.986  15.642  67.759  1.00  0.00    -0.158 C  
HETATM   27  O   UNL     1      -6.281  15.527  66.750  1.00  0.00    -0.082 OA 
HETATM   28  C   UNL     1      -6.481  16.423  68.963  1.00  0.00    -0.171 C  
HETATM   29 CL   UNL     1      -6.950  18.111  68.815  1.00  0.00    -0.265 Cl 
ENDBRANCH  23  26
TORSDOF 1
ENDMDL
MODEL      120
REMARK 921   NORMALIZED FREE ENERGY PREDICTED BY IDOCK:   31.73 KCAL/MOL
REMARK 922        TOTAL FREE ENERGY PREDICTED BY IDOCK:   33.54 KCAL/MOL
REMARK 923 INTER-LIGAND FREE ENERGY PREDICTED BY IDOCK:   33.78 KCAL/MOL
REMARK 924 INTRA-LIGAND FREE ENERGY PREDICTED BY IDOCK:   -0.24 KCAL/MOL
REMARK 927      BINDING AFFINITY PREDICTED BY RF-SCORE:    0.00 PKD
ROOT
HETATM    1  C   UNL     1      -9.330   5.522  66.977  1.00  0.00    -0.118 C  
HETATM    2  C   UNL     1      -8.003   5.922  66.266  1.00  0.00    -0.102 C  
HETATM    3  C   UNL     1      -8.868   5.250  68.467  1.00  0.00    -0.102 C  
HETATM    4  C   UNL     1      -9.319   6.563  69.120  1.00  0.00    -0.133 C  
HETATM    5  C   UNL     1      -8.512   7.692  69.871  1.00  0.00    -0.137 C  
HETATM    6  C   UNL     1      -7.271   8.153  68.990  1.00  0.00    -0.074 C  
HETATM    7  C   UNL     1      -6.654   9.487  69.383  1.00  0.00    -0.044 C  
HETATM    8  C   UNL     1      -7.696  10.601  69.460  1.00  0.00    -0.113 C  
HETATM    9  C   UNL     1      -7.275  11.878  69.361  1.00  0.00     0.114 C  
HETATM   10  C   UNL     1      -6.604  12.182  70.676  1.00  0.00     1.194 C  
HETATM   11  O   UNL     1      -5.687  12.989  70.739  1.00  0.00    -0.185 OA 
HETATM   12  C   UNL     1      -7.141  11.459  71.898  1.00  0.00     6.355 C  
HETATM   13  C   UNL     1      -8.165  10.570  71.818  1.00  0.00     5.826 C  
HETATM   14  C   UNL     1      -8.833  10.299  70.475  1.00  0.00     0.891 C  
HETATM   15  C   UNL     1      -9.406   8.959  69.968  1.00  0.00    -0.174 C  
HETATM   16  C   UNL     1     -10.013  11.337  70.390  1.00  0.00     2.227 C  
HETATM   17  C   UNL     1     -10.733   8.457  70.526  1.00  0.00    -0.227 C  
HETATM   18  F   UNL     1      -9.709   9.292  68.648  1.00  0.00    -0.144 F  
HETATM   19  C   UNL     1     -11.584   7.843  69.428  1.00  0.00     0.644 C  
HETATM   20  O   UNL     1     -11.023   8.450  71.726  1.00  0.00    -0.252 OA 
HETATM   21  C   UNL     1     -10.854   6.641  68.747  1.00  0.00    -0.321 C  
HETATM   22  C   UNL     1     -11.658   5.398  69.249  1.00  0.00     2.174 C  
HETATM   23  C   UNL     1     -10.562   6.620  67.140  1.00  0.00    -0.331 C  
HETATM   24  H   UNL     1     -10.781   8.563  66.823  1.00  0.00     0.000 HD 
HETATM   25  O   UNL     1     -10.076   7.934  66.730  1.00  0.00    -0.254 OA 
ENDROOT
BRANCH  23  26
HETATM   26  C   UNL     1     -11.683   6.565  66.104  1.00  0.00     2.842 C  
HETATM   27  O   UNL     1     -12.113   7.610  65.602  1.00  0.00     7.698 OA 
HETATM   28  C   UNL     1     -12.430   5.254  65.909  1.00  0.00     5.215 C  
HETATM   29 CL   UNL     1     -11.843   4.444  64.464  1.00  0.00     1.312 Cl 
ENDBRANCH  23  26
TORSDOF 1
ENDMDL
MODEL      121
REMARK 921   NORMALIZED FREE ENERGY PREDICTED BY IDOCK:   33.97 KCAL/MOL
REMARK 922        TOTAL FREE ENERGY PREDICTED BY IDOCK:   35.91 KCAL/MOL
REMARK 923 INTER-LIGAND FREE ENERGY PREDICTED BY IDOCK:   35.99 KCAL/MOL
REMARK 924 INTRA-LIGAND FREE ENERGY PREDICTED BY IDOCK:   -0.07 KCAL/MOL
REMARK 927      BINDING AFFINITY PREDICTED BY RF-SCORE:    0.00 PKD
ROOT
HETATM    1  C   UNL     1      -9.235  13.240  70.762  1.00  0.00     7.392 C  
HETATM    2  C   UNL     1      -8.810  12.065  69.833  1.00  0.00     2.601 C  
HETATM    3  C   UNL     1      -8.609  14.505  70.045  1.00  0.00     0.921 C  
HETATM    4  C   UNL     1      -9.863  15.056  69.353  1.00  0.00    -0.170 C  
HETATM    5  C   UNL     1     -10.200  15.297  67.831  1.00  0.00    -0.235 C  
HETATM    6  C   UNL     1      -9.890  13.984  66.990  1.00  0.00    -0.260 C  
HETATM    7  C   UNL     1     -10.537  13.925  65.613  1.00  0.00    -0.306 C  
HETATM    8  C   UNL     1     -12.042  14.175  65.674  1.00  0.00    -0.425 C  
HETATM    9  C   UNL     1     -12.805  13.737  64.654  1.00  0.00    -0.059 C  
HETATM   10  C   UNL     1     -12.523  14.677  63.510  1.00  0.00     0.764 C  
HETATM   11  O   UNL     1     -12.600  14.294  62.351  1.00  0.00     0.927 OA 
HETATM   12  C   UNL     1     -12.169  16.108  63.876  1.00  0.00     1.004 C  
HETATM   13  C   UNL     1     -12.094  16.524  65.166  1.00  0.00     1.737 C  
HETATM   14  C   UNL     1     -12.403  15.552  66.298  1.00  0.00     1.163 C  
HETATM   15  C   UNL     1     -11.735  15.491  67.688  1.00  0.00    -0.045 C  
HETATM   16  C   UNL     1     -13.946  15.712  66.563  1.00  0.00     7.010 C  
HETATM   17  C   UNL     1     -12.093  16.541  68.734  1.00  0.00     0.672 C  
HETATM   18  F   UNL     1     -12.299  14.319  68.192  1.00  0.00    -0.343 F  
HETATM   19  C   UNL     1     -12.220  15.912  70.110  1.00  0.00    -0.244 C  
HETATM   20  O   UNL     1     -12.158  17.752  68.507  1.00  0.00     1.953 OA 
HETATM   21  C   UNL     1     -10.887  15.222  70.547  1.00  0.00    -0.287 C  
HETATM   22  C   UNL     1     -10.348  16.160  71.676  1.00  0.00     2.154 C  
HETATM   23  C   UNL     1     -10.835  13.638  70.938  1.00  0.00     2.305 C  
HETATM   24  H   UNL     1     -12.532  13.110  70.063  1.00  0.00     0.000 HD 
HETATM   25  O   UNL     1     -11.616  12.883  69.962  1.00  0.00    -0.231 OA 
ENDROOT
BRANCH  23  26
HETATM   26  C   UNL     1     -11.562  13.069  72.155  1.00  0.00     3.529 C  
HETATM   27  O   UNL     1     -11.435  11.875  72.450  1.00  0.00     4.526 OA 
HETATM   28  C   UNL     1     -12.638  13.914  72.820  1.00  0.00    -0.017 C  
HETATM   29 CL   UNL     1     -11.995  14.656  74.278  1.00  0.00    -0.049 Cl 
ENDBRANCH  23  26
TORSDOF 1
ENDMDL
MODEL      122
REMARK 921   NORMALIZED FREE ENERGY PREDICTED BY IDOCK:   36.54 KCAL/MOL
REMARK 922        TOTAL FREE ENERGY PREDICTED BY IDOCK:   38.63 KCAL/MOL
REMARK 923 INTER-LIGAND FREE ENERGY PREDICTED BY IDOCK:   39.07 KCAL/MOL
REMARK 924 INTRA-LIGAND FREE ENERGY PREDICTED BY IDOCK:   -0.44 KCAL/MOL
REMARK 927      BINDING AFFINITY PREDICTED BY RF-SCORE:    0.00 PKD
ROOT
HETATM    1  C   UNL     1     -11.098   4.620  66.141  1.00  0.00     0.656 C  
HETATM    2  C   UNL     1     -11.168   5.048  64.645  1.00  0.00     1.288 C  
HETATM    3  C   UNL     1      -9.579   4.213  66.324  1.00  0.00    -0.209 C  
HETATM    4  C   UNL     1      -9.055   5.476  67.020  1.00  0.00    -0.112 C  
HETATM    5  C   UNL     1      -7.945   6.518  66.606  1.00  0.00    -0.109 C  
HETATM    6  C   UNL     1      -8.199   7.022  65.120  1.00  0.00    -0.113 C  
HETATM    7  C   UNL     1      -7.475   8.304  64.735  1.00  0.00    -0.093 C  
HETATM    8  C   UNL     1      -7.733   9.431  65.732  1.00  0.00    -0.099 C  
HETATM    9  C   UNL     1      -7.541  10.702  65.324  1.00  0.00    -0.006 C  
HETATM   10  C   UNL     1      -6.045  10.877  65.253  1.00  0.00     0.086 C  
HETATM   11  O   UNL     1      -5.543  11.654  64.452  1.00  0.00     0.986 OA 
HETATM   12  C   UNL     1      -5.217  10.066  66.233  1.00  0.00    -0.043 C  
HETATM   13  C   UNL     1      -5.785   9.211  67.122  1.00  0.00    -0.045 C  
HETATM   14  C   UNL     1      -7.302   9.071  67.180  1.00  0.00    -0.087 C  
HETATM   15  C   UNL     1      -8.112   7.793  67.478  1.00  0.00    -0.124 C  
HETATM   16  C   UNL     1      -7.770  10.140  68.236  1.00  0.00    -0.088 C  
HETATM   17  C   UNL     1      -8.191   7.276  68.911  1.00  0.00    -0.125 C  
HETATM   18  F   UNL     1      -9.407   8.244  67.220  1.00  0.00    -0.144 F  
HETATM   19  C   UNL     1      -9.589   6.778  69.230  1.00  0.00    -0.144 C  
HETATM   20  O   UNL     1      -7.219   7.174  69.665  1.00  0.00    -0.072 OA 
HETATM   21  C   UNL     1     -10.015   5.621  68.270  1.00  0.00    -0.197 C  
HETATM   22  C   UNL     1      -9.995   4.359  69.192  1.00  0.00    -0.117 C  
HETATM   23  C   UNL     1     -11.357   5.729  67.346  1.00  0.00     0.706 C  
HETATM   24  H   UNL     1     -11.566   7.697  67.443  1.00  0.00     0.000 HD 
HETATM   25  O   UNL     1     -11.418   7.061  66.753  1.00  0.00     0.099 OA 
ENDROOT
BRANCH  23  26
HETATM   26  C   UNL     1     -12.762   5.789  67.945  1.00  0.00    10.108 C  
HETATM   27  O   UNL     1     -13.633   5.002  67.557  1.00  0.00    18.241 OA 
HETATM   28  C   UNL     1     -13.135   6.985  68.807  1.00  0.00     8.079 C  
HETATM   29 CL   UNL     1     -13.060   6.540  70.506  1.00  0.00     0.753 Cl 
ENDBRANCH  23  26
TORSDOF 1
ENDMDL
MODEL      123
REMARK 921   NORMALIZED FREE ENERGY PREDICTED BY IDOCK:   51.54 KCAL/MOL
REMARK 922        TOTAL FREE ENERGY PREDICTED BY IDOCK:   54.51 KCAL/MOL
REMARK 923 INTER-LIGAND FREE ENERGY PREDICTED BY IDOCK:   54.90 KCAL/MOL
REMARK 924 INTRA-LIGAND FREE ENERGY PREDICTED BY IDOCK:   -0.38 KCAL/MOL
REMARK 927      BINDING AFFINITY PREDICTED BY RF-SCORE:    0.00 PKD
ROOT
HETATM    1  C   UNL     1     -12.981  12.331  71.699  1.00  0.00    -0.416 C  
HETATM    2  C   UNL     1     -13.071  13.668  70.905  1.00  0.00    -0.184 C  
HETATM    3  C   UNL     1     -13.765  11.314  70.772  1.00  0.00     1.416 C  
HETATM    4  C   UNL     1     -12.578  10.600  70.112  1.00  0.00    -0.283 C  
HETATM    5  C   UNL     1     -12.140  10.472  68.601  1.00  0.00     0.258 C  
HETATM    6  C   UNL     1     -12.100  11.909  67.922  1.00  0.00     0.019 C  
HETATM    7  C   UNL     1     -11.317  11.992  66.620  1.00  0.00    -0.399 C  
HETATM    8  C   UNL     1      -9.904  11.431  66.763  1.00  0.00    -0.232 C  
HETATM    9  C   UNL     1      -8.969  11.817  65.872  1.00  0.00    -0.060 C  
HETATM   10  C   UNL     1      -9.310  11.094  64.595  1.00  0.00    -0.175 C  
HETATM   11  O   UNL     1      -9.042  11.584  63.507  1.00  0.00    -0.083 OA 
HETATM   12  C   UNL     1      -9.972   9.734  64.737  1.00  0.00     0.014 C  
HETATM   13  C   UNL     1     -10.259   9.197  65.951  1.00  0.00     0.034 C  
HETATM   14  C   UNL     1      -9.884   9.947  67.223  1.00  0.00    -0.228 C  
HETATM   15  C   UNL     1     -10.666   9.983  68.553  1.00  0.00    -0.231 C  
HETATM   16  C   UNL     1      -8.437   9.442  67.583  1.00  0.00    -0.119 C  
HETATM   17  C   UNL     1     -10.629   8.768  69.474  1.00  0.00    -0.219 C  
HETATM   18  F   UNL     1      -9.940  10.948  69.252  1.00  0.00    -0.214 F  
HETATM   19  C   UNL     1     -10.524   9.194  70.927  1.00  0.00    -0.347 C  
HETATM   20  O   UNL     1     -10.779   7.604  69.092  1.00  0.00    -0.214 OA 
HETATM   21  C   UNL     1     -11.734  10.089  71.348  1.00  0.00    -0.414 C  
HETATM   22  C   UNL     1     -12.559   9.159  72.296  1.00  0.00    -0.425 C  
HETATM   23  C   UNL     1     -11.516  11.594  71.943  1.00  0.00     3.786 C  
HETATM   24  H   UNL     1      -9.668  11.857  71.279  1.00  0.00     0.000 HD 
HETATM   25  O   UNL     1     -10.508  12.279  71.140  1.00  0.00     4.746 OA 
ENDROOT
BRANCH  23  26
HETATM   26  C   UNL     1     -10.821  11.856  73.277  1.00  0.00    17.144 C  
HETATM   27  O   UNL     1      -9.908  11.113  73.656  1.00  0.00    15.867 OA 
HETATM   28  C   UNL     1     -11.444  12.858  74.238  1.00  0.00    11.807 C  
HETATM   29 CL   UNL     1     -10.576  14.384  74.150  1.00  0.00     4.051 Cl 
ENDBRANCH  23  26
TORSDOF 1
ENDMDL
MODEL      124
REMARK 921   NORMALIZED FREE ENERGY PREDICTED BY IDOCK:   54.83 KCAL/MOL
REMARK 922        TOTAL FREE ENERGY PREDICTED BY IDOCK:   57.99 KCAL/MOL
REMARK 923 INTER-LIGAND FREE ENERGY PREDICTED BY IDOCK:   57.98 KCAL/MOL
REMARK 924 INTRA-LIGAND FREE ENERGY PREDICTED BY IDOCK:    0.01 KCAL/MOL
REMARK 927      BINDING AFFINITY PREDICTED BY RF-SCORE:    0.00 PKD
ROOT
HETATM    1  C   UNL     1     -11.053  13.566  71.215  1.00  0.00     2.613 C  
HETATM    2  C   UNL     1      -9.853  14.483  70.834  1.00  0.00     2.223 C  
HETATM    3  C   UNL     1     -12.200  14.058  70.240  1.00  0.00    -0.430 C  
HETATM    4  C   UNL     1     -12.134  12.947  69.184  1.00  0.00    -0.216 C  
HETATM    5  C   UNL     1     -11.833  12.988  67.636  1.00  0.00    -0.401 C  
HETATM    6  C   UNL     1     -10.496  13.804  67.362  1.00  0.00    -0.256 C  
HETATM    7  C   UNL     1      -9.869  13.585  65.993  1.00  0.00    -0.277 C  
HETATM    8  C   UNL     1      -9.660  12.104  65.687  1.00  0.00    -0.177 C  
HETATM    9  C   UNL     1      -8.749  11.766  64.753  1.00  0.00     0.712 C  
HETATM   10  C   UNL     1      -9.378  12.125  63.432  1.00  0.00     0.411 C  
HETATM   11  O   UNL     1      -8.686  12.453  62.478  1.00  0.00     1.303 OA 
HETATM   12  C   UNL     1     -10.891  12.031  63.349  1.00  0.00    -0.471 C  
HETATM   13  C   UNL     1     -11.649  11.658  64.413  1.00  0.00    -0.270 C  
HETATM   14  C   UNL     1     -10.979  11.284  65.730  1.00  0.00    -0.211 C  
HETATM   15  C   UNL     1     -11.508  11.547  67.155  1.00  0.00    -0.237 C  
HETATM   16  C   UNL     1     -10.733   9.732  65.636  1.00  0.00     0.596 C  
HETATM   17  C   UNL     1     -12.646  10.689  67.699  1.00  0.00     4.067 C  
HETATM   18  F   UNL     1     -10.407  11.150  67.914  1.00  0.00    -0.183 F  
HETATM   19  C   UNL     1     -12.412  10.342  69.158  1.00  0.00     0.712 C  
HETATM   20  O   UNL     1     -13.670  10.415  67.067  1.00  0.00    13.185 OA 
HETATM   21  C   UNL     1     -12.305  11.628  70.040  1.00  0.00    -0.261 C  
HETATM   22  C   UNL     1     -13.634  11.614  70.863  1.00  0.00     1.109 C  
HETATM   23  C   UNL     1     -10.982  11.931  70.948  1.00  0.00     2.672 C  
HETATM   24  H   UNL     1      -9.748  10.701  70.006  1.00  0.00     0.000 HD 
HETATM   25  O   UNL     1      -9.789  11.637  70.160  1.00  0.00     1.592 OA 
ENDROOT
BRANCH  23  26
HETATM   26  C   UNL     1     -10.578  11.052  72.130  1.00  0.00     7.809 C  
HETATM   27  O   UNL     1     -11.442  10.435  72.765  1.00  0.00     3.195 OA 
HETATM   28  C   UNL     1      -9.161  11.164  72.670  1.00  0.00    17.075 C  
HETATM   29 CL   UNL     1      -8.194   9.817  72.086  1.00  0.00     2.100 Cl 
ENDBRANCH  23  26
TORSDOF 1
ENDMDL
MODEL      125
REMARK 921   NORMALIZED FREE ENERGY PREDICTED BY IDOCK:   76.93 KCAL/MOL
REMARK 922        TOTAL FREE ENERGY PREDICTED BY IDOCK:   81.38 KCAL/MOL
REMARK 923 INTER-LIGAND FREE ENERGY PREDICTED BY IDOCK:   81.72 KCAL/MOL
REMARK 924 INTRA-LIGAND FREE ENERGY PREDICTED BY IDOCK:   -0.34 KCAL/MOL
REMARK 927      BINDING AFFINITY PREDICTED BY RF-SCORE:    0.00 PKD
ROOT
HETATM    1  C   UNL     1     -13.347  14.042  72.959  1.00  0.00    -0.303 C  
HETATM    2  C   UNL     1     -12.493  13.680  74.211  1.00  0.00     4.660 C  
HETATM    3  C   UNL     1     -13.603  15.594  73.140  1.00  0.00    -0.560 C  
HETATM    4  C   UNL     1     -12.559  16.142  72.157  1.00  0.00    -0.394 C  
HETATM    5  C   UNL     1     -11.313  17.086  72.370  1.00  0.00     0.887 C  
HETATM    6  C   UNL     1     -10.412  16.540  73.560  1.00  0.00     6.192 C  
HETATM    7  C   UNL     1      -8.996  17.093  73.612  1.00  0.00    17.064 C  
HETATM    8  C   UNL     1      -8.269  16.937  72.278  1.00  0.00    14.515 C  
HETATM    9  C   UNL     1      -6.921  16.964  72.278  1.00  0.00     7.796 C  
HETATM   10  C   UNL     1      -6.550  18.408  72.504  1.00  0.00     4.069 C  
HETATM   11  O   UNL     1      -5.510  18.705  73.074  1.00  0.00     1.546 OA 
HETATM   12  C   UNL     1      -7.515  19.451  71.968  1.00  0.00     3.472 C  
HETATM   13  C   UNL     1      -8.664  19.110  71.330  1.00  0.00     5.258 C  
HETATM   14  C   UNL     1      -9.000  17.640  71.102  1.00  0.00     7.568 C  
HETATM   15  C   UNL     1     -10.397  16.987  71.118  1.00  0.00     2.446 C  
HETATM   16  C   UNL     1      -8.372  17.292  69.701  1.00  0.00     0.896 C  
HETATM   17  C   UNL     1     -11.334  17.198  69.933  1.00  0.00     0.950 C  
HETATM   18  F   UNL     1     -10.051  15.639  71.027  1.00  0.00     0.015 F  
HETATM   19  C   UNL     1     -12.073  15.917  69.593  1.00  0.00    -0.216 C  
HETATM   20  O   UNL     1     -11.542  18.292  69.401  1.00  0.00     2.725 OA 
HETATM   21  C   UNL     1     -12.923  15.410  70.803  1.00  0.00    -0.510 C  
HETATM   22  C   UNL     1     -14.394  15.681  70.349  1.00  0.00     1.550 C  
HETATM   23  C   UNL     1     -12.702  13.922  71.437  1.00  0.00    -0.365 C  
HETATM   24  H   UNL     1     -10.900  13.596  70.682  1.00  0.00     0.000 HD 
HETATM   25  O   UNL     1     -11.270  13.665  71.554  1.00  0.00     1.610 OA 
ENDROOT
BRANCH  23  26
HETATM   26  C   UNL     1     -13.001  12.644  70.655  1.00  0.00     0.196 C  
HETATM   27  O   UNL     1     -13.027  12.668  69.419  1.00  0.00     0.864 OA 
HETATM   28  C   UNL     1     -13.528  11.434  71.411  1.00  0.00     0.230 C  
HETATM   29 CL   UNL     1     -12.226  10.281  71.666  1.00  0.00    -0.438 Cl 
ENDBRANCH  23  26
TORSDOF 1
ENDMDL
