MODEL        1
REMARK 921   NORMALIZED FREE ENERGY PREDICTED BY IDOCK:   -5.83 KCAL/MOL
REMARK 922        TOTAL FREE ENERGY PREDICTED BY IDOCK:   -6.35 KCAL/MOL
REMARK 923 INTER-LIGAND FREE ENERGY PREDICTED BY IDOCK:   -7.20 KCAL/MOL
REMARK 924 INTRA-LIGAND FREE ENERGY PREDICTED BY IDOCK:    0.85 KCAL/MOL
REMARK 927      BINDING AFFINITY PREDICTED BY RF-SCORE:    0.00 PKD
ROOT
HETATM    1  C   UNL     1      -8.668  12.144  66.715  1.00  0.00    -0.183 C  
HETATM    2  C   UNL     1      -8.423  11.158  65.730  1.00  0.00    -0.076 C  
HETATM    3  C   UNL     1      -9.851  11.478  66.024  1.00  0.00    -0.255 C  
HETATM    4  C   UNL     1     -10.119  13.200  67.150  1.00  0.00    -0.242 C  
HETATM    5  C   UNL     1     -10.526  10.725  64.655  1.00  0.00    -0.346 C  
HETATM    6  O   UNL     1      -7.995   7.518  72.915  1.00  0.00    -0.096 OA 
HETATM    7  C   UNL     1      -8.565   7.981  71.937  1.00  0.00    -0.137 C  
HETATM    8  C   UNL     1     -10.353  12.767  65.888  1.00  0.00    -0.298 C  
HETATM    9  C   UNL     1      -7.982   7.832  70.553  1.00  0.00    -0.098 C  
HETATM   10  C   UNL     1      -8.346   8.929  69.859  1.00  0.00    -0.128 C  
HETATM   11  C   UNL     1     -10.191  13.598  64.588  1.00  0.00    -0.338 C  
HETATM   12  C   UNL     1     -10.496   7.853  68.978  1.00  0.00    -0.210 C  
HETATM   13  C   UNL     1     -11.874  11.992  66.720  1.00  0.00    -0.244 C  
HETATM   14  C   UNL     1      -7.533  10.189  70.066  1.00  0.00    -0.171 C  
HETATM   15  C   UNL     1      -9.854   9.164  69.588  1.00  0.00    -0.188 C  
HETATM   16  C   UNL     1     -11.520  10.938  68.112  1.00  0.00    -0.295 C  
HETATM   17  C   UNL     1     -10.490   9.260  70.967  1.00  0.00    -0.384 C  
HETATM   18  O   UNL     1     -12.044  11.587  69.270  1.00  0.00    -0.321 OA 
HETATM   19  C   UNL     1      -9.902   8.674  72.039  1.00  0.00    -0.396 C  
HETATM   20  C   UNL     1      -9.969  10.259  68.435  1.00  0.00    -0.157 C  
HETATM   21  C   UNL     1      -8.846  11.405  68.317  1.00  0.00    -0.167 C  
HETATM   22  F   UNL     1      -9.628   9.378  67.383  1.00  0.00    -0.152 F  
HETATM   23  H   UNL     1     -11.855  11.024  70.012  1.00  0.00     0.000 HD 
HETATM   24  C   UNL     1      -7.452  10.949  68.760  1.00  0.00    -0.112 C  
ENDROOT
BRANCH   4  25
HETATM   25  O   UNL     1      -9.065  14.348  67.006  1.00  0.00    -0.214 OA 
BRANCH  25  26
HETATM   26  C   UNL     1      -8.577  15.030  68.074  1.00  0.00    -0.158 C  
HETATM   27  O   UNL     1      -8.221  14.548  69.141  1.00  0.00    -0.117 OA 
BRANCH  26  28
HETATM   28  C   UNL     1      -8.463  16.500  67.720  1.00  0.00    -0.180 C  
HETATM   29  C   UNL     1      -8.114  16.707  66.254  1.00  0.00    -0.361 C  
ENDBRANCH  26  28
ENDBRANCH  25  26
ENDBRANCH   4  25
BRANCH   4  30
HETATM   30  C   UNL     1     -11.251  14.435  67.142  1.00  0.00    -0.328 C  
HETATM   31  C   UNL     1     -11.906  14.940  68.404  1.00  0.00    -0.278 C  
HETATM   32  O   UNL     1     -11.607  15.058  66.127  1.00  0.00    -0.286 OA 
HETATM   33 CL   UNL     1     -11.365  14.218  69.898  1.00  0.00    -0.281 Cl 
ENDBRANCH   4  30
TORSDOF 4
ENDMDL
MODEL        2
REMARK 921   NORMALIZED FREE ENERGY PREDICTED BY IDOCK:   -5.83 KCAL/MOL
REMARK 922        TOTAL FREE ENERGY PREDICTED BY IDOCK:   -6.34 KCAL/MOL
REMARK 923 INTER-LIGAND FREE ENERGY PREDICTED BY IDOCK:   -7.17 KCAL/MOL
REMARK 924 INTRA-LIGAND FREE ENERGY PREDICTED BY IDOCK:    0.82 KCAL/MOL
REMARK 927      BINDING AFFINITY PREDICTED BY RF-SCORE:    0.00 PKD
ROOT
HETATM    1  C   UNL     1     -10.914  11.377  67.276  1.00  0.00    -0.336 C  
HETATM    2  C   UNL     1     -11.901  11.845  66.377  1.00  0.00    -0.115 C  
HETATM    3  C   UNL     1     -10.594  12.564  66.376  1.00  0.00    -0.271 C  
HETATM    4  C   UNL     1      -9.082  11.575  67.396  1.00  0.00    -0.166 C  
HETATM    5  C   UNL     1     -10.813  13.408  64.915  1.00  0.00    -0.363 C  
HETATM    6  O   UNL     1     -13.460  15.147  73.569  1.00  0.00    -0.423 OA 
HETATM    7  C   UNL     1     -12.893  15.054  72.489  1.00  0.00    -0.357 C  
HETATM    8  C   UNL     1      -9.397  11.904  66.120  1.00  0.00    -0.228 C  
HETATM    9  C   UNL     1     -13.642  14.626  71.251  1.00  0.00    -0.449 C  
HETATM   10  C   UNL     1     -12.763  13.955  70.479  1.00  0.00    -0.318 C  
HETATM   11  C   UNL     1      -9.178  11.022  64.864  1.00  0.00    -0.210 C  
HETATM   12  C   UNL     1     -12.033  16.056  69.209  1.00  0.00    -0.188 C  
HETATM   13  C   UNL     1      -8.656  13.571  66.649  1.00  0.00     0.054 C  
HETATM   14  C   UNL     1     -12.498  12.505  70.820  1.00  0.00    -0.357 C  
HETATM   15  C   UNL     1     -11.543  14.724  69.911  1.00  0.00    -0.330 C  
HETATM   16  C   UNL     1      -9.387  14.298  68.102  1.00  0.00    -0.206 C  
HETATM   17  C   UNL     1     -10.791  15.226  71.135  1.00  0.00    -0.134 C  
HETATM   18  O   UNL     1      -8.389  14.285  69.122  1.00  0.00    -0.339 OA 
HETATM   19  C   UNL     1     -11.437  15.411  72.312  1.00  0.00    -0.506 C  
HETATM   20  C   UNL     1     -10.922  13.841  68.738  1.00  0.00    -0.264 C  
HETATM   21  C   UNL     1     -11.012  12.236  68.825  1.00  0.00    -0.277 C  
HETATM   22  F   UNL     1     -11.922  14.159  67.791  1.00  0.00    -0.354 F  
HETATM   23  H   UNL     1      -8.779  14.672  69.896  1.00  0.00     0.000 HD 
HETATM   24  C   UNL     1     -12.266  11.728  69.542  1.00  0.00    -0.232 C  
ENDROOT
BRANCH   4  25
HETATM   25  O   UNL     1      -9.123  10.011  67.443  1.00  0.00    -0.134 OA 
BRANCH  25  26
HETATM   26  C   UNL     1      -8.893   9.308  68.582  1.00  0.00    -0.132 C  
HETATM   27  O   UNL     1      -9.272   9.605  69.706  1.00  0.00    -0.188 OA 
BRANCH  26  28
HETATM   28  C   UNL     1      -8.146   8.033  68.240  1.00  0.00    -0.126 C  
HETATM   29  C   UNL     1      -8.234   7.701  66.758  1.00  0.00    -0.124 C  
ENDBRANCH  26  28
ENDBRANCH  25  26
ENDBRANCH   4  25
BRANCH   4  30
HETATM   30  C   UNL     1      -7.437  11.379  67.143  1.00  0.00    -0.138 C  
HETATM   31  C   UNL     1      -6.420  11.581  68.237  1.00  0.00    -0.054 C  
HETATM   32  O   UNL     1      -6.928  11.015  66.068  1.00  0.00    -0.107 OA 
HETATM   33 CL   UNL     1      -7.052  11.960  69.819  1.00  0.00     0.203 Cl 
ENDBRANCH   4  30
TORSDOF 4
ENDMDL
MODEL        3
REMARK 921   NORMALIZED FREE ENERGY PREDICTED BY IDOCK:   -5.63 KCAL/MOL
REMARK 922        TOTAL FREE ENERGY PREDICTED BY IDOCK:   -6.09 KCAL/MOL
REMARK 923 INTER-LIGAND FREE ENERGY PREDICTED BY IDOCK:   -6.93 KCAL/MOL
REMARK 924 INTRA-LIGAND FREE ENERGY PREDICTED BY IDOCK:    0.84 KCAL/MOL
REMARK 927      BINDING AFFINITY PREDICTED BY RF-SCORE:    0.00 PKD
ROOT
HETATM    1  C   UNL     1      -8.007   8.870  66.407  1.00  0.00    -0.103 C  
HETATM    2  C   UNL     1      -6.838   9.437  65.847  1.00  0.00    -0.089 C  
HETATM    3  C   UNL     1      -7.053   9.642  67.310  1.00  0.00    -0.086 C  
HETATM    4  C   UNL     1      -8.540   8.446  68.124  1.00  0.00    -0.139 C  
HETATM    5  C   UNL     1      -5.477  10.162  67.688  1.00  0.00    -0.041 C  
HETATM    6  O   UNL     1     -12.888  14.588  64.463  1.00  0.00    -0.613 OA 
HETATM    7  C   UNL     1     -12.003  14.067  65.128  1.00  0.00    -0.387 C  
HETATM    8  C   UNL     1      -7.192   8.571  68.185  1.00  0.00    -0.087 C  
HETATM    9  C   UNL     1     -10.694  13.659  64.497  1.00  0.00    -0.420 C  
HETATM   10  C   UNL     1     -10.263  12.572  65.169  1.00  0.00    -0.299 C  
HETATM   11  C   UNL     1      -6.166   7.411  68.261  1.00  0.00    -0.036 C  
HETATM   12  C   UNL     1      -8.923  13.953  66.859  1.00  0.00    -0.236 C  
HETATM   13  C   UNL     1      -7.641   9.954  69.407  1.00  0.00    -0.113 C  
HETATM   14  C   UNL     1     -10.862  11.234  64.793  1.00  0.00    -0.314 C  
HETATM   15  C   UNL     1      -9.905  12.727  66.670  1.00  0.00    -0.250 C  
HETATM   16  C   UNL     1      -8.754  11.192  68.773  1.00  0.00    -0.128 C  
HETATM   17  C   UNL     1     -11.190  13.198  67.334  1.00  0.00    -0.319 C  
HETATM   18  O   UNL     1      -9.977  11.063  69.497  1.00  0.00    -0.430 OA 
HETATM   19  C   UNL     1     -12.137  13.852  66.615  1.00  0.00    -0.485 C  
HETATM   20  C   UNL     1      -9.057  11.446  67.095  1.00  0.00    -0.164 C  
HETATM   21  C   UNL     1      -9.346  10.033  66.381  1.00  0.00    -0.211 C  
HETATM   22  F   UNL     1      -7.859  11.869  66.474  1.00  0.00    -0.141 F  
HETATM   23  H   UNL     1     -10.570  11.724  69.159  1.00  0.00     0.000 HD 
HETATM   24  C   UNL     1      -9.803  10.161  64.924  1.00  0.00    -0.390 C  
ENDROOT
BRANCH   4  25
HETATM   25  O   UNL     1      -8.798   7.045  67.476  1.00  0.00    -0.120 OA 
BRANCH  25  26
HETATM   26  C   UNL     1     -10.047   6.567  67.242  1.00  0.00    -0.164 C  
HETATM   27  O   UNL     1     -11.017   7.220  66.883  1.00  0.00    -0.343 OA 
BRANCH  26  28
HETATM   28  C   UNL     1     -10.049   5.061  67.420  1.00  0.00    -0.213 C  
HETATM   29  C   UNL     1      -8.639   4.499  67.529  1.00  0.00    -0.105 C  
ENDBRANCH  26  28
ENDBRANCH  25  26
ENDBRANCH   4  25
BRANCH   4  30
HETATM   30  C   UNL     1      -8.724   7.644  69.583  1.00  0.00    -0.136 C  
HETATM   31  C   UNL     1      -9.980   7.750  70.412  1.00  0.00    -0.188 C  
HETATM   32  O   UNL     1      -7.880   6.875  70.077  1.00  0.00    -0.106 OA 
HETATM   33 CL   UNL     1     -11.277   8.700  69.731  1.00  0.00    -0.074 Cl 
ENDBRANCH   4  30
TORSDOF 4
ENDMDL
MODEL        4
REMARK 921   NORMALIZED FREE ENERGY PREDICTED BY IDOCK:   -5.61 KCAL/MOL
REMARK 922        TOTAL FREE ENERGY PREDICTED BY IDOCK:   -6.07 KCAL/MOL
REMARK 923 INTER-LIGAND FREE ENERGY PREDICTED BY IDOCK:   -6.99 KCAL/MOL
REMARK 924 INTRA-LIGAND FREE ENERGY PREDICTED BY IDOCK:    0.91 KCAL/MOL
REMARK 927      BINDING AFFINITY PREDICTED BY RF-SCORE:    0.00 PKD
ROOT
HETATM    1  C   UNL     1      -9.665  14.599  69.490  1.00  0.00     0.108 C  
HETATM    2  C   UNL     1     -10.186  15.173  70.673  1.00  0.00     0.270 C  
HETATM    3  C   UNL     1     -11.097  15.120  69.492  1.00  0.00    -0.287 C  
HETATM    4  C   UNL     1     -10.418  13.904  67.954  1.00  0.00    -0.242 C  
HETATM    5  C   UNL     1     -12.546  15.445  70.323  1.00  0.00    -0.377 C  
HETATM    6  O   UNL     1      -5.976  20.915  66.882  1.00  0.00    -0.199 OA 
HETATM    7  C   UNL     1      -6.958  20.217  67.098  1.00  0.00    -0.260 C  
HETATM    8  C   UNL     1     -11.416  13.918  68.870  1.00  0.00    -0.340 C  
HETATM    9  C   UNL     1      -7.348  19.839  68.507  1.00  0.00    -0.351 C  
HETATM   10  C   UNL     1      -7.917  18.619  68.436  1.00  0.00    -0.351 C  
HETATM   11  C   UNL     1     -11.967  12.693  69.645  1.00  0.00    -0.352 C  
HETATM   12  C   UNL     1     -10.277  19.563  68.125  1.00  0.00    -0.556 C  
HETATM   13  C   UNL     1     -12.212  15.079  67.595  1.00  0.00     0.210 C  
HETATM   14  C   UNL     1      -6.995  17.421  68.370  1.00  0.00    -0.201 C  
HETATM   15  C   UNL     1      -9.241  18.467  67.645  1.00  0.00    -0.274 C  
HETATM   16  C   UNL     1     -11.226  16.490  67.138  1.00  0.00     0.195 C  
HETATM   17  C   UNL     1      -8.902  18.899  66.226  1.00  0.00    -0.260 C  
HETATM   18  O   UNL     1     -10.862  16.318  65.769  1.00  0.00    -0.271 OA 
HETATM   19  C   UNL     1      -7.865  19.741  65.991  1.00  0.00    -0.344 C  
HETATM   20  C   UNL     1      -9.891  17.072  68.060  1.00  0.00    -0.275 C  
HETATM   21  C   UNL     1      -8.933  15.840  68.455  1.00  0.00    -0.187 C  
HETATM   22  F   UNL     1     -10.362  17.515  69.317  1.00  0.00    -0.334 F  
HETATM   23  H   UNL     1     -10.336  17.071  65.525  1.00  0.00     0.000 HD 
HETATM   24  C   UNL     1      -7.623  16.268  69.124  1.00  0.00    -0.227 C  
ENDROOT
BRANCH   4  25
HETATM   25  O   UNL     1      -9.531  12.669  68.325  1.00  0.00    -0.213 OA 
BRANCH  25  26
HETATM   26  C   UNL     1      -8.424  12.326  67.618  1.00  0.00    -0.166 C  
HETATM   27  O   UNL     1      -7.618  13.098  67.114  1.00  0.00    -0.117 OA 
BRANCH  26  28
HETATM   28  C   UNL     1      -8.284  10.816  67.607  1.00  0.00    -0.115 C  
HETATM   29  C   UNL     1      -9.052  10.165  68.748  1.00  0.00    -0.153 C  
ENDBRANCH  26  28
ENDBRANCH  25  26
ENDBRANCH   4  25
BRANCH   4  30
HETATM   30  C   UNL     1     -11.164  12.861  66.875  1.00  0.00    -0.291 C  
HETATM   31  C   UNL     1     -10.937  12.939  65.386  1.00  0.00    -0.278 C  
HETATM   32  O   UNL     1     -11.916  11.926  67.203  1.00  0.00    -0.611 OA 
HETATM   33 CL   UNL     1      -9.789  14.135  64.841  1.00  0.00    -0.135 Cl 
ENDBRANCH   4  30
TORSDOF 4
ENDMDL
MODEL        5
REMARK 921   NORMALIZED FREE ENERGY PREDICTED BY IDOCK:   -5.43 KCAL/MOL
REMARK 922        TOTAL FREE ENERGY PREDICTED BY IDOCK:   -5.85 KCAL/MOL
REMARK 923 INTER-LIGAND FREE ENERGY PREDICTED BY IDOCK:   -6.79 KCAL/MOL
REMARK 924 INTRA-LIGAND FREE ENERGY PREDICTED BY IDOCK:    0.94 KCAL/MOL
REMARK 927      BINDING AFFINITY PREDICTED BY RF-SCORE:    0.00 PKD
ROOT
HETATM    1  C   UNL     1      -9.686  13.417  65.510  1.00  0.00    -0.065 C  
HETATM    2  C   UNL     1     -10.432  12.675  64.566  1.00  0.00    -0.379 C  
HETATM    3  C   UNL     1     -11.194  13.298  65.687  1.00  0.00    -0.304 C  
HETATM    4  C   UNL     1     -10.111  14.696  66.772  1.00  0.00    -0.265 C  
HETATM    5  C   UNL     1     -12.748  13.122  65.015  1.00  0.00    -0.456 C  
HETATM    6  O   UNL     1      -7.377   7.418  69.865  1.00  0.00    -0.079 OA 
HETATM    7  C   UNL     1      -8.181   8.246  69.461  1.00  0.00    -0.119 C  
HETATM    8  C   UNL     1     -11.163  14.669  65.918  1.00  0.00    -0.336 C  
HETATM    9  C   UNL     1      -8.595   8.283  68.010  1.00  0.00    -0.132 C  
HETATM   10  C   UNL     1      -8.851   9.573  67.713  1.00  0.00    -0.119 C  
HETATM   11  C   UNL     1     -11.475  15.713  64.815  1.00  0.00    -0.284 C  
HETATM   12  C   UNL     1     -11.330   9.390  68.331  1.00  0.00     0.285 C  
HETATM   13  C   UNL     1     -12.093  14.170  67.497  1.00  0.00    -0.363 C  
HETATM   14  C   UNL     1      -7.669  10.465  67.398  1.00  0.00    -0.095 C  
HETATM   15  C   UNL     1     -10.025  10.279  68.439  1.00  0.00    -0.173 C  
HETATM   16  C   UNL     1     -11.431  12.752  68.349  1.00  0.00    -0.311 C  
HETATM   17  C   UNL     1      -9.671  10.208  69.918  1.00  0.00    -0.195 C  
HETATM   18  O   UNL     1     -10.915  13.218  69.595  1.00  0.00    -0.459 OA 
HETATM   19  C   UNL     1      -8.846   9.238  70.383  1.00  0.00    -0.271 C  
HETATM   20  C   UNL     1     -10.360  11.610  67.628  1.00  0.00    -0.189 C  
HETATM   21  C   UNL     1      -9.178  12.389  66.864  1.00  0.00    -0.209 C  
HETATM   22  F   UNL     1     -11.035  10.954  66.573  1.00  0.00    -0.311 F  
HETATM   23  H   UNL     1     -10.563  12.461  70.049  1.00  0.00     0.000 HD 
HETATM   24  C   UNL     1      -8.072  11.468  66.339  1.00  0.00    -0.069 C  
ENDROOT
BRANCH   4  25
HETATM   25  O   UNL     1      -8.994  15.504  66.030  1.00  0.00    -0.324 OA 
BRANCH  25  26
HETATM   26  C   UNL     1      -7.782  15.755  66.588  1.00  0.00    -0.105 C  
HETATM   27  O   UNL     1      -7.053  14.939  67.136  1.00  0.00    -0.197 OA 
BRANCH  26  28
HETATM   28  C   UNL     1      -7.419  17.210  66.362  1.00  0.00    -0.341 C  
HETATM   29  C   UNL     1      -6.816  17.846  67.606  1.00  0.00    -0.193 C  
ENDBRANCH  26  28
ENDBRANCH  25  26
ENDBRANCH   4  25
BRANCH   4  30
HETATM   30  C   UNL     1     -10.489  16.161  67.493  1.00  0.00    -0.302 C  
HETATM   31  C   UNL     1     -10.045  16.514  68.891  1.00  0.00    -0.266 C  
HETATM   32  O   UNL     1     -11.114  17.081  66.935  1.00  0.00     0.033 OA 
HETATM   33 CL   UNL     1      -9.043  15.338  69.703  1.00  0.00    -0.198 Cl 
ENDBRANCH   4  30
TORSDOF 4
ENDMDL
MODEL        6
REMARK 921   NORMALIZED FREE ENERGY PREDICTED BY IDOCK:   -5.42 KCAL/MOL
REMARK 922        TOTAL FREE ENERGY PREDICTED BY IDOCK:   -5.84 KCAL/MOL
REMARK 923 INTER-LIGAND FREE ENERGY PREDICTED BY IDOCK:   -6.90 KCAL/MOL
REMARK 924 INTRA-LIGAND FREE ENERGY PREDICTED BY IDOCK:    1.06 KCAL/MOL
REMARK 927      BINDING AFFINITY PREDICTED BY RF-SCORE:    0.00 PKD
ROOT
HETATM    1  C   UNL     1     -10.586   7.130  70.285  1.00  0.00    -0.245 C  
HETATM    2  C   UNL     1     -11.526   6.610  69.365  1.00  0.00    -0.288 C  
HETATM    3  C   UNL     1     -10.089   6.557  68.964  1.00  0.00    -0.186 C  
HETATM    4  C   UNL     1      -8.763   6.941  70.512  1.00  0.00    -0.150 C  
HETATM    5  C   UNL     1     -10.267   5.464  67.671  1.00  0.00    -0.236 C  
HETATM    6  O   UNL     1     -11.298  14.600  68.290  1.00  0.00    -0.270 OA 
HETATM    7  C   UNL     1     -10.910  13.449  68.146  1.00  0.00    -0.255 C  
HETATM    8  C   UNL     1      -9.140   5.897  69.735  1.00  0.00    -0.147 C  
HETATM    9  C   UNL     1     -11.891  12.312  67.995  1.00  0.00    -0.368 C  
HETATM   10  C   UNL     1     -11.312  11.226  68.547  1.00  0.00    -0.341 C  
HETATM   11  C   UNL     1      -9.308   4.426  70.195  1.00  0.00    -0.225 C  
HETATM   12  C   UNL     1     -10.237  10.482  66.345  1.00  0.00    -0.296 C  
HETATM   13  C   UNL     1      -7.942   6.718  68.512  1.00  0.00    -0.119 C  
HETATM   14  C   UNL     1     -11.383  11.087  70.053  1.00  0.00    -0.358 C  
HETATM   15  C   UNL     1     -10.017  10.670  67.901  1.00  0.00    -0.189 C  
HETATM   16  C   UNL     1      -8.280   8.430  68.155  1.00  0.00    -0.124 C  
HETATM   17  C   UNL     1      -9.017  11.815  67.980  1.00  0.00    -0.176 C  
HETATM   18  O   UNL     1      -7.199   9.190  68.696  1.00  0.00    -0.073 OA 
HETATM   19  C   UNL     1      -9.445  13.100  68.054  1.00  0.00    -0.220 C  
HETATM   20  C   UNL     1      -9.790   9.199  68.470  1.00  0.00    -0.164 C  
HETATM   21  C   UNL     1     -10.271   8.846  69.964  1.00  0.00    -0.214 C  
HETATM   22  F   UNL     1     -10.786   8.594  67.671  1.00  0.00    -0.301 F  
HETATM   23  H   UNL     1      -7.380  10.103  68.505  1.00  0.00     0.000 HD 
HETATM   24  C   UNL     1     -11.515   9.622  70.411  1.00  0.00    -0.325 C  
ENDROOT
BRANCH   4  25
HETATM   25  O   UNL     1      -9.192   6.553  71.967  1.00  0.00    -0.148 OA 
BRANCH  25  26
HETATM   26  C   UNL     1      -9.397   7.478  72.939  1.00  0.00    -0.181 C  
HETATM   27  O   UNL     1      -8.905   8.597  72.990  1.00  0.00    -0.355 OA 
BRANCH  26  28
HETATM   28  C   UNL     1     -10.406   6.941  73.936  1.00  0.00    -0.398 C  
HETATM   29  C   UNL     1     -10.909   5.559  73.549  1.00  0.00    -0.321 C  
ENDBRANCH  26  28
ENDBRANCH  25  26
ENDBRANCH   4  25
BRANCH   4  30
HETATM   30  C   UNL     1      -7.266   6.327  70.946  1.00  0.00    -0.071 C  
HETATM   31  C   UNL     1      -6.107   7.213  71.329  1.00  0.00    -0.036 C  
HETATM   32  O   UNL     1      -6.999   5.115  71.032  1.00  0.00    -0.048 OA 
HETATM   33 CL   UNL     1      -6.427   8.928  71.370  1.00  0.00    -0.071 Cl 
ENDBRANCH   4  30
TORSDOF 4
ENDMDL
MODEL        7
REMARK 921   NORMALIZED FREE ENERGY PREDICTED BY IDOCK:   -5.25 KCAL/MOL
REMARK 922        TOTAL FREE ENERGY PREDICTED BY IDOCK:   -5.63 KCAL/MOL
REMARK 923 INTER-LIGAND FREE ENERGY PREDICTED BY IDOCK:   -6.84 KCAL/MOL
REMARK 924 INTRA-LIGAND FREE ENERGY PREDICTED BY IDOCK:    1.20 KCAL/MOL
REMARK 927      BINDING AFFINITY PREDICTED BY RF-SCORE:    0.00 PKD
ROOT
HETATM    1  C   UNL     1     -10.482   7.154  69.604  1.00  0.00    -0.241 C  
HETATM    2  C   UNL     1     -11.383   6.528  68.712  1.00  0.00    -0.237 C  
HETATM    3  C   UNL     1      -9.930   6.413  68.392  1.00  0.00    -0.151 C  
HETATM    4  C   UNL     1      -8.675   6.982  69.943  1.00  0.00    -0.142 C  
HETATM    5  C   UNL     1     -10.061   5.166  67.242  1.00  0.00    -0.235 C  
HETATM    6  O   UNL     1     -10.994  14.314  66.641  1.00  0.00    -0.301 OA 
HETATM    7  C   UNL     1     -10.616  13.151  66.664  1.00  0.00    -0.279 C  
HETATM    8  C   UNL     1      -9.028   5.850  69.288  1.00  0.00    -0.117 C  
HETATM    9  C   UNL     1     -11.604  12.011  66.611  1.00  0.00    -0.389 C  
HETATM   10  C   UNL     1     -11.067  11.000  67.325  1.00  0.00    -0.359 C  
HETATM   11  C   UNL     1      -9.238   4.451  69.922  1.00  0.00    -0.202 C  
HETATM   12  C   UNL     1      -9.898   9.973  65.291  1.00  0.00    -0.388 C  
HETATM   13  C   UNL     1      -7.761   6.499  68.030  1.00  0.00    -0.105 C  
HETATM   14  C   UNL     1     -11.212  11.055  68.831  1.00  0.00    -0.326 C  
HETATM   15  C   UNL     1      -9.751  10.357  66.820  1.00  0.00    -0.224 C  
HETATM   16  C   UNL     1      -8.058   8.155  67.442  1.00  0.00    -0.122 C  
HETATM   17  C   UNL     1      -8.740  11.495  66.802  1.00  0.00    -0.178 C  
HETATM   18  O   UNL     1      -6.995   8.969  67.934  1.00  0.00    -0.076 OA 
HETATM   19  C   UNL     1      -9.153  12.781  66.690  1.00  0.00    -0.188 C  
HETATM   20  C   UNL     1      -9.571   8.968  67.582  1.00  0.00    -0.150 C  
HETATM   21  C   UNL     1     -10.129   8.813  69.083  1.00  0.00    -0.203 C  
HETATM   22  F   UNL     1     -10.536   8.274  66.818  1.00  0.00    -0.377 F  
HETATM   23  H   UNL     1      -7.153   9.851  67.620  1.00  0.00     0.000 HD 
HETATM   24  C   UNL     1     -11.381   9.649  69.365  1.00  0.00    -0.038 C  
ENDROOT
BRANCH   4  25
HETATM   25  O   UNL     1      -9.179   6.787  71.412  1.00  0.00    -0.153 OA 
BRANCH  25  26
HETATM   26  C   UNL     1      -9.427   7.830  72.244  1.00  0.00    -0.170 C  
HETATM   27  O   UNL     1      -8.830   8.898  72.266  1.00  0.00    -0.397 OA 
BRANCH  26  28
HETATM   28  C   UNL     1     -10.627   7.504  73.112  1.00  0.00    -0.442 C  
HETATM   29  C   UNL     1     -11.906   8.127  72.573  1.00  0.00    -0.438 C  
ENDBRANCH  26  28
ENDBRANCH  25  26
ENDBRANCH   4  25
BRANCH   4  30
HETATM   30  C   UNL     1      -7.209   6.417  70.525  1.00  0.00    -0.074 C  
HETATM   31  C   UNL     1      -6.068   7.339  70.876  1.00  0.00    -0.035 C  
HETATM   32  O   UNL     1      -6.955   5.221  70.754  1.00  0.00    -0.052 OA 
HETATM   33 CL   UNL     1      -6.379   9.049  70.716  1.00  0.00    -0.048 Cl 
ENDBRANCH   4  30
TORSDOF 4
ENDMDL
MODEL        8
REMARK 921   NORMALIZED FREE ENERGY PREDICTED BY IDOCK:   -5.06 KCAL/MOL
REMARK 922        TOTAL FREE ENERGY PREDICTED BY IDOCK:   -5.39 KCAL/MOL
REMARK 923 INTER-LIGAND FREE ENERGY PREDICTED BY IDOCK:   -6.53 KCAL/MOL
REMARK 924 INTRA-LIGAND FREE ENERGY PREDICTED BY IDOCK:    1.14 KCAL/MOL
REMARK 927      BINDING AFFINITY PREDICTED BY RF-SCORE:    0.00 PKD
ROOT
HETATM    1  C   UNL     1     -10.860   7.121  70.558  1.00  0.00    -0.269 C  
HETATM    2  C   UNL     1     -11.766   6.103  70.935  1.00  0.00    -0.179 C  
HETATM    3  C   UNL     1     -10.354   5.952  71.393  1.00  0.00    -0.271 C  
HETATM    4  C   UNL     1      -9.203   7.663  71.166  1.00  0.00    -0.147 C  
HETATM    5  C   UNL     1     -10.633   4.741  72.556  1.00  0.00    -0.262 C  
HETATM    6  O   UNL     1      -9.279   4.435  63.446  1.00  0.00    -0.145 OA 
HETATM    7  C   UNL     1      -9.195   4.452  64.666  1.00  0.00    -0.156 C  
HETATM    8  C   UNL     1      -9.731   6.921  72.170  1.00  0.00    -0.158 C  
HETATM    9  C   UNL     1     -10.411   4.233  65.533  1.00  0.00    -0.210 C  
HETATM   10  C   UNL     1     -10.224   4.960  66.653  1.00  0.00    -0.291 C  
HETATM   11  C   UNL     1     -10.346   7.465  73.486  1.00  0.00    -0.405 C  
HETATM   12  C   UNL     1      -9.089   3.035  67.904  1.00  0.00    -0.225 C  
HETATM   13  C   UNL     1      -8.200   5.851  71.829  1.00  0.00    -0.119 C  
HETATM   14  C   UNL     1     -10.538   6.439  66.586  1.00  0.00    -0.253 C  
HETATM   15  C   UNL     1      -9.046   4.585  67.588  1.00  0.00    -0.139 C  
HETATM   16  C   UNL     1      -8.018   5.306  70.143  1.00  0.00    -0.080 C  
HETATM   17  C   UNL     1      -7.799   4.736  66.728  1.00  0.00    -0.099 C  
HETATM   18  O   UNL     1      -6.861   5.955  69.617  1.00  0.00    -0.056 OA 
HETATM   19  C   UNL     1      -7.877   4.634  65.379  1.00  0.00    -0.090 C  
HETATM   20  C   UNL     1      -9.299   5.302  68.989  1.00  0.00    -0.130 C  
HETATM   21  C   UNL     1     -10.060   6.719  69.027  1.00  0.00    -0.172 C  
HETATM   22  F   UNL     1     -10.298   4.400  69.420  1.00  0.00    -0.242 F  
HETATM   23  H   UNL     1      -6.764   5.663  68.718  1.00  0.00     0.000 HD 
HETATM   24  C   UNL     1     -11.103   6.888  67.917  1.00  0.00    -0.200 C  
ENDROOT
BRANCH   4  25
HETATM   25  O   UNL     1      -9.918   9.052  71.255  1.00  0.00    -0.260 OA 
BRANCH  25  26
HETATM   26  C   UNL     1     -10.056   9.873  70.183  1.00  0.00    -0.255 C  
HETATM   27  O   UNL     1      -9.281   9.970  69.241  1.00  0.00    -0.178 OA 
BRANCH  26  28
HETATM   28  C   UNL     1     -11.375  10.614  70.285  1.00  0.00    -0.401 C  
HETATM   29  C   UNL     1     -12.208  10.134  71.464  1.00  0.00    -0.473 C  
ENDBRANCH  26  28
ENDBRANCH  25  26
ENDBRANCH   4  25
BRANCH   4  30
HETATM   30  C   UNL     1      -7.998   8.388  72.078  1.00  0.00    -0.135 C  
HETATM   31  C   UNL     1      -6.721   8.906  71.465  1.00  0.00    -0.079 C  
HETATM   32  O   UNL     1      -8.069   8.597  73.302  1.00  0.00    -0.408 OA 
HETATM   33 CL   UNL     1      -6.591   8.780  69.729  1.00  0.00    -0.041 Cl 
ENDBRANCH   4  30
TORSDOF 4
ENDMDL
MODEL        9
REMARK 921   NORMALIZED FREE ENERGY PREDICTED BY IDOCK:   -5.01 KCAL/MOL
REMARK 922        TOTAL FREE ENERGY PREDICTED BY IDOCK:   -5.33 KCAL/MOL
REMARK 923 INTER-LIGAND FREE ENERGY PREDICTED BY IDOCK:   -6.33 KCAL/MOL
REMARK 924 INTRA-LIGAND FREE ENERGY PREDICTED BY IDOCK:    1.00 KCAL/MOL
REMARK 927      BINDING AFFINITY PREDICTED BY RF-SCORE:    0.00 PKD
ROOT
HETATM    1  C   UNL     1     -10.332   7.612  68.904  1.00  0.00    -0.222 C  
HETATM    2  C   UNL     1     -11.135   7.012  67.906  1.00  0.00    -0.135 C  
HETATM    3  C   UNL     1      -9.668   7.073  67.644  1.00  0.00    -0.163 C  
HETATM    4  C   UNL     1      -8.530   7.574  69.305  1.00  0.00    -0.136 C  
HETATM    5  C   UNL     1      -9.633   5.962  66.355  1.00  0.00    -0.173 C  
HETATM    6  O   UNL     1     -11.448  14.988  66.747  1.00  0.00    -0.330 OA 
HETATM    7  C   UNL     1     -10.958  13.871  66.657  1.00  0.00    -0.301 C  
HETATM    8  C   UNL     1      -8.746   6.497  68.510  1.00  0.00    -0.122 C  
HETATM    9  C   UNL     1     -11.825  12.657  66.429  1.00  0.00    -0.466 C  
HETATM   10  C   UNL     1     -11.216  11.625  67.049  1.00  0.00    -0.376 C  
HETATM   11  C   UNL     1      -8.838   5.020  68.973  1.00  0.00    -0.112 C  
HETATM   12  C   UNL     1      -9.880  10.957  64.969  1.00  0.00    -0.336 C  
HETATM   13  C   UNL     1      -7.507   7.406  67.394  1.00  0.00    -0.104 C  
HETATM   14  C   UNL     1     -11.418  11.490  68.543  1.00  0.00    -0.354 C  
HETATM   15  C   UNL     1      -9.825  11.173  66.536  1.00  0.00    -0.242 C  
HETATM   16  C   UNL     1      -7.946   9.083  66.984  1.00  0.00    -0.102 C  
HETATM   17  C   UNL     1      -8.933  12.395  66.693  1.00  0.00    -0.184 C  
HETATM   18  O   UNL     1      -6.986   9.931  67.613  1.00  0.00    -0.084 OA 
HETATM   19  C   UNL     1      -9.468  13.641  66.709  1.00  0.00    -0.275 C  
HETATM   20  C   UNL     1      -9.536   9.728  67.144  1.00  0.00    -0.169 C  
HETATM   21  C   UNL     1     -10.128   9.346  68.591  1.00  0.00    -0.208 C  
HETATM   22  F   UNL     1     -10.400   9.039  66.262  1.00  0.00    -0.357 F  
HETATM   23  H   UNL     1      -7.220  10.825  67.394  1.00  0.00     0.000 HD 
HETATM   24  C   UNL     1     -11.466  10.021  68.907  1.00  0.00    -0.057 C  
ENDROOT
BRANCH   4  25
HETATM   25  O   UNL     1      -9.063   7.161  70.717  1.00  0.00    -0.152 OA 
BRANCH  25  26
HETATM   26  C   UNL     1      -9.009   7.991  71.790  1.00  0.00    -0.147 C  
HETATM   27  O   UNL     1      -9.332   9.171  71.810  1.00  0.00    -0.328 OA 
BRANCH  26  28
HETATM   28  C   UNL     1      -8.552   7.209  73.006  1.00  0.00    -0.144 C  
HETATM   29  C   UNL     1      -8.141   8.125  74.150  1.00  0.00    -0.312 C  
ENDBRANCH  26  28
ENDBRANCH  25  26
ENDBRANCH   4  25
BRANCH   4  30
HETATM   30  C   UNL     1      -7.036   7.085  69.887  1.00  0.00    -0.070 C  
HETATM   31  C   UNL     1      -5.999   8.065  70.376  1.00  0.00    -0.029 C  
HETATM   32  O   UNL     1      -6.679   5.900  70.005  1.00  0.00    -0.048 OA 
HETATM   33 CL   UNL     1      -6.464   9.747  70.377  1.00  0.00    -0.088 Cl 
ENDBRANCH   4  30
TORSDOF 4
ENDMDL
MODEL       10
REMARK 921   NORMALIZED FREE ENERGY PREDICTED BY IDOCK:   -4.96 KCAL/MOL
REMARK 922        TOTAL FREE ENERGY PREDICTED BY IDOCK:   -5.27 KCAL/MOL
REMARK 923 INTER-LIGAND FREE ENERGY PREDICTED BY IDOCK:   -6.42 KCAL/MOL
REMARK 924 INTRA-LIGAND FREE ENERGY PREDICTED BY IDOCK:    1.16 KCAL/MOL
REMARK 927      BINDING AFFINITY PREDICTED BY RF-SCORE:    0.00 PKD
ROOT
HETATM    1  C   UNL     1      -9.822   9.630  66.441  1.00  0.00    -0.309 C  
HETATM    2  C   UNL     1     -10.145   9.973  65.107  1.00  0.00    -0.268 C  
HETATM    3  C   UNL     1      -8.732  10.187  65.535  1.00  0.00    -0.173 C  
HETATM    4  C   UNL     1      -8.246   9.282  67.337  1.00  0.00    -0.117 C  
HETATM    5  C   UNL     1      -8.065  10.389  63.982  1.00  0.00    -0.092 C  
HETATM    6  O   UNL     1     -12.262  16.211  69.761  1.00  0.00    -0.163 OA 
HETATM    7  C   UNL     1     -11.485  15.518  69.119  1.00  0.00    -0.348 C  
HETATM    8  C   UNL     1      -7.951   9.146  66.022  1.00  0.00    -0.103 C  
HETATM    9  C   UNL     1     -11.906  14.880  67.817  1.00  0.00    -0.277 C  
HETATM   10  C   UNL     1     -11.228  13.718  67.720  1.00  0.00    -0.312 C  
HETATM   11  C   UNL     1      -7.763   7.810  65.258  1.00  0.00    -0.102 C  
HETATM   12  C   UNL     1      -9.265  14.784  66.467  1.00  0.00    -0.304 C  
HETATM   13  C   UNL     1      -6.751  10.564  66.417  1.00  0.00    -0.114 C  
HETATM   14  C   UNL     1     -11.771  12.527  68.480  1.00  0.00    -0.369 C  
HETATM   15  C   UNL     1      -9.683  13.772  67.610  1.00  0.00    -0.227 C  
HETATM   16  C   UNL     1      -7.499  12.005  67.152  1.00  0.00    -0.138 C  
HETATM   17  C   UNL     1      -9.223  14.467  68.883  1.00  0.00    -0.118 C  
HETATM   18  O   UNL     1      -7.000  12.098  68.486  1.00  0.00    -0.078 OA 
HETATM   19  C   UNL     1     -10.055  15.303  69.550  1.00  0.00    -0.261 C  
HETATM   20  C   UNL     1      -9.188  12.344  67.101  1.00  0.00    -0.199 C  
HETATM   21  C   UNL     1     -10.014  11.027  67.516  1.00  0.00    -0.199 C  
HETATM   22  F   UNL     1      -9.574  12.543  65.756  1.00  0.00    -0.245 F  
HETATM   23  H   UNL     1      -7.399  12.866  68.878  1.00  0.00     0.000 HD 
HETATM   24  C   UNL     1     -11.518  11.269  67.677  1.00  0.00    -0.341 C  
ENDROOT
BRANCH   4  25
HETATM   25  O   UNL     1      -9.001   7.968  67.731  1.00  0.00    -0.132 OA 
BRANCH  25  26
HETATM   26  C   UNL     1      -9.871   7.910  68.772  1.00  0.00    -0.167 C  
HETATM   27  O   UNL     1      -9.981   8.732  69.671  1.00  0.00    -0.182 OA 
BRANCH  26  28
HETATM   28  C   UNL     1     -10.757   6.690  68.615  1.00  0.00    -0.303 C  
HETATM   29  C   UNL     1     -11.033   6.370  67.153  1.00  0.00    -0.476 C  
ENDBRANCH  26  28
ENDBRANCH  25  26
ENDBRANCH   4  25
BRANCH   4  30
HETATM   30  C   UNL     1      -6.883   8.501  67.921  1.00  0.00    -0.067 C  
HETATM   31  C   UNL     1      -6.334   8.757  69.302  1.00  0.00    -0.042 C  
HETATM   32  O   UNL     1      -6.247   7.632  67.299  1.00  0.00    -0.049 OA 
HETATM   33 CL   UNL     1      -7.241   9.862  70.303  1.00  0.00    -0.150 Cl 
ENDBRANCH   4  30
TORSDOF 4
ENDMDL
MODEL       11
REMARK 921   NORMALIZED FREE ENERGY PREDICTED BY IDOCK:   -4.94 KCAL/MOL
REMARK 922        TOTAL FREE ENERGY PREDICTED BY IDOCK:   -5.24 KCAL/MOL
REMARK 923 INTER-LIGAND FREE ENERGY PREDICTED BY IDOCK:   -6.11 KCAL/MOL
REMARK 924 INTRA-LIGAND FREE ENERGY PREDICTED BY IDOCK:    0.87 KCAL/MOL
REMARK 927      BINDING AFFINITY PREDICTED BY RF-SCORE:    0.00 PKD
ROOT
HETATM    1  C   UNL     1      -8.539   7.719  71.309  1.00  0.00    -0.127 C  
HETATM    2  C   UNL     1      -8.972   8.425  72.455  1.00  0.00    -0.308 C  
HETATM    3  C   UNL     1      -9.974   7.541  71.790  1.00  0.00    -0.200 C  
HETATM    4  C   UNL     1      -9.159   6.240  70.395  1.00  0.00    -0.154 C  
HETATM    5  C   UNL     1     -11.112   7.515  73.054  1.00  0.00    -0.413 C  
HETATM    6  O   UNL     1      -9.576  13.458  66.182  1.00  0.00    -0.268 OA 
HETATM    7  C   UNL     1      -9.943  12.554  66.919  1.00  0.00    -0.224 C  
HETATM    8  C   UNL     1      -9.745   6.181  71.615  1.00  0.00    -0.177 C  
HETATM    9  C   UNL     1      -9.706  12.621  68.408  1.00  0.00    -0.187 C  
HETATM   10  C   UNL     1      -9.533  11.352  68.830  1.00  0.00    -0.128 C  
HETATM   11  C   UNL     1      -9.344   5.241  72.781  1.00  0.00    -0.150 C  
HETATM   12  C   UNL     1     -12.022  11.007  69.325  1.00  0.00    -0.410 C  
HETATM   13  C   UNL     1     -11.325   6.307  70.568  1.00  0.00    -0.428 C  
HETATM   14  C   UNL     1      -8.164  10.733  68.640  1.00  0.00    -0.139 C  
HETATM   15  C   UNL     1     -10.719  10.362  68.700  1.00  0.00    -0.250 C  
HETATM   16  C   UNL     1     -11.395   7.706  69.467  1.00  0.00     0.195 C  
HETATM   17  C   UNL     1     -11.028  10.314  67.211  1.00  0.00    -0.277 C  
HETATM   18  O   UNL     1     -11.349   7.192  68.137  1.00  0.00    -0.479 OA 
HETATM   19  C   UNL     1     -10.697  11.353  66.405  1.00  0.00    -0.325 C  
HETATM   20  C   UNL     1     -10.396   9.102  69.622  1.00  0.00    -0.219 C  
HETATM   21  C   UNL     1      -8.867   8.649  69.834  1.00  0.00    -0.144 C  
HETATM   22  F   UNL     1     -10.702   9.750  70.841  1.00  0.00    -0.331 F  
HETATM   23  H   UNL     1     -11.387   7.938  67.550  1.00  0.00     0.000 HD 
HETATM   24  C   UNL     1      -7.870   9.812  69.804  1.00  0.00    -0.159 C  
ENDROOT
BRANCH   4  25
HETATM   25  O   UNL     1      -7.690   5.744  70.615  1.00  0.00    -0.088 OA 
BRANCH  25  26
HETATM   26  C   UNL     1      -6.779   5.689  69.610  1.00  0.00    -0.055 C  
HETATM   27  O   UNL     1      -6.725   6.432  68.640  1.00  0.00    -0.056 OA 
BRANCH  26  28
HETATM   28  C   UNL     1      -5.770   4.598  69.909  1.00  0.00    -0.013 C  
HETATM   29  C   UNL     1      -6.063   3.897  71.227  1.00  0.00    -0.014 C  
ENDBRANCH  26  28
ENDBRANCH  25  26
ENDBRANCH   4  25
BRANCH   4  30
HETATM   30  C   UNL     1      -9.474   4.654  69.955  1.00  0.00    -0.172 C  
HETATM   31  C   UNL     1      -9.617   4.226  68.516  1.00  0.00    -0.136 C  
HETATM   32  O   UNL     1      -9.569   3.706  70.755  1.00  0.00    -0.161 OA 
HETATM   33 CL   UNL     1      -9.362   5.464  67.313  1.00  0.00    -0.114 Cl 
ENDBRANCH   4  30
TORSDOF 4
ENDMDL
MODEL       12
REMARK 921   NORMALIZED FREE ENERGY PREDICTED BY IDOCK:   -4.90 KCAL/MOL
REMARK 922        TOTAL FREE ENERGY PREDICTED BY IDOCK:   -5.20 KCAL/MOL
REMARK 923 INTER-LIGAND FREE ENERGY PREDICTED BY IDOCK:   -6.28 KCAL/MOL
REMARK 924 INTRA-LIGAND FREE ENERGY PREDICTED BY IDOCK:    1.08 KCAL/MOL
REMARK 927      BINDING AFFINITY PREDICTED BY RF-SCORE:    0.00 PKD
ROOT
HETATM    1  C   UNL     1      -8.372  10.743  68.100  1.00  0.00    -0.120 C  
HETATM    2  C   UNL     1      -7.655  11.475  69.074  1.00  0.00    -0.058 C  
HETATM    3  C   UNL     1      -7.251  10.054  68.866  1.00  0.00    -0.077 C  
HETATM    4  C   UNL     1      -8.049   9.188  67.158  1.00  0.00    -0.109 C  
HETATM    5  C   UNL     1      -5.762  10.130  69.687  1.00  0.00    -0.038 C  
HETATM    6  O   UNL     1     -14.410   8.807  72.582  1.00  0.00    -0.585 OA 
HETATM    7  C   UNL     1     -13.259   8.718  72.178  1.00  0.00    -0.414 C  
HETATM    8  C   UNL     1      -6.840   9.586  67.623  1.00  0.00    -0.075 C  
HETATM    9  C   UNL     1     -12.301   9.879  72.297  1.00  0.00     0.025 C  
HETATM   10  C   UNL     1     -11.467   9.801  71.240  1.00  0.00    -0.457 C  
HETATM   11  C   UNL     1      -5.720  10.270  66.798  1.00  0.00    -0.051 C  
HETATM   12  C   UNL     1      -9.755   8.368  72.496  1.00  0.00    -0.359 C  
HETATM   13  C   UNL     1      -6.924   7.907  68.507  1.00  0.00    -0.071 C  
HETATM   14  C   UNL     1     -11.961  10.345  69.917  1.00  0.00    -0.289 C  
HETATM   15  C   UNL     1     -10.528   8.572  71.130  1.00  0.00    -0.278 C  
HETATM   16  C   UNL     1      -8.373   7.653  69.513  1.00  0.00    -0.130 C  
HETATM   17  C   UNL     1     -11.460   7.371  71.068  1.00  0.00    -0.307 C  
HETATM   18  O   UNL     1      -9.134   6.617  68.894  1.00  0.00    -0.133 OA 
HETATM   19  C   UNL     1     -12.709   7.441  71.593  1.00  0.00    -0.399 C  
HETATM   20  C   UNL     1      -9.399   8.926  70.062  1.00  0.00    -0.174 C  
HETATM   21  C   UNL     1      -9.751   9.900  68.831  1.00  0.00    -0.176 C  
HETATM   22  F   UNL     1      -8.661   9.767  70.925  1.00  0.00    -0.197 F  
HETATM   23  H   UNL     1      -9.906   6.482  69.431  1.00  0.00     0.000 HD 
HETATM   24  C   UNL     1     -10.801  10.964  69.169  1.00  0.00    -0.280 C  
ENDROOT
BRANCH   4  25
HETATM   25  O   UNL     1      -8.347  10.113  65.931  1.00  0.00    -0.127 OA 
BRANCH  25  26
HETATM   26  C   UNL     1      -9.519  10.066  65.248  1.00  0.00    -0.263 C  
HETATM   27  O   UNL     1     -10.620   9.810  65.715  1.00  0.00    -0.026 OA 
BRANCH  26  28
HETATM   28  C   UNL     1      -9.274  10.460  63.804  1.00  0.00    -0.302 C  
HETATM   29  C   UNL     1     -10.223  11.556  63.344  1.00  0.00    -0.462 C  
ENDBRANCH  26  28
ENDBRANCH  25  26
ENDBRANCH   4  25
BRANCH   4  30
HETATM   30  C   UNL     1      -7.469   8.106  66.017  1.00  0.00    -0.080 C  
HETATM   31  C   UNL     1      -8.262   6.907  65.563  1.00  0.00    -0.135 C  
HETATM   32  O   UNL     1      -6.379   8.221  65.428  1.00  0.00    -0.048 OA 
HETATM   33 CL   UNL     1      -9.863   6.739  66.235  1.00  0.00    -0.085 Cl 
ENDBRANCH   4  30
TORSDOF 4
ENDMDL
MODEL       13
REMARK 921   NORMALIZED FREE ENERGY PREDICTED BY IDOCK:   -4.88 KCAL/MOL
REMARK 922        TOTAL FREE ENERGY PREDICTED BY IDOCK:   -5.18 KCAL/MOL
REMARK 923 INTER-LIGAND FREE ENERGY PREDICTED BY IDOCK:   -5.99 KCAL/MOL
REMARK 924 INTRA-LIGAND FREE ENERGY PREDICTED BY IDOCK:    0.82 KCAL/MOL
REMARK 927      BINDING AFFINITY PREDICTED BY RF-SCORE:    0.00 PKD
ROOT
HETATM    1  C   UNL     1      -9.378   7.758  67.396  1.00  0.00    -0.168 C  
HETATM    2  C   UNL     1     -10.725   8.004  67.041  1.00  0.00    -0.263 C  
HETATM    3  C   UNL     1      -9.938   9.167  67.547  1.00  0.00    -0.258 C  
HETATM    4  C   UNL     1      -7.894   8.828  67.643  1.00  0.00    -0.102 C  
HETATM    5  C   UNL     1     -11.012  10.389  67.045  1.00  0.00    -0.222 C  
HETATM    6  O   UNL     1     -10.734   5.034  74.539  1.00  0.00    -0.355 OA 
HETATM    7  C   UNL     1     -10.623   5.909  73.692  1.00  0.00    -0.272 C  
HETATM    8  C   UNL     1      -8.765   9.579  66.927  1.00  0.00    -0.136 C  
HETATM    9  C   UNL     1     -11.526   5.939  72.483  1.00  0.00    -0.347 C  
HETATM   10  C   UNL     1     -10.802   6.462  71.472  1.00  0.00    -0.299 C  
HETATM   11  C   UNL     1      -8.680   9.884  65.408  1.00  0.00    -0.175 C  
HETATM   12  C   UNL     1     -11.538   8.863  71.978  1.00  0.00    -0.435 C  
HETATM   13  C   UNL     1      -8.646  10.698  68.457  1.00  0.00    -0.137 C  
HETATM   14  C   UNL     1      -9.852   5.538  70.741  1.00  0.00    -0.247 C  
HETATM   15  C   UNL     1     -10.318   7.930  71.594  1.00  0.00    -0.250 C  
HETATM   16  C   UNL     1      -9.018   9.902  70.007  1.00  0.00    -0.169 C  
HETATM   17  C   UNL     1      -9.449   7.954  72.843  1.00  0.00    -0.321 C  
HETATM   18  O   UNL     1      -7.806   9.868  70.759  1.00  0.00    -0.391 OA 
HETATM   19  C   UNL     1      -9.627   7.035  73.824  1.00  0.00    -0.281 C  
HETATM   20  C   UNL     1      -9.868   8.409  70.142  1.00  0.00    -0.181 C  
HETATM   21  C   UNL     1      -9.245   7.340  69.114  1.00  0.00    -0.139 C  
HETATM   22  F   UNL     1     -11.182   8.585  69.650  1.00  0.00    -0.200 F  
HETATM   23  H   UNL     1      -8.005   9.444  71.586  1.00  0.00     0.000 HD 
HETATM   24  C   UNL     1      -9.810   5.926  69.278  1.00  0.00    -0.205 C  
ENDROOT
BRANCH   4  25
HETATM   25  O   UNL     1      -7.261   7.832  66.614  1.00  0.00    -0.083 OA 
BRANCH  25  26
HETATM   26  C   UNL     1      -6.330   6.909  66.968  1.00  0.00    -0.045 C  
HETATM   27  O   UNL     1      -6.351   6.206  67.969  1.00  0.00    -0.033 OA 
BRANCH  26  28
HETATM   28  C   UNL     1      -5.275   6.820  65.882  1.00  0.00    -0.022 C  
HETATM   29  C   UNL     1      -5.791   7.329  64.544  1.00  0.00    -0.037 C  
ENDBRANCH  26  28
ENDBRANCH  25  26
ENDBRANCH   4  25
BRANCH   4  30
HETATM   30  C   UNL     1      -6.539   9.769  67.345  1.00  0.00    -0.070 C  
HETATM   31  C   UNL     1      -5.375   9.837  68.302  1.00  0.00    -0.039 C  
HETATM   32  O   UNL     1      -6.361  10.441  66.314  1.00  0.00    -0.081 OA 
HETATM   33 CL   UNL     1      -5.476   8.818  69.715  1.00  0.00    -0.029 Cl 
ENDBRANCH   4  30
TORSDOF 4
ENDMDL
MODEL       14
REMARK 921   NORMALIZED FREE ENERGY PREDICTED BY IDOCK:   -4.87 KCAL/MOL
REMARK 922        TOTAL FREE ENERGY PREDICTED BY IDOCK:   -5.15 KCAL/MOL
REMARK 923 INTER-LIGAND FREE ENERGY PREDICTED BY IDOCK:   -6.28 KCAL/MOL
REMARK 924 INTRA-LIGAND FREE ENERGY PREDICTED BY IDOCK:    1.12 KCAL/MOL
REMARK 927      BINDING AFFINITY PREDICTED BY RF-SCORE:    0.00 PKD
ROOT
HETATM    1  C   UNL     1     -10.113   9.649  67.909  1.00  0.00    -0.222 C  
HETATM    2  C   UNL     1     -11.028   9.633  66.831  1.00  0.00     0.028 C  
HETATM    3  C   UNL     1      -9.688  10.236  66.569  1.00  0.00    -0.243 C  
HETATM    4  C   UNL     1      -8.282   9.848  68.044  1.00  0.00    -0.113 C  
HETATM    5  C   UNL     1      -9.790  10.258  64.870  1.00  0.00    -0.404 C  
HETATM    6  O   UNL     1     -12.790  16.067  71.364  1.00  0.00    -0.412 OA 
HETATM    7  C   UNL     1     -12.173  15.446  70.509  1.00  0.00    -0.394 C  
HETATM    8  C   UNL     1      -8.514   9.514  66.751  1.00  0.00    -0.129 C  
HETATM    9  C   UNL     1     -12.878  14.479  69.590  1.00  0.00     0.210 C  
HETATM   10  C   UNL     1     -11.995  13.500  69.307  1.00  0.00    -0.378 C  
HETATM   11  C   UNL     1      -8.274   8.125  66.105  1.00  0.00    -0.117 C  
HETATM   12  C   UNL     1     -11.097  14.693  67.226  1.00  0.00    -0.331 C  
HETATM   13  C   UNL     1      -7.720  11.212  66.447  1.00  0.00    -0.124 C  
HETATM   14  C   UNL     1     -11.819  12.399  70.331  1.00  0.00    -0.249 C  
HETATM   15  C   UNL     1     -10.711  13.869  68.521  1.00  0.00    -0.268 C  
HETATM   16  C   UNL     1      -8.488  12.572  67.306  1.00  0.00    -0.185 C  
HETATM   17  C   UNL     1      -9.999  14.894  69.392  1.00  0.00    -0.145 C  
HETATM   18  O   UNL     1      -7.546  13.043  68.267  1.00  0.00    -0.117 OA 
HETATM   19  C   UNL     1     -10.695  15.645  70.282  1.00  0.00    -0.354 C  
HETATM   20  C   UNL     1     -10.075  12.513  67.976  1.00  0.00    -0.220 C  
HETATM   21  C   UNL     1     -10.248  11.160  68.829  1.00  0.00    -0.219 C  
HETATM   22  F   UNL     1     -11.008  12.342  66.928  1.00  0.00    -0.252 F  
HETATM   23  H   UNL     1      -7.955  13.768  68.725  1.00  0.00     0.000 HD 
HETATM   24  C   UNL     1     -11.561  11.091  69.616  1.00  0.00    -0.390 C  
ENDROOT
BRANCH   4  25
HETATM   25  O   UNL     1      -8.402   8.509  68.846  1.00  0.00    -0.116 OA 
BRANCH  25  26
HETATM   26  C   UNL     1      -8.636   8.478  70.183  1.00  0.00    -0.132 C  
HETATM   27  O   UNL     1      -8.452   9.394  70.973  1.00  0.00    -0.285 OA 
BRANCH  26  28
HETATM   28  C   UNL     1      -9.244   7.139  70.554  1.00  0.00    -0.158 C  
HETATM   29  C   UNL     1     -10.738   7.093  70.269  1.00  0.00    -0.258 C  
ENDBRANCH  26  28
ENDBRANCH  25  26
ENDBRANCH   4  25
BRANCH   4  30
HETATM   30  C   UNL     1      -6.638   9.523  68.032  1.00  0.00    -0.062 C  
HETATM   31  C   UNL     1      -5.669  10.217  68.957  1.00  0.00    -0.037 C  
HETATM   32  O   UNL     1      -6.092   8.671  67.309  1.00  0.00    -0.053 OA 
HETATM   33 CL   UNL     1      -6.363  11.334  70.106  1.00  0.00    -0.149 Cl 
ENDBRANCH   4  30
TORSDOF 4
ENDMDL
MODEL       15
REMARK 921   NORMALIZED FREE ENERGY PREDICTED BY IDOCK:   -4.86 KCAL/MOL
REMARK 922        TOTAL FREE ENERGY PREDICTED BY IDOCK:   -5.15 KCAL/MOL
REMARK 923 INTER-LIGAND FREE ENERGY PREDICTED BY IDOCK:   -6.32 KCAL/MOL
REMARK 924 INTRA-LIGAND FREE ENERGY PREDICTED BY IDOCK:    1.17 KCAL/MOL
REMARK 927      BINDING AFFINITY PREDICTED BY RF-SCORE:    0.00 PKD
ROOT
HETATM    1  C   UNL     1      -9.928   8.290  68.636  1.00  0.00    -0.203 C  
HETATM    2  C   UNL     1     -10.651   7.911  67.482  1.00  0.00    -0.312 C  
HETATM    3  C   UNL     1      -9.210   8.248  67.293  1.00  0.00    -0.165 C  
HETATM    4  C   UNL     1      -8.134   8.381  69.062  1.00  0.00    -0.116 C  
HETATM    5  C   UNL     1      -9.036   7.587  65.735  1.00  0.00    -0.077 C  
HETATM    6  O   UNL     1     -12.089  15.748  68.732  1.00  0.00    -0.314 OA 
HETATM    7  C   UNL     1     -11.449  14.787  68.329  1.00  0.00    -0.317 C  
HETATM    8  C   UNL     1      -8.207   7.571  67.978  1.00  0.00    -0.124 C  
HETATM    9  C   UNL     1     -12.140  13.589  67.726  1.00  0.00    -0.316 C  
HETATM   10  C   UNL     1     -11.386  12.513  68.029  1.00  0.00    -0.339 C  
HETATM   11  C   UNL     1      -8.086   6.026  67.978  1.00  0.00    -0.110 C  
HETATM   12  C   UNL     1      -9.995  12.685  65.886  1.00  0.00    -0.274 C  
HETATM   13  C   UNL     1      -7.120   8.932  67.220  1.00  0.00    -0.083 C  
HETATM   14  C   UNL     1     -11.549  11.912  69.409  1.00  0.00    -0.388 C  
HETATM   15  C   UNL     1      -9.952  12.429  67.448  1.00  0.00    -0.203 C  
HETATM   16  C   UNL     1      -7.794  10.578  67.312  1.00  0.00    -0.107 C  
HETATM   17  C   UNL     1      -9.237  13.659  67.987  1.00  0.00    -0.197 C  
HETATM   18  O   UNL     1      -6.954  11.323  68.194  1.00  0.00    -0.066 OA 
HETATM   19  C   UNL     1      -9.940  14.758  68.356  1.00  0.00    -0.223 C  
HETATM   20  C   UNL     1      -9.456  10.922  67.608  1.00  0.00    -0.159 C  
HETATM   21  C   UNL     1      -9.971  10.050  68.858  1.00  0.00    -0.198 C  
HETATM   22  F   UNL     1     -10.226  10.416  66.536  1.00  0.00    -0.247 F  
HETATM   23  H   UNL     1      -7.314  12.201  68.243  1.00  0.00     0.000 HD 
HETATM   24  C   UNL     1     -11.387  10.410  69.319  1.00  0.00    -0.296 C  
ENDROOT
BRANCH   4  25
HETATM   25  O   UNL     1      -8.587   7.497  70.272  1.00  0.00    -0.140 OA 
BRANCH  25  26
HETATM   26  C   UNL     1      -9.092   8.027  71.415  1.00  0.00    -0.141 C  
HETATM   27  O   UNL     1      -8.740   9.072  71.946  1.00  0.00    -0.363 OA 
BRANCH  26  28
HETATM   28  C   UNL     1     -10.231   7.158  71.911  1.00  0.00    -0.208 C  
HETATM   29  C   UNL     1     -11.411   7.987  72.396  1.00  0.00    -0.443 C  
ENDBRANCH  26  28
ENDBRANCH  25  26
ENDBRANCH   4  25
BRANCH   4  30
HETATM   30  C   UNL     1      -6.580   7.951  69.518  1.00  0.00    -0.035 C  
HETATM   31  C   UNL     1      -5.666   8.890  70.265  1.00  0.00    -0.033 C  
HETATM   32  O   UNL     1      -6.073   6.832  69.325  1.00  0.00    -0.024 OA 
HETATM   33 CL   UNL     1      -6.341  10.439  70.702  1.00  0.00    -0.102 Cl 
ENDBRANCH   4  30
TORSDOF 4
ENDMDL
MODEL       16
REMARK 921   NORMALIZED FREE ENERGY PREDICTED BY IDOCK:   -4.82 KCAL/MOL
REMARK 922        TOTAL FREE ENERGY PREDICTED BY IDOCK:   -5.09 KCAL/MOL
REMARK 923 INTER-LIGAND FREE ENERGY PREDICTED BY IDOCK:   -6.53 KCAL/MOL
REMARK 924 INTRA-LIGAND FREE ENERGY PREDICTED BY IDOCK:    1.44 KCAL/MOL
REMARK 927      BINDING AFFINITY PREDICTED BY RF-SCORE:    0.00 PKD
ROOT
HETATM    1  C   UNL     1      -7.404   9.365  67.216  1.00  0.00    -0.087 C  
HETATM    2  C   UNL     1      -6.454  10.383  67.465  1.00  0.00    -0.058 C  
HETATM    3  C   UNL     1      -7.452  10.115  68.541  1.00  0.00    -0.086 C  
HETATM    4  C   UNL     1      -8.523   8.357  68.283  1.00  0.00    -0.135 C  
HETATM    5  C   UNL     1      -6.659  10.960  69.787  1.00  0.00    -0.140 C  
HETATM    6  O   UNL     1     -12.385  13.664  63.093  1.00  0.00    -0.729 OA 
HETATM    7  C   UNL     1     -11.849  13.273  64.120  1.00  0.00    -0.443 C  
HETATM    8  C   UNL     1      -7.582   8.857  69.119  1.00  0.00    -0.080 C  
HETATM    9  C   UNL     1     -10.368  13.460  64.344  1.00  0.00    -0.347 C  
HETATM   10  C   UNL     1      -9.954  12.414  65.087  1.00  0.00    -0.219 C  
HETATM   11  C   UNL     1      -6.380   8.081  69.718  1.00  0.00    -0.036 C  
HETATM   12  C   UNL     1     -10.358  13.625  67.307  1.00  0.00    -0.249 C  
HETATM   13  C   UNL     1      -9.104   9.661  69.923  1.00  0.00    -0.250 C  
HETATM   14  C   UNL     1      -9.681  11.110  64.367  1.00  0.00    -0.312 C  
HETATM   15  C   UNL     1     -10.516  12.259  66.523  1.00  0.00    -0.254 C  
HETATM   16  C   UNL     1     -10.115  10.632  68.824  1.00  0.00    -0.191 C  
HETATM   17  C   UNL     1     -12.022  12.128  66.343  1.00  0.00    -0.201 C  
HETATM   18  O   UNL     1     -11.365   9.955  68.699  1.00  0.00    -0.475 OA 
HETATM   19  C   UNL     1     -12.630  12.637  65.243  1.00  0.00    -0.388 C  
HETATM   20  C   UNL     1      -9.581  11.225  67.296  1.00  0.00    -0.173 C  
HETATM   21  C   UNL     1      -8.870  10.037  66.477  1.00  0.00    -0.154 C  
HETATM   22  F   UNL     1      -8.522  12.137  67.505  1.00  0.00    -0.139 F  
HETATM   23  H   UNL     1     -11.904  10.473  68.114  1.00  0.00     0.000 HD 
HETATM   24  C   UNL     1      -8.517  10.409  65.034  1.00  0.00    -0.180 C  
ENDROOT
BRANCH   4  25
HETATM   25  O   UNL     1      -7.827   7.170  67.537  1.00  0.00    -0.109 OA 
BRANCH  25  26
HETATM   26  C   UNL     1      -8.412   6.512  66.504  1.00  0.00    -0.120 C  
HETATM   27  O   UNL     1      -9.141   7.004  65.652  1.00  0.00    -0.027 OA 
BRANCH  26  28
HETATM   28  C   UNL     1      -7.963   5.064  66.512  1.00  0.00    -0.107 C  
HETATM   29  C   UNL     1      -7.231   4.703  67.796  1.00  0.00    -0.066 C  
ENDBRANCH  26  28
ENDBRANCH  25  26
ENDBRANCH   4  25
BRANCH   4  30
HETATM   30  C   UNL     1      -9.095   7.175  69.325  1.00  0.00    -0.137 C  
HETATM   31  C   UNL     1     -10.389   6.440  69.082  1.00  0.00    -0.208 C  
HETATM   32  O   UNL     1      -8.495   6.780  70.340  1.00  0.00    -0.132 OA 
HETATM   33 CL   UNL     1     -11.235   6.831  67.606  1.00  0.00    -0.297 Cl 
ENDBRANCH   4  30
TORSDOF 4
ENDMDL
MODEL       17
REMARK 921   NORMALIZED FREE ENERGY PREDICTED BY IDOCK:   -4.76 KCAL/MOL
REMARK 922        TOTAL FREE ENERGY PREDICTED BY IDOCK:   -5.03 KCAL/MOL
REMARK 923 INTER-LIGAND FREE ENERGY PREDICTED BY IDOCK:   -5.85 KCAL/MOL
REMARK 924 INTRA-LIGAND FREE ENERGY PREDICTED BY IDOCK:    0.83 KCAL/MOL
REMARK 927      BINDING AFFINITY PREDICTED BY RF-SCORE:    0.00 PKD
ROOT
HETATM    1  C   UNL     1      -8.805   7.712  70.225  1.00  0.00    -0.145 C  
HETATM    2  C   UNL     1      -9.677   8.068  71.280  1.00  0.00    -0.199 C  
HETATM    3  C   UNL     1     -10.276   7.330  70.129  1.00  0.00    -0.209 C  
HETATM    4  C   UNL     1      -8.881   6.487  68.846  1.00  0.00    -0.126 C  
HETATM    5  C   UNL     1     -11.742   6.908  70.884  1.00  0.00    -0.408 C  
HETATM    6  O   UNL     1      -8.967  14.515  66.485  1.00  0.00    -0.246 OA 
HETATM    7  C   UNL     1      -9.416  13.430  66.827  1.00  0.00    -0.261 C  
HETATM    8  C   UNL     1      -9.811   6.079  69.743  1.00  0.00    -0.208 C  
HETATM    9  C   UNL     1      -9.679  13.121  68.281  1.00  0.00    -0.223 C  
HETATM   10  C   UNL     1      -9.468  11.799  68.440  1.00  0.00    -0.188 C  
HETATM   11  C   UNL     1      -9.672   4.893  70.733  1.00  0.00    -0.268 C  
HETATM   12  C   UNL     1     -11.908  11.190  67.956  1.00  0.00    -0.203 C  
HETATM   13  C   UNL     1     -10.976   6.378  68.273  1.00  0.00    -0.396 C  
HETATM   14  C   UNL     1      -8.036  11.333  68.600  1.00  0.00    -0.145 C  
HETATM   15  C   UNL     1     -10.395  10.808  67.690  1.00  0.00    -0.236 C  
HETATM   16  C   UNL     1     -10.891   8.008  67.560  1.00  0.00    -0.062 C  
HETATM   17  C   UNL     1     -10.204  11.131  66.215  1.00  0.00    -0.286 C  
HETATM   18  O   UNL     1     -10.351   7.862  66.248  1.00  0.00    -0.461 OA 
HETATM   19  C   UNL     1      -9.787  12.361  65.828  1.00  0.00    -0.253 C  
HETATM   20  C   UNL     1     -10.206   9.373  68.359  1.00  0.00    -0.197 C  
HETATM   21  C   UNL     1      -8.776   8.972  68.977  1.00  0.00    -0.138 C  
HETATM   22  F   UNL     1     -10.973   9.662  69.510  1.00  0.00    -0.223 F  
HETATM   23  H   UNL     1     -10.307   8.731  65.867  1.00  0.00     0.000 HD 
HETATM   24  C   UNL     1      -7.999  10.160  69.555  1.00  0.00    -0.170 C  
ENDROOT
BRANCH   4  25
HETATM   25  O   UNL     1      -7.505   6.040  69.441  1.00  0.00    -0.084 OA 
BRANCH  25  26
HETATM   26  C   UNL     1      -6.327   6.260  68.804  1.00  0.00    -0.041 C  
HETATM   27  O   UNL     1      -5.964   7.313  68.295  1.00  0.00    -0.028 OA 
BRANCH  26  28
HETATM   28  C   UNL     1      -5.473   5.009  68.881  1.00  0.00    -0.008 C  
HETATM   29  C   UNL     1      -5.854   4.133  70.066  1.00  0.00    -0.017 C  
ENDBRANCH  26  28
ENDBRANCH  25  26
ENDBRANCH   4  25
BRANCH   4  30
HETATM   30  C   UNL     1      -8.808   5.054  67.981  1.00  0.00    -0.103 C  
HETATM   31  C   UNL     1      -8.413   5.006  66.526  1.00  0.00    -0.110 C  
HETATM   32  O   UNL     1      -9.025   3.928  68.462  1.00  0.00    -0.102 OA 
HETATM   33 CL   UNL     1      -7.957   6.527  65.799  1.00  0.00    -0.108 Cl 
ENDBRANCH   4  30
TORSDOF 4
ENDMDL
MODEL       18
REMARK 921   NORMALIZED FREE ENERGY PREDICTED BY IDOCK:   -4.69 KCAL/MOL
REMARK 922        TOTAL FREE ENERGY PREDICTED BY IDOCK:   -4.93 KCAL/MOL
REMARK 923 INTER-LIGAND FREE ENERGY PREDICTED BY IDOCK:   -5.95 KCAL/MOL
REMARK 924 INTRA-LIGAND FREE ENERGY PREDICTED BY IDOCK:    1.02 KCAL/MOL
REMARK 927      BINDING AFFINITY PREDICTED BY RF-SCORE:    0.00 PKD
ROOT
HETATM    1  C   UNL     1     -11.508  14.620  67.134  1.00  0.00    -0.380 C  
HETATM    2  C   UNL     1     -12.503  13.764  67.661  1.00  0.00     0.161 C  
HETATM    3  C   UNL     1     -11.260  13.932  68.470  1.00  0.00    -0.298 C  
HETATM    4  C   UNL     1     -10.053  15.502  67.852  1.00  0.00    -0.224 C  
HETATM    5  C   UNL     1     -11.856  13.267  69.920  1.00  0.00    -0.380 C  
HETATM    6  O   UNL     1      -8.203   9.461  62.364  1.00  0.00    -0.129 OA 
HETATM    7  C   UNL     1      -8.436   9.972  63.451  1.00  0.00    -0.182 C  
HETATM    8  C   UNL     1     -10.838  15.181  68.909  1.00  0.00    -0.241 C  
HETATM    9  C   UNL     1      -9.839  10.013  64.006  1.00  0.00    -0.029 C  
HETATM   10  C   UNL     1      -9.932  11.141  64.739  1.00  0.00    -0.339 C  
HETATM   11  C   UNL     1     -11.760  16.150  69.694  1.00  0.00    -0.193 C  
HETATM   12  C   UNL     1      -9.200   9.984  66.903  1.00  0.00    -0.169 C  
HETATM   13  C   UNL     1      -9.294  14.201  69.420  1.00  0.00     0.453 C  
HETATM   14  C   UNL     1     -10.187  12.437  63.999  1.00  0.00    -0.401 C  
HETATM   15  C   UNL     1      -9.044  11.276  66.002  1.00  0.00    -0.221 C  
HETATM   16  C   UNL     1      -8.695  13.044  68.205  1.00  0.00    -0.190 C  
HETATM   17  C   UNL     1      -7.614  11.177  65.489  1.00  0.00     0.293 C  
HETATM   18  O   UNL     1      -7.428  13.526  67.760  1.00  0.00    -0.132 OA 
HETATM   19  C   UNL     1      -7.343  10.537  64.325  1.00  0.00     0.104 C  
HETATM   20  C   UNL     1      -9.635  12.468  66.880  1.00  0.00    -0.229 C  
HETATM   21  C   UNL     1     -10.349  13.710  66.147  1.00  0.00    -0.297 C  
HETATM   22  F   UNL     1     -10.730  11.730  67.383  1.00  0.00    -0.226 F  
HETATM   23  H   UNL     1      -7.109  12.909  67.112  1.00  0.00     0.000 HD 
HETATM   24  C   UNL     1     -11.066  13.329  64.848  1.00  0.00    -0.345 C  
ENDROOT
BRANCH   4  25
HETATM   25  O   UNL     1     -10.737  16.743  67.188  1.00  0.00    -0.287 OA 
BRANCH  25  26
HETATM   26  C   UNL     1     -10.205  17.384  66.116  1.00  0.00    -0.328 C  
HETATM   27  O   UNL     1      -9.558  16.871  65.213  1.00  0.00    -0.228 OA 
BRANCH  26  28
HETATM   28  C   UNL     1     -10.600  18.847  66.161  1.00  0.00    -0.476 C  
HETATM   29  C   UNL     1      -9.464  19.728  66.660  1.00  0.00    -0.491 C  
ENDBRANCH  26  28
ENDBRANCH  25  26
ENDBRANCH   4  25
BRANCH   4  30
HETATM   30  C   UNL     1      -9.109  16.632  68.651  1.00  0.00    -0.245 C  
HETATM   31  C   UNL     1      -7.671  16.895  68.278  1.00  0.00    -0.205 C  
HETATM   32  O   UNL     1      -9.514  17.367  69.569  1.00  0.00     0.135 OA 
HETATM   33 CL   UNL     1      -7.054  16.007  66.908  1.00  0.00    -0.230 Cl 
ENDBRANCH   4  30
TORSDOF 4
ENDMDL
MODEL       19
REMARK 921   NORMALIZED FREE ENERGY PREDICTED BY IDOCK:   -4.68 KCAL/MOL
REMARK 922        TOTAL FREE ENERGY PREDICTED BY IDOCK:   -4.93 KCAL/MOL
REMARK 923 INTER-LIGAND FREE ENERGY PREDICTED BY IDOCK:   -6.06 KCAL/MOL
REMARK 924 INTRA-LIGAND FREE ENERGY PREDICTED BY IDOCK:    1.13 KCAL/MOL
REMARK 927      BINDING AFFINITY PREDICTED BY RF-SCORE:    0.00 PKD
ROOT
HETATM    1  C   UNL     1      -7.938   7.783  67.375  1.00  0.00    -0.119 C  
HETATM    2  C   UNL     1      -6.722   8.322  66.896  1.00  0.00    -0.062 C  
HETATM    3  C   UNL     1      -6.992   8.463  68.357  1.00  0.00    -0.069 C  
HETATM    4  C   UNL     1      -8.566   7.298  69.043  1.00  0.00    -0.129 C  
HETATM    5  C   UNL     1      -5.414   8.890  68.829  1.00  0.00    -0.040 C  
HETATM    6  O   UNL     1     -12.472  13.809  65.527  1.00  0.00    -0.454 OA 
HETATM    7  C   UNL     1     -11.642  13.216  66.201  1.00  0.00    -0.355 C  
HETATM    8  C   UNL     1      -7.218   7.357  69.168  1.00  0.00    -0.084 C  
HETATM    9  C   UNL     1     -10.325  12.780  65.606  1.00  0.00    -0.296 C  
HETATM   10  C   UNL     1      -9.972  11.642  66.238  1.00  0.00    -0.247 C  
HETATM   11  C   UNL     1      -6.248   6.149  69.227  1.00  0.00    -0.033 C  
HETATM   12  C   UNL     1      -8.650  12.873  68.054  1.00  0.00    -0.186 C  
HETATM   13  C   UNL     1      -7.661   8.695  70.441  1.00  0.00    -0.075 C  
HETATM   14  C   UNL     1     -10.611  10.354  65.767  1.00  0.00    -0.100 C  
HETATM   15  C   UNL     1      -9.675  11.704  67.758  1.00  0.00    -0.177 C  
HETATM   16  C   UNL     1      -8.689  10.014  69.825  1.00  0.00    -0.179 C  
HETATM   17  C   UNL     1     -10.968  12.200  68.391  1.00  0.00    -0.271 C  
HETATM   18  O   UNL     1      -9.948   9.905  70.489  1.00  0.00    -0.345 OA 
HETATM   19  C   UNL     1     -11.851  12.932  67.668  1.00  0.00    -0.400 C  
HETATM   20  C   UNL     1      -8.904  10.366  68.152  1.00  0.00    -0.132 C  
HETATM   21  C   UNL     1      -9.223   9.006  67.353  1.00  0.00    -0.158 C  
HETATM   22  F   UNL     1      -7.663  10.764  67.605  1.00  0.00    -0.099 F  
HETATM   23  H   UNL     1     -10.496  10.609  70.161  1.00  0.00     0.000 HD 
HETATM   24  C   UNL     1      -9.607   9.228  65.887  1.00  0.00    -0.345 C  
ENDROOT
BRANCH   4  25
HETATM   25  O   UNL     1      -8.855   5.944  68.313  1.00  0.00    -0.112 OA 
BRANCH  25  26
HETATM   26  C   UNL     1     -10.006   5.714  67.629  1.00  0.00    -0.150 C  
HETATM   27  O   UNL     1     -11.056   6.331  67.749  1.00  0.00    -0.334 OA 
BRANCH  26  28
HETATM   28  C   UNL     1      -9.776   4.606  66.619  1.00  0.00    -0.213 C  
HETATM   29  C   UNL     1      -9.097   5.118  65.358  1.00  0.00    -0.145 C  
ENDBRANCH  26  28
ENDBRANCH  25  26
ENDBRANCH   4  25
BRANCH   4  30
HETATM   30  C   UNL     1      -8.850   6.432  70.449  1.00  0.00    -0.151 C  
HETATM   31  C   UNL     1     -10.161   6.504  71.192  1.00  0.00    -0.192 C  
HETATM   32  O   UNL     1      -8.042   5.641  70.966  1.00  0.00    -0.114 OA 
HETATM   33 CL   UNL     1     -11.408   7.486  70.466  1.00  0.00    -0.291 Cl 
ENDBRANCH   4  30
TORSDOF 4
ENDMDL
MODEL       20
REMARK 921   NORMALIZED FREE ENERGY PREDICTED BY IDOCK:   -4.64 KCAL/MOL
REMARK 922        TOTAL FREE ENERGY PREDICTED BY IDOCK:   -4.88 KCAL/MOL
REMARK 923 INTER-LIGAND FREE ENERGY PREDICTED BY IDOCK:   -5.72 KCAL/MOL
REMARK 924 INTRA-LIGAND FREE ENERGY PREDICTED BY IDOCK:    0.84 KCAL/MOL
REMARK 927      BINDING AFFINITY PREDICTED BY RF-SCORE:    0.00 PKD
ROOT
HETATM    1  C   UNL     1     -10.573   7.690  68.732  1.00  0.00    -0.169 C  
HETATM    2  C   UNL     1     -11.028   7.231  67.473  1.00  0.00    -0.221 C  
HETATM    3  C   UNL     1      -9.590   6.996  67.798  1.00  0.00    -0.138 C  
HETATM    4  C   UNL     1      -9.110   7.311  69.792  1.00  0.00    -0.141 C  
HETATM    5  C   UNL     1      -9.274   5.864  66.568  1.00  0.00    -0.154 C  
HETATM    6  O   UNL     1      -9.336  15.078  66.684  1.00  0.00    -0.234 OA 
HETATM    7  C   UNL     1      -9.072  13.884  66.733  1.00  0.00    -0.223 C  
HETATM    8  C   UNL     1      -9.204   6.276  68.922  1.00  0.00    -0.123 C  
HETATM    9  C   UNL     1      -9.999  12.858  66.130  1.00  0.00    -0.274 C  
HETATM   10  C   UNL     1      -9.886  11.745  66.883  1.00  0.00    -0.221 C  
HETATM   11  C   UNL     1      -9.748   4.859  69.239  1.00  0.00    -0.258 C  
HETATM   12  C   UNL     1      -8.005  10.769  65.445  1.00  0.00    -0.027 C  
HETATM   13  C   UNL     1      -7.480   6.892  68.415  1.00  0.00    -0.098 C  
HETATM   14  C   UNL     1     -10.672  11.694  68.176  1.00  0.00    -0.248 C  
HETATM   15  C   UNL     1      -8.520  11.014  66.922  1.00  0.00    -0.139 C  
HETATM   16  C   UNL     1      -7.397   8.610  67.952  1.00  0.00    -0.092 C  
HETATM   17  C   UNL     1      -7.541  12.042  67.471  1.00  0.00    -0.147 C  
HETATM   18  O   UNL     1      -6.612   9.271  68.943  1.00  0.00    -0.047 OA 
HETATM   19  C   UNL     1      -7.791  13.369  67.342  1.00  0.00    -0.154 C  
HETATM   20  C   UNL     1      -8.770   9.559  67.521  1.00  0.00    -0.126 C  
HETATM   21  C   UNL     1      -9.936   9.341  68.609  1.00  0.00    -0.193 C  
HETATM   22  F   UNL     1      -9.341   9.027  66.342  1.00  0.00    -0.182 F  
HETATM   23  H   UNL     1      -6.567  10.188  68.696  1.00  0.00     0.000 HD 
HETATM   24  C   UNL     1     -11.137  10.274  68.419  1.00  0.00    -0.302 C  
ENDROOT
BRANCH   4  25
HETATM   25  O   UNL     1     -10.216   7.051  70.868  1.00  0.00    -0.197 OA 
BRANCH  25  26
HETATM   26  C   UNL     1     -10.394   7.861  71.943  1.00  0.00    -0.215 C  
HETATM   27  O   UNL     1     -10.378   9.084  71.939  1.00  0.00    -0.341 OA 
BRANCH  26  28
HETATM   28  C   UNL     1     -10.698   7.013  73.164  1.00  0.00    -0.359 C  
HETATM   29  C   UNL     1     -11.332   5.682  72.789  1.00  0.00    -0.350 C  
ENDBRANCH  26  28
ENDBRANCH  25  26
ENDBRANCH   4  25
BRANCH   4  30
HETATM   30  C   UNL     1      -8.081   6.557  70.877  1.00  0.00    -0.123 C  
HETATM   31  C   UNL     1      -7.113   7.324  71.743  1.00  0.00    -0.067 C  
HETATM   32  O   UNL     1      -8.057   5.331  71.091  1.00  0.00    -0.104 OA 
HETATM   33 CL   UNL     1      -7.172   9.064  71.611  1.00  0.00    -0.052 Cl 
ENDBRANCH   4  30
TORSDOF 4
ENDMDL
MODEL       21
REMARK 921   NORMALIZED FREE ENERGY PREDICTED BY IDOCK:   -4.62 KCAL/MOL
REMARK 922        TOTAL FREE ENERGY PREDICTED BY IDOCK:   -4.85 KCAL/MOL
REMARK 923 INTER-LIGAND FREE ENERGY PREDICTED BY IDOCK:   -7.36 KCAL/MOL
REMARK 924 INTRA-LIGAND FREE ENERGY PREDICTED BY IDOCK:    2.51 KCAL/MOL
REMARK 927      BINDING AFFINITY PREDICTED BY RF-SCORE:    0.00 PKD
ROOT
HETATM    1  C   UNL     1     -11.057  11.511  67.224  1.00  0.00    -0.351 C  
HETATM    2  C   UNL     1     -11.564  11.733  65.922  1.00  0.00    -0.200 C  
HETATM    3  C   UNL     1     -10.108  11.423  66.035  1.00  0.00    -0.275 C  
HETATM    4  C   UNL     1      -9.537  10.705  67.896  1.00  0.00    -0.162 C  
HETATM    5  C   UNL     1      -9.833  11.081  64.391  1.00  0.00    -0.351 C  
HETATM    6  O   UNL     1     -10.046  18.961  69.162  1.00  0.00    -0.365 OA 
HETATM    7  C   UNL     1      -9.760  17.919  68.591  1.00  0.00    -0.353 C  
HETATM    8  C   UNL     1      -9.656  10.249  66.626  1.00  0.00    -0.220 C  
HETATM    9  C   UNL     1     -10.698  17.302  67.581  1.00  0.00    -0.307 C  
HETATM   10  C   UNL     1     -10.530  15.967  67.662  1.00  0.00    -0.289 C  
HETATM   11  C   UNL     1     -10.160   8.846  66.199  1.00  0.00    -0.209 C  
HETATM   12  C   UNL     1      -8.704  15.927  65.867  1.00  0.00    -0.055 C  
HETATM   13  C   UNL     1      -7.970  11.104  66.444  1.00  0.00    -0.147 C  
HETATM   14  C   UNL     1     -11.251  15.238  68.777  1.00  0.00    -0.293 C  
HETATM   15  C   UNL     1      -9.151  15.371  67.280  1.00  0.00    -0.218 C  
HETATM   16  C   UNL     1      -7.938  12.822  66.913  1.00  0.00     0.052 C  
HETATM   17  C   UNL     1      -8.164  16.018  68.242  1.00  0.00    -0.159 C  
HETATM   18  O   UNL     1      -7.117  12.922  68.076  1.00  0.00    -0.086 OA 
HETATM   19  C   UNL     1      -8.443  17.217  68.811  1.00  0.00    -0.225 C  
HETATM   20  C   UNL     1      -9.347  13.804  67.068  1.00  0.00    -0.248 C  
HETATM   21  C   UNL     1     -10.455  13.021  67.933  1.00  0.00    -0.234 C  
HETATM   22  F   UNL     1      -9.965  13.919  65.802  1.00  0.00    -0.286 F  
HETATM   23  H   UNL     1      -7.101  13.839  68.326  1.00  0.00     0.000 HD 
HETATM   24  C   UNL     1     -11.679  13.873  68.283  1.00  0.00    -0.396 C  
ENDROOT
BRANCH   4  25
HETATM   25  O   UNL     1     -10.585   9.893  68.729  1.00  0.00    -0.206 OA 
BRANCH  25  26
HETATM   26  C   UNL     1     -10.720  10.036  70.072  1.00  0.00    -0.299 C  
HETATM   27  O   UNL     1      -9.984   9.563  70.928  1.00  0.00    -0.284 OA 
BRANCH  26  28
HETATM   28  C   UNL     1     -11.895  10.948  70.364  1.00  0.00    -0.449 C  
HETATM   29  C   UNL     1     -12.747  10.429  71.514  1.00  0.00    -0.564 C  
ENDBRANCH  26  28
ENDBRANCH  25  26
ENDBRANCH   4  25
BRANCH   4  30
HETATM   30  C   UNL     1      -8.444   9.547  68.415  1.00  0.00    -0.119 C  
HETATM   31  C   UNL     1      -7.274   9.880  69.308  1.00  0.00    -0.073 C  
HETATM   32  O   UNL     1      -8.524   8.334  68.152  1.00  0.00    -0.130 OA 
HETATM   33 CL   UNL     1      -7.158  11.537  69.842  1.00  0.00     0.143 Cl 
ENDBRANCH   4  30
TORSDOF 4
ENDMDL
MODEL       22
REMARK 921   NORMALIZED FREE ENERGY PREDICTED BY IDOCK:   -4.61 KCAL/MOL
REMARK 922        TOTAL FREE ENERGY PREDICTED BY IDOCK:   -4.84 KCAL/MOL
REMARK 923 INTER-LIGAND FREE ENERGY PREDICTED BY IDOCK:   -6.44 KCAL/MOL
REMARK 924 INTRA-LIGAND FREE ENERGY PREDICTED BY IDOCK:    1.60 KCAL/MOL
REMARK 927      BINDING AFFINITY PREDICTED BY RF-SCORE:    0.00 PKD
ROOT
HETATM    1  C   UNL     1     -10.906  10.338  67.265  1.00  0.00    -0.312 C  
HETATM    2  C   UNL     1     -10.757   9.235  68.138  1.00  0.00    -0.205 C  
HETATM    3  C   UNL     1     -10.103  10.511  68.548  1.00  0.00    -0.187 C  
HETATM    4  C   UNL     1     -10.709  12.164  67.451  1.00  0.00    -0.234 C  
HETATM    5  C   UNL     1      -9.805  10.090  70.170  1.00  0.00    -0.205 C  
HETATM    6  O   UNL     1      -5.172   8.486  62.368  1.00  0.00    -0.068 OA 
HETATM    7  C   UNL     1      -5.637   8.917  63.414  1.00  0.00    -0.072 C  
HETATM    8  C   UNL     1     -10.830  11.685  68.712  1.00  0.00    -0.262 C  
HETATM    9  C   UNL     1      -6.450   8.033  64.327  1.00  0.00    -0.061 C  
HETATM   10  C   UNL     1      -7.358   8.828  64.928  1.00  0.00    -0.093 C  
HETATM   11  C   UNL     1     -12.092  11.772  69.609  1.00  0.00    -0.323 C  
HETATM   12  C   UNL     1      -5.830   9.337  66.919  1.00  0.00    -0.051 C  
HETATM   13  C   UNL     1      -9.095  12.439  68.881  1.00  0.00     0.288 C  
HETATM   14  C   UNL     1      -8.609   9.174  64.148  1.00  0.00    -0.191 C  
HETATM   15  C   UNL     1      -6.850   9.947  65.873  1.00  0.00    -0.101 C  
HETATM   16  C   UNL     1      -7.904  11.873  67.683  1.00  0.00    -0.142 C  
HETATM   17  C   UNL     1      -5.972  10.830  64.998  1.00  0.00     0.033 C  
HETATM   18  O   UNL     1      -7.584  12.990  66.854  1.00  0.00    -0.388 OA 
HETATM   19  C   UNL     1      -5.386  10.329  63.883  1.00  0.00    -0.136 C  
HETATM   20  C   UNL     1      -8.091  10.442  66.742  1.00  0.00    -0.120 C  
HETATM   21  C   UNL     1      -9.567  10.408  66.103  1.00  0.00    -0.245 C  
HETATM   22  F   UNL     1      -8.100   9.324  67.607  1.00  0.00    -0.101 F  
HETATM   23  H   UNL     1      -6.948  12.688  66.216  1.00  0.00     0.000 HD 
HETATM   24  C   UNL     1      -9.780   9.267  65.103  1.00  0.00     0.003 C  
ENDROOT
BRANCH   4  25
HETATM   25  O   UNL     1     -12.162  12.173  66.868  1.00  0.00    -0.537 OA 
BRANCH  25  26
HETATM   26  C   UNL     1     -12.477  12.788  65.700  1.00  0.00    -0.275 C  
HETATM   27  O   UNL     1     -12.974  13.900  65.578  1.00  0.00    -0.673 OA 
BRANCH  26  28
HETATM   28  C   UNL     1     -12.046  11.912  64.540  1.00  0.00    -0.259 C  
HETATM   29  C   UNL     1     -11.807  12.722  63.274  1.00  0.00    -0.493 C  
ENDBRANCH  26  28
ENDBRANCH  25  26
ENDBRANCH   4  25
BRANCH   4  30
HETATM   30  C   UNL     1     -11.006  13.770  67.827  1.00  0.00    -0.256 C  
HETATM   31  C   UNL     1     -10.477  14.909  66.991  1.00  0.00    -0.272 C  
HETATM   32  O   UNL     1     -11.709  14.152  68.779  1.00  0.00    -0.303 OA 
HETATM   33 CL   UNL     1      -9.592  14.465  65.554  1.00  0.00    -0.200 Cl 
ENDBRANCH   4  30
TORSDOF 4
ENDMDL
MODEL       23
REMARK 921   NORMALIZED FREE ENERGY PREDICTED BY IDOCK:   -4.60 KCAL/MOL
REMARK 922        TOTAL FREE ENERGY PREDICTED BY IDOCK:   -4.83 KCAL/MOL
REMARK 923 INTER-LIGAND FREE ENERGY PREDICTED BY IDOCK:   -5.81 KCAL/MOL
REMARK 924 INTRA-LIGAND FREE ENERGY PREDICTED BY IDOCK:    0.98 KCAL/MOL
REMARK 927      BINDING AFFINITY PREDICTED BY RF-SCORE:    0.00 PKD
ROOT
HETATM    1  C   UNL     1      -7.786  10.514  67.025  1.00  0.00    -0.110 C  
HETATM    2  C   UNL     1      -7.103   9.433  66.421  1.00  0.00    -0.088 C  
HETATM    3  C   UNL     1      -8.593   9.362  66.441  1.00  0.00    -0.144 C  
HETATM    4  C   UNL     1      -9.519  11.147  66.953  1.00  0.00    -0.185 C  
HETATM    5  C   UNL     1      -8.765   8.111  65.300  1.00  0.00    -0.093 C  
HETATM    6  O   UNL     1      -7.155   8.086  74.373  1.00  0.00    -0.130 OA 
HETATM    7  C   UNL     1      -7.623   8.081  73.243  1.00  0.00    -0.147 C  
HETATM    8  C   UNL     1      -9.379  10.353  65.864  1.00  0.00    -0.224 C  
HETATM    9  C   UNL     1      -6.761   7.767  72.045  1.00  0.00    -0.057 C  
HETATM   10  C   UNL     1      -7.256   8.481  71.014  1.00  0.00    -0.071 C  
HETATM   11  C   UNL     1      -9.189  10.828  64.400  1.00  0.00    -0.250 C  
HETATM   12  C   UNL     1      -8.833   6.606  70.267  1.00  0.00    -0.152 C  
HETATM   13  C   UNL     1     -10.777   9.389  66.716  1.00  0.00    -0.129 C  
HETATM   14  C   UNL     1      -6.859   9.938  70.918  1.00  0.00     0.041 C  
HETATM   15  C   UNL     1      -8.689   8.162  70.517  1.00  0.00    -0.135 C  
HETATM   16  C   UNL     1     -10.439   8.892  68.394  1.00  0.00    -0.187 C  
HETATM   17  C   UNL     1      -9.587   8.410  71.721  1.00  0.00    -0.303 C  
HETATM   18  O   UNL     1     -11.331   9.624  69.233  1.00  0.00    -0.433 OA 
HETATM   19  C   UNL     1      -9.087   8.332  72.979  1.00  0.00    -0.319 C  
HETATM   20  C   UNL     1      -8.859   8.831  69.080  1.00  0.00    -0.137 C  
HETATM   21  C   UNL     1      -8.075  10.196  68.746  1.00  0.00    -0.111 C  
HETATM   22  F   UNL     1      -8.099   7.859  68.392  1.00  0.00    -0.114 F  
HETATM   23  H   UNL     1     -11.151   9.359  70.127  1.00  0.00     0.000 HD 
HETATM   24  C   UNL     1      -6.725  10.322  69.460  1.00  0.00    -0.073 C  
ENDROOT
BRANCH   4  25
HETATM   25  O   UNL     1      -8.796  12.486  66.585  1.00  0.00    -0.207 OA 
BRANCH  25  26
HETATM   26  C   UNL     1      -8.648  13.504  67.472  1.00  0.00    -0.193 C  
HETATM   27  O   UNL     1      -8.293  13.402  68.638  1.00  0.00    -0.117 OA 
BRANCH  26  28
HETATM   28  C   UNL     1      -8.920  14.821  66.772  1.00  0.00    -0.292 C  
HETATM   29  C   UNL     1      -9.623  15.816  67.684  1.00  0.00    -0.220 C  
ENDBRANCH  26  28
ENDBRANCH  25  26
ENDBRANCH   4  25
BRANCH   4  30
HETATM   30  C   UNL     1     -10.911  11.928  66.443  1.00  0.00    -0.279 C  
HETATM   31  C   UNL     1     -11.865  12.592  67.404  1.00  0.00    -0.312 C  
HETATM   32  O   UNL     1     -11.248  12.063  65.253  1.00  0.00    -0.317 OA 
HETATM   33 CL   UNL     1     -11.404  12.572  69.087  1.00  0.00    -0.324 Cl 
ENDBRANCH   4  30
TORSDOF 4
ENDMDL
MODEL       24
REMARK 921   NORMALIZED FREE ENERGY PREDICTED BY IDOCK:   -4.58 KCAL/MOL
REMARK 922        TOTAL FREE ENERGY PREDICTED BY IDOCK:   -4.81 KCAL/MOL
REMARK 923 INTER-LIGAND FREE ENERGY PREDICTED BY IDOCK:   -5.64 KCAL/MOL
REMARK 924 INTRA-LIGAND FREE ENERGY PREDICTED BY IDOCK:    0.83 KCAL/MOL
REMARK 927      BINDING AFFINITY PREDICTED BY RF-SCORE:    0.00 PKD
ROOT
HETATM    1  C   UNL     1      -9.797   8.784  66.790  1.00  0.00    -0.316 C  
HETATM    2  C   UNL     1     -11.024   9.469  66.630  1.00  0.00     0.192 C  
HETATM    3  C   UNL     1      -9.924  10.208  67.317  1.00  0.00    -0.241 C  
HETATM    4  C   UNL     1      -8.062   9.311  67.139  1.00  0.00    -0.109 C  
HETATM    5  C   UNL     1     -10.613  11.761  67.216  1.00  0.00    -0.259 C  
HETATM    6  O   UNL     1     -11.710   4.839  73.198  1.00  0.00    -0.298 OA 
HETATM    7  C   UNL     1     -11.373   5.833  72.571  1.00  0.00    -0.307 C  
HETATM    8  C   UNL     1      -8.696  10.426  66.702  1.00  0.00    -0.141 C  
HETATM    9  C   UNL     1     -12.256   6.409  71.492  1.00  0.00    -0.233 C  
HETATM   10  C   UNL     1     -11.437   6.950  70.568  1.00  0.00    -0.390 C  
HETATM   11  C   UNL     1      -8.563  11.065  65.296  1.00  0.00    -0.048 C  
HETATM   12  C   UNL     1     -11.439   9.255  71.685  1.00  0.00    -0.468 C  
HETATM   13  C   UNL     1      -8.225  11.051  68.433  1.00  0.00    -0.137 C  
HETATM   14  C   UNL     1     -10.810   6.015  69.556  1.00  0.00    -0.439 C  
HETATM   15  C   UNL     1     -10.549   8.151  70.982  1.00  0.00    -0.242 C  
HETATM   16  C   UNL     1      -8.774  10.026  69.783  1.00  0.00    -0.179 C  
HETATM   17  C   UNL     1      -9.680   7.625  72.116  1.00  0.00    -0.220 C  
HETATM   18  O   UNL     1      -7.606   9.476  70.390  1.00  0.00    -0.130 OA 
HETATM   19  C   UNL     1     -10.092   6.574  72.868  1.00  0.00    -0.197 C  
HETATM   20  C   UNL     1     -10.014   8.837  69.646  1.00  0.00    -0.191 C  
HETATM   21  C   UNL     1      -9.748   7.930  68.344  1.00  0.00    -0.170 C  
HETATM   22  F   UNL     1     -11.233   9.482  69.333  1.00  0.00    -0.234 F  
HETATM   23  H   UNL     1      -7.899   8.929  71.110  1.00  0.00     0.000 HD 
HETATM   24  C   UNL     1     -10.692   6.729  68.227  1.00  0.00    -0.290 C  
ENDROOT
BRANCH   4  25
HETATM   25  O   UNL     1      -7.766   8.470  65.853  1.00  0.00    -0.093 OA 
BRANCH  25  26
HETATM   26  C   UNL     1      -7.105   7.285  65.890  1.00  0.00    -0.066 C  
HETATM   27  O   UNL     1      -7.288   6.379  66.693  1.00  0.00    -0.075 OA 
BRANCH  26  28
HETATM   28  C   UNL     1      -6.140   7.212  64.723  1.00  0.00    -0.037 C  
HETATM   29  C   UNL     1      -6.520   8.176  63.609  1.00  0.00    -0.072 C  
ENDBRANCH  26  28
ENDBRANCH  25  26
ENDBRANCH   4  25
BRANCH   4  30
HETATM   30  C   UNL     1      -6.502   9.890  66.944  1.00  0.00    -0.066 C  
HETATM   31  C   UNL     1      -5.336   9.360  67.741  1.00  0.00    -0.037 C  
HETATM   32  O   UNL     1      -6.169  10.755  66.114  1.00  0.00    -0.112 OA 
HETATM   33 CL   UNL     1      -5.682   8.046  68.836  1.00  0.00    -0.034 Cl 
ENDBRANCH   4  30
TORSDOF 4
ENDMDL
MODEL       25
REMARK 921   NORMALIZED FREE ENERGY PREDICTED BY IDOCK:   -4.58 KCAL/MOL
REMARK 922        TOTAL FREE ENERGY PREDICTED BY IDOCK:   -4.80 KCAL/MOL
REMARK 923 INTER-LIGAND FREE ENERGY PREDICTED BY IDOCK:   -5.61 KCAL/MOL
REMARK 924 INTRA-LIGAND FREE ENERGY PREDICTED BY IDOCK:    0.81 KCAL/MOL
REMARK 927      BINDING AFFINITY PREDICTED BY RF-SCORE:    0.00 PKD
ROOT
HETATM    1  C   UNL     1      -9.885   8.397  66.653  1.00  0.00    -0.343 C  
HETATM    2  C   UNL     1     -10.770   9.485  66.833  1.00  0.00    -0.184 C  
HETATM    3  C   UNL     1      -9.345   9.706  67.217  1.00  0.00    -0.163 C  
HETATM    4  C   UNL     1      -8.049   8.234  66.540  1.00  0.00    -0.105 C  
HETATM    5  C   UNL     1      -9.411  11.403  67.326  1.00  0.00    -0.176 C  
HETATM    6  O   UNL     1     -11.531   4.692  73.275  1.00  0.00    -0.320 OA 
HETATM    7  C   UNL     1     -11.009   5.566  72.597  1.00  0.00    -0.270 C  
HETATM    8  C   UNL     1      -8.310   9.542  66.304  1.00  0.00    -0.117 C  
HETATM    9  C   UNL     1     -11.847   6.535  71.798  1.00  0.00    -0.384 C  
HETATM   10  C   UNL     1     -11.132   6.851  70.700  1.00  0.00    -0.322 C  
HETATM   11  C   UNL     1      -8.290  10.246  64.922  1.00  0.00    -0.173 C  
HETATM   12  C   UNL     1     -10.012   8.867  71.814  1.00  0.00    -0.397 C  
HETATM   13  C   UNL     1      -7.241   9.762  67.858  1.00  0.00    -0.084 C  
HETATM   14  C   UNL     1     -11.159   5.875  69.543  1.00  0.00    -0.403 C  
HETATM   15  C   UNL     1      -9.791   7.606  70.884  1.00  0.00    -0.179 C  
HETATM   16  C   UNL     1      -7.790   8.853  69.289  1.00  0.00    -0.096 C  
HETATM   17  C   UNL     1      -8.935   6.682  71.740  1.00  0.00    -0.140 C  
HETATM   18  O   UNL     1      -6.801   7.861  69.557  1.00  0.00    -0.045 OA 
HETATM   19  C   UNL     1      -9.514   5.769  72.557  1.00  0.00    -0.151 C  
HETATM   20  C   UNL     1      -9.377   8.203  69.465  1.00  0.00    -0.155 C  
HETATM   21  C   UNL     1      -9.786   7.413  68.125  1.00  0.00    -0.174 C  
HETATM   22  F   UNL     1     -10.306   9.268  69.495  1.00  0.00    -0.188 F  
HETATM   23  H   UNL     1      -7.094   7.376  70.320  1.00  0.00     0.000 HD 
HETATM   24  C   UNL     1     -11.107   6.645  68.241  1.00  0.00    -0.283 C  
ENDROOT
BRANCH   4  25
HETATM   25  O   UNL     1      -8.403   7.493  65.207  1.00  0.00    -0.136 OA 
BRANCH  25  26
HETATM   26  C   UNL     1      -8.264   6.150  65.059  1.00  0.00    -0.132 C  
HETATM   27  O   UNL     1      -8.602   5.293  65.864  1.00  0.00    -0.119 OA 
BRANCH  26  28
HETATM   28  C   UNL     1      -7.686   5.855  63.688  1.00  0.00    -0.099 C  
HETATM   29  C   UNL     1      -7.909   7.005  62.717  1.00  0.00    -0.118 C  
ENDBRANCH  26  28
ENDBRANCH  25  26
ENDBRANCH   4  25
BRANCH   4  30
HETATM   30  C   UNL     1      -6.481   8.241  65.949  1.00  0.00    -0.053 C  
HETATM   31  C   UNL     1      -5.431   7.269  66.426  1.00  0.00    -0.024 C  
HETATM   32  O   UNL     1      -6.068   9.001  65.055  1.00  0.00    -0.062 OA 
HETATM   33 CL   UNL     1      -5.956   6.073  67.584  1.00  0.00    -0.017 Cl 
ENDBRANCH   4  30
TORSDOF 4
ENDMDL
MODEL       26
REMARK 921   NORMALIZED FREE ENERGY PREDICTED BY IDOCK:   -4.47 KCAL/MOL
REMARK 922        TOTAL FREE ENERGY PREDICTED BY IDOCK:   -4.66 KCAL/MOL
REMARK 923 INTER-LIGAND FREE ENERGY PREDICTED BY IDOCK:   -5.74 KCAL/MOL
REMARK 924 INTRA-LIGAND FREE ENERGY PREDICTED BY IDOCK:    1.08 KCAL/MOL
REMARK 927      BINDING AFFINITY PREDICTED BY RF-SCORE:    0.00 PKD
ROOT
HETATM    1  C   UNL     1      -7.221   9.058  66.298  1.00  0.00    -0.090 C  
HETATM    2  C   UNL     1      -6.246  10.055  66.535  1.00  0.00    -0.070 C  
HETATM    3  C   UNL     1      -7.132   9.692  67.680  1.00  0.00    -0.088 C  
HETATM    4  C   UNL     1      -8.232   7.959  67.384  1.00  0.00    -0.123 C  
HETATM    5  C   UNL     1      -6.211  10.431  68.907  1.00  0.00    -0.043 C  
HETATM    6  O   UNL     1     -12.572  13.675  63.080  1.00  0.00    -0.792 OA 
HETATM    7  C   UNL     1     -11.936  13.200  64.011  1.00  0.00    -0.460 C  
HETATM    8  C   UNL     1      -7.208   8.390  68.160  1.00  0.00    -0.091 C  
HETATM    9  C   UNL     1     -10.439  13.372  64.099  1.00  0.00    -0.202 C  
HETATM   10  C   UNL     1      -9.958  12.267  64.705  1.00  0.00    -0.212 C  
HETATM   11  C   UNL     1      -5.957   7.570  68.566  1.00  0.00    -0.027 C  
HETATM   12  C   UNL     1     -10.129  13.285  67.049  1.00  0.00    -0.242 C  
HETATM   13  C   UNL     1      -8.637   9.117  69.179  1.00  0.00    -0.133 C  
HETATM   14  C   UNL     1      -9.766  11.031  63.853  1.00  0.00    -0.336 C  
HETATM   15  C   UNL     1     -10.373  11.990  66.172  1.00  0.00    -0.257 C  
HETATM   16  C   UNL     1      -9.749  10.175  68.274  1.00  0.00    -0.141 C  
HETATM   17  C   UNL     1     -11.889  11.869  66.135  1.00  0.00    -0.108 C  
HETATM   18  O   UNL     1     -11.009   9.506  68.220  1.00  0.00    -0.428 OA 
HETATM   19  C   UNL     1     -12.604  12.468  65.149  1.00  0.00    -0.358 C  
HETATM   20  C   UNL     1      -9.370  10.897  66.756  1.00  0.00    -0.165 C  
HETATM   21  C   UNL     1      -8.751   9.785  65.772  1.00  0.00    -0.160 C  
HETATM   22  F   UNL     1      -8.290  11.792  66.933  1.00  0.00    -0.148 F  
HETATM   23  H   UNL     1     -11.602  10.071  67.738  1.00  0.00     0.000 HD 
HETATM   24  C   UNL     1      -8.544  10.279  64.336  1.00  0.00    -0.195 C  
ENDROOT
BRANCH   4  25
HETATM   25  O   UNL     1      -7.621   6.842  66.473  1.00  0.00    -0.086 OA 
BRANCH  25  26
HETATM   26  C   UNL     1      -8.331   6.231  65.490  1.00  0.00    -0.147 C  
HETATM   27  O   UNL     1      -8.943   6.786  64.587  1.00  0.00     0.428 OA 
BRANCH  26  28
HETATM   28  C   UNL     1      -8.190   4.728  65.630  1.00  0.00    -0.113 C  
HETATM   29  C   UNL     1      -9.297   3.982  64.900  1.00  0.00    -0.163 C  
ENDBRANCH  26  28
ENDBRANCH  25  26
ENDBRANCH   4  25
BRANCH   4  30
HETATM   30  C   UNL     1      -8.702   6.691  68.374  1.00  0.00    -0.122 C  
HETATM   31  C   UNL     1     -10.087   6.095  68.323  1.00  0.00    -0.158 C  
HETATM   32  O   UNL     1      -7.955   6.116  69.186  1.00  0.00    -0.105 OA 
HETATM   33 CL   UNL     1     -11.165   6.748  67.116  1.00  0.00    -0.404 Cl 
ENDBRANCH   4  30
TORSDOF 4
ENDMDL
MODEL       27
REMARK 921   NORMALIZED FREE ENERGY PREDICTED BY IDOCK:   -4.45 KCAL/MOL
REMARK 922        TOTAL FREE ENERGY PREDICTED BY IDOCK:   -4.64 KCAL/MOL
REMARK 923 INTER-LIGAND FREE ENERGY PREDICTED BY IDOCK:   -5.72 KCAL/MOL
REMARK 924 INTRA-LIGAND FREE ENERGY PREDICTED BY IDOCK:    1.08 KCAL/MOL
REMARK 927      BINDING AFFINITY PREDICTED BY RF-SCORE:    0.00 PKD
ROOT
HETATM    1  C   UNL     1      -9.656   8.224  71.724  1.00  0.00    -0.274 C  
HETATM    2  C   UNL     1     -11.045   8.488  71.696  1.00  0.00    -0.360 C  
HETATM    3  C   UNL     1     -10.630   7.055  71.650  1.00  0.00    -0.226 C  
HETATM    4  C   UNL     1      -8.633   6.736  72.114  1.00  0.00    -0.117 C  
HETATM    5  C   UNL     1     -12.151   6.379  72.005  1.00  0.00    -0.353 C  
HETATM    6  O   UNL     1      -8.308   9.289  64.152  1.00  0.00    -0.156 OA 
HETATM    7  C   UNL     1      -8.710   8.670  65.127  1.00  0.00    -0.144 C  
HETATM    8  C   UNL     1      -9.851   6.488  72.653  1.00  0.00    -0.179 C  
HETATM    9  C   UNL     1      -9.811   9.222  65.999  1.00  0.00    -0.363 C  
HETATM   10  C   UNL     1      -9.568   8.786  67.252  1.00  0.00    -0.214 C  
HETATM   11  C   UNL     1     -10.225   6.574  74.155  1.00  0.00    -0.380 C  
HETATM   12  C   UNL     1     -10.975   6.666  66.958  1.00  0.00    -0.463 C  
HETATM   13  C   UNL     1      -9.797   5.029  71.438  1.00  0.00    -0.245 C  
HETATM   14  C   UNL     1      -8.543   9.544  68.068  1.00  0.00    -0.120 C  
HETATM   15  C   UNL     1      -9.623   7.262  67.527  1.00  0.00    -0.171 C  
HETATM   16  C   UNL     1      -9.502   5.472  69.737  1.00  0.00    -0.149 C  
HETATM   17  C   UNL     1      -8.562   6.660  66.617  1.00  0.00    -0.123 C  
HETATM   18  O   UNL     1      -8.221   4.950  69.386  1.00  0.00    -0.080 OA 
HETATM   19  C   UNL     1      -8.176   7.305  65.489  1.00  0.00    -0.139 C  
HETATM   20  C   UNL     1      -9.713   7.062  69.106  1.00  0.00    -0.156 C  
HETATM   21  C   UNL     1      -8.999   8.126  70.079  1.00  0.00    -0.143 C  
HETATM   22  F   UNL     1     -11.078   7.416  69.206  1.00  0.00    -0.211 F  
HETATM   23  H   UNL     1      -8.065   5.186  68.479  1.00  0.00     0.000 HD 
HETATM   24  C   UNL     1      -8.972   9.551  69.520  1.00  0.00    -0.187 C  
ENDROOT
BRANCH   4  25
HETATM   25  O   UNL     1      -7.937   7.730  73.104  1.00  0.00    -0.104 OA 
BRANCH  25  26
HETATM   26  C   UNL     1      -6.694   8.229  72.883  1.00  0.00    -0.096 C  
HETATM   27  O   UNL     1      -6.260   8.651  71.819  1.00  0.00    -0.058 OA 
BRANCH  26  28
HETATM   28  C   UNL     1      -5.927   8.260  74.191  1.00  0.00    -0.118 C  
HETATM   29  C   UNL     1      -5.266   9.609  74.431  1.00  0.00    -0.123 C  
ENDBRANCH  26  28
ENDBRANCH  25  26
ENDBRANCH   4  25
BRANCH   4  30
HETATM   30  C   UNL     1      -7.806   5.547  72.955  1.00  0.00    -0.098 C  
HETATM   31  C   UNL     1      -6.582   4.863  72.398  1.00  0.00    -0.047 C  
HETATM   32  O   UNL     1      -8.095   5.165  74.103  1.00  0.00    -0.100 OA 
HETATM   33 CL   UNL     1      -6.020   5.431  70.846  1.00  0.00    -0.021 Cl 
ENDBRANCH   4  30
TORSDOF 4
ENDMDL
MODEL       28
REMARK 921   NORMALIZED FREE ENERGY PREDICTED BY IDOCK:   -4.41 KCAL/MOL
REMARK 922        TOTAL FREE ENERGY PREDICTED BY IDOCK:   -4.60 KCAL/MOL
REMARK 923 INTER-LIGAND FREE ENERGY PREDICTED BY IDOCK:   -5.46 KCAL/MOL
REMARK 924 INTRA-LIGAND FREE ENERGY PREDICTED BY IDOCK:    0.87 KCAL/MOL
REMARK 927      BINDING AFFINITY PREDICTED BY RF-SCORE:    0.00 PKD
ROOT
HETATM    1  C   UNL     1      -8.867   7.623  71.720  1.00  0.00    -0.139 C  
HETATM    2  C   UNL     1      -9.486   8.786  72.235  1.00  0.00    -0.246 C  
HETATM    3  C   UNL     1     -10.386   7.731  71.684  1.00  0.00    -0.236 C  
HETATM    4  C   UNL     1      -9.448   5.912  71.343  1.00  0.00    -0.150 C  
HETATM    5  C   UNL     1     -11.839   8.318  72.347  1.00  0.00    -0.461 C  
HETATM    6  O   UNL     1      -7.182  10.447  64.686  1.00  0.00    -0.117 OA 
HETATM    7  C   UNL     1      -7.921   9.988  65.546  1.00  0.00    -0.139 C  
HETATM    8  C   UNL     1     -10.378   6.432  72.180  1.00  0.00    -0.213 C  
HETATM    9  C   UNL     1      -8.141  10.714  66.850  1.00  0.00    -0.124 C  
HETATM   10  C   UNL     1      -8.349   9.769  67.789  1.00  0.00    -0.114 C  
HETATM   11  C   UNL     1     -10.537   6.110  73.688  1.00  0.00    -0.279 C  
HETATM   12  C   UNL     1     -10.888   9.770  67.456  1.00  0.00    -0.286 C  
HETATM   13  C   UNL     1     -11.510   6.123  70.687  1.00  0.00    -0.331 C  
HETATM   14  C   UNL     1      -7.132   9.086  68.375  1.00  0.00    -0.076 C  
HETATM   15  C   UNL     1      -9.604   8.868  67.665  1.00  0.00    -0.181 C  
HETATM   16  C   UNL     1     -10.974   6.873  69.162  1.00  0.00    -0.199 C  
HETATM   17  C   UNL     1      -9.449   8.161  66.326  1.00  0.00    -0.259 C  
HETATM   18  O   UNL     1     -10.624   5.811  68.276  1.00  0.00    -0.218 OA 
HETATM   19  C   UNL     1      -8.697   8.710  65.340  1.00  0.00    -0.208 C  
HETATM   20  C   UNL     1      -9.823   8.153  69.072  1.00  0.00    -0.176 C  
HETATM   21  C   UNL     1      -8.547   7.794  69.984  1.00  0.00    -0.140 C  
HETATM   22  F   UNL     1     -10.356   9.292  69.717  1.00  0.00    -0.186 F  
HETATM   23  H   UNL     1     -10.339   6.211  67.463  1.00  0.00     0.000 HD 
HETATM   24  C   UNL     1      -7.386   8.783  69.835  1.00  0.00    -0.052 C  
ENDROOT
BRANCH   4  25
HETATM   25  O   UNL     1      -8.239   5.521  72.257  1.00  0.00    -0.110 OA 
BRANCH  25  26
HETATM   26  C   UNL     1      -7.091   4.991  71.763  1.00  0.00    -0.066 C  
HETATM   27  O   UNL     1      -6.598   5.224  70.667  1.00  0.00    -0.035 OA 
BRANCH  26  28
HETATM   28  C   UNL     1      -6.452   4.108  72.817  1.00  0.00    -0.032 C  
HETATM   29  C   UNL     1      -7.182   4.194  74.150  1.00  0.00    -0.067 C  
ENDBRANCH  26  28
ENDBRANCH  25  26
ENDBRANCH   4  25
BRANCH   4  30
HETATM   30  C   UNL     1      -9.910   4.310  71.517  1.00  0.00    -0.189 C  
HETATM   31  C   UNL     1      -9.659   3.275  70.449  1.00  0.00    -0.141 C  
HETATM   32  O   UNL     1     -10.446   3.838  72.535  1.00  0.00    -0.160 OA 
HETATM   33 CL   UNL     1      -8.787   3.817  69.038  1.00  0.00    -0.135 Cl 
ENDBRANCH   4  30
TORSDOF 4
ENDMDL
MODEL       29
REMARK 921   NORMALIZED FREE ENERGY PREDICTED BY IDOCK:   -4.38 KCAL/MOL
REMARK 922        TOTAL FREE ENERGY PREDICTED BY IDOCK:   -4.55 KCAL/MOL
REMARK 923 INTER-LIGAND FREE ENERGY PREDICTED BY IDOCK:   -5.40 KCAL/MOL
REMARK 924 INTRA-LIGAND FREE ENERGY PREDICTED BY IDOCK:    0.85 KCAL/MOL
REMARK 927      BINDING AFFINITY PREDICTED BY RF-SCORE:    0.00 PKD
ROOT
HETATM    1  C   UNL     1      -9.481   7.599  71.894  1.00  0.00    -0.183 C  
HETATM    2  C   UNL     1     -10.511   8.502  72.245  1.00  0.00    -0.402 C  
HETATM    3  C   UNL     1     -10.859   7.430  71.267  1.00  0.00    -0.258 C  
HETATM    4  C   UNL     1      -9.444   5.919  71.129  1.00  0.00    -0.161 C  
HETATM    5  C   UNL     1     -12.550   7.596  71.357  1.00  0.00    -0.359 C  
HETATM    6  O   UNL     1      -6.109  12.024  66.477  1.00  0.00    -0.158 OA 
HETATM    7  C   UNL     1      -6.972  11.276  66.914  1.00  0.00    -0.137 C  
HETATM    8  C   UNL     1     -10.712   6.083  71.578  1.00  0.00    -0.309 C  
HETATM    9  C   UNL     1      -7.823  11.675  68.095  1.00  0.00    -0.133 C  
HETATM   10  C   UNL     1      -8.117  10.541  68.761  1.00  0.00    -0.131 C  
HETATM   11  C   UNL     1     -11.323   5.444  72.851  1.00  0.00    -0.365 C  
HETATM   12  C   UNL     1     -10.278  10.140  67.445  1.00  0.00    -0.267 C  
HETATM   13  C   UNL     1     -11.110   5.873  69.733  1.00  0.00    -0.422 C  
HETATM   14  C   UNL     1      -7.068   9.991  69.704  1.00  0.00    -0.104 C  
HETATM   15  C   UNL     1      -8.978   9.467  68.047  1.00  0.00    -0.128 C  
HETATM   16  C   UNL     1     -10.259   6.996  68.642  1.00  0.00    -0.176 C  
HETATM   17  C   UNL     1      -8.177   9.080  66.812  1.00  0.00    -0.115 C  
HETATM   18  O   UNL     1      -9.361   6.214  67.856  1.00  0.00    -0.116 OA 
HETATM   19  C   UNL     1      -7.279   9.943  66.275  1.00  0.00    -0.102 C  
HETATM   20  C   UNL     1      -9.509   8.459  69.161  1.00  0.00    -0.155 C  
HETATM   21  C   UNL     1      -8.605   8.167  70.460  1.00  0.00    -0.130 C  
HETATM   22  F   UNL     1     -10.503   9.329  69.663  1.00  0.00    -0.195 F  
HETATM   23  H   UNL     1      -8.908   6.813  67.275  1.00  0.00     0.000 HD 
HETATM   24  C   UNL     1      -7.752   9.363  70.898  1.00  0.00    -0.089 C  
ENDROOT
BRANCH   4  25
HETATM   25  O   UNL     1      -8.593   5.585  72.399  1.00  0.00    -0.118 OA 
BRANCH  25  26
HETATM   26  C   UNL     1      -7.252   5.376  72.347  1.00  0.00    -0.093 C  
HETATM   27  O   UNL     1      -6.439   6.045  71.724  1.00  0.00    -0.050 OA 
BRANCH  26  28
HETATM   28  C   UNL     1      -6.890   4.216  73.253  1.00  0.00    -0.057 C  
HETATM   29  C   UNL     1      -7.934   3.993  74.338  1.00  0.00    -0.090 C  
ENDBRANCH  26  28
ENDBRANCH  25  26
ENDBRANCH   4  25
BRANCH   4  30
HETATM   30  C   UNL     1      -9.526   4.258  70.925  1.00  0.00    -0.169 C  
HETATM   31  C   UNL     1      -8.700   3.527  69.896  1.00  0.00    -0.079 C  
HETATM   32  O   UNL     1     -10.224   3.497  71.617  1.00  0.00    -0.101 OA 
HETATM   33 CL   UNL     1      -7.586   4.499  68.967  1.00  0.00    -0.056 Cl 
ENDBRANCH   4  30
TORSDOF 4
ENDMDL
MODEL       30
REMARK 921   NORMALIZED FREE ENERGY PREDICTED BY IDOCK:   -4.36 KCAL/MOL
REMARK 922        TOTAL FREE ENERGY PREDICTED BY IDOCK:   -4.53 KCAL/MOL
REMARK 923 INTER-LIGAND FREE ENERGY PREDICTED BY IDOCK:   -6.02 KCAL/MOL
REMARK 924 INTRA-LIGAND FREE ENERGY PREDICTED BY IDOCK:    1.48 KCAL/MOL
REMARK 927      BINDING AFFINITY PREDICTED BY RF-SCORE:    0.00 PKD
ROOT
HETATM    1  C   UNL     1      -8.204  10.966  68.053  1.00  0.00    -0.121 C  
HETATM    2  C   UNL     1      -8.877  11.032  69.295  1.00  0.00     0.090 C  
HETATM    3  C   UNL     1      -9.548  10.266  68.205  1.00  0.00    -0.151 C  
HETATM    4  C   UNL     1      -8.327   9.864  66.576  1.00  0.00    -0.125 C  
HETATM    5  C   UNL     1     -10.690   9.463  69.178  1.00  0.00    -0.216 C  
HETATM    6  O   UNL     1     -10.599  17.813  65.281  1.00  0.00    -0.651 OA 
HETATM    7  C   UNL     1     -10.726  16.631  65.570  1.00  0.00    -0.223 C  
HETATM    8  C   UNL     1      -8.930   9.187  67.584  1.00  0.00    -0.130 C  
HETATM    9  C   UNL     1     -10.591  16.162  66.998  1.00  0.00    -0.292 C  
HETATM   10  C   UNL     1     -10.080  14.915  66.949  1.00  0.00    -0.242 C  
HETATM   11  C   UNL     1      -8.332   7.994  68.373  1.00  0.00    -0.127 C  
HETATM   12  C   UNL     1     -12.386  13.801  66.888  1.00  0.00    -0.328 C  
HETATM   13  C   UNL     1     -10.426   9.321  66.422  1.00  0.00    -0.157 C  
HETATM   14  C   UNL     1      -8.584  14.779  66.763  1.00  0.00    -0.226 C  
HETATM   15  C   UNL     1     -10.923  13.797  66.283  1.00  0.00    -0.297 C  
HETATM   16  C   UNL     1     -10.842  10.976  65.912  1.00  0.00    -0.115 C  
HETATM   17  C   UNL     1     -11.133  14.266  64.850  1.00  0.00    -0.396 C  
HETATM   18  O   UNL     1     -10.587  11.057  64.510  1.00  0.00    -0.343 OA 
HETATM   19  C   UNL     1     -11.077  15.585  64.542  1.00  0.00    -0.290 C  
HETATM   20  C   UNL     1     -10.297  12.398  66.719  1.00  0.00    -0.221 C  
HETATM   21  C   UNL     1      -8.714  12.290  66.987  1.00  0.00    -0.199 C  
HETATM   22  F   UNL     1     -10.834  12.416  68.027  1.00  0.00    -0.205 F  
HETATM   23  H   UNL     1     -10.809  11.940  64.238  1.00  0.00     0.000 HD 
HETATM   24  C   UNL     1      -8.093  13.577  67.540  1.00  0.00    -0.190 C  
ENDROOT
BRANCH   4  25
HETATM   25  O   UNL     1      -6.790   9.700  66.827  1.00  0.00    -0.081 OA 
BRANCH  25  26
HETATM   26  C   UNL     1      -5.898  10.688  66.561  1.00  0.00    -0.081 C  
HETATM   27  O   UNL     1      -5.741  11.252  65.487  1.00  0.00    -0.123 OA 
BRANCH  26  28
HETATM   28  C   UNL     1      -5.158  11.051  67.834  1.00  0.00    -0.039 C  
HETATM   29  C   UNL     1      -5.135   9.899  68.828  1.00  0.00    -0.036 C  
ENDBRANCH  26  28
ENDBRANCH  25  26
ENDBRANCH   4  25
BRANCH   4  30
HETATM   30  C   UNL     1      -8.150   8.555  65.545  1.00  0.00    -0.126 C  
HETATM   31  C   UNL     1      -7.921   8.718  64.063  1.00  0.00    -0.156 C  
HETATM   32  O   UNL     1      -8.148   7.366  65.909  1.00  0.00    -0.113 OA 
HETATM   33 CL   UNL     1      -7.772  10.357  63.480  1.00  0.00    -0.108 Cl 
ENDBRANCH   4  30
TORSDOF 4
ENDMDL
MODEL       31
REMARK 921   NORMALIZED FREE ENERGY PREDICTED BY IDOCK:   -4.30 KCAL/MOL
REMARK 922        TOTAL FREE ENERGY PREDICTED BY IDOCK:   -4.46 KCAL/MOL
REMARK 923 INTER-LIGAND FREE ENERGY PREDICTED BY IDOCK:   -5.62 KCAL/MOL
REMARK 924 INTRA-LIGAND FREE ENERGY PREDICTED BY IDOCK:    1.16 KCAL/MOL
REMARK 927      BINDING AFFINITY PREDICTED BY RF-SCORE:    0.00 PKD
ROOT
HETATM    1  C   UNL     1      -8.659  10.507  69.143  1.00  0.00    -0.157 C  
HETATM    2  C   UNL     1      -7.473  10.338  69.894  1.00  0.00    -0.165 C  
HETATM    3  C   UNL     1      -7.316  10.776  68.477  1.00  0.00    -0.096 C  
HETATM    4  C   UNL     1      -9.082  11.399  67.582  1.00  0.00    -0.155 C  
HETATM    5  C   UNL     1      -5.690  11.268  68.582  1.00  0.00    -0.042 C  
HETATM    6  O   UNL     1      -9.634   3.060  67.171  1.00  0.00    -0.137 OA 
HETATM    7  C   UNL     1      -9.118   4.166  67.094  1.00  0.00    -0.143 C  
HETATM    8  C   UNL     1      -7.911  11.939  68.002  1.00  0.00    -0.147 C  
HETATM    9  C   UNL     1      -8.384   4.766  68.268  1.00  0.00    -0.091 C  
HETATM   10  C   UNL     1      -8.556   6.101  68.191  1.00  0.00    -0.115 C  
HETATM   11  C   UNL     1      -7.731  13.316  68.692  1.00  0.00    -0.080 C  
HETATM   12  C   UNL     1      -6.439   6.453  66.795  1.00  0.00    -0.046 C  
HETATM   13  C   UNL     1      -7.309  11.265  66.331  1.00  0.00    -0.058 C  
HETATM   14  C   UNL     1      -9.858   6.669  68.715  1.00  0.00    -0.140 C  
HETATM   15  C   UNL     1      -7.959   6.853  66.974  1.00  0.00    -0.116 C  
HETATM   16  C   UNL     1      -7.596   9.527  66.068  1.00  0.00    -0.100 C  
HETATM   17  C   UNL     1      -8.634   6.231  65.760  1.00  0.00    -0.153 C  
HETATM   18  O   UNL     1      -8.553   9.417  65.015  1.00  0.00    -0.150 OA 
HETATM   19  C   UNL     1      -9.132   4.972  65.818  1.00  0.00    -0.154 C  
HETATM   20  C   UNL     1      -7.941   8.406  67.332  1.00  0.00    -0.106 C  
HETATM   21  C   UNL     1      -9.084   9.011  68.289  1.00  0.00    -0.133 C  
HETATM   22  F   UNL     1      -6.822   8.330  68.192  1.00  0.00    -0.062 F  
HETATM   23  H   UNL     1      -8.706   8.490  64.875  1.00  0.00     0.000 HD 
HETATM   24  C   UNL     1      -9.593   8.021  69.342  1.00  0.00    -0.160 C  
ENDROOT
BRANCH   4  25
HETATM   25  O   UNL     1     -10.183  12.041  68.491  1.00  0.00    -0.215 OA 
BRANCH  25  26
HETATM   26  C   UNL     1     -11.419  11.498  68.634  1.00  0.00    -0.293 C  
HETATM   27  O   UNL     1     -12.031  10.856  67.791  1.00  0.00    -0.553 OA 
BRANCH  26  28
HETATM   28  C   UNL     1     -11.913  11.743  70.047  1.00  0.00    -0.421 C  
HETATM   29  C   UNL     1     -11.968  10.458  70.861  1.00  0.00    -0.478 C  
ENDBRANCH  26  28
ENDBRANCH  25  26
ENDBRANCH   4  25
BRANCH   4  30
HETATM   30  C   UNL     1      -9.474  12.614  66.497  1.00  0.00    -0.247 C  
HETATM   31  C   UNL     1     -10.290  12.357  65.255  1.00  0.00    -0.282 C  
HETATM   32  O   UNL     1      -9.173  13.812  66.641  1.00  0.00    -0.256 OA 
HETATM   33 CL   UNL     1     -10.876  10.727  65.039  1.00  0.00    -0.164 Cl 
ENDBRANCH   4  30
TORSDOF 4
ENDMDL
MODEL       32
REMARK 921   NORMALIZED FREE ENERGY PREDICTED BY IDOCK:   -4.23 KCAL/MOL
REMARK 922        TOTAL FREE ENERGY PREDICTED BY IDOCK:   -4.38 KCAL/MOL
REMARK 923 INTER-LIGAND FREE ENERGY PREDICTED BY IDOCK:   -5.51 KCAL/MOL
REMARK 924 INTRA-LIGAND FREE ENERGY PREDICTED BY IDOCK:    1.13 KCAL/MOL
REMARK 927      BINDING AFFINITY PREDICTED BY RF-SCORE:    0.00 PKD
ROOT
HETATM    1  C   UNL     1      -7.137   9.509  67.754  1.00  0.00    -0.081 C  
HETATM    2  C   UNL     1      -6.185   8.472  67.621  1.00  0.00    -0.053 C  
HETATM    3  C   UNL     1      -7.426   8.356  66.801  1.00  0.00    -0.083 C  
HETATM    4  C   UNL     1      -8.560  10.093  66.731  1.00  0.00    -0.126 C  
HETATM    5  C   UNL     1      -6.873   7.145  65.742  1.00  0.00    -0.056 C  
HETATM    6  O   UNL     1     -10.617   6.828  74.156  1.00  0.00    -0.312 OA 
HETATM    7  C   UNL     1     -10.372   6.852  72.958  1.00  0.00    -0.244 C  
HETATM    8  C   UNL     1      -7.798   9.344  65.897  1.00  0.00    -0.099 C  
HETATM    9  C   UNL     1      -8.973   6.608  72.445  1.00  0.00    -0.138 C  
HETATM   10  C   UNL     1      -8.839   7.345  71.324  1.00  0.00    -0.138 C  
HETATM   11  C   UNL     1      -6.843   9.879  64.799  1.00  0.00    -0.129 C  
HETATM   12  C   UNL     1      -9.640   5.453  69.794  1.00  0.00    -0.225 C  
HETATM   13  C   UNL     1      -9.388   8.309  65.805  1.00  0.00    -0.101 C  
HETATM   14  C   UNL     1      -8.522   8.816  71.488  1.00  0.00    -0.230 C  
HETATM   15  C   UNL     1      -9.732   7.003  70.104  1.00  0.00    -0.176 C  
HETATM   16  C   UNL     1     -10.025   7.759  67.376  1.00  0.00    -0.195 C  
HETATM   17  C   UNL     1     -11.160   7.179  70.602  1.00  0.00    -0.294 C  
HETATM   18  O   UNL     1     -11.266   8.433  67.581  1.00  0.00    -0.360 OA 
HETATM   19  C   UNL     1     -11.447   7.068  71.922  1.00  0.00    -0.304 C  
HETATM   20  C   UNL     1      -9.099   7.720  68.829  1.00  0.00    -0.140 C  
HETATM   21  C   UNL     1      -8.325   9.119  69.012  1.00  0.00    -0.127 C  
HETATM   22  F   UNL     1      -8.040   6.797  68.671  1.00  0.00    -0.112 F  
HETATM   23  H   UNL     1     -11.605   8.140  68.418  1.00  0.00     0.000 HD 
HETATM   24  C   UNL     1      -7.614   9.258  70.361  1.00  0.00    -0.132 C  
ENDROOT
BRANCH   4  25
HETATM   25  O   UNL     1      -7.817  11.465  66.851  1.00  0.00    -0.147 OA 
BRANCH  25  26
HETATM   26  C   UNL     1      -8.032  12.325  67.880  1.00  0.00    -0.152 C  
HETATM   27  O   UNL     1      -9.077  12.463  68.502  1.00  0.00    -0.163 OA 
BRANCH  26  28
HETATM   28  C   UNL     1      -6.741  13.051  68.204  1.00  0.00    -0.103 C  
HETATM   29  C   UNL     1      -6.129  12.568  69.511  1.00  0.00    -0.120 C  
ENDBRANCH  26  28
ENDBRANCH  25  26
ENDBRANCH   4  25
BRANCH   4  30
HETATM   30  C   UNL     1      -9.461  10.850  65.539  1.00  0.00    -0.211 C  
HETATM   31  C   UNL     1     -10.846  11.391  65.793  1.00  0.00    -0.230 C  
HETATM   32  O   UNL     1      -9.060  11.067  64.382  1.00  0.00    -0.181 OA 
HETATM   33 CL   UNL     1     -11.441  11.255  67.429  1.00  0.00    -0.346 Cl 
ENDBRANCH   4  30
TORSDOF 4
ENDMDL
MODEL       33
REMARK 921   NORMALIZED FREE ENERGY PREDICTED BY IDOCK:   -4.23 KCAL/MOL
REMARK 922        TOTAL FREE ENERGY PREDICTED BY IDOCK:   -4.37 KCAL/MOL
REMARK 923 INTER-LIGAND FREE ENERGY PREDICTED BY IDOCK:   -5.73 KCAL/MOL
REMARK 924 INTRA-LIGAND FREE ENERGY PREDICTED BY IDOCK:    1.36 KCAL/MOL
REMARK 927      BINDING AFFINITY PREDICTED BY RF-SCORE:    0.00 PKD
ROOT
HETATM    1  C   UNL     1     -11.379  13.213  67.196  1.00  0.00    -0.354 C  
HETATM    2  C   UNL     1     -12.010  12.248  68.015  1.00  0.00    -0.251 C  
HETATM    3  C   UNL     1     -11.084  13.203  68.691  1.00  0.00    -0.304 C  
HETATM    4  C   UNL     1     -10.534  14.824  67.517  1.00  0.00    -0.245 C  
HETATM    5  C   UNL     1     -11.577  12.888  70.289  1.00  0.00    -0.051 C  
HETATM    6  O   UNL     1      -5.574   8.710  64.683  1.00  0.00    -0.056 OA 
HETATM    7  C   UNL     1      -6.159   9.406  65.500  1.00  0.00    -0.063 C  
HETATM    8  C   UNL     1     -11.276  14.578  68.624  1.00  0.00    -0.281 C  
HETATM    9  C   UNL     1      -7.526   9.023  66.012  1.00  0.00    -0.094 C  
HETATM   10  C   UNL     1      -8.180  10.174  66.269  1.00  0.00    -0.127 C  
HETATM   11  C   UNL     1     -12.621  15.256  68.996  1.00  0.00     0.243 C  
HETATM   12  C   UNL     1      -7.387  10.267  68.702  1.00  0.00    -0.083 C  
HETATM   13  C   UNL     1      -9.567  14.605  69.452  1.00  0.00     0.054 C  
HETATM   14  C   UNL     1      -8.818  10.892  65.098  1.00  0.00    -0.167 C  
HETATM   15  C   UNL     1      -7.629  11.104  67.380  1.00  0.00    -0.113 C  
HETATM   16  C   UNL     1      -8.371  13.483  68.754  1.00  0.00     0.067 C  
HETATM   17  C   UNL     1      -6.222  11.465  66.928  1.00  0.00    -0.135 C  
HETATM   18  O   UNL     1      -7.355  14.281  68.149  1.00  0.00    -0.104 OA 
HETATM   19  C   UNL     1      -5.538  10.650  66.088  1.00  0.00    -0.101 C  
HETATM   20  C   UNL     1      -8.780  12.143  67.751  1.00  0.00    -0.171 C  
HETATM   21  C   UNL     1      -9.813  12.618  66.613  1.00  0.00    -0.245 C  
HETATM   22  F   UNL     1      -9.547  11.225  68.505  1.00  0.00    -0.171 F  
HETATM   23  H   UNL     1      -6.717  13.683  67.778  1.00  0.00     0.000 HD 
HETATM   24  C   UNL     1     -10.103  11.546  65.558  1.00  0.00    -0.286 C  
ENDROOT
BRANCH   4  25
HETATM   25  O   UNL     1     -11.550  15.335  66.442  1.00  0.00    -0.172 OA 
BRANCH  25  26
HETATM   26  C   UNL     1     -11.336  15.193  65.109  1.00  0.00    -0.357 C  
HETATM   27  O   UNL     1     -10.321  15.505  64.501  1.00  0.00    -0.211 OA 
BRANCH  26  28
HETATM   28  C   UNL     1     -12.533  14.507  64.479  1.00  0.00    -0.346 C  
HETATM   29  C   UNL     1     -12.118  13.365  63.563  1.00  0.00    -0.497 C  
ENDBRANCH  26  28
ENDBRANCH  25  26
ENDBRANCH   4  25
BRANCH   4  30
HETATM   30  C   UNL     1     -10.264  16.449  67.824  1.00  0.00    -0.274 C  
HETATM   31  C   UNL     1      -9.076  17.191  67.267  1.00  0.00    -0.222 C  
HETATM   32  O   UNL     1     -11.026  17.177  68.486  1.00  0.00    -0.317 OA 
HETATM   33 CL   UNL     1      -8.023  16.283  66.212  1.00  0.00    -0.298 Cl 
ENDBRANCH   4  30
TORSDOF 4
ENDMDL
MODEL       34
REMARK 921   NORMALIZED FREE ENERGY PREDICTED BY IDOCK:   -4.18 KCAL/MOL
REMARK 922        TOTAL FREE ENERGY PREDICTED BY IDOCK:   -4.31 KCAL/MOL
REMARK 923 INTER-LIGAND FREE ENERGY PREDICTED BY IDOCK:   -5.27 KCAL/MOL
REMARK 924 INTRA-LIGAND FREE ENERGY PREDICTED BY IDOCK:    0.96 KCAL/MOL
REMARK 927      BINDING AFFINITY PREDICTED BY RF-SCORE:    0.00 PKD
ROOT
HETATM    1  C   UNL     1      -9.446   5.517  68.714  1.00  0.00    -0.163 C  
HETATM    2  C   UNL     1      -8.995   4.764  67.605  1.00  0.00    -0.120 C  
HETATM    3  C   UNL     1      -7.950   5.299  68.526  1.00  0.00    -0.087 C  
HETATM    4  C   UNL     1      -8.694   6.017  70.325  1.00  0.00    -0.143 C  
HETATM    5  C   UNL     1      -6.659   4.344  67.964  1.00  0.00    -0.043 C  
HETATM    6  O   UNL     1     -10.260  12.301  65.025  1.00  0.00    -0.279 OA 
HETATM    7  C   UNL     1      -9.627  11.402  65.561  1.00  0.00    -0.228 C  
HETATM    8  C   UNL     1      -7.939   4.983  69.879  1.00  0.00    -0.074 C  
HETATM    9  C   UNL     1      -9.657   9.996  65.014  1.00  0.00    -0.362 C  
HETATM   10  C   UNL     1      -9.524   9.167  66.069  1.00  0.00    -0.321 C  
HETATM   11  C   UNL     1      -7.984   3.524  70.401  1.00  0.00    -0.051 C  
HETATM   12  C   UNL     1      -6.970   9.093  65.893  1.00  0.00    -0.088 C  
HETATM   13  C   UNL     1      -6.578   6.307  69.920  1.00  0.00    -0.048 C  
HETATM   14  C   UNL     1     -10.763   8.875  66.888  1.00  0.00    -0.153 C  
HETATM   15  C   UNL     1      -8.203   9.208  66.879  1.00  0.00    -0.116 C  
HETATM   16  C   UNL     1      -6.933   7.786  68.993  1.00  0.00    -0.069 C  
HETATM   17  C   UNL     1      -8.106  10.635  67.400  1.00  0.00    -0.112 C  
HETATM   18  O   UNL     1      -7.069   8.847  69.937  1.00  0.00    -0.051 OA 
HETATM   19  C   UNL     1      -8.739  11.647  66.757  1.00  0.00    -0.189 C  
HETATM   20  C   UNL     1      -8.146   7.889  67.772  1.00  0.00    -0.128 C  
HETATM   21  C   UNL     1      -9.515   7.245  68.319  1.00  0.00    -0.141 C  
HETATM   22  F   UNL     1      -7.798   7.026  66.708  1.00  0.00    -0.098 F  
HETATM   23  H   UNL     1      -7.258   9.636  69.442  1.00  0.00     0.000 HD 
HETATM   24  C   UNL     1     -10.708   7.444  67.379  1.00  0.00    -0.348 C  
ENDROOT
BRANCH   4  25
HETATM   25  O   UNL     1      -9.995   5.363  70.900  1.00  0.00    -0.181 OA 
BRANCH  25  26
HETATM   26  C   UNL     1     -11.011   6.097  71.422  1.00  0.00    -0.277 C  
HETATM   27  O   UNL     1     -11.600   7.016  70.870  1.00  0.00    -0.294 OA 
BRANCH  26  28
HETATM   28  C   UNL     1     -11.371   5.550  72.790  1.00  0.00    -0.359 C  
HETATM   29  C   UNL     1     -11.003   4.081  72.931  1.00  0.00    -0.145 C  
ENDBRANCH  26  28
ENDBRANCH  25  26
ENDBRANCH   4  25
BRANCH   4  30
HETATM   30  C   UNL     1      -8.150   5.982  71.909  1.00  0.00    -0.107 C  
HETATM   31  C   UNL     1      -8.204   7.191  72.810  1.00  0.00    -0.106 C  
HETATM   32  O   UNL     1      -7.707   4.970  72.481  1.00  0.00    -0.093 OA 
HETATM   33 CL   UNL     1      -8.939   8.624  72.137  1.00  0.00    -0.299 Cl 
ENDBRANCH   4  30
TORSDOF 4
ENDMDL
MODEL       35
REMARK 921   NORMALIZED FREE ENERGY PREDICTED BY IDOCK:   -4.18 KCAL/MOL
REMARK 922        TOTAL FREE ENERGY PREDICTED BY IDOCK:   -4.31 KCAL/MOL
REMARK 923 INTER-LIGAND FREE ENERGY PREDICTED BY IDOCK:   -5.24 KCAL/MOL
REMARK 924 INTRA-LIGAND FREE ENERGY PREDICTED BY IDOCK:    0.93 KCAL/MOL
REMARK 927      BINDING AFFINITY PREDICTED BY RF-SCORE:    0.00 PKD
ROOT
HETATM    1  C   UNL     1      -9.835   7.947  66.680  1.00  0.00    -0.311 C  
HETATM    2  C   UNL     1     -10.650   9.090  66.852  1.00  0.00    -0.243 C  
HETATM    3  C   UNL     1      -9.191   9.257  67.115  1.00  0.00    -0.157 C  
HETATM    4  C   UNL     1      -8.023   7.679  66.444  1.00  0.00    -0.107 C  
HETATM    5  C   UNL     1      -9.166  10.959  67.116  1.00  0.00    -0.159 C  
HETATM    6  O   UNL     1     -11.146   4.757  73.637  1.00  0.00    -0.303 OA 
HETATM    7  C   UNL     1     -10.637   5.558  72.866  1.00  0.00    -0.229 C  
HETATM    8  C   UNL     1      -8.237   8.982  66.142  1.00  0.00    -0.115 C  
HETATM    9  C   UNL     1     -11.485   6.518  72.068  1.00  0.00    -0.342 C  
HETATM   10  C   UNL     1     -10.842   6.726  70.902  1.00  0.00    -0.289 C  
HETATM   11  C   UNL     1      -8.289   9.596  64.719  1.00  0.00    -0.156 C  
HETATM   12  C   UNL     1      -9.544   8.745  71.795  1.00  0.00    -0.371 C  
HETATM   13  C   UNL     1      -7.043   9.242  67.596  1.00  0.00    -0.082 C  
HETATM   14  C   UNL     1     -11.005   5.682  69.818  1.00  0.00    -0.301 C  
HETATM   15  C   UNL     1      -9.455   7.418  70.936  1.00  0.00    -0.165 C  
HETATM   16  C   UNL     1      -7.525   8.455  69.120  1.00  0.00    -0.089 C  
HETATM   17  C   UNL     1      -8.583   6.506  71.787  1.00  0.00    -0.124 C  
HETATM   18  O   UNL     1      -6.567   7.430  69.380  1.00  0.00    -0.035 OA 
HETATM   19  C   UNL     1      -9.141   5.677  72.703  1.00  0.00    -0.132 C  
HETATM   20  C   UNL     1      -9.123   7.903  69.455  1.00  0.00    -0.145 C  
HETATM   21  C   UNL     1      -9.672   7.053  68.203  1.00  0.00    -0.139 C  
HETATM   22  F   UNL     1      -9.994   9.015  69.482  1.00  0.00    -0.175 F  
HETATM   23  H   UNL     1      -6.824   7.010  70.193  1.00  0.00     0.000 HD 
HETATM   24  C   UNL     1     -11.015   6.365  68.467  1.00  0.00    -0.396 C  
ENDROOT
BRANCH   4  25
HETATM   25  O   UNL     1      -8.514   6.876  65.194  1.00  0.00    -0.116 OA 
BRANCH  25  26
HETATM   26  C   UNL     1      -8.454   5.521  65.126  1.00  0.00    -0.147 C  
HETATM   27  O   UNL     1      -8.719   4.738  66.028  1.00  0.00    -0.115 OA 
BRANCH  26  28
HETATM   28  C   UNL     1      -8.075   5.107  63.717  1.00  0.00    -0.115 C  
HETATM   29  C   UNL     1      -6.826   4.238  63.696  1.00  0.00    -0.044 C  
ENDBRANCH  26  28
ENDBRANCH  25  26
ENDBRANCH   4  25
BRANCH   4  30
HETATM   30  C   UNL     1      -6.506   7.566  65.741  1.00  0.00    -0.045 C  
HETATM   31  C   UNL     1      -5.460   6.593  66.225  1.00  0.00    -0.018 C  
HETATM   32  O   UNL     1      -6.136   8.226  64.754  1.00  0.00    -0.051 OA 
HETATM   33 CL   UNL     1      -5.938   5.527  67.522  1.00  0.00    -0.021 Cl 
ENDBRANCH   4  30
TORSDOF 4
ENDMDL
MODEL       36
REMARK 921   NORMALIZED FREE ENERGY PREDICTED BY IDOCK:   -4.09 KCAL/MOL
REMARK 922        TOTAL FREE ENERGY PREDICTED BY IDOCK:   -4.20 KCAL/MOL
REMARK 923 INTER-LIGAND FREE ENERGY PREDICTED BY IDOCK:   -5.28 KCAL/MOL
REMARK 924 INTRA-LIGAND FREE ENERGY PREDICTED BY IDOCK:    1.09 KCAL/MOL
REMARK 927      BINDING AFFINITY PREDICTED BY RF-SCORE:    0.00 PKD
ROOT
HETATM    1  C   UNL     1      -7.599   9.324  67.391  1.00  0.00    -0.088 C  
HETATM    2  C   UNL     1      -7.217   9.343  66.030  1.00  0.00    -0.092 C  
HETATM    3  C   UNL     1      -8.678   9.431  66.321  1.00  0.00    -0.157 C  
HETATM    4  C   UNL     1      -9.123   9.818  68.310  1.00  0.00    -0.122 C  
HETATM    5  C   UNL     1      -9.176   9.938  64.774  1.00  0.00    -0.309 C  
HETATM    6  O   UNL     1      -7.449   1.620  68.343  1.00  0.00    -0.046 OA 
HETATM    7  C   UNL     1      -7.925   2.677  67.954  1.00  0.00    -0.059 C  
HETATM    8  C   UNL     1      -9.205  10.445  67.111  1.00  0.00    -0.159 C  
HETATM    9  C   UNL     1      -7.191   3.541  66.959  1.00  0.00    -0.063 C  
HETATM   10  C   UNL     1      -7.514   4.819  67.243  1.00  0.00    -0.082 C  
HETATM   11  C   UNL     1      -8.931  11.947  66.841  1.00  0.00    -0.196 C  
HETATM   12  C   UNL     1      -9.519   4.834  65.651  1.00  0.00    -0.173 C  
HETATM   13  C   UNL     1     -10.781   9.395  66.968  1.00  0.00    -0.207 C  
HETATM   14  C   UNL     1      -6.770   5.492  68.377  1.00  0.00    -0.054 C  
HETATM   15  C   UNL     1      -8.990   5.261  67.080  1.00  0.00    -0.112 C  
HETATM   16  C   UNL     1     -10.545   7.643  67.191  1.00  0.00    -0.340 C  
HETATM   17  C   UNL     1      -9.775   4.366  68.028  1.00  0.00    -0.182 C  
HETATM   18  O   UNL     1     -11.212   7.283  68.400  1.00  0.00    -0.450 OA 
HETATM   19  C   UNL     1      -9.287   3.155  68.394  1.00  0.00    -0.244 C  
HETATM   20  C   UNL     1      -9.017   6.855  67.073  1.00  0.00    -0.120 C  
HETATM   21  C   UNL     1      -7.926   7.667  67.933  1.00  0.00    -0.118 C  
HETATM   22  F   UNL     1      -8.534   6.989  65.751  1.00  0.00    -0.129 F  
HETATM   23  H   UNL     1     -11.086   6.349  68.518  1.00  0.00     0.000 HD 
HETATM   24  C   UNL     1      -6.574   6.955  68.043  1.00  0.00    -0.059 C  
ENDROOT
BRANCH   4  25
HETATM   25  O   UNL     1      -8.098  10.655  69.147  1.00  0.00    -0.139 OA 
BRANCH  25  26
HETATM   26  C   UNL     1      -7.416  10.134  70.198  1.00  0.00    -0.133 C  
HETATM   27  O   UNL     1      -7.818   9.273  70.968  1.00  0.00    -0.240 OA 
BRANCH  26  28
HETATM   28  C   UNL     1      -6.022  10.731  70.236  1.00  0.00    -0.119 C  
HETATM   29  C   UNL     1      -5.919  11.989  69.385  1.00  0.00    -0.093 C  
ENDBRANCH  26  28
ENDBRANCH  25  26
ENDBRANCH   4  25
BRANCH   4  30
HETATM   30  C   UNL     1     -10.288  10.738  69.087  1.00  0.00    -0.217 C  
HETATM   31  C   UNL     1     -11.096  10.210  70.246  1.00  0.00    -0.317 C  
HETATM   32  O   UNL     1     -10.550  11.923  68.812  1.00  0.00    -0.216 OA 
HETATM   33 CL   UNL     1     -10.701   8.600  70.793  1.00  0.00    -0.245 Cl 
ENDBRANCH   4  30
TORSDOF 4
ENDMDL
MODEL       37
REMARK 921   NORMALIZED FREE ENERGY PREDICTED BY IDOCK:   -4.07 KCAL/MOL
REMARK 922        TOTAL FREE ENERGY PREDICTED BY IDOCK:   -4.18 KCAL/MOL
REMARK 923 INTER-LIGAND FREE ENERGY PREDICTED BY IDOCK:   -5.42 KCAL/MOL
REMARK 924 INTRA-LIGAND FREE ENERGY PREDICTED BY IDOCK:    1.24 KCAL/MOL
REMARK 927      BINDING AFFINITY PREDICTED BY RF-SCORE:    0.00 PKD
ROOT
HETATM    1  C   UNL     1     -11.992  14.192  66.924  1.00  0.00    -0.479 C  
HETATM    2  C   UNL     1     -12.530  14.932  65.846  1.00  0.00     0.237 C  
HETATM    3  C   UNL     1     -11.362  14.054  65.544  1.00  0.00    -0.313 C  
HETATM    4  C   UNL     1     -10.906  12.704  67.052  1.00  0.00    -0.253 C  
HETATM    5  C   UNL     1     -11.505  14.079  63.848  1.00  0.00     0.023 C  
HETATM    6  O   UNL     1      -7.525  19.829  69.849  1.00  0.00    -0.052 OA 
HETATM    7  C   UNL     1      -7.814  18.950  69.049  1.00  0.00    -0.206 C  
HETATM    8  C   UNL     1     -11.396  12.686  65.789  1.00  0.00    -0.370 C  
HETATM    9  C   UNL     1      -9.062  19.047  68.206  1.00  0.00    -0.371 C  
HETATM   10  C   UNL     1      -9.492  17.785  68.005  1.00  0.00    -0.281 C  
HETATM   11  C   UNL     1     -12.524  11.765  65.255  1.00  0.00     0.848 C  
HETATM   12  C   UNL     1      -8.151  17.501  65.842  1.00  0.00    -0.050 C  
HETATM   13  C   UNL     1      -9.551  12.818  65.356  1.00  0.00     0.045 C  
HETATM   14  C   UNL     1     -10.293  17.135  69.114  1.00  0.00    -0.297 C  
HETATM   15  C   UNL     1      -8.590  16.816  67.199  1.00  0.00    -0.217 C  
HETATM   16  C   UNL     1      -8.696  14.192  66.101  1.00  0.00     0.517 C  
HETATM   17  C   UNL     1      -7.292  16.739  67.991  1.00  0.00    -0.167 C  
HETATM   18  O   UNL     1      -7.758  13.647  67.028  1.00  0.00    -0.370 OA 
HETATM   19  C   UNL     1      -6.927  17.752  68.815  1.00  0.00    -0.257 C  
HETATM   20  C   UNL     1      -9.487  15.572  66.766  1.00  0.00    -0.237 C  
HETATM   21  C   UNL     1     -10.689  15.093  67.722  1.00  0.00    -0.279 C  
HETATM   22  F   UNL     1     -10.164  16.253  65.730  1.00  0.00    -0.312 F  
HETATM   23  H   UNL     1      -7.302  14.379  67.425  1.00  0.00     0.000 HD 
HETATM   24  C   UNL     1     -11.346  16.235  68.504  1.00  0.00    -0.330 C  
ENDROOT
BRANCH   4  25
HETATM   25  O   UNL     1     -12.074  12.185  67.957  1.00  0.00    -0.478 OA 
BRANCH  25  26
HETATM   26  C   UNL     1     -11.987  12.146  69.311  1.00  0.00    -0.262 C  
HETATM   27  O   UNL     1     -11.690  13.079  70.045  1.00  0.00    -0.289 OA 
BRANCH  26  28
HETATM   28  C   UNL     1     -12.393  10.770  69.800  1.00  0.00    -0.305 C  
HETATM   29  C   UNL     1     -12.775  10.779  71.273  1.00  0.00    -0.546 C  
ENDBRANCH  26  28
ENDBRANCH  25  26
ENDBRANCH   4  25
BRANCH   4  30
HETATM   30  C   UNL     1     -10.376  11.115  67.075  1.00  0.00    -0.224 C  
HETATM   31  C   UNL     1      -9.201  10.665  67.907  1.00  0.00    -0.148 C  
HETATM   32  O   UNL     1     -10.920  10.181  66.459  1.00  0.00    -0.041 OA 
HETATM   33 CL   UNL     1      -8.458  11.882  68.915  1.00  0.00     0.047 Cl 
ENDBRANCH   4  30
TORSDOF 4
ENDMDL
MODEL       38
REMARK 921   NORMALIZED FREE ENERGY PREDICTED BY IDOCK:   -3.98 KCAL/MOL
REMARK 922        TOTAL FREE ENERGY PREDICTED BY IDOCK:   -4.06 KCAL/MOL
REMARK 923 INTER-LIGAND FREE ENERGY PREDICTED BY IDOCK:   -5.10 KCAL/MOL
REMARK 924 INTRA-LIGAND FREE ENERGY PREDICTED BY IDOCK:    1.04 KCAL/MOL
REMARK 927      BINDING AFFINITY PREDICTED BY RF-SCORE:    0.00 PKD
ROOT
HETATM    1  C   UNL     1      -8.259  12.046  68.947  1.00  0.00     0.127 C  
HETATM    2  C   UNL     1      -6.887  11.786  69.172  1.00  0.00    -0.106 C  
HETATM    3  C   UNL     1      -7.331  11.881  67.750  1.00  0.00    -0.109 C  
HETATM    4  C   UNL     1      -9.234  12.671  67.508  1.00  0.00    -0.190 C  
HETATM    5  C   UNL     1      -5.786  12.026  67.052  1.00  0.00    -0.123 C  
HETATM    6  O   UNL     1     -10.773   4.736  69.677  1.00  0.00     0.140 OA 
HETATM    7  C   UNL     1     -10.234   5.667  69.096  1.00  0.00    -0.236 C  
HETATM    8  C   UNL     1      -7.950  13.022  67.254  1.00  0.00    -0.143 C  
HETATM    9  C   UNL     1      -8.997   6.324  69.659  1.00  0.00    -0.135 C  
HETATM   10  C   UNL     1      -9.046   7.621  69.292  1.00  0.00    -0.145 C  
HETATM   11  C   UNL     1      -7.341  14.440  67.403  1.00  0.00    -0.167 C  
HETATM   12  C   UNL     1      -7.743   7.220  67.124  1.00  0.00    -0.112 C  
HETATM   13  C   UNL     1      -8.225  11.909  65.739  1.00  0.00     0.577 C  
HETATM   14  C   UNL     1      -9.914   8.548  70.116  1.00  0.00    -0.187 C  
HETATM   15  C   UNL     1      -8.976   7.963  67.782  1.00  0.00    -0.128 C  
HETATM   16  C   UNL     1      -8.777  10.255  66.106  1.00  0.00    -0.152 C  
HETATM   17  C   UNL     1     -10.180   7.265  67.165  1.00  0.00    -0.339 C  
HETATM   18  O   UNL     1     -10.107  10.139  65.602  1.00  0.00    -0.271 OA 
HETATM   19  C   UNL     1     -10.728   6.179  67.765  1.00  0.00    -0.382 C  
HETATM   20  C   UNL     1      -8.640   9.517  67.657  1.00  0.00    -0.122 C  
HETATM   21  C   UNL     1      -9.171  10.533  68.786  1.00  0.00    -0.177 C  
HETATM   22  F   UNL     1      -7.271   9.381  67.979  1.00  0.00    -0.075 F  
HETATM   23  H   UNL     1     -10.402   9.257  65.798  1.00  0.00     0.000 HD 
HETATM   24  C   UNL     1      -9.260   9.911  70.183  1.00  0.00    -0.184 C  
ENDROOT
BRANCH   4  25
HETATM   25  O   UNL     1      -9.746  13.704  68.566  1.00  0.00    -0.227 OA 
BRANCH  25  26
HETATM   26  C   UNL     1     -11.005  13.669  69.073  1.00  0.00    -0.234 C  
HETATM   27  O   UNL     1     -11.597  12.675  69.472  1.00  0.00    -0.287 OA 
BRANCH  26  28
HETATM   28  C   UNL     1     -11.556  15.079  69.144  1.00  0.00    -0.333 C  
HETATM   29  C   UNL     1     -11.719  15.555  70.580  1.00  0.00    -0.377 C  
ENDBRANCH  26  28
ENDBRANCH  25  26
ENDBRANCH   4  25
BRANCH   4  30
HETATM   30  C   UNL     1      -9.939  13.693  66.383  1.00  0.00    -0.296 C  
HETATM   31  C   UNL     1     -11.291  13.417  65.774  1.00  0.00    -0.305 C  
HETATM   32  O   UNL     1      -9.441  14.765  65.995  1.00  0.00    -0.297 OA 
HETATM   33 CL   UNL     1     -12.129  12.003  66.362  1.00  0.00    -0.106 Cl 
ENDBRANCH   4  30
TORSDOF 4
ENDMDL
MODEL       39
REMARK 921   NORMALIZED FREE ENERGY PREDICTED BY IDOCK:   -3.89 KCAL/MOL
REMARK 922        TOTAL FREE ENERGY PREDICTED BY IDOCK:   -3.95 KCAL/MOL
REMARK 923 INTER-LIGAND FREE ENERGY PREDICTED BY IDOCK:   -5.66 KCAL/MOL
REMARK 924 INTRA-LIGAND FREE ENERGY PREDICTED BY IDOCK:    1.71 KCAL/MOL
REMARK 927      BINDING AFFINITY PREDICTED BY RF-SCORE:    0.00 PKD
ROOT
HETATM    1  C   UNL     1      -9.907  12.786  65.872  1.00  0.00    -0.243 C  
HETATM    2  C   UNL     1      -8.696  12.340  65.293  1.00  0.00     0.950 C  
HETATM    3  C   UNL     1      -8.856  12.134  66.762  1.00  0.00    -0.198 C  
HETATM    4  C   UNL     1     -10.792  12.421  67.451  1.00  0.00    -0.238 C  
HETATM    5  C   UNL     1      -7.574  11.033  66.966  1.00  0.00    -0.127 C  
HETATM    6  O   UNL     1      -7.899  20.239  66.715  1.00  0.00    -0.298 OA 
HETATM    7  C   UNL     1      -7.892  19.052  67.009  1.00  0.00    -0.242 C  
HETATM    8  C   UNL     1      -9.915  11.401  67.285  1.00  0.00    -0.217 C  
HETATM    9  C   UNL     1      -7.371  18.015  66.044  1.00  0.00    -0.298 C  
HETATM   10  C   UNL     1      -8.083  16.890  66.263  1.00  0.00    -0.351 C  
HETATM   11  C   UNL     1     -10.258   9.966  66.810  1.00  0.00    -0.301 C  
HETATM   12  C   UNL     1      -6.427  15.989  67.996  1.00  0.00    -0.148 C  
HETATM   13  C   UNL     1      -9.236  12.068  68.928  1.00  0.00     0.178 C  
HETATM   14  C   UNL     1      -9.453  16.795  65.626  1.00  0.00     0.089 C  
HETATM   15  C   UNL     1      -7.956  16.193  67.641  1.00  0.00    -0.162 C  
HETATM   16  C   UNL     1      -8.804  13.797  68.923  1.00  0.00     0.148 C  
HETATM   17  C   UNL     1      -8.417  17.233  68.652  1.00  0.00    -0.260 C  
HETATM   18  O   UNL     1      -9.718  14.457  69.797  1.00  0.00    -0.288 OA 
HETATM   19  C   UNL     1      -8.346  18.555  68.360  1.00  0.00    -0.355 C  
HETATM   20  C   UNL     1      -8.547  14.720  67.490  1.00  0.00    -0.187 C  
HETATM   21  C   UNL     1      -9.751  14.454  66.456  1.00  0.00    -0.305 C  
HETATM   22  F   UNL     1      -7.426  14.198  66.805  1.00  0.00     0.016 F  
HETATM   23  H   UNL     1      -9.487  15.379  69.794  1.00  0.00     0.000 HD 
HETATM   24  C   UNL     1      -9.715  15.361  65.222  1.00  0.00    -0.145 C  
ENDROOT
BRANCH   4  25
HETATM   25  O   UNL     1     -11.977  12.114  66.476  1.00  0.00    -0.618 OA 
BRANCH  25  26
HETATM   26  C   UNL     1     -12.660  13.090  65.826  1.00  0.00    -0.201 C  
HETATM   27  O   UNL     1     -12.899  14.213  66.251  1.00  0.00    -0.311 OA 
BRANCH  26  28
HETATM   28  C   UNL     1     -13.029  12.605  64.438  1.00  0.00    -0.232 C  
HETATM   29  C   UNL     1     -11.971  12.972  63.407  1.00  0.00    -0.592 C  
ENDBRANCH  26  28
ENDBRANCH  25  26
ENDBRANCH   4  25
BRANCH   4  30
HETATM   30  C   UNL     1     -11.741  11.671  68.610  1.00  0.00    -0.325 C  
HETATM   31  C   UNL     1     -12.492  12.444  69.666  1.00  0.00     0.188 C  
HETATM   32  O   UNL     1     -11.941  10.445  68.672  1.00  0.00    -0.249 OA 
HETATM   33 CL   UNL     1     -12.382  14.183  69.574  1.00  0.00    -0.339 Cl 
ENDBRANCH   4  30
TORSDOF 4
ENDMDL
MODEL       40
REMARK 921   NORMALIZED FREE ENERGY PREDICTED BY IDOCK:   -3.82 KCAL/MOL
REMARK 922        TOTAL FREE ENERGY PREDICTED BY IDOCK:   -3.86 KCAL/MOL
REMARK 923 INTER-LIGAND FREE ENERGY PREDICTED BY IDOCK:   -5.18 KCAL/MOL
REMARK 924 INTRA-LIGAND FREE ENERGY PREDICTED BY IDOCK:    1.32 KCAL/MOL
REMARK 927      BINDING AFFINITY PREDICTED BY RF-SCORE:    0.00 PKD
ROOT
HETATM    1  C   UNL     1      -9.469   6.959  70.232  1.00  0.00    -0.162 C  
HETATM    2  C   UNL     1      -9.405   5.743  70.952  1.00  0.00    -0.185 C  
HETATM    3  C   UNL     1      -8.106   6.393  70.611  1.00  0.00    -0.113 C  
HETATM    4  C   UNL     1      -8.287   8.347  69.939  1.00  0.00    -0.124 C  
HETATM    5  C   UNL     1      -7.128   5.487  71.669  1.00  0.00    -0.076 C  
HETATM    6  O   UNL     1     -10.259   3.861  63.156  1.00  0.00    -0.173 OA 
HETATM    7  C   UNL     1      -9.637   4.185  64.158  1.00  0.00    -0.148 C  
HETATM    8  C   UNL     1      -7.806   7.687  71.020  1.00  0.00    -0.090 C  
HETATM    9  C   UNL     1      -9.984   3.608  65.509  1.00  0.00    -0.005 C  
HETATM   10  C   UNL     1      -9.709   4.563  66.420  1.00  0.00    -0.218 C  
HETATM   11  C   UNL     1      -7.914   8.145  72.497  1.00  0.00    -0.195 C  
HETATM   12  C   UNL     1      -7.308   3.749  66.782  1.00  0.00    -0.068 C  
HETATM   13  C   UNL     1      -6.314   7.436  69.872  1.00  0.00    -0.031 C  
HETATM   14  C   UNL     1     -10.738   5.655  66.622  1.00  0.00    -0.339 C  
HETATM   15  C   UNL     1      -8.236   5.016  66.592  1.00  0.00    -0.108 C  
HETATM   16  C   UNL     1      -6.687   6.686  68.300  1.00  0.00    -0.068 C  
HETATM   17  C   UNL     1      -7.828   5.551  65.227  1.00  0.00    -0.095 C  
HETATM   18  O   UNL     1      -6.448   7.675  67.299  1.00  0.00    -0.055 OA 
HETATM   19  C   UNL     1      -8.461   5.128  64.105  1.00  0.00    -0.127 C  
HETATM   20  C   UNL     1      -8.137   5.814  67.969  1.00  0.00    -0.104 C  
HETATM   21  C   UNL     1      -9.404   6.662  68.485  1.00  0.00    -0.125 C  
HETATM   22  F   UNL     1      -8.176   4.664  68.790  1.00  0.00    -0.080 F  
HETATM   23  H   UNL     1      -6.647   7.275  66.461  1.00  0.00     0.000 HD 
HETATM   24  C   UNL     1     -10.753   6.060  68.080  1.00  0.00    -0.353 C  
ENDROOT
BRANCH   4  25
HETATM   25  O   UNL     1      -9.482   9.205  70.474  1.00  0.00    -0.202 OA 
BRANCH  25  26
HETATM   26  C   UNL     1     -10.425   9.736  69.653  1.00  0.00    -0.242 C  
HETATM   27  O   UNL     1     -10.530   9.543  68.450  1.00  0.00    -0.208 OA 
BRANCH  26  28
HETATM   28  C   UNL     1     -11.396  10.562  70.475  1.00  0.00    -0.400 C  
HETATM   29  C   UNL     1     -12.264   9.693  71.373  1.00  0.00    -0.471 C  
ENDBRANCH  26  28
ENDBRANCH  25  26
ENDBRANCH   4  25
BRANCH   4  30
HETATM   30  C   UNL     1      -7.382   9.742  70.149  1.00  0.00    -0.155 C  
HETATM   31  C   UNL     1      -7.123  10.715  69.026  1.00  0.00    -0.086 C  
HETATM   32  O   UNL     1      -6.896  10.110  71.233  1.00  0.00    -0.270 OA 
HETATM   33 CL   UNL     1      -7.883  10.352  67.498  1.00  0.00    -0.105 Cl 
ENDBRANCH   4  30
TORSDOF 4
ENDMDL
MODEL       41
REMARK 921   NORMALIZED FREE ENERGY PREDICTED BY IDOCK:   -3.76 KCAL/MOL
REMARK 922        TOTAL FREE ENERGY PREDICTED BY IDOCK:   -3.79 KCAL/MOL
REMARK 923 INTER-LIGAND FREE ENERGY PREDICTED BY IDOCK:   -4.91 KCAL/MOL
REMARK 924 INTRA-LIGAND FREE ENERGY PREDICTED BY IDOCK:    1.12 KCAL/MOL
REMARK 927      BINDING AFFINITY PREDICTED BY RF-SCORE:    0.00 PKD
ROOT
HETATM    1  C   UNL     1     -10.019   8.968  67.524  1.00  0.00    -0.262 C  
HETATM    2  C   UNL     1     -10.719   8.787  68.740  1.00  0.00    -0.111 C  
HETATM    3  C   UNL     1      -9.268   9.121  68.841  1.00  0.00    -0.139 C  
HETATM    4  C   UNL     1      -8.424   9.777  67.063  1.00  0.00    -0.117 C  
HETATM    5  C   UNL     1      -9.257   9.532  70.493  1.00  0.00    -0.284 C  
HETATM    6  O   UNL     1      -8.617   1.469  66.077  1.00  0.00    -0.096 OA 
HETATM    7  C   UNL     1      -8.438   2.539  66.642  1.00  0.00    -0.101 C  
HETATM    8  C   UNL     1      -8.745  10.280  68.279  1.00  0.00    -0.126 C  
HETATM    9  C   UNL     1      -9.529   3.175  67.468  1.00  0.00    -0.189 C  
HETATM   10  C   UNL     1      -9.369   4.510  67.358  1.00  0.00    -0.168 C  
HETATM   11  C   UNL     1      -9.329  11.688  68.564  1.00  0.00    -0.169 C  
HETATM   12  C   UNL     1      -7.846   4.656  69.412  1.00  0.00    -0.062 C  
HETATM   13  C   UNL     1      -7.096   9.466  68.756  1.00  0.00    -0.069 C  
HETATM   14  C   UNL     1      -9.917   5.180  66.116  1.00  0.00    -0.216 C  
HETATM   15  C   UNL     1      -8.074   5.147  67.924  1.00  0.00    -0.098 C  
HETATM   16  C   UNL     1      -6.969   7.732  68.370  1.00  0.00    -0.072 C  
HETATM   17  C   UNL     1      -6.941   4.483  67.155  1.00  0.00    -0.060 C  
HETATM   18  O   UNL     1      -5.976   7.603  67.353  1.00  0.00    -0.044 OA 
HETATM   19  C   UNL     1      -7.112   3.258  66.600  1.00  0.00    -0.055 C  
HETATM   20  C   UNL     1      -8.323   6.717  68.039  1.00  0.00    -0.120 C  
HETATM   21  C   UNL     1      -9.293   7.444  66.980  1.00  0.00    -0.183 C  
HETATM   22  F   UNL     1      -9.128   6.639  69.198  1.00  0.00    -0.136 F  
HETATM   23  H   UNL     1      -5.908   6.678  67.147  1.00  0.00     0.000 HD 
HETATM   24  C   UNL     1     -10.435   6.554  66.481  1.00  0.00    -0.132 C  
ENDROOT
BRANCH   4  25
HETATM   25  O   UNL     1      -9.340  10.535  66.045  1.00  0.00    -0.167 OA 
BRANCH  25  26
HETATM   26  C   UNL     1      -9.455  10.159  64.745  1.00  0.00    -0.295 C  
HETATM   27  O   UNL     1      -8.940   9.178  64.226  1.00  0.00    -0.163 OA 
BRANCH  26  28
HETATM   28  C   UNL     1     -10.396  11.110  64.031  1.00  0.00    -0.437 C  
HETATM   29  C   UNL     1     -11.107  12.043  65.000  1.00  0.00    -0.368 C  
ENDBRANCH  26  28
ENDBRANCH  25  26
ENDBRANCH   4  25
BRANCH   4  30
HETATM   30  C   UNL     1      -7.279  10.936  66.672  1.00  0.00    -0.139 C  
HETATM   31  C   UNL     1      -6.102  10.641  65.776  1.00  0.00    -0.134 C  
HETATM   32  O   UNL     1      -7.322  12.123  67.042  1.00  0.00    -0.136 OA 
HETATM   33 CL   UNL     1      -6.032   9.035  65.096  1.00  0.00    -0.058 Cl 
ENDBRANCH   4  30
TORSDOF 4
ENDMDL
MODEL       42
REMARK 921   NORMALIZED FREE ENERGY PREDICTED BY IDOCK:   -3.75 KCAL/MOL
REMARK 922        TOTAL FREE ENERGY PREDICTED BY IDOCK:   -3.78 KCAL/MOL
REMARK 923 INTER-LIGAND FREE ENERGY PREDICTED BY IDOCK:   -4.63 KCAL/MOL
REMARK 924 INTRA-LIGAND FREE ENERGY PREDICTED BY IDOCK:    0.85 KCAL/MOL
REMARK 927      BINDING AFFINITY PREDICTED BY RF-SCORE:    0.00 PKD
ROOT
HETATM    1  C   UNL     1      -8.899   5.946  66.666  1.00  0.00    -0.123 C  
HETATM    2  C   UNL     1      -8.942   7.173  65.962  1.00  0.00    -0.141 C  
HETATM    3  C   UNL     1      -7.682   6.862  66.700  1.00  0.00    -0.105 C  
HETATM    4  C   UNL     1      -7.541   4.895  67.343  1.00  0.00    -0.090 C  
HETATM    5  C   UNL     1      -6.703   8.041  65.960  1.00  0.00    -0.053 C  
HETATM    6  O   UNL     1     -12.547   8.371  73.077  1.00  0.00    -0.191 OA 
HETATM    7  C   UNL     1     -11.592   8.269  72.319  1.00  0.00    -0.383 C  
HETATM    8  C   UNL     1      -6.948   5.711  66.438  1.00  0.00    -0.060 C  
HETATM    9  C   UNL     1     -11.657   8.806  70.910  1.00  0.00    -0.320 C  
HETATM   10  C   UNL     1     -10.883   8.002  70.154  1.00  0.00    -0.242 C  
HETATM   11  C   UNL     1      -6.486   5.316  65.012  1.00  0.00    -0.039 C  
HETATM   12  C   UNL     1      -8.782   9.423  70.510  1.00  0.00    -0.276 C  
HETATM   13  C   UNL     1      -5.987   6.278  67.975  1.00  0.00    -0.020 C  
HETATM   14  C   UNL     1     -11.483   6.694  69.683  1.00  0.00    -0.358 C  
HETATM   15  C   UNL     1      -9.362   7.951  70.448  1.00  0.00    -0.159 C  
HETATM   16  C   UNL     1      -6.995   6.825  69.339  1.00  0.00    -0.067 C  
HETATM   17  C   UNL     1      -9.256   7.470  71.888  1.00  0.00    -0.159 C  
HETATM   18  O   UNL     1      -6.817   5.881  70.394  1.00  0.00    -0.053 OA 
HETATM   19  C   UNL     1     -10.283   7.658  72.754  1.00  0.00    -0.336 C  
HETATM   20  C   UNL     1      -8.651   7.277  69.190  1.00  0.00    -0.133 C  
HETATM   21  C   UNL     1      -9.439   6.161  68.342  1.00  0.00    -0.119 C  
HETATM   22  F   UNL     1      -8.741   8.419  68.362  1.00  0.00    -0.131 F  
HETATM   23  H   UNL     1      -7.354   6.173  71.121  1.00  0.00     0.000 HD 
HETATM   24  C   UNL     1     -10.956   6.374  68.301  1.00  0.00    -0.396 C  
ENDROOT
BRANCH   4  25
HETATM   25  O   UNL     1      -8.255   3.788  66.498  1.00  0.00    -0.099 OA 
BRANCH  25  26
HETATM   26  C   UNL     1      -8.899   2.736  67.067  1.00  0.00    -0.141 C  
HETATM   27  O   UNL     1      -9.668   2.785  68.018  1.00  0.00    -0.132 OA 
BRANCH  26  28
HETATM   28  C   UNL     1      -8.580   1.474  66.290  1.00  0.00    -0.108 C  
HETATM   29  C   UNL     1      -8.282   1.767  64.826  1.00  0.00    -0.079 C  
ENDBRANCH  26  28
ENDBRANCH  25  26
ENDBRANCH   4  25
BRANCH   4  30
HETATM   30  C   UNL     1      -6.284   3.792  67.458  1.00  0.00    -0.036 C  
HETATM   31  C   UNL     1      -6.035   2.975  68.701  1.00  0.00    -0.024 C  
HETATM   32  O   UNL     1      -5.495   3.525  66.535  1.00  0.00    -0.016 OA 
HETATM   33 CL   UNL     1      -7.179   3.183  70.004  1.00  0.00    -0.041 Cl 
ENDBRANCH   4  30
TORSDOF 4
ENDMDL
MODEL       43
REMARK 921   NORMALIZED FREE ENERGY PREDICTED BY IDOCK:   -3.72 KCAL/MOL
REMARK 922        TOTAL FREE ENERGY PREDICTED BY IDOCK:   -3.74 KCAL/MOL
REMARK 923 INTER-LIGAND FREE ENERGY PREDICTED BY IDOCK:   -4.68 KCAL/MOL
REMARK 924 INTRA-LIGAND FREE ENERGY PREDICTED BY IDOCK:    0.94 KCAL/MOL
REMARK 927      BINDING AFFINITY PREDICTED BY RF-SCORE:    0.00 PKD
ROOT
HETATM    1  C   UNL     1      -8.220  10.468  69.170  1.00  0.00    -0.152 C  
HETATM    2  C   UNL     1      -7.211  10.880  70.071  1.00  0.00     0.127 C  
HETATM    3  C   UNL     1      -6.811   9.911  69.009  1.00  0.00    -0.054 C  
HETATM    4  C   UNL     1      -8.213   9.686  67.497  1.00  0.00    -0.114 C  
HETATM    5  C   UNL     1      -5.127  10.089  69.178  1.00  0.00    -0.035 C  
HETATM    6  O   UNL     1     -11.323   4.929  73.639  1.00  0.00    -0.303 OA 
HETATM    7  C   UNL     1     -10.481   5.402  72.888  1.00  0.00    -0.211 C  
HETATM    8  C   UNL     1      -6.970  10.201  67.659  1.00  0.00    -0.085 C  
HETATM    9  C   UNL     1      -9.693   6.628  73.278  1.00  0.00    -0.189 C  
HETATM   10  C   UNL     1      -9.430   7.298  72.138  1.00  0.00    -0.157 C  
HETATM   11  C   UNL     1      -6.423  11.498  67.009  1.00  0.00    -0.134 C  
HETATM   12  C   UNL     1      -7.204   6.090  71.754  1.00  0.00    -0.088 C  
HETATM   13  C   UNL     1      -6.478   8.376  67.467  1.00  0.00    -0.058 C  
HETATM   14  C   UNL     1     -10.524   8.180  71.577  1.00  0.00    -0.276 C  
HETATM   15  C   UNL     1      -8.531   6.619  71.073  1.00  0.00    -0.129 C  
HETATM   16  C   UNL     1      -7.275   7.255  68.599  1.00  0.00    -0.090 C  
HETATM   17  C   UNL     1      -9.267   5.341  70.696  1.00  0.00    -0.187 C  
HETATM   18  O   UNL     1      -8.130   6.417  67.823  1.00  0.00    -0.113 OA 
HETATM   19  C   UNL     1     -10.139   4.767  71.563  1.00  0.00    -0.260 C  
HETATM   20  C   UNL     1      -8.055   7.749  70.055  1.00  0.00    -0.118 C  
HETATM   21  C   UNL     1      -9.023   8.997  69.749  1.00  0.00    -0.157 C  
HETATM   22  F   UNL     1      -7.089   8.308  70.923  1.00  0.00    -0.045 F  
HETATM   23  H   UNL     1      -8.555   5.818  68.427  1.00  0.00     0.000 HD 
HETATM   24  C   UNL     1      -9.900   9.402  70.939  1.00  0.00    -0.338 C  
ENDROOT
BRANCH   4  25
HETATM   25  O   UNL     1      -9.127  10.908  67.148  1.00  0.00    -0.144 OA 
BRANCH  25  26
HETATM   26  C   UNL     1     -10.478  10.809  67.060  1.00  0.00    -0.247 C  
HETATM   27  O   UNL     1     -11.196  10.075  67.725  1.00  0.00    -0.256 OA 
BRANCH  26  28
HETATM   28  C   UNL     1     -10.989  11.816  66.047  1.00  0.00    -0.355 C  
HETATM   29  C   UNL     1      -9.978  12.923  65.785  1.00  0.00    -0.261 C  
ENDBRANCH  26  28
ENDBRANCH  25  26
ENDBRANCH   4  25
BRANCH   4  30
HETATM   30  C   UNL     1      -8.116   9.471  65.838  1.00  0.00    -0.115 C  
HETATM   31  C   UNL     1      -8.908   8.413  65.111  1.00  0.00    -0.031 C  
HETATM   32  O   UNL     1      -7.434  10.176  65.074  1.00  0.00    -0.136 OA 
HETATM   33 CL   UNL     1     -10.001   7.461  66.085  1.00  0.00     0.027 Cl 
ENDBRANCH   4  30
TORSDOF 4
ENDMDL
MODEL       44
REMARK 921   NORMALIZED FREE ENERGY PREDICTED BY IDOCK:   -3.72 KCAL/MOL
REMARK 922        TOTAL FREE ENERGY PREDICTED BY IDOCK:   -3.74 KCAL/MOL
REMARK 923 INTER-LIGAND FREE ENERGY PREDICTED BY IDOCK:   -4.70 KCAL/MOL
REMARK 924 INTRA-LIGAND FREE ENERGY PREDICTED BY IDOCK:    0.96 KCAL/MOL
REMARK 927      BINDING AFFINITY PREDICTED BY RF-SCORE:    0.00 PKD
ROOT
HETATM    1  C   UNL     1      -7.063   5.984  68.347  1.00  0.00    -0.082 C  
HETATM    2  C   UNL     1      -5.735   6.470  68.364  1.00  0.00    -0.016 C  
HETATM    3  C   UNL     1      -6.661   7.004  69.404  1.00  0.00    -0.049 C  
HETATM    4  C   UNL     1      -8.439   5.949  69.577  1.00  0.00    -0.114 C  
HETATM    5  C   UNL     1      -5.477   7.693  70.414  1.00  0.00    -0.023 C  
HETATM    6  O   UNL     1      -9.783  10.768  62.869  1.00  0.00    -0.309 OA 
HETATM    7  C   UNL     1      -9.413  10.475  63.998  1.00  0.00    -0.289 C  
HETATM    8  C   UNL     1      -7.314   6.166  70.300  1.00  0.00    -0.088 C  
HETATM    9  C   UNL     1      -8.002  10.008  64.258  1.00  0.00    -0.152 C  
HETATM   10  C   UNL     1      -8.065   9.142  65.288  1.00  0.00    -0.124 C  
HETATM   11  C   UNL     1      -6.567   5.122  71.169  1.00  0.00    -0.039 C  
HETATM   12  C   UNL     1      -7.698  10.963  67.050  1.00  0.00    -0.129 C  
HETATM   13  C   UNL     1      -8.228   7.770  70.746  1.00  0.00    -0.107 C  
HETATM   14  C   UNL     1      -8.479   7.718  64.981  1.00  0.00    -0.052 C  
HETATM   15  C   UNL     1      -8.527   9.670  66.670  1.00  0.00    -0.126 C  
HETATM   16  C   UNL     1      -8.754   8.753  69.355  1.00  0.00    -0.142 C  
HETATM   17  C   UNL     1      -9.931  10.208  66.435  1.00  0.00    -0.295 C  
HETATM   18  O   UNL     1     -10.181   8.727  69.342  1.00  0.00    -0.199 OA 
HETATM   19  C   UNL     1     -10.315  10.613  65.199  1.00  0.00    -0.331 C  
HETATM   20  C   UNL     1      -8.121   8.581  67.761  1.00  0.00    -0.115 C  
HETATM   21  C   UNL     1      -8.103   7.024  67.355  1.00  0.00    -0.116 C  
HETATM   22  F   UNL     1      -6.748   8.915  67.776  1.00  0.00    -0.061 F  
HETATM   23  H   UNL     1     -10.461   9.251  68.601  1.00  0.00     0.000 HD 
HETATM   24  C   UNL     1      -7.726   6.773  65.892  1.00  0.00    -0.094 C  
ENDROOT
BRANCH   4  25
HETATM   25  O   UNL     1      -8.427   4.421  69.239  1.00  0.00    -0.076 OA 
BRANCH  25  26
HETATM   26  C   UNL     1      -9.343   3.847  68.417  1.00  0.00    -0.163 C  
HETATM   27  O   UNL     1     -10.012   4.419  67.567  1.00  0.00    -0.154 OA 
BRANCH  26  28
HETATM   28  C   UNL     1      -9.363   2.350  68.657  1.00  0.00    -0.244 C  
HETATM   29  C   UNL     1      -8.722   1.978  69.986  1.00  0.00    -0.110 C  
ENDBRANCH  26  28
ENDBRANCH  25  26
ENDBRANCH   4  25
BRANCH   4  30
HETATM   30  C   UNL     1      -9.414   5.509  70.867  1.00  0.00    -0.166 C  
HETATM   31  C   UNL     1     -10.908   5.715  70.860  1.00  0.00    -0.224 C  
HETATM   32  O   UNL     1      -9.006   4.946  71.898  1.00  0.00    -0.132 OA 
HETATM   33 CL   UNL     1     -11.590   6.375  69.394  1.00  0.00    -0.382 Cl 
ENDBRANCH   4  30
TORSDOF 4
ENDMDL
MODEL       45
REMARK 921   NORMALIZED FREE ENERGY PREDICTED BY IDOCK:   -3.71 KCAL/MOL
REMARK 922        TOTAL FREE ENERGY PREDICTED BY IDOCK:   -3.73 KCAL/MOL
REMARK 923 INTER-LIGAND FREE ENERGY PREDICTED BY IDOCK:   -4.84 KCAL/MOL
REMARK 924 INTRA-LIGAND FREE ENERGY PREDICTED BY IDOCK:    1.11 KCAL/MOL
REMARK 927      BINDING AFFINITY PREDICTED BY RF-SCORE:    0.00 PKD
ROOT
HETATM    1  C   UNL     1     -10.372   7.050  69.670  1.00  0.00    -0.222 C  
HETATM    2  C   UNL     1     -11.548   6.348  70.024  1.00  0.00    -0.446 C  
HETATM    3  C   UNL     1     -10.374   6.197  70.932  1.00  0.00    -0.267 C  
HETATM    4  C   UNL     1      -8.853   7.565  70.585  1.00  0.00    -0.146 C  
HETATM    5  C   UNL     1     -11.208   5.516  72.250  1.00  0.00    -0.281 C  
HETATM    6  O   UNL     1      -7.630   1.863  64.584  1.00  0.00    -0.061 OA 
HETATM    7  C   UNL     1      -7.865   2.298  65.703  1.00  0.00    -0.077 C  
HETATM    8  C   UNL     1      -9.776   7.294  71.540  1.00  0.00    -0.168 C  
HETATM    9  C   UNL     1      -9.282   2.547  66.159  1.00  0.00    -0.043 C  
HETATM   10  C   UNL     1      -9.237   3.593  67.008  1.00  0.00    -0.208 C  
HETATM   11  C   UNL     1     -10.575   8.337  72.364  1.00  0.00    -0.408 C  
HETATM   12  C   UNL     1      -8.923   2.108  69.071  1.00  0.00    -0.163 C  
HETATM   13  C   UNL     1      -8.485   5.995  72.043  1.00  0.00    -0.121 C  
HETATM   14  C   UNL     1      -9.186   4.981  66.406  1.00  0.00    -0.139 C  
HETATM   15  C   UNL     1      -8.457   3.431  68.338  1.00  0.00    -0.104 C  
HETATM   16  C   UNL     1      -7.996   4.873  70.748  1.00  0.00    -0.083 C  
HETATM   17  C   UNL     1      -7.028   3.117  67.918  1.00  0.00    -0.050 C  
HETATM   18  O   UNL     1      -6.628   5.150  70.451  1.00  0.00    -0.033 OA 
HETATM   19  C   UNL     1      -6.772   2.557  66.710  1.00  0.00    -0.040 C  
HETATM   20  C   UNL     1      -8.900   4.620  69.303  1.00  0.00    -0.089 C  
HETATM   21  C   UNL     1      -9.311   6.041  68.669  1.00  0.00    -0.121 C  
HETATM   22  F   UNL     1     -10.152   4.055  69.639  1.00  0.00    -0.275 F  
HETATM   23  H   UNL     1      -6.368   4.552  69.761  1.00  0.00     0.000 HD 
HETATM   24  C   UNL     1      -9.964   5.934  67.288  1.00  0.00    -0.179 C  
ENDROOT
BRANCH   4  25
HETATM   25  O   UNL     1      -9.240   8.973  70.021  1.00  0.00    -0.159 OA 
BRANCH  25  26
HETATM   26  C   UNL     1      -8.619   9.527  68.949  1.00  0.00    -0.128 C  
HETATM   27  O   UNL     1      -8.248   8.937  67.943  1.00  0.00    -0.109 OA 
BRANCH  26  28
HETATM   28  C   UNL     1      -8.516  11.026  69.148  1.00  0.00    -0.022 C  
HETATM   29  C   UNL     1      -9.077  11.798  67.963  1.00  0.00    -0.180 C  
ENDBRANCH  26  28
ENDBRANCH  25  26
ENDBRANCH   4  25
BRANCH   4  30
HETATM   30  C   UNL     1      -7.798   8.412  71.573  1.00  0.00    -0.120 C  
HETATM   31  C   UNL     1      -6.318   8.496  71.293  1.00  0.00    -0.047 C  
HETATM   32  O   UNL     1      -8.140   9.066  72.574  1.00  0.00    -0.331 OA 
HETATM   33 CL   UNL     1      -5.764   7.721  69.830  1.00  0.00    -0.023 Cl 
ENDBRANCH   4  30
TORSDOF 4
ENDMDL
MODEL       46
REMARK 921   NORMALIZED FREE ENERGY PREDICTED BY IDOCK:   -3.67 KCAL/MOL
REMARK 922        TOTAL FREE ENERGY PREDICTED BY IDOCK:   -3.68 KCAL/MOL
REMARK 923 INTER-LIGAND FREE ENERGY PREDICTED BY IDOCK:   -4.81 KCAL/MOL
REMARK 924 INTRA-LIGAND FREE ENERGY PREDICTED BY IDOCK:    1.13 KCAL/MOL
REMARK 927      BINDING AFFINITY PREDICTED BY RF-SCORE:    0.00 PKD
ROOT
HETATM    1  C   UNL     1      -9.980  10.127  66.985  1.00  0.00    -0.249 C  
HETATM    2  C   UNL     1     -11.236  10.606  67.424  1.00  0.00    -0.280 C  
HETATM    3  C   UNL     1     -10.034  11.092  68.162  1.00  0.00    -0.189 C  
HETATM    4  C   UNL     1      -8.235  10.688  67.210  1.00  0.00    -0.116 C  
HETATM    5  C   UNL     1     -10.789  12.380  68.979  1.00  0.00    -0.194 C  
HETATM    6  O   UNL     1     -10.116   3.375  70.818  1.00  0.00     0.022 OA 
HETATM    7  C   UNL     1      -9.982   4.587  70.716  1.00  0.00    -0.199 C  
HETATM    8  C   UNL     1      -9.002  11.763  67.515  1.00  0.00    -0.168 C  
HETATM    9  C   UNL     1     -11.124   5.460  70.257  1.00  0.00     0.094 C  
HETATM   10  C   UNL     1     -10.576   6.494  69.587  1.00  0.00    -0.291 C  
HETATM   11  C   UNL     1      -9.241  13.003  66.616  1.00  0.00    -0.222 C  
HETATM   12  C   UNL     1     -10.401   7.963  71.677  1.00  0.00    -0.250 C  
HETATM   13  C   UNL     1      -8.150  11.559  69.200  1.00  0.00     0.128 C  
HETATM   14  C   UNL     1     -10.177   6.259  68.146  1.00  0.00    -0.200 C  
HETATM   15  C   UNL     1      -9.664   7.477  70.364  1.00  0.00    -0.179 C  
HETATM   16  C   UNL     1      -8.312   9.946  69.939  1.00  0.00    -0.183 C  
HETATM   17  C   UNL     1      -8.525   6.619  70.896  1.00  0.00    -0.133 C  
HETATM   18  O   UNL     1      -7.010   9.362  69.956  1.00  0.00    -0.054 OA 
HETATM   19  C   UNL     1      -8.699   5.288  71.090  1.00  0.00    -0.136 C  
HETATM   20  C   UNL     1      -9.499   8.787  69.471  1.00  0.00    -0.165 C  
HETATM   21  C   UNL     1      -9.521   8.658  67.867  1.00  0.00    -0.157 C  
HETATM   22  F   UNL     1     -10.782   9.305  69.759  1.00  0.00    -0.209 F  
HETATM   23  H   UNL     1      -7.096   8.502  70.351  1.00  0.00     0.000 HD 
HETATM   24  C   UNL     1     -10.415   7.526  67.352  1.00  0.00    -0.367 C  
ENDROOT
BRANCH   4  25
HETATM   25  O   UNL     1      -8.227  10.614  65.646  1.00  0.00    -0.159 OA 
BRANCH  25  26
HETATM   26  C   UNL     1      -7.987   9.461  64.971  1.00  0.00    -0.118 C  
HETATM   27  O   UNL     1      -7.411   8.473  65.406  1.00  0.00    -0.082 OA 
BRANCH  26  28
HETATM   28  C   UNL     1      -8.616   9.547  63.593  1.00  0.00    -0.222 C  
HETATM   29  C   UNL     1      -9.769  10.539  63.556  1.00  0.00    -0.374 C  
ENDBRANCH  26  28
ENDBRANCH  25  26
ENDBRANCH   4  25
BRANCH   4  30
HETATM   30  C   UNL     1      -6.794  11.524  67.033  1.00  0.00    -0.147 C  
HETATM   31  C   UNL     1      -5.449  10.865  67.206  1.00  0.00    -0.044 C  
HETATM   32  O   UNL     1      -6.710  12.722  66.708  1.00  0.00     0.071 OA 
HETATM   33 CL   UNL     1      -5.465   9.150  67.529  1.00  0.00    -0.038 Cl 
ENDBRANCH   4  30
TORSDOF 4
ENDMDL
MODEL       47
REMARK 921   NORMALIZED FREE ENERGY PREDICTED BY IDOCK:   -3.67 KCAL/MOL
REMARK 922        TOTAL FREE ENERGY PREDICTED BY IDOCK:   -3.68 KCAL/MOL
REMARK 923 INTER-LIGAND FREE ENERGY PREDICTED BY IDOCK:   -5.47 KCAL/MOL
REMARK 924 INTRA-LIGAND FREE ENERGY PREDICTED BY IDOCK:    1.79 KCAL/MOL
REMARK 927      BINDING AFFINITY PREDICTED BY RF-SCORE:    0.00 PKD
ROOT
HETATM    1  C   UNL     1     -11.304  12.965  66.861  1.00  0.00    -0.358 C  
HETATM    2  C   UNL     1     -12.114  11.905  67.331  1.00  0.00     0.146 C  
HETATM    3  C   UNL     1     -10.998  12.346  68.219  1.00  0.00    -0.269 C  
HETATM    4  C   UNL     1     -10.136  14.149  67.663  1.00  0.00    -0.236 C  
HETATM    5  C   UNL     1     -11.526  11.560  69.633  1.00  0.00    -0.373 C  
HETATM    6  O   UNL     1      -6.609   8.697  62.384  1.00  0.00    -0.095 OA 
HETATM    7  C   UNL     1      -7.024   9.139  63.447  1.00  0.00    -0.089 C  
HETATM    8  C   UNL     1     -10.898  13.657  68.669  1.00  0.00    -0.283 C  
HETATM    9  C   UNL     1      -8.435   8.862  63.907  1.00  0.00    -0.147 C  
HETATM   10  C   UNL     1      -8.828   9.937  64.618  1.00  0.00    -0.234 C  
HETATM   11  C   UNL     1     -12.065  14.391  69.379  1.00  0.00    -0.338 C  
HETATM   12  C   UNL     1      -8.002   8.968  66.840  1.00  0.00    -0.105 C  
HETATM   13  C   UNL     1      -9.211  13.048  69.294  1.00  0.00     0.906 C  
HETATM   14  C   UNL     1      -9.317  11.145  63.847  1.00  0.00    -0.197 C  
HETATM   15  C   UNL     1      -8.080  10.265  65.936  1.00  0.00    -0.143 C  
HETATM   16  C   UNL     1      -8.287  12.060  68.135  1.00  0.00    -0.165 C  
HETATM   17  C   UNL     1      -6.634  10.492  65.520  1.00  0.00    -0.097 C  
HETATM   18  O   UNL     1      -7.134  12.816  67.769  1.00  0.00    -0.102 OA 
HETATM   19  C   UNL     1      -6.148   9.933  64.384  1.00  0.00    -0.117 C  
HETATM   20  C   UNL     1      -8.982  11.291  66.758  1.00  0.00    -0.171 C  
HETATM   21  C   UNL     1      -9.906  12.342  65.964  1.00  0.00    -0.268 C  
HETATM   22  F   UNL     1      -9.915  10.324  67.196  1.00  0.00    -0.197 F  
HETATM   23  H   UNL     1      -6.641  12.288  67.152  1.00  0.00     0.000 HD 
HETATM   24  C   UNL     1     -10.429  11.814  64.625  1.00  0.00    -0.347 C  
ENDROOT
BRANCH   4  25
HETATM   25  O   UNL     1     -11.035  15.206  66.940  1.00  0.00    -0.317 OA 
BRANCH  25  26
HETATM   26  C   UNL     1     -10.599  15.934  65.880  1.00  0.00    -0.337 C  
HETATM   27  O   UNL     1     -10.032  17.017  65.929  1.00  0.00    -0.462 OA 
BRANCH  26  28
HETATM   28  C   UNL     1     -10.853  15.159  64.602  1.00  0.00    -0.285 C  
HETATM   29  C   UNL     1     -12.329  15.133  64.235  1.00  0.00    -0.198 C  
ENDBRANCH  26  28
ENDBRANCH  25  26
ENDBRANCH   4  25
BRANCH   4  30
HETATM   30  C   UNL     1      -9.526  15.461  68.509  1.00  0.00    -0.202 C  
HETATM   31  C   UNL     1      -8.167  16.048  68.223  1.00  0.00    -0.159 C  
HETATM   32  O   UNL     1     -10.145  16.078  69.395  1.00  0.00    -0.241 OA 
HETATM   33 CL   UNL     1      -7.280  15.332  66.900  1.00  0.00     0.008 Cl 
ENDBRANCH   4  30
TORSDOF 4
ENDMDL
MODEL       48
REMARK 921   NORMALIZED FREE ENERGY PREDICTED BY IDOCK:   -3.61 KCAL/MOL
REMARK 922        TOTAL FREE ENERGY PREDICTED BY IDOCK:   -3.61 KCAL/MOL
REMARK 923 INTER-LIGAND FREE ENERGY PREDICTED BY IDOCK:   -5.06 KCAL/MOL
REMARK 924 INTRA-LIGAND FREE ENERGY PREDICTED BY IDOCK:    1.45 KCAL/MOL
REMARK 927      BINDING AFFINITY PREDICTED BY RF-SCORE:    0.00 PKD
ROOT
HETATM    1  C   UNL     1      -8.312   9.015  70.626  1.00  0.00    -0.214 C  
HETATM    2  C   UNL     1      -7.056   9.149  71.263  1.00  0.00    -0.063 C  
HETATM    3  C   UNL     1      -7.075   8.431  69.955  1.00  0.00    -0.051 C  
HETATM    4  C   UNL     1      -8.849   8.641  68.899  1.00  0.00    -0.138 C  
HETATM    5  C   UNL     1      -5.399   8.469  69.663  1.00  0.00    -0.030 C  
HETATM    6  O   UNL     1     -10.739   2.776  74.561  1.00  0.00    -0.150 OA 
HETATM    7  C   UNL     1     -10.079   3.362  73.714  1.00  0.00    -0.126 C  
HETATM    8  C   UNL     1      -7.556   9.033  68.798  1.00  0.00    -0.087 C  
HETATM    9  C   UNL     1      -9.074   4.418  74.103  1.00  0.00    -0.109 C  
HETATM   10  C   UNL     1      -9.049   5.318  73.099  1.00  0.00    -0.127 C  
HETATM   11  C   UNL     1      -7.052  10.412  68.299  1.00  0.00    -0.078 C  
HETATM   12  C   UNL     1      -7.169   4.108  71.849  1.00  0.00    -0.058 C  
HETATM   13  C   UNL     1      -7.355   7.278  68.101  1.00  0.00    -0.100 C  
HETATM   14  C   UNL     1     -10.141   6.366  73.072  1.00  0.00    -0.203 C  
HETATM   15  C   UNL     1      -8.558   4.853  71.704  1.00  0.00    -0.132 C  
HETATM   16  C   UNL     1      -7.946   5.972  69.159  1.00  0.00    -0.103 C  
HETATM   17  C   UNL     1      -9.515   3.740  71.302  1.00  0.00    -0.229 C  
HETATM   18  O   UNL     1      -9.072   5.385  68.508  1.00  0.00    -0.107 OA 
HETATM   19  C   UNL     1     -10.184   3.032  72.245  1.00  0.00    -0.176 C  
HETATM   20  C   UNL     1      -8.241   6.159  70.847  1.00  0.00    -0.126 C  
HETATM   21  C   UNL     1      -9.099   7.497  71.097  1.00  0.00    -0.149 C  
HETATM   22  F   UNL     1      -7.018   6.448  71.495  1.00  0.00    -0.067 F  
HETATM   23  H   UNL     1      -9.387   4.689  69.072  1.00  0.00     0.000 HD 
HETATM   24  C   UNL     1      -9.569   7.665  72.546  1.00  0.00    -0.230 C  
ENDROOT
BRANCH   4  25
HETATM   25  O   UNL     1      -9.669   9.960  69.088  1.00  0.00    -0.178 OA 
BRANCH  25  26
HETATM   26  C   UNL     1     -11.021  10.004  68.965  1.00  0.00    -0.212 C  
HETATM   27  O   UNL     1     -11.647  10.486  68.031  1.00  0.00    -0.442 OA 
BRANCH  26  28
HETATM   28  C   UNL     1     -11.655   9.287  70.140  1.00  0.00    -0.078 C  
HETATM   29  C   UNL     1     -11.992  10.243  71.276  1.00  0.00    -0.457 C  
ENDBRANCH  26  28
ENDBRANCH  25  26
ENDBRANCH   4  25
BRANCH   4  30
HETATM   30  C   UNL     1      -9.228   8.810  67.276  1.00  0.00    -0.139 C  
HETATM   31  C   UNL     1     -10.257   7.946  66.591  1.00  0.00    -0.233 C  
HETATM   32  O   UNL     1      -8.738   9.670  66.523  1.00  0.00    -0.132 OA 
HETATM   33 CL   UNL     1     -11.099   6.799  67.602  1.00  0.00    -0.334 Cl 
ENDBRANCH   4  30
TORSDOF 4
ENDMDL
MODEL       49
REMARK 921   NORMALIZED FREE ENERGY PREDICTED BY IDOCK:   -3.61 KCAL/MOL
REMARK 922        TOTAL FREE ENERGY PREDICTED BY IDOCK:   -3.60 KCAL/MOL
REMARK 923 INTER-LIGAND FREE ENERGY PREDICTED BY IDOCK:   -5.15 KCAL/MOL
REMARK 924 INTRA-LIGAND FREE ENERGY PREDICTED BY IDOCK:    1.55 KCAL/MOL
REMARK 927      BINDING AFFINITY PREDICTED BY RF-SCORE:    0.00 PKD
ROOT
HETATM    1  C   UNL     1      -9.013  12.039  68.501  1.00  0.00    -0.098 C  
HETATM    2  C   UNL     1      -7.666  12.331  68.821  1.00  0.00    -0.016 C  
HETATM    3  C   UNL     1      -8.270  13.090  67.687  1.00  0.00    -0.171 C  
HETATM    4  C   UNL     1     -10.333  12.917  67.554  1.00  0.00    -0.223 C  
HETATM    5  C   UNL     1      -7.076  14.299  67.578  1.00  0.00    -0.189 C  
HETATM    6  O   UNL     1      -7.641   5.776  64.121  1.00  0.00    -0.070 OA 
HETATM    7  C   UNL     1      -7.683   6.976  64.352  1.00  0.00    -0.113 C  
HETATM    8  C   UNL     1      -9.412  13.865  67.853  1.00  0.00    -0.212 C  
HETATM    9  C   UNL     1      -6.850   7.586  65.453  1.00  0.00    -0.048 C  
HETATM   10  C   UNL     1      -7.553   8.630  65.938  1.00  0.00    -0.089 C  
HETATM   11  C   UNL     1      -9.537  14.950  68.954  1.00  0.00    -0.215 C  
HETATM   12  C   UNL     1      -6.489  10.304  64.318  1.00  0.00    -0.083 C  
HETATM   13  C   UNL     1      -9.305  13.979  65.960  1.00  0.00    -0.085 C  
HETATM   14  C   UNL     1      -8.651   8.329  66.936  1.00  0.00    -0.122 C  
HETATM   15  C   UNL     1      -7.837   9.829  64.998  1.00  0.00    -0.128 C  
HETATM   16  C   UNL     1      -8.956  12.443  65.128  1.00  0.00     0.802 C  
HETATM   17  C   UNL     1      -8.629   9.240  63.839  1.00  0.00    -0.208 C  
HETATM   18  O   UNL     1     -10.121  12.102  64.378  1.00  0.00    -0.306 OA 
HETATM   19  C   UNL     1      -8.518   7.925  63.527  1.00  0.00     0.191 C  
HETATM   20  C   UNL     1      -8.298  11.054  65.908  1.00  0.00    -0.119 C  
HETATM   21  C   UNL     1      -9.108  10.767  67.269  1.00  0.00    -0.151 C  
HETATM   22  F   UNL     1      -7.001  11.364  66.376  1.00  0.00    -0.132 F  
HETATM   23  H   UNL     1      -9.934  11.283  63.934  1.00  0.00     0.000 HD 
HETATM   24  C   UNL     1      -8.721   9.451  67.950  1.00  0.00    -0.120 C  
ENDROOT
BRANCH   4  25
HETATM   25  O   UNL     1     -11.142  12.693  68.876  1.00  0.00    -0.247 OA 
BRANCH  25  26
HETATM   26  C   UNL     1     -11.936  11.609  69.071  1.00  0.00    -0.305 C  
HETATM   27  O   UNL     1     -12.202  10.747  68.245  1.00  0.00    -0.449 OA 
BRANCH  26  28
HETATM   28  C   UNL     1     -12.394  11.578  70.517  1.00  0.00    -0.432 C  
HETATM   29  C   UNL     1     -12.156  10.220  71.160  1.00  0.00    -0.494 C  
ENDBRANCH  26  28
ENDBRANCH  25  26
ENDBRANCH   4  25
BRANCH   4  30
HETATM   30  C   UNL     1     -11.569  13.972  67.147  1.00  0.00    -0.372 C  
HETATM   31  C   UNL     1     -12.565  13.670  66.055  1.00  0.00    -0.386 C  
HETATM   32  O   UNL     1     -11.795  15.050  67.726  1.00  0.00    -0.336 OA 
HETATM   33 CL   UNL     1     -12.410  12.115  65.278  1.00  0.00    -0.228 Cl 
ENDBRANCH   4  30
TORSDOF 4
ENDMDL
MODEL       50
REMARK 921   NORMALIZED FREE ENERGY PREDICTED BY IDOCK:   -3.59 KCAL/MOL
REMARK 922        TOTAL FREE ENERGY PREDICTED BY IDOCK:   -3.58 KCAL/MOL
REMARK 923 INTER-LIGAND FREE ENERGY PREDICTED BY IDOCK:   -4.71 KCAL/MOL
REMARK 924 INTRA-LIGAND FREE ENERGY PREDICTED BY IDOCK:    1.14 KCAL/MOL
REMARK 927      BINDING AFFINITY PREDICTED BY RF-SCORE:    0.00 PKD
ROOT
HETATM    1  C   UNL     1      -7.848  11.286  68.493  1.00  0.00    -0.138 C  
HETATM    2  C   UNL     1      -7.097  11.466  69.678  1.00  0.00     0.033 C  
HETATM    3  C   UNL     1      -6.661  10.371  68.765  1.00  0.00    -0.052 C  
HETATM    4  C   UNL     1      -7.531  10.440  66.883  1.00  0.00    -0.107 C  
HETATM    5  C   UNL     1      -5.129  10.109  69.458  1.00  0.00    -0.038 C  
HETATM    6  O   UNL     1     -13.540   7.005  71.586  1.00  0.00    -0.358 OA 
HETATM    7  C   UNL     1     -12.413   7.200  71.152  1.00  0.00    -0.359 C  
HETATM    8  C   UNL     1      -6.310  10.619  67.442  1.00  0.00    -0.058 C  
HETATM    9  C   UNL     1     -11.488   8.195  71.809  1.00  0.00    -0.337 C  
HETATM   10  C   UNL     1     -10.716   8.710  70.830  1.00  0.00    -0.269 C  
HETATM   11  C   UNL     1      -5.264  11.689  67.038  1.00  0.00    -0.112 C  
HETATM   12  C   UNL     1      -8.887   6.941  71.125  1.00  0.00    -0.142 C  
HETATM   13  C   UNL     1      -6.287   8.721  67.356  1.00  0.00    -0.057 C  
HETATM   14  C   UNL     1     -11.307   9.817  69.984  1.00  0.00    -0.269 C  
HETATM   15  C   UNL     1      -9.747   7.762  70.079  1.00  0.00    -0.176 C  
HETATM   16  C   UNL     1      -7.664   7.911  68.145  1.00  0.00    -0.125 C  
HETATM   17  C   UNL     1     -10.642   6.703  69.450  1.00  0.00    -0.279 C  
HETATM   18  O   UNL     1      -8.426   7.286  67.113  1.00  0.00    -0.116 OA 
HETATM   19  C   UNL     1     -11.858   6.427  69.981  1.00  0.00    -0.208 C  
HETATM   20  C   UNL     1      -8.695   8.671  69.298  1.00  0.00    -0.133 C  
HETATM   21  C   UNL     1      -9.152  10.111  68.745  1.00  0.00    -0.153 C  
HETATM   22  F   UNL     1      -7.934   9.003  70.442  1.00  0.00    -0.076 F  
HETATM   23  H   UNL     1      -9.160   6.854  67.534  1.00  0.00     0.000 HD 
HETATM   24  C   UNL     1     -10.213  10.795  69.612  1.00  0.00    -0.099 C  
ENDROOT
BRANCH   4  25
HETATM   25  O   UNL     1      -7.931  11.839  66.305  1.00  0.00    -0.015 OA 
BRANCH  25  26
HETATM   26  C   UNL     1      -9.223  12.201  66.098  1.00  0.00    -0.155 C  
HETATM   27  O   UNL     1     -10.160  11.447  65.871  1.00  0.00    -0.225 OA 
BRANCH  26  28
HETATM   28  C   UNL     1      -9.356  13.702  66.266  1.00  0.00    -0.153 C  
HETATM   29  C   UNL     1     -10.407  14.068  67.304  1.00  0.00    -0.264 C  
ENDBRANCH  26  28
ENDBRANCH  25  26
ENDBRANCH   4  25
BRANCH   4  30
HETATM   30  C   UNL     1      -6.985  10.118  65.332  1.00  0.00    -0.139 C  
HETATM   31  C   UNL     1      -7.774   9.284  64.353  1.00  0.00    -0.118 C  
HETATM   32  O   UNL     1      -5.930  10.564  64.849  1.00  0.00    -0.131 OA 
HETATM   33 CL   UNL     1      -9.337   8.727  64.896  1.00  0.00     0.112 Cl 
ENDBRANCH   4  30
TORSDOF 4
ENDMDL
MODEL       51
REMARK 921   NORMALIZED FREE ENERGY PREDICTED BY IDOCK:   -3.55 KCAL/MOL
REMARK 922        TOTAL FREE ENERGY PREDICTED BY IDOCK:   -3.53 KCAL/MOL
REMARK 923 INTER-LIGAND FREE ENERGY PREDICTED BY IDOCK:   -5.08 KCAL/MOL
REMARK 924 INTRA-LIGAND FREE ENERGY PREDICTED BY IDOCK:    1.55 KCAL/MOL
REMARK 927      BINDING AFFINITY PREDICTED BY RF-SCORE:    0.00 PKD
ROOT
HETATM    1  C   UNL     1     -10.364   5.963  69.129  1.00  0.00    -0.303 C  
HETATM    2  C   UNL     1     -10.472   4.788  68.350  1.00  0.00     0.160 C  
HETATM    3  C   UNL     1      -9.255   4.922  69.202  1.00  0.00    -0.166 C  
HETATM    4  C   UNL     1      -9.369   6.443  70.609  1.00  0.00    -0.162 C  
HETATM    5  C   UNL     1      -8.746   3.301  69.107  1.00  0.00    -0.134 C  
HETATM    6  O   UNL     1      -7.488  10.558  63.570  1.00  0.00    -0.080 OA 
HETATM    7  C   UNL     1      -7.430   9.678  64.417  1.00  0.00    -0.125 C  
HETATM    8  C   UNL     1      -9.342   5.088  70.579  1.00  0.00    -0.213 C  
HETATM    9  C   UNL     1      -8.267   8.428  64.300  1.00  0.00    -0.130 C  
HETATM   10  C   UNL     1      -8.556   8.036  65.557  1.00  0.00    -0.158 C  
HETATM   11  C   UNL     1     -10.160   4.135  71.489  1.00  0.00    -0.184 C  
HETATM   12  C   UNL     1      -6.488   6.535  65.734  1.00  0.00    -0.043 C  
HETATM   13  C   UNL     1      -7.476   5.393  70.408  1.00  0.00    -0.075 C  
HETATM   14  C   UNL     1      -9.699   8.734  66.262  1.00  0.00    -0.342 C  
HETATM   15  C   UNL     1      -7.390   7.600  66.481  1.00  0.00    -0.087 C  
HETATM   16  C   UNL     1      -7.003   6.454  69.057  1.00  0.00    -0.072 C  
HETATM   17  C   UNL     1      -6.487   8.822  66.576  1.00  0.00    -0.063 C  
HETATM   18  O   UNL     1      -6.472   7.648  69.630  1.00  0.00    -0.031 OA 
HETATM   19  C   UNL     1      -6.488   9.757  65.594  1.00  0.00    -0.082 C  
HETATM   20  C   UNL     1      -8.023   6.816  67.716  1.00  0.00    -0.113 C  
HETATM   21  C   UNL     1      -9.485   7.226  68.247  1.00  0.00    -0.141 C  
HETATM   22  F   UNL     1      -8.275   5.624  66.999  1.00  0.00    -0.101 F  
HETATM   23  H   UNL     1      -6.220   8.213  68.910  1.00  0.00     0.000 HD 
HETATM   24  C   UNL     1     -10.419   7.740  67.147  1.00  0.00    -0.413 C  
ENDROOT
BRANCH   4  25
HETATM   25  O   UNL     1     -10.778   6.818  71.178  1.00  0.00    -0.222 OA 
BRANCH  25  26
HETATM   26  C   UNL     1     -11.083   8.069  71.607  1.00  0.00    -0.252 C  
HETATM   27  O   UNL     1     -11.364   8.394  72.753  1.00  0.00    -0.346 OA 
BRANCH  26  28
HETATM   28  C   UNL     1     -10.949   9.041  70.451  1.00  0.00    -0.283 C  
HETATM   29  C   UNL     1     -11.790  10.292  70.659  1.00  0.00    -0.439 C  
ENDBRANCH  26  28
ENDBRANCH  25  26
ENDBRANCH   4  25
BRANCH   4  30
HETATM   30  C   UNL     1      -8.845   6.610  72.191  1.00  0.00    -0.134 C  
HETATM   31  C   UNL     1      -8.074   7.816  72.665  1.00  0.00    -0.121 C  
HETATM   32  O   UNL     1      -9.080   5.796  73.102  1.00  0.00    -0.128 OA 
HETATM   33 CL   UNL     1      -7.815   9.079  71.488  1.00  0.00    -0.098 Cl 
ENDBRANCH   4  30
TORSDOF 4
ENDMDL
MODEL       52
REMARK 921   NORMALIZED FREE ENERGY PREDICTED BY IDOCK:   -3.54 KCAL/MOL
REMARK 922        TOTAL FREE ENERGY PREDICTED BY IDOCK:   -3.52 KCAL/MOL
REMARK 923 INTER-LIGAND FREE ENERGY PREDICTED BY IDOCK:   -5.20 KCAL/MOL
REMARK 924 INTRA-LIGAND FREE ENERGY PREDICTED BY IDOCK:    1.68 KCAL/MOL
REMARK 927      BINDING AFFINITY PREDICTED BY RF-SCORE:    0.00 PKD
ROOT
HETATM    1  C   UNL     1     -11.060  16.020  67.636  1.00  0.00    -0.243 C  
HETATM    2  C   UNL     1     -11.649  16.702  66.546  1.00  0.00     1.136 C  
HETATM    3  C   UNL     1     -10.712  15.587  66.218  1.00  0.00    -0.307 C  
HETATM    4  C   UNL     1     -10.228  14.384  67.837  1.00  0.00    -0.232 C  
HETATM    5  C   UNL     1     -11.143  15.419  64.580  1.00  0.00    -0.361 C  
HETATM    6  O   UNL     1      -5.286  21.048  68.930  1.00  0.00    -0.328 OA 
HETATM    7  C   UNL     1      -5.851  20.143  68.332  1.00  0.00    -0.253 C  
HETATM    8  C   UNL     1     -10.927  14.294  66.679  1.00  0.00    -0.310 C  
HETATM    9  C   UNL     1      -7.194  20.362  67.679  1.00  0.00    -0.346 C  
HETATM   10  C   UNL     1      -7.854  19.188  67.748  1.00  0.00    -0.295 C  
HETATM   11  C   UNL     1     -12.266  13.541  66.473  1.00  0.00    -0.433 C  
HETATM   12  C   UNL     1      -6.977  18.379  65.482  1.00  0.00    -0.171 C  
HETATM   13  C   UNL     1      -9.190  14.019  65.962  1.00  0.00     0.026 C  
HETATM   14  C   UNL     1      -8.544  18.850  69.053  1.00  0.00    -0.167 C  
HETATM   15  C   UNL     1      -7.278  17.970  66.982  1.00  0.00    -0.219 C  
HETATM   16  C   UNL     1      -8.004  15.293  66.343  1.00  0.00     0.409 C  
HETATM   17  C   UNL     1      -5.892  17.754  67.573  1.00  0.00    -0.159 C  
HETATM   18  O   UNL     1      -7.021  14.706  67.195  1.00  0.00    -0.338 OA 
HETATM   19  C   UNL     1      -5.227  18.779  68.162  1.00  0.00    -0.179 C  
HETATM   20  C   UNL     1      -8.429  16.871  66.890  1.00  0.00    -0.214 C  
HETATM   21  C   UNL     1      -9.508  16.756  68.078  1.00  0.00    -0.233 C  
HETATM   22  F   UNL     1      -9.156  17.528  65.871  1.00  0.00    -0.214 F  
HETATM   23  H   UNL     1      -6.388  15.386  67.398  1.00  0.00     0.000 HD 
HETATM   24  C   UNL     1      -9.821  18.093  68.758  1.00  0.00    -0.362 C  
ENDROOT
BRANCH   4  25
HETATM   25  O   UNL     1     -11.289  14.216  68.976  1.00  0.00    -0.245 OA 
BRANCH  25  26
HETATM   26  C   UNL     1     -11.140  14.780  70.202  1.00  0.00    -0.170 C  
HETATM   27  O   UNL     1     -10.083  15.103  70.727  1.00  0.00     0.153 OA 
BRANCH  26  28
HETATM   28  C   UNL     1     -12.507  15.029  70.808  1.00  0.00    -0.411 C  
HETATM   29  C   UNL     1     -12.419  15.808  72.112  1.00  0.00    -0.533 C  
ENDBRANCH  26  28
ENDBRANCH  25  26
ENDBRANCH   4  25
BRANCH   4  30
HETATM   30  C   UNL     1      -9.970  12.740  68.033  1.00  0.00    -0.225 C  
HETATM   31  C   UNL     1      -8.725  12.188  68.680  1.00  0.00     0.007 C  
HETATM   32  O   UNL     1     -10.783  11.855  67.711  1.00  0.00    -0.196 OA 
HETATM   33 CL   UNL     1      -7.585  13.361  69.289  1.00  0.00     0.210 Cl 
ENDBRANCH   4  30
TORSDOF 4
ENDMDL
MODEL       53
REMARK 921   NORMALIZED FREE ENERGY PREDICTED BY IDOCK:   -3.48 KCAL/MOL
REMARK 922        TOTAL FREE ENERGY PREDICTED BY IDOCK:   -3.44 KCAL/MOL
REMARK 923 INTER-LIGAND FREE ENERGY PREDICTED BY IDOCK:   -4.48 KCAL/MOL
REMARK 924 INTRA-LIGAND FREE ENERGY PREDICTED BY IDOCK:    1.04 KCAL/MOL
REMARK 927      BINDING AFFINITY PREDICTED BY RF-SCORE:    0.00 PKD
ROOT
HETATM    1  C   UNL     1      -9.238   9.766  66.364  1.00  0.00    -0.200 C  
HETATM    2  C   UNL     1     -10.629   9.762  66.111  1.00  0.00    -0.018 C  
HETATM    3  C   UNL     1     -10.147  10.645  67.213  1.00  0.00    -0.238 C  
HETATM    4  C   UNL     1      -8.090  10.914  67.244  1.00  0.00    -0.123 C  
HETATM    5  C   UNL     1     -11.564  11.574  67.380  1.00  0.00    -0.307 C  
HETATM    6  O   UNL     1      -9.036   3.402  70.808  1.00  0.00    -0.090 OA 
HETATM    7  C   UNL     1      -9.261   4.581  70.575  1.00  0.00    -0.124 C  
HETATM    8  C   UNL     1      -9.205  11.642  66.991  1.00  0.00    -0.185 C  
HETATM    9  C   UNL     1     -10.257   4.989  69.517  1.00  0.00    -0.286 C  
HETATM   10  C   UNL     1      -9.816   6.152  68.997  1.00  0.00    -0.170 C  
HETATM   11  C   UNL     1      -9.366  12.717  65.886  1.00  0.00     0.005 C  
HETATM   12  C   UNL     1     -11.131   7.580  70.667  1.00  0.00    -0.280 C  
HETATM   13  C   UNL     1      -9.243  11.751  68.887  1.00  0.00     0.089 C  
HETATM   14  C   UNL     1      -8.728   6.081  67.946  1.00  0.00    -0.112 C  
HETATM   15  C   UNL     1      -9.747   7.395  69.922  1.00  0.00    -0.171 C  
HETATM   16  C   UNL     1      -9.217  10.185  69.736  1.00  0.00    -0.144 C  
HETATM   17  C   UNL     1      -8.794   6.999  71.041  1.00  0.00    -0.146 C  
HETATM   18  O   UNL     1      -7.972  10.107  70.428  1.00  0.00    -0.405 OA 
HETATM   19  C   UNL     1      -8.608   5.694  71.357  1.00  0.00    -0.132 C  
HETATM   20  C   UNL     1      -9.602   8.679  68.990  1.00  0.00    -0.163 C  
HETATM   21  C   UNL     1      -8.816   8.556  67.591  1.00  0.00    -0.138 C  
HETATM   22  F   UNL     1     -10.956   8.703  68.586  1.00  0.00    -0.172 F  
HETATM   23  H   UNL     1      -7.958   9.272  70.881  1.00  0.00     0.000 HD 
HETATM   24  C   UNL     1      -8.947   7.181  66.930  1.00  0.00    -0.145 C  
ENDROOT
BRANCH   4  25
HETATM   25  O   UNL     1      -7.317  10.853  65.885  1.00  0.00    -0.126 OA 
BRANCH  25  26
HETATM   26  C   UNL     1      -6.177  10.132  65.725  1.00  0.00    -0.100 C  
HETATM   27  O   UNL     1      -5.922   9.055  66.246  1.00  0.00    -0.056 OA 
BRANCH  26  28
HETATM   28  C   UNL     1      -5.278  10.832  64.725  1.00  0.00    -0.116 C  
HETATM   29  C   UNL     1      -5.683  10.535  63.289  1.00  0.00    -0.137 C  
ENDBRANCH  26  28
ENDBRANCH  25  26
ENDBRANCH   4  25
BRANCH   4  30
HETATM   30  C   UNL     1      -7.089  12.212  67.590  1.00  0.00    -0.124 C  
HETATM   31  C   UNL     1      -5.879  12.086  68.483  1.00  0.00    -0.052 C  
HETATM   32  O   UNL     1      -7.225  13.354  67.116  1.00  0.00    -0.075 OA 
HETATM   33 CL   UNL     1      -5.528  10.486  69.085  1.00  0.00    -0.038 Cl 
ENDBRANCH   4  30
TORSDOF 4
ENDMDL
MODEL       54
REMARK 921   NORMALIZED FREE ENERGY PREDICTED BY IDOCK:   -3.46 KCAL/MOL
REMARK 922        TOTAL FREE ENERGY PREDICTED BY IDOCK:   -3.42 KCAL/MOL
REMARK 923 INTER-LIGAND FREE ENERGY PREDICTED BY IDOCK:   -4.39 KCAL/MOL
REMARK 924 INTRA-LIGAND FREE ENERGY PREDICTED BY IDOCK:    0.97 KCAL/MOL
REMARK 927      BINDING AFFINITY PREDICTED BY RF-SCORE:    0.00 PKD
ROOT
HETATM    1  C   UNL     1      -8.735   8.701  65.202  1.00  0.00    -0.179 C  
HETATM    2  C   UNL     1      -8.030   9.328  64.148  1.00  0.00    -0.136 C  
HETATM    3  C   UNL     1      -7.269   9.063  65.404  1.00  0.00    -0.084 C  
HETATM    4  C   UNL     1      -8.231   7.783  66.723  1.00  0.00    -0.120 C  
HETATM    5  C   UNL     1      -5.710   9.311  64.768  1.00  0.00    -0.063 C  
HETATM    6  O   UNL     1     -12.075  15.091  68.084  1.00  0.00    -0.231 OA 
HETATM    7  C   UNL     1     -11.147  14.317  67.895  1.00  0.00    -0.278 C  
HETATM    8  C   UNL     1      -7.139   7.779  65.922  1.00  0.00    -0.064 C  
HETATM    9  C   UNL     1     -10.637  14.038  66.502  1.00  0.00    -0.279 C  
HETATM   10  C   UNL     1     -10.199  12.763  66.499  1.00  0.00    -0.261 C  
HETATM   11  C   UNL     1      -6.624   6.584  65.080  1.00  0.00    -0.042 C  
HETATM   12  C   UNL     1      -7.810  13.415  67.153  1.00  0.00    -0.035 C  
HETATM   13  C   UNL     1      -6.386   8.719  67.390  1.00  0.00    -0.057 C  
HETATM   14  C   UNL     1     -11.233  11.669  66.339  1.00  0.00    -0.349 C  
HETATM   15  C   UNL     1      -8.994  12.394  67.401  1.00  0.00    -0.185 C  
HETATM   16  C   UNL     1      -7.278  10.177  67.894  1.00  0.00    -0.086 C  
HETATM   17  C   UNL     1      -9.449  12.719  68.816  1.00  0.00     0.113 C  
HETATM   18  O   UNL     1      -7.810   9.912  69.191  1.00  0.00    -0.089 OA 
HETATM   19  C   UNL     1     -10.421  13.640  69.032  1.00  0.00    -0.099 C  
HETATM   20  C   UNL     1      -8.438  10.984  66.907  1.00  0.00    -0.139 C  
HETATM   21  C   UNL     1      -9.458   9.906  66.284  1.00  0.00    -0.245 C  
HETATM   22  F   UNL     1      -7.786  11.495  65.761  1.00  0.00     0.004 F  
HETATM   23  H   UNL     1      -8.286  10.690  69.460  1.00  0.00     0.000 HD 
HETATM   24  C   UNL     1     -10.636  10.535  65.534  1.00  0.00    -0.138 C  
ENDROOT
BRANCH   4  25
HETATM   25  O   UNL     1      -9.185   6.692  66.131  1.00  0.00    -0.153 OA 
BRANCH  25  26
HETATM   26  C   UNL     1     -10.392   6.401  66.680  1.00  0.00    -0.155 C  
HETATM   27  O   UNL     1     -11.240   7.208  67.036  1.00  0.00    -0.277 OA 
BRANCH  26  28
HETATM   28  C   UNL     1     -10.574   4.896  66.721  1.00  0.00    -0.156 C  
HETATM   29  C   UNL     1     -10.573   4.285  65.328  1.00  0.00    -0.165 C  
ENDBRANCH  26  28
ENDBRANCH  25  26
ENDBRANCH   4  25
BRANCH   4  30
HETATM   30  C   UNL     1      -7.716   6.567  67.754  1.00  0.00    -0.107 C  
HETATM   31  C   UNL     1      -8.192   6.460  69.182  1.00  0.00    -0.111 C  
HETATM   32  O   UNL     1      -6.951   5.642  67.427  1.00  0.00    -0.062 OA 
HETATM   33 CL   UNL     1      -9.377   7.636  69.691  1.00  0.00    -0.157 Cl 
ENDBRANCH   4  30
TORSDOF 4
ENDMDL
MODEL       55
REMARK 921   NORMALIZED FREE ENERGY PREDICTED BY IDOCK:   -3.46 KCAL/MOL
REMARK 922        TOTAL FREE ENERGY PREDICTED BY IDOCK:   -3.41 KCAL/MOL
REMARK 923 INTER-LIGAND FREE ENERGY PREDICTED BY IDOCK:   -4.59 KCAL/MOL
REMARK 924 INTRA-LIGAND FREE ENERGY PREDICTED BY IDOCK:    1.17 KCAL/MOL
REMARK 927      BINDING AFFINITY PREDICTED BY RF-SCORE:    0.00 PKD
ROOT
HETATM    1  C   UNL     1      -8.736  13.389  69.052  1.00  0.00     0.404 C  
HETATM    2  C   UNL     1      -7.365  13.723  69.149  1.00  0.00     0.019 C  
HETATM    3  C   UNL     1      -8.074  14.141  67.904  1.00  0.00    -0.154 C  
HETATM    4  C   UNL     1     -10.141  13.993  68.017  1.00  0.00    -0.239 C  
HETATM    5  C   UNL     1      -6.897  15.234  67.343  1.00  0.00    -0.188 C  
HETATM    6  O   UNL     1      -7.789   6.096  66.559  1.00  0.00    -0.101 OA 
HETATM    7  C   UNL     1      -7.809   7.313  66.437  1.00  0.00    -0.106 C  
HETATM    8  C   UNL     1      -9.196  14.962  67.944  1.00  0.00    -0.183 C  
HETATM    9  C   UNL     1      -6.874   8.190  67.233  1.00  0.00    -0.074 C  
HETATM   10  C   UNL     1      -7.528   9.348  67.458  1.00  0.00    -0.091 C  
HETATM   11  C   UNL     1      -9.215  16.320  68.691  1.00  0.00    -0.227 C  
HETATM   12  C   UNL     1      -6.624  10.456  65.334  1.00  0.00    -0.109 C  
HETATM   13  C   UNL     1      -9.270  14.525  66.097  1.00  0.00    -0.175 C  
HETATM   14  C   UNL     1      -8.525   9.377  68.597  1.00  0.00    -0.119 C  
HETATM   15  C   UNL     1      -7.901  10.234  66.243  1.00  0.00    -0.118 C  
HETATM   16  C   UNL     1      -9.002  12.805  65.715  1.00  0.00     0.470 C  
HETATM   17  C   UNL     1      -8.799   9.359  65.380  1.00  0.00    -0.220 C  
HETATM   18  O   UNL     1     -10.233  12.295  65.205  1.00  0.00    -0.271 OA 
HETATM   19  C   UNL     1      -8.719   8.007  65.453  1.00  0.00    -0.101 C  
HETATM   20  C   UNL     1      -8.273  11.681  66.799  1.00  0.00    -0.161 C  
HETATM   21  C   UNL     1      -8.948  11.819  68.252  1.00  0.00    -0.180 C  
HETATM   22  F   UNL     1      -6.937  12.077  67.037  1.00  0.00    -0.126 F  
HETATM   23  H   UNL     1     -10.090  11.378  65.001  1.00  0.00     0.000 HD 
HETATM   24  C   UNL     1      -8.498  10.744  69.246  1.00  0.00    -0.058 C  
ENDROOT
BRANCH   4  25
HETATM   25  O   UNL     1     -10.820  14.181  69.415  1.00  0.00    -0.221 OA 
BRANCH  25  26
HETATM   26  C   UNL     1     -11.879  13.434  69.818  1.00  0.00    -0.326 C  
HETATM   27  O   UNL     1     -12.109  12.274  69.504  1.00  0.00    -0.273 OA 
BRANCH  26  28
HETATM   28  C   UNL     1     -12.715  14.237  70.796  1.00  0.00    -0.419 C  
HETATM   29  C   UNL     1     -11.982  15.476  71.288  1.00  0.00    -0.443 C  
ENDBRANCH  26  28
ENDBRANCH  25  26
ENDBRANCH   4  25
BRANCH   4  30
HETATM   30  C   UNL     1     -11.410  14.921  67.437  1.00  0.00    -0.347 C  
HETATM   31  C   UNL     1     -12.497  14.349  66.561  1.00  0.00    -0.118 C  
HETATM   32  O   UNL     1     -11.587  16.122  67.709  1.00  0.00    -0.122 OA 
HETATM   33 CL   UNL     1     -12.407  12.636  66.238  1.00  0.00    -0.213 Cl 
ENDBRANCH   4  30
TORSDOF 4
ENDMDL
MODEL       56
REMARK 921   NORMALIZED FREE ENERGY PREDICTED BY IDOCK:   -3.39 KCAL/MOL
REMARK 922        TOTAL FREE ENERGY PREDICTED BY IDOCK:   -3.33 KCAL/MOL
REMARK 923 INTER-LIGAND FREE ENERGY PREDICTED BY IDOCK:   -4.34 KCAL/MOL
REMARK 924 INTRA-LIGAND FREE ENERGY PREDICTED BY IDOCK:    1.02 KCAL/MOL
REMARK 927      BINDING AFFINITY PREDICTED BY RF-SCORE:    0.00 PKD
ROOT
HETATM    1  C   UNL     1      -8.553  11.643  65.912  1.00  0.00     0.065 C  
HETATM    2  C   UNL     1      -8.293  11.013  64.673  1.00  0.00     0.232 C  
HETATM    3  C   UNL     1      -9.721  11.108  65.095  1.00  0.00    -0.296 C  
HETATM    4  C   UNL     1     -10.051  12.396  66.688  1.00  0.00    -0.221 C  
HETATM    5  C   UNL     1     -10.416  10.731  63.588  1.00  0.00    -0.181 C  
HETATM    6  O   UNL     1      -7.189   5.487  70.443  1.00  0.00    -0.062 OA 
HETATM    7  C   UNL     1      -7.846   6.163  69.664  1.00  0.00    -0.103 C  
HETATM    8  C   UNL     1     -10.324  12.331  65.362  1.00  0.00    -0.298 C  
HETATM    9  C   UNL     1      -7.333   6.476  68.280  1.00  0.00    -0.087 C  
HETATM   10  C   UNL     1      -7.816   7.692  67.954  1.00  0.00    -0.117 C  
HETATM   11  C   UNL     1     -10.298  13.516  64.362  1.00  0.00    -0.306 C  
HETATM   12  C   UNL     1      -9.928   6.736  66.865  1.00  0.00    -0.252 C  
HETATM   13  C   UNL     1     -11.734  11.217  65.977  1.00  0.00     0.527 C  
HETATM   14  C   UNL     1      -7.088   8.902  68.497  1.00  0.00    -0.072 C  
HETATM   15  C   UNL     1      -9.351   7.864  67.814  1.00  0.00    -0.153 C  
HETATM   16  C   UNL     1     -11.225   9.838  66.983  1.00  0.00     0.423 C  
HETATM   17  C   UNL     1      -9.912   7.497  69.180  1.00  0.00    -0.179 C  
HETATM   18  O   UNL     1     -11.728  10.072  68.298  1.00  0.00    -0.649 OA 
HETATM   19  C   UNL     1      -9.222   6.677  70.011  1.00  0.00    -0.158 C  
HETATM   20  C   UNL     1      -9.612   9.232  67.040  1.00  0.00    -0.171 C  
HETATM   21  C   UNL     1      -8.585  10.456  67.230  1.00  0.00    -0.126 C  
HETATM   22  F   UNL     1      -9.267   8.730  65.765  1.00  0.00    -0.222 F  
HETATM   23  H   UNL     1     -11.456   9.337  68.834  1.00  0.00     0.000 HD 
HETATM   24  C   UNL     1      -7.138  10.014  67.472  1.00  0.00    -0.087 C  
ENDROOT
BRANCH   4  25
HETATM   25  O   UNL     1      -9.094  13.623  66.855  1.00  0.00    -0.239 OA 
BRANCH  25  26
HETATM   26  C   UNL     1      -8.524  13.948  68.044  1.00  0.00    -0.173 C  
HETATM   27  O   UNL     1      -8.257  13.176  68.954  1.00  0.00     0.042 OA 
BRANCH  26  28
HETATM   28  C   UNL     1      -8.188  15.427  68.051  1.00  0.00    -0.146 C  
HETATM   29  C   UNL     1      -8.942  16.187  66.969  1.00  0.00    -0.232 C  
ENDBRANCH  26  28
ENDBRANCH  25  26
ENDBRANCH   4  25
BRANCH   4  30
HETATM   30  C   UNL     1     -11.269  13.475  67.083  1.00  0.00    -0.305 C  
HETATM   31  C   UNL     1     -11.821  13.598  68.481  1.00  0.00    -0.371 C  
HETATM   32  O   UNL     1     -11.782  14.282  66.287  1.00  0.00    -0.367 OA 
HETATM   33 CL   UNL     1     -11.066  12.600  69.699  1.00  0.00    -0.061 Cl 
ENDBRANCH   4  30
TORSDOF 4
ENDMDL
MODEL       57
REMARK 921   NORMALIZED FREE ENERGY PREDICTED BY IDOCK:   -3.37 KCAL/MOL
REMARK 922        TOTAL FREE ENERGY PREDICTED BY IDOCK:   -3.32 KCAL/MOL
REMARK 923 INTER-LIGAND FREE ENERGY PREDICTED BY IDOCK:   -4.96 KCAL/MOL
REMARK 924 INTRA-LIGAND FREE ENERGY PREDICTED BY IDOCK:    1.65 KCAL/MOL
REMARK 927      BINDING AFFINITY PREDICTED BY RF-SCORE:    0.00 PKD
ROOT
HETATM    1  C   UNL     1      -9.051  13.759  67.752  1.00  0.00    -0.193 C  
HETATM    2  C   UNL     1      -8.338  12.839  68.556  1.00  0.00    -0.054 C  
HETATM    3  C   UNL     1      -9.489  12.300  67.773  1.00  0.00    -0.197 C  
HETATM    4  C   UNL     1     -10.206  13.595  66.320  1.00  0.00    -0.296 C  
HETATM    5  C   UNL     1      -9.110  10.649  67.943  1.00  0.00    -0.145 C  
HETATM    6  O   UNL     1     -13.642  16.587  73.339  1.00  0.00    -0.404 OA 
HETATM    7  C   UNL     1     -13.281  15.752  72.521  1.00  0.00    -0.487 C  
HETATM    8  C   UNL     1      -9.547  12.413  66.389  1.00  0.00    -0.249 C  
HETATM    9  C   UNL     1     -11.925  15.097  72.625  1.00  0.00    -0.486 C  
HETATM   10  C   UNL     1     -11.525  14.836  71.364  1.00  0.00    -0.235 C  
HETATM   11  C   UNL     1      -8.395  11.950  65.460  1.00  0.00     0.728 C  
HETATM   12  C   UNL     1     -12.562  12.494  71.351  1.00  0.00    -0.297 C  
HETATM   13  C   UNL     1     -11.306  11.751  66.660  1.00  0.00    -0.381 C  
HETATM   14  C   UNL     1     -10.914  15.974  70.574  1.00  0.00    -0.322 C  
HETATM   15  C   UNL     1     -12.346  13.826  70.523  1.00  0.00    -0.429 C  
HETATM   16  C   UNL     1     -12.198  12.503  68.007  1.00  0.00     0.170 C  
HETATM   17  C   UNL     1     -13.744  14.424  70.447  1.00  0.00     0.641 C  
HETATM   18  O   UNL     1     -13.278  13.238  67.432  1.00  0.00     1.193 OA 
HETATM   19  C   UNL     1     -14.177  15.286  71.400  1.00  0.00    -0.589 C  
HETATM   20  C   UNL     1     -11.450  13.399  69.276  1.00  0.00    -0.290 C  
HETATM   21  C   UNL     1     -10.414  14.457  68.648  1.00  0.00    -0.247 C  
HETATM   22  F   UNL     1     -10.607  12.534  70.010  1.00  0.00     0.369 F  
HETATM   23  H   UNL     1     -13.754  13.639  68.150  1.00  0.00     0.000 HD 
HETATM   24  C   UNL     1      -9.825  15.428  69.677  1.00  0.00    -0.263 C  
ENDROOT
BRANCH   4  25
HETATM   25  O   UNL     1      -9.199  14.594  65.659  1.00  0.00    -0.065 OA 
BRANCH  25  26
HETATM   26  C   UNL     1      -9.419  15.933  65.617  1.00  0.00    -0.182 C  
HETATM   27  O   UNL     1     -10.386  16.493  65.119  1.00  0.00    -0.618 OA 
BRANCH  26  28
HETATM   28  C   UNL     1      -8.306  16.647  66.359  1.00  0.00    -0.353 C  
HETATM   29  C   UNL     1      -8.815  17.868  67.111  1.00  0.00    -0.250 C  
ENDBRANCH  26  28
ENDBRANCH  25  26
ENDBRANCH   4  25
BRANCH   4  30
HETATM   30  C   UNL     1     -10.800  13.392  64.767  1.00  0.00    -0.375 C  
HETATM   31  C   UNL     1     -12.158  13.899  64.347  1.00  0.00    -0.443 C  
HETATM   32  O   UNL     1     -10.172  12.859  63.835  1.00  0.00    -0.383 OA 
HETATM   33 CL   UNL     1     -13.059  14.784  65.552  1.00  0.00     0.173 Cl 
ENDBRANCH   4  30
TORSDOF 4
ENDMDL
MODEL       58
REMARK 921   NORMALIZED FREE ENERGY PREDICTED BY IDOCK:   -3.19 KCAL/MOL
REMARK 922        TOTAL FREE ENERGY PREDICTED BY IDOCK:   -3.09 KCAL/MOL
REMARK 923 INTER-LIGAND FREE ENERGY PREDICTED BY IDOCK:   -5.84 KCAL/MOL
REMARK 924 INTRA-LIGAND FREE ENERGY PREDICTED BY IDOCK:    2.75 KCAL/MOL
REMARK 927      BINDING AFFINITY PREDICTED BY RF-SCORE:    0.00 PKD
ROOT
HETATM    1  C   UNL     1      -9.105  14.830  67.025  1.00  0.00    -0.257 C  
HETATM    2  C   UNL     1      -8.950  15.322  65.708  1.00  0.00     0.177 C  
HETATM    3  C   UNL     1     -10.333  14.954  66.131  1.00  0.00    -0.312 C  
HETATM    4  C   UNL     1     -10.540  14.648  68.173  1.00  0.00    -0.237 C  
HETATM    5  C   UNL     1     -11.160  15.729  64.862  1.00  0.00    -0.411 C  
HETATM    6  O   UNL     1      -7.149   7.461  65.550  1.00  0.00    -0.058 OA 
HETATM    7  C   UNL     1      -7.896   8.430  65.545  1.00  0.00    -0.109 C  
HETATM    8  C   UNL     1     -10.939  15.542  67.236  1.00  0.00    -0.303 C  
HETATM    9  C   UNL     1      -7.528   9.693  64.806  1.00  0.00    -0.122 C  
HETATM   10  C   UNL     1      -8.072  10.717  65.494  1.00  0.00    -0.129 C  
HETATM   11  C   UNL     1     -11.040  17.078  67.418  1.00  0.00     0.053 C  
HETATM   12  C   UNL     1     -10.254  10.668  64.154  1.00  0.00    -0.365 C  
HETATM   13  C   UNL     1     -12.253  14.210  66.908  1.00  0.00    -0.400 C  
HETATM   14  C   UNL     1      -7.326  11.213  66.715  1.00  0.00    -0.146 C  
HETATM   15  C   UNL     1      -9.616  10.800  65.597  1.00  0.00    -0.263 C  
HETATM   16  C   UNL     1     -11.613  12.584  66.562  1.00  0.00    -0.388 C  
HETATM   17  C   UNL     1     -10.034   9.508  66.286  1.00  0.00    -0.344 C  
HETATM   18  O   UNL     1     -11.992  11.746  67.652  1.00  0.00    -0.599 OA 
HETATM   19  C   UNL     1      -9.245   8.407  66.221  1.00  0.00    -0.263 C  
HETATM   20  C   UNL     1      -9.987  12.272  66.082  1.00  0.00    -0.243 C  
HETATM   21  C   UNL     1      -8.978  13.061  67.057  1.00  0.00    -0.225 C  
HETATM   22  F   UNL     1      -9.754  12.885  64.830  1.00  0.00    -0.196 F  
HETATM   23  H   UNL     1     -11.651  10.879  67.467  1.00  0.00     0.000 HD 
HETATM   24  C   UNL     1      -7.504  12.711  66.831  1.00  0.00     0.144 C  
ENDROOT
BRANCH   4  25
HETATM   25  O   UNL     1      -9.604  15.449  69.139  1.00  0.00    -0.220 OA 
BRANCH  25  26
HETATM   26  C   UNL     1      -8.357  15.024  69.467  1.00  0.00    -0.092 C  
HETATM   27  O   UNL     1      -8.059  13.921  69.903  1.00  0.00     0.848 OA 
BRANCH  26  28
HETATM   28  C   UNL     1      -7.354  16.112  69.135  1.00  0.00    -0.215 C  
HETATM   29  C   UNL     1      -8.014  17.478  69.019  1.00  0.00    -0.094 C  
ENDBRANCH  26  28
ENDBRANCH  25  26
ENDBRANCH   4  25
BRANCH   4  30
HETATM   30  C   UNL     1     -11.742  14.991  69.288  1.00  0.00    -0.323 C  
HETATM   31  C   UNL     1     -12.286  13.952  70.238  1.00  0.00    -0.358 C  
HETATM   32  O   UNL     1     -12.248  16.115  69.457  1.00  0.00    -0.151 OA 
HETATM   33 CL   UNL     1     -11.539  12.376  70.168  1.00  0.00    -0.240 Cl 
ENDBRANCH   4  30
TORSDOF 4
ENDMDL
MODEL       59
REMARK 921   NORMALIZED FREE ENERGY PREDICTED BY IDOCK:   -3.02 KCAL/MOL
REMARK 922        TOTAL FREE ENERGY PREDICTED BY IDOCK:   -2.87 KCAL/MOL
REMARK 923 INTER-LIGAND FREE ENERGY PREDICTED BY IDOCK:   -7.10 KCAL/MOL
REMARK 924 INTRA-LIGAND FREE ENERGY PREDICTED BY IDOCK:    4.22 KCAL/MOL
REMARK 927      BINDING AFFINITY PREDICTED BY RF-SCORE:    0.00 PKD
ROOT
HETATM    1  C   UNL     1      -9.464  13.163  66.190  1.00  0.00    -0.156 C  
HETATM    2  C   UNL     1      -9.946  12.412  65.093  1.00  0.00    -0.219 C  
HETATM    3  C   UNL     1     -10.953  12.854  66.102  1.00  0.00    -0.304 C  
HETATM    4  C   UNL     1     -10.248  14.283  67.431  1.00  0.00    -0.247 C  
HETATM    5  C   UNL     1     -12.343  12.548  65.169  1.00  0.00    -0.496 C  
HETATM    6  O   UNL     1      -7.132   7.163  70.533  1.00  0.00    -0.060 OA 
HETATM    7  C   UNL     1      -7.960   7.919  70.044  1.00  0.00    -0.111 C  
HETATM    8  C   UNL     1     -11.136  14.197  66.411  1.00  0.00    -0.320 C  
HETATM    9  C   UNL     1      -8.137   8.018  68.549  1.00  0.00    -0.125 C  
HETATM   10  C   UNL     1      -8.506   9.288  68.285  1.00  0.00    -0.120 C  
HETATM   11  C   UNL     1     -11.399  15.278  65.330  1.00  0.00    -0.253 C  
HETATM   12  C   UNL     1     -11.007   8.767  68.464  1.00  0.00     0.096 C  
HETATM   13  C   UNL     1     -12.236  13.474  67.780  1.00  0.00    -0.194 C  
HETATM   14  C   UNL     1      -7.414  10.334  68.225  1.00  0.00    -0.086 C  
HETATM   15  C   UNL     1      -9.862   9.793  68.840  1.00  0.00    -0.177 C  
HETATM   16  C   UNL     1     -11.543  12.083  68.651  1.00  0.00    -0.319 C  
HETATM   17  C   UNL     1      -9.745   9.652  70.351  1.00  0.00    -0.304 C  
HETATM   18  O   UNL     1     -11.299  12.509  69.991  1.00  0.00    -0.509 OA 
HETATM   19  C   UNL     1      -8.888   8.753  70.894  1.00  0.00    -0.243 C  
HETATM   20  C   UNL     1     -10.232  11.133  68.059  1.00  0.00    -0.181 C  
HETATM   21  C   UNL     1      -9.052  12.102  67.550  1.00  0.00    -0.180 C  
HETATM   22  F   UNL     1     -10.637  10.484  66.871  1.00  0.00    -0.270 F  
HETATM   23  H   UNL     1     -10.929  11.767  70.455  1.00  0.00     0.000 HD 
HETATM   24  C   UNL     1      -7.767  11.360  67.169  1.00  0.00    -0.152 C  
ENDROOT
BRANCH   4  25
HETATM   25  O   UNL     1      -9.140  15.271  66.935  1.00  0.00    -0.209 OA 
BRANCH  25  26
HETATM   26  C   UNL     1      -7.890  15.293  67.465  1.00  0.00    -0.176 C  
HETATM   27  O   UNL     1      -6.858  15.588  66.877  1.00  0.00    -0.230 OA 
BRANCH  26  28
HETATM   28  C   UNL     1      -7.968  14.965  68.944  1.00  0.00    -0.163 C  
HETATM   29  C   UNL     1      -6.686  14.322  69.452  1.00  0.00    -0.130 C  
ENDBRANCH  26  28
ENDBRANCH  25  26
ENDBRANCH   4  25
BRANCH   4  30
HETATM   30  C   UNL     1     -10.922  15.634  68.158  1.00  0.00    -0.314 C  
HETATM   31  C   UNL     1     -10.725  17.028  67.615  1.00  0.00    -0.295 C  
HETATM   32  O   UNL     1     -11.663  15.602  69.156  1.00  0.00    -0.353 OA 
HETATM   33 CL   UNL     1      -9.811  17.158  66.134  1.00  0.00    -0.295 Cl 
ENDBRANCH   4  30
TORSDOF 4
ENDMDL
MODEL       60
REMARK 921   NORMALIZED FREE ENERGY PREDICTED BY IDOCK:   -2.84 KCAL/MOL
REMARK 922        TOTAL FREE ENERGY PREDICTED BY IDOCK:   -2.66 KCAL/MOL
REMARK 923 INTER-LIGAND FREE ENERGY PREDICTED BY IDOCK:   -4.02 KCAL/MOL
REMARK 924 INTRA-LIGAND FREE ENERGY PREDICTED BY IDOCK:    1.37 KCAL/MOL
REMARK 927      BINDING AFFINITY PREDICTED BY RF-SCORE:    0.00 PKD
ROOT
HETATM    1  C   UNL     1      -8.375   9.842  70.118  1.00  0.00    -0.201 C  
HETATM    2  C   UNL     1      -7.277   9.955  71.003  1.00  0.00     0.315 C  
HETATM    3  C   UNL     1      -6.975   9.537  69.603  1.00  0.00    -0.066 C  
HETATM    4  C   UNL     1      -8.552   9.800  68.281  1.00  0.00    -0.119 C  
HETATM    5  C   UNL     1      -5.293   9.796  69.659  1.00  0.00    -0.034 C  
HETATM    6  O   UNL     1     -10.588   2.701  72.215  1.00  0.00    -0.057 OA 
HETATM    7  C   UNL     1      -9.877   3.515  71.644  1.00  0.00    -0.157 C  
HETATM    8  C   UNL     1      -7.325  10.326  68.513  1.00  0.00    -0.082 C  
HETATM    9  C   UNL     1      -9.104   4.553  72.420  1.00  0.00    -0.144 C  
HETATM   10  C   UNL     1      -9.027   5.646  71.634  1.00  0.00    -0.143 C  
HETATM   11  C   UNL     1      -6.932  11.821  68.400  1.00  0.00    -0.080 C  
HETATM   12  C   UNL     1      -6.815   4.918  70.567  1.00  0.00    -0.037 C  
HETATM   13  C   UNL     1      -6.774   8.789  67.543  1.00  0.00    -0.066 C  
HETATM   14  C   UNL     1     -10.228   6.567  71.597  1.00  0.00    -0.216 C  
HETATM   15  C   UNL     1      -8.245   5.542  70.299  1.00  0.00    -0.103 C  
HETATM   16  C   UNL     1      -7.359   7.235  68.190  1.00  0.00    -0.100 C  
HETATM   17  C   UNL     1      -8.961   4.456  69.509  1.00  0.00    -0.148 C  
HETATM   18  O   UNL     1      -8.267   6.699  67.229  1.00  0.00    -0.118 OA 
HETATM   19  C   UNL     1      -9.682   3.501  70.147  1.00  0.00    -0.155 C  
HETATM   20  C   UNL     1      -7.962   7.026  69.791  1.00  0.00    -0.124 C  
HETATM   21  C   UNL     1      -9.022   8.190  70.123  1.00  0.00    -0.146 C  
HETATM   22  F   UNL     1      -6.919   7.283  70.710  1.00  0.00    -0.053 F  
HETATM   23  H   UNL     1      -8.579   5.870  67.574  1.00  0.00     0.000 HD 
HETATM   24  C   UNL     1      -9.753   7.997  71.455  1.00  0.00    -0.213 C  
ENDROOT
BRANCH   4  25
HETATM   25  O   UNL     1      -9.562  10.963  68.557  1.00  0.00    -0.172 OA 
BRANCH  25  26
HETATM   26  C   UNL     1     -10.902  10.764  68.639  1.00  0.00    -0.220 C  
HETATM   27  O   UNL     1     -11.495   9.720  68.402  1.00  0.00    -0.001 OA 
BRANCH  26  28
HETATM   28  C   UNL     1     -11.566  12.027  69.151  1.00  0.00    -0.370 C  
HETATM   29  C   UNL     1     -12.363  11.776  70.423  1.00  0.00    -0.362 C  
ENDBRANCH  26  28
ENDBRANCH  25  26
ENDBRANCH   4  25
BRANCH   4  30
HETATM   30  C   UNL     1      -8.664  10.278  66.679  1.00  0.00    -0.127 C  
HETATM   31  C   UNL     1      -9.413   9.474  65.645  1.00  0.00    -0.261 C  
HETATM   32  O   UNL     1      -8.191  11.333  66.223  1.00  0.00    -0.169 OA 
HETATM   33 CL   UNL     1     -10.229   8.043  66.222  1.00  0.00    -0.096 Cl 
ENDBRANCH   4  30
TORSDOF 4
ENDMDL
MODEL       61
REMARK 921   NORMALIZED FREE ENERGY PREDICTED BY IDOCK:   -2.68 KCAL/MOL
REMARK 922        TOTAL FREE ENERGY PREDICTED BY IDOCK:   -2.46 KCAL/MOL
REMARK 923 INTER-LIGAND FREE ENERGY PREDICTED BY IDOCK:   -6.68 KCAL/MOL
REMARK 924 INTRA-LIGAND FREE ENERGY PREDICTED BY IDOCK:    4.22 KCAL/MOL
REMARK 927      BINDING AFFINITY PREDICTED BY RF-SCORE:    0.00 PKD
ROOT
HETATM    1  C   UNL     1     -11.077  11.636  66.793  1.00  0.00    -0.366 C  
HETATM    2  C   UNL     1     -11.888  11.225  67.877  1.00  0.00    -0.209 C  
HETATM    3  C   UNL     1     -10.987  12.390  68.114  1.00  0.00    -0.263 C  
HETATM    4  C   UNL     1     -10.158  13.185  66.385  1.00  0.00    -0.281 C  
HETATM    5  C   UNL     1     -11.713  12.935  69.553  1.00  0.00    -0.387 C  
HETATM    6  O   UNL     1      -5.366   6.479  67.834  1.00  0.00    -0.007 OA 
HETATM    7  C   UNL     1      -5.998   7.495  68.086  1.00  0.00    -0.035 C  
HETATM    8  C   UNL     1     -11.059  13.539  67.334  1.00  0.00    -0.300 C  
HETATM    9  C   UNL     1      -7.448   7.428  68.501  1.00  0.00    -0.105 C  
HETATM   10  C   UNL     1      -8.036   8.549  68.037  1.00  0.00    -0.111 C  
HETATM   11  C   UNL     1     -12.382  14.312  67.098  1.00  0.00    -0.169 C  
HETATM   12  C   UNL     1      -7.571   9.870  70.180  1.00  0.00    -0.185 C  
HETATM   13  C   UNL     1      -9.479  13.984  68.290  1.00  0.00    -0.216 C  
HETATM   14  C   UNL     1      -8.453   8.568  66.581  1.00  0.00    -0.116 C  
HETATM   15  C   UNL     1      -7.567   9.915  68.598  1.00  0.00    -0.080 C  
HETATM   16  C   UNL     1      -8.294  12.663  68.450  1.00  0.00    -0.125 C  
HETATM   17  C   UNL     1      -6.087   9.995  68.252  1.00  0.00    -0.045 C  
HETATM   18  O   UNL     1      -7.145  13.040  67.692  1.00  0.00    -0.127 OA 
HETATM   19  C   UNL     1      -5.364   8.864  68.055  1.00  0.00    -0.035 C  
HETATM   20  C   UNL     1      -8.670  10.998  68.210  1.00  0.00    -0.144 C  
HETATM   21  C   UNL     1      -9.500  10.826  66.842  1.00  0.00    -0.192 C  
HETATM   22  F   UNL     1      -9.602  10.594  69.193  1.00  0.00    -0.184 F  
HETATM   23  H   UNL     1      -6.513  12.336  67.777  1.00  0.00     0.000 HD 
HETATM   24  C   UNL     1      -9.731   9.366  66.441  1.00  0.00    -0.315 C  
ENDROOT
BRANCH   4  25
HETATM   25  O   UNL     1     -10.976  13.076  65.056  1.00  0.00    -0.284 OA 
BRANCH  25  26
HETATM   26  C   UNL     1     -10.509  12.421  63.962  1.00  0.00    -0.416 C  
HETATM   27  O   UNL     1      -9.420  12.587  63.429  1.00  0.00    -0.036 OA 
BRANCH  26  28
HETATM   28  C   UNL     1     -11.522  11.378  63.531  1.00  0.00    -0.190 C  
HETATM   29  C   UNL     1     -12.927  11.954  63.440  1.00  0.00    -0.258 C  
ENDBRANCH  26  28
ENDBRANCH  25  26
ENDBRANCH   4  25
BRANCH   4  30
HETATM   30  C   UNL     1      -9.802  14.739  65.869  1.00  0.00    -0.334 C  
HETATM   31  C   UNL     1     -10.741  15.537  64.998  1.00  0.00    -0.441 C  
HETATM   32  O   UNL     1      -8.780  15.371  66.188  1.00  0.00    -0.282 OA 
HETATM   33 CL   UNL     1     -12.266  14.781  64.612  1.00  0.00    -0.439 Cl 
ENDBRANCH   4  30
TORSDOF 4
ENDMDL
MODEL       62
REMARK 921   NORMALIZED FREE ENERGY PREDICTED BY IDOCK:   -2.64 KCAL/MOL
REMARK 922        TOTAL FREE ENERGY PREDICTED BY IDOCK:   -2.41 KCAL/MOL
REMARK 923 INTER-LIGAND FREE ENERGY PREDICTED BY IDOCK:   -6.51 KCAL/MOL
REMARK 924 INTRA-LIGAND FREE ENERGY PREDICTED BY IDOCK:    4.09 KCAL/MOL
REMARK 927      BINDING AFFINITY PREDICTED BY RF-SCORE:    0.00 PKD
ROOT
HETATM    1  C   UNL     1      -8.926  11.414  68.783  1.00  0.00    -0.086 C  
HETATM    2  C   UNL     1      -7.543  11.511  69.063  1.00  0.00    -0.058 C  
HETATM    3  C   UNL     1      -7.927  11.266  67.642  1.00  0.00    -0.118 C  
HETATM    4  C   UNL     1      -9.944  11.554  67.249  1.00  0.00    -0.191 C  
HETATM    5  C   UNL     1      -6.421  11.638  66.944  1.00  0.00    -0.134 C  
HETATM    6  O   UNL     1      -9.798   3.951  70.742  1.00  0.00    -0.194 OA 
HETATM    7  C   UNL     1      -9.449   4.870  70.014  1.00  0.00    -0.166 C  
HETATM    8  C   UNL     1      -8.759  12.139  66.950  1.00  0.00    -0.194 C  
HETATM    9  C   UNL     1      -8.417   5.873  70.467  1.00  0.00    -0.128 C  
HETATM   10  C   UNL     1      -8.733   7.046  69.881  1.00  0.00    -0.142 C  
HETATM   11  C   UNL     1      -8.485  13.663  66.858  1.00  0.00    -0.073 C  
HETATM   12  C   UNL     1      -7.271   6.595  67.827  1.00  0.00    -0.091 C  
HETATM   13  C   UNL     1      -8.708  10.757  65.649  1.00  0.00    -0.198 C  
HETATM   14  C   UNL     1      -9.822   7.877  70.524  1.00  0.00    -0.186 C  
HETATM   15  C   UNL     1      -8.668   7.140  68.335  1.00  0.00    -0.125 C  
HETATM   16  C   UNL     1      -8.899   9.106  66.290  1.00  0.00    -0.148 C  
HETATM   17  C   UNL     1      -9.657   6.095  67.837  1.00  0.00    -0.118 C  
HETATM   18  O   UNL     1     -10.145   8.611  65.802  1.00  0.00    -0.406 OA 
HETATM   19  C   UNL     1      -9.980   5.029  68.610  1.00  0.00    -0.215 C  
HETATM   20  C   UNL     1      -8.677   8.686  67.947  1.00  0.00    -0.137 C  
HETATM   21  C   UNL     1      -9.473   9.729  68.878  1.00  0.00    -0.161 C  
HETATM   22  F   UNL     1      -7.328   8.918  68.301  1.00  0.00    -0.077 F  
HETATM   23  H   UNL     1     -10.247   7.730  66.144  1.00  0.00     0.000 HD 
HETATM   24  C   UNL     1      -9.489   9.344  70.361  1.00  0.00    -0.319 C  
ENDROOT
BRANCH   4  25
HETATM   25  O   UNL     1     -10.721  12.607  68.109  1.00  0.00    -0.211 OA 
BRANCH  25  26
HETATM   26  C   UNL     1     -11.773  12.272  68.899  1.00  0.00    -0.328 C  
HETATM   27  O   UNL     1     -12.498  11.295  68.764  1.00  0.00    -0.444 OA 
BRANCH  26  28
HETATM   28  C   UNL     1     -11.876  13.262  70.042  1.00  0.00    -0.365 C  
HETATM   29  C   UNL     1     -12.727  12.726  71.185  1.00  0.00    -0.355 C  
ENDBRANCH  26  28
ENDBRANCH  25  26
ENDBRANCH   4  25
BRANCH   4  30
HETATM   30  C   UNL     1     -10.802  12.190  65.958  1.00  0.00    -0.282 C  
HETATM   31  C   UNL     1     -11.186  13.647  65.880  1.00  0.00    -0.304 C  
HETATM   32  O   UNL     1     -11.150  11.541  64.956  1.00  0.00    -0.275 OA 
HETATM   33 CL   UNL     1     -10.620  14.665  67.179  1.00  0.00    -0.279 Cl 
ENDBRANCH   4  30
TORSDOF 4
ENDMDL
MODEL       63
REMARK 921   NORMALIZED FREE ENERGY PREDICTED BY IDOCK:   -2.64 KCAL/MOL
REMARK 922        TOTAL FREE ENERGY PREDICTED BY IDOCK:   -2.41 KCAL/MOL
REMARK 923 INTER-LIGAND FREE ENERGY PREDICTED BY IDOCK:   -3.71 KCAL/MOL
REMARK 924 INTRA-LIGAND FREE ENERGY PREDICTED BY IDOCK:    1.31 KCAL/MOL
REMARK 927      BINDING AFFINITY PREDICTED BY RF-SCORE:    0.00 PKD
ROOT
HETATM    1  C   UNL     1      -9.716   5.115  68.999  1.00  0.00    -0.227 C  
HETATM    2  C   UNL     1     -10.856   5.952  68.991  1.00  0.00    -0.383 C  
HETATM    3  C   UNL     1      -9.812   6.226  67.961  1.00  0.00    -0.128 C  
HETATM    4  C   UNL     1      -8.397   4.721  67.768  1.00  0.00    -0.103 C  
HETATM    5  C   UNL     1     -10.752   7.236  66.964  1.00  0.00    -0.406 C  
HETATM    6  O   UNL     1      -5.799   8.852  74.565  1.00  0.00    -0.125 OA 
HETATM    7  C   UNL     1      -6.230   8.694  73.431  1.00  0.00    -0.081 C  
HETATM    8  C   UNL     1      -9.414   5.256  67.049  1.00  0.00    -0.137 C  
HETATM    9  C   UNL     1      -7.714   8.644  73.163  1.00  0.00     0.055 C  
HETATM   10  C   UNL     1      -7.890   7.813  72.116  1.00  0.00    -0.122 C  
HETATM   11  C   UNL     1     -10.418   4.477  66.161  1.00  0.00    -0.198 C  
HETATM   12  C   UNL     1      -7.725   9.696  70.388  1.00  0.00    -0.178 C  
HETATM   13  C   UNL     1      -8.087   6.549  66.634  1.00  0.00    -0.110 C  
HETATM   14  C   UNL     1      -7.890   6.325  72.397  1.00  0.00    -0.103 C  
HETATM   15  C   UNL     1      -7.291   8.216  70.744  1.00  0.00    -0.058 C  
HETATM   16  C   UNL     1      -7.315   7.321  68.042  1.00  0.00    -0.097 C  
HETATM   17  C   UNL     1      -5.794   8.337  70.989  1.00  0.00    -0.033 C  
HETATM   18  O   UNL     1      -5.952   6.898  68.054  1.00  0.00    -0.029 OA 
HETATM   19  C   UNL     1      -5.319   8.597  72.232  1.00  0.00    -0.048 C  
HETATM   20  C   UNL     1      -7.979   7.303  69.633  1.00  0.00    -0.127 C  
HETATM   21  C   UNL     1      -8.432   5.806  70.010  1.00  0.00    -0.124 C  
HETATM   22  F   UNL     1      -9.204   8.007  69.624  1.00  0.00    -0.149 F  
HETATM   23  H   UNL     1      -5.541   7.310  68.805  1.00  0.00     0.000 HD 
HETATM   24  C   UNL     1      -8.872   5.644  71.468  1.00  0.00    -0.141 C  
ENDROOT
BRANCH   4  25
HETATM   25  O   UNL     1      -8.836   3.250  68.077  1.00  0.00    -0.102 OA 
BRANCH  25  26
HETATM   26  C   UNL     1      -8.307   2.529  69.098  1.00  0.00    -0.055 C  
HETATM   27  O   UNL     1      -7.119   2.421  69.369  1.00  0.00    -0.042 OA 
BRANCH  26  28
HETATM   28  C   UNL     1      -9.430   1.925  69.919  1.00  0.00    -0.127 C  
HETATM   29  C   UNL     1      -9.001   1.648  71.352  1.00  0.00    -0.117 C  
ENDBRANCH  26  28
ENDBRANCH  25  26
ENDBRANCH   4  25
BRANCH   4  30
HETATM   30  C   UNL     1      -7.577   4.049  66.470  1.00  0.00    -0.088 C  
HETATM   31  C   UNL     1      -6.084   3.835  66.479  1.00  0.00    -0.024 C  
HETATM   32  O   UNL     1      -8.121   3.638  65.430  1.00  0.00    -0.095 OA 
HETATM   33 CL   UNL     1      -5.252   4.257  67.955  1.00  0.00    -0.010 Cl 
ENDBRANCH   4  30
TORSDOF 4
ENDMDL
MODEL       64
REMARK 921   NORMALIZED FREE ENERGY PREDICTED BY IDOCK:   -2.58 KCAL/MOL
REMARK 922        TOTAL FREE ENERGY PREDICTED BY IDOCK:   -2.34 KCAL/MOL
REMARK 923 INTER-LIGAND FREE ENERGY PREDICTED BY IDOCK:   -3.35 KCAL/MOL
REMARK 924 INTRA-LIGAND FREE ENERGY PREDICTED BY IDOCK:    1.01 KCAL/MOL
REMARK 927      BINDING AFFINITY PREDICTED BY RF-SCORE:    0.00 PKD
ROOT
HETATM    1  C   UNL     1     -10.038   6.721  69.656  1.00  0.00    -0.197 C  
HETATM    2  C   UNL     1     -11.222   6.210  69.074  1.00  0.00    -0.375 C  
HETATM    3  C   UNL     1     -10.125   6.601  68.140  1.00  0.00    -0.174 C  
HETATM    4  C   UNL     1      -8.301   6.936  69.069  1.00  0.00    -0.125 C  
HETATM    5  C   UNL     1     -10.733   5.821  66.755  1.00  0.00    -0.369 C  
HETATM    6  O   UNL     1     -12.466  14.044  70.534  1.00  0.00    -0.331 OA 
HETATM    7  C   UNL     1     -12.050  13.086  69.899  1.00  0.00    -0.277 C  
HETATM    8  C   UNL     1      -8.858   6.036  68.224  1.00  0.00    -0.111 C  
HETATM    9  C   UNL     1     -12.848  11.809  69.805  1.00  0.00     0.486 C  
HETATM   10  C   UNL     1     -11.957  10.801  69.715  1.00  0.00    -0.397 C  
HETATM   11  C   UNL     1      -8.623   4.503  68.231  1.00  0.00    -0.107 C  
HETATM   12  C   UNL     1     -11.908  10.860  67.155  1.00  0.00     0.693 C  
HETATM   13  C   UNL     1      -8.448   7.379  66.946  1.00  0.00    -0.123 C  
HETATM   14  C   UNL     1     -11.324  10.311  71.000  1.00  0.00    -0.306 C  
HETATM   15  C   UNL     1     -11.036  10.739  68.470  1.00  0.00    -0.291 C  
HETATM   16  C   UNL     1      -9.114   8.992  67.304  1.00  0.00    -0.133 C  
HETATM   17  C   UNL     1     -10.253  12.044  68.496  1.00  0.00    -0.218 C  
HETATM   18  O   UNL     1      -8.007   9.849  67.577  1.00  0.00    -0.105 OA 
HETATM   19  C   UNL     1     -10.753  13.134  69.129  1.00  0.00    -0.072 C  
HETATM   20  C   UNL     1     -10.401   9.278  68.415  1.00  0.00    -0.209 C  
HETATM   21  C   UNL     1     -10.111   8.489  69.787  1.00  0.00    -0.197 C  
HETATM   22  F   UNL     1     -11.570   8.645  67.932  1.00  0.00     0.423 F  
HETATM   23  H   UNL     1      -8.362  10.710  67.767  1.00  0.00     0.000 HD 
HETATM   24  C   UNL     1     -11.104   8.816  70.907  1.00  0.00    -0.320 C  
ENDROOT
BRANCH   4  25
HETATM   25  O   UNL     1      -7.979   6.136  70.375  1.00  0.00    -0.103 OA 
BRANCH  25  26
HETATM   26  C   UNL     1      -7.394   6.709  71.458  1.00  0.00    -0.087 C  
HETATM   27  O   UNL     1      -7.620   7.830  71.895  1.00  0.00    -0.078 OA 
BRANCH  26  28
HETATM   28  C   UNL     1      -6.456   5.711  72.108  1.00  0.00    -0.056 C  
HETATM   29  C   UNL     1      -5.352   6.399  72.897  1.00  0.00    -0.036 C  
ENDBRANCH  26  28
ENDBRANCH  25  26
ENDBRANCH   4  25
BRANCH   4  30
HETATM   30  C   UNL     1      -6.707   6.623  68.658  1.00  0.00    -0.064 C  
HETATM   31  C   UNL     1      -5.619   7.660  68.786  1.00  0.00    -0.026 C  
HETATM   32  O   UNL     1      -6.284   5.522  68.264  1.00  0.00    -0.028 OA 
HETATM   33 CL   UNL     1      -6.094   9.198  69.463  1.00  0.00    -0.036 Cl 
ENDBRANCH   4  30
TORSDOF 4
ENDMDL
MODEL       65
REMARK 921   NORMALIZED FREE ENERGY PREDICTED BY IDOCK:   -2.50 KCAL/MOL
REMARK 922        TOTAL FREE ENERGY PREDICTED BY IDOCK:   -2.24 KCAL/MOL
REMARK 923 INTER-LIGAND FREE ENERGY PREDICTED BY IDOCK:   -3.21 KCAL/MOL
REMARK 924 INTRA-LIGAND FREE ENERGY PREDICTED BY IDOCK:    0.97 KCAL/MOL
REMARK 927      BINDING AFFINITY PREDICTED BY RF-SCORE:    0.00 PKD
ROOT
HETATM    1  C   UNL     1      -8.422   8.149  67.907  1.00  0.00    -0.132 C  
HETATM    2  C   UNL     1      -8.327   9.383  68.592  1.00  0.00    -0.117 C  
HETATM    3  C   UNL     1      -7.159   8.460  68.700  1.00  0.00    -0.072 C  
HETATM    4  C   UNL     1      -7.197   6.886  67.349  1.00  0.00    -0.090 C  
HETATM    5  C   UNL     1      -6.048   9.590  69.319  1.00  0.00    -0.037 C  
HETATM    6  O   UNL     1     -12.471   4.333  73.323  1.00  0.00     0.228 OA 
HETATM    7  C   UNL     1     -11.460   4.822  72.838  1.00  0.00    -0.133 C  
HETATM    8  C   UNL     1      -6.477   8.011  67.575  1.00  0.00    -0.057 C  
HETATM    9  C   UNL     1     -11.366   6.304  72.568  1.00  0.00    -0.313 C  
HETATM   10  C   UNL     1     -10.579   6.451  71.483  1.00  0.00    -0.273 C  
HETATM   11  C   UNL     1      -5.915   8.973  66.496  1.00  0.00    -0.056 C  
HETATM   12  C   UNL     1      -8.435   6.652  72.870  1.00  0.00    -0.123 C  
HETATM   13  C   UNL     1      -5.623   6.891  68.849  1.00  0.00    -0.018 C  
HETATM   14  C   UNL     1     -11.214   6.244  70.125  1.00  0.00    -0.470 C  
HETATM   15  C   UNL     1      -9.096   6.011  71.583  1.00  0.00    -0.147 C  
HETATM   16  C   UNL     1      -6.713   6.121  70.030  1.00  0.00    -0.056 C  
HETATM   17  C   UNL     1      -9.149   4.527  71.915  1.00  0.00    -0.164 C  
HETATM   18  O   UNL     1      -6.688   4.719  69.767  1.00  0.00    -0.038 OA 
HETATM   19  C   UNL     1     -10.235   3.997  72.531  1.00  0.00    -0.233 C  
HETATM   20  C   UNL     1      -8.319   6.658  70.351  1.00  0.00    -0.127 C  
HETATM   21  C   UNL     1      -9.096   6.891  68.961  1.00  0.00    -0.138 C  
HETATM   22  F   UNL     1      -8.264   7.960  70.899  1.00  0.00    -0.095 F  
HETATM   23  H   UNL     1      -7.269   4.308  70.396  1.00  0.00     0.000 HD 
HETATM   24  C   UNL     1     -10.586   7.199  69.132  1.00  0.00    -0.227 C  
ENDROOT
BRANCH   4  25
HETATM   25  O   UNL     1      -7.900   7.113  65.969  1.00  0.00    -0.098 OA 
BRANCH  25  26
HETATM   26  C   UNL     1      -8.679   6.169  65.382  1.00  0.00    -0.062 C  
HETATM   27  O   UNL     1      -9.445   5.404  65.952  1.00  0.00    -0.160 OA 
BRANCH  26  28
HETATM   28  C   UNL     1      -8.516   6.251  63.876  1.00  0.00     0.211 C  
HETATM   29  C   UNL     1      -7.838   5.013  63.309  1.00  0.00    -0.079 C  
ENDBRANCH  26  28
ENDBRANCH  25  26
ENDBRANCH   4  25
BRANCH   4  30
HETATM   30  C   UNL     1      -6.026   6.086  66.456  1.00  0.00    -0.025 C  
HETATM   31  C   UNL     1      -5.945   4.581  66.392  1.00  0.00    -0.027 C  
HETATM   32  O   UNL     1      -5.170   6.649  65.751  1.00  0.00    -0.017 OA 
HETATM   33 CL   UNL     1      -7.191   3.703  67.242  1.00  0.00    -0.062 Cl 
ENDBRANCH   4  30
TORSDOF 4
ENDMDL
MODEL       66
REMARK 921   NORMALIZED FREE ENERGY PREDICTED BY IDOCK:   -2.34 KCAL/MOL
REMARK 922        TOTAL FREE ENERGY PREDICTED BY IDOCK:   -2.04 KCAL/MOL
REMARK 923 INTER-LIGAND FREE ENERGY PREDICTED BY IDOCK:   -6.39 KCAL/MOL
REMARK 924 INTRA-LIGAND FREE ENERGY PREDICTED BY IDOCK:    4.35 KCAL/MOL
REMARK 927      BINDING AFFINITY PREDICTED BY RF-SCORE:    0.00 PKD
ROOT
HETATM    1  C   UNL     1      -9.673   6.134  70.224  1.00  0.00    -0.195 C  
HETATM    2  C   UNL     1      -9.054   5.076  69.518  1.00  0.00    -0.150 C  
HETATM    3  C   UNL     1      -8.177   5.907  70.394  1.00  0.00    -0.111 C  
HETATM    4  C   UNL     1      -9.211   7.146  71.697  1.00  0.00    -0.144 C  
HETATM    5  C   UNL     1      -6.838   4.857  70.416  1.00  0.00    -0.037 C  
HETATM    6  O   UNL     1      -9.567  11.343  64.466  1.00  0.00    -0.231 OA 
HETATM    7  C   UNL     1      -9.073  10.682  65.369  1.00  0.00    -0.189 C  
HETATM    8  C   UNL     1      -8.424   6.045  71.755  1.00  0.00    -0.127 C  
HETATM    9  C   UNL     1      -9.051   9.174  65.308  1.00  0.00    -0.252 C  
HETATM   10  C   UNL     1      -9.142   8.734  66.579  1.00  0.00    -0.203 C  
HETATM   11  C   UNL     1      -8.613   4.831  72.700  1.00  0.00    -0.115 C  
HETATM   12  C   UNL     1      -6.603   8.676  66.909  1.00  0.00    -0.061 C  
HETATM   13  C   UNL     1      -7.048   7.347  71.617  1.00  0.00    -0.062 C  
HETATM   14  C   UNL     1     -10.519   8.688  67.206  1.00  0.00    -0.360 C  
HETATM   15  C   UNL     1      -7.990   9.069  67.561  1.00  0.00    -0.101 C  
HETATM   16  C   UNL     1      -7.177   8.439  70.215  1.00  0.00    -0.044 C  
HETATM   17  C   UNL     1      -7.941  10.590  67.603  1.00  0.00    -0.106 C  
HETATM   18  O   UNL     1      -7.447   9.743  70.725  1.00  0.00    -0.295 OA 
HETATM   19  C   UNL     1      -8.411  11.323  66.564  1.00  0.00    -0.171 C  
HETATM   20  C   UNL     1      -8.142   8.110  68.825  1.00  0.00    -0.120 C  
HETATM   21  C   UNL     1      -9.610   7.640  69.288  1.00  0.00    -0.159 C  
HETATM   22  F   UNL     1      -7.636   6.960  68.178  1.00  0.00    -0.096 F  
HETATM   23  H   UNL     1      -7.515  10.325  69.978  1.00  0.00     0.000 HD 
HETATM   24  C   UNL     1     -10.603   7.494  68.132  1.00  0.00    -0.201 C  
ENDROOT
BRANCH   4  25
HETATM   25  O   UNL     1     -10.617   6.678  72.202  1.00  0.00    -0.207 OA 
BRANCH  25  26
HETATM   26  C   UNL     1     -11.774   7.239  71.766  1.00  0.00    -0.286 C  
HETATM   27  O   UNL     1     -12.753   6.642  71.338  1.00  0.00    -0.304 OA 
BRANCH  26  28
HETATM   28  C   UNL     1     -11.707   8.742  71.961  1.00  0.00    -0.442 C  
HETATM   29  C   UNL     1     -13.089   9.378  71.959  1.00  0.00    -0.516 C  
ENDBRANCH  26  28
ENDBRANCH  25  26
ENDBRANCH   4  25
BRANCH   4  30
HETATM   30  C   UNL     1      -8.968   7.639  73.280  1.00  0.00    -0.205 C  
HETATM   31  C   UNL     1      -9.609   6.940  74.453  1.00  0.00    -0.229 C  
HETATM   32  O   UNL     1      -8.220   8.572  73.621  1.00  0.00    -0.383 OA 
HETATM   33 CL   UNL     1     -10.569   5.531  74.082  1.00  0.00    -0.290 Cl 
ENDBRANCH   4  30
TORSDOF 4
ENDMDL
MODEL       67
REMARK 921   NORMALIZED FREE ENERGY PREDICTED BY IDOCK:   -2.11 KCAL/MOL
REMARK 922        TOTAL FREE ENERGY PREDICTED BY IDOCK:   -1.75 KCAL/MOL
REMARK 923 INTER-LIGAND FREE ENERGY PREDICTED BY IDOCK:   -3.23 KCAL/MOL
REMARK 924 INTRA-LIGAND FREE ENERGY PREDICTED BY IDOCK:    1.47 KCAL/MOL
REMARK 927      BINDING AFFINITY PREDICTED BY RF-SCORE:    0.00 PKD
ROOT
HETATM    1  C   UNL     1      -8.043   6.010  66.863  1.00  0.00    -0.105 C  
HETATM    2  C   UNL     1      -7.795   7.385  67.086  1.00  0.00    -0.117 C  
HETATM    3  C   UNL     1      -6.690   6.438  67.417  1.00  0.00    -0.060 C  
HETATM    4  C   UNL     1      -6.970   4.519  66.678  1.00  0.00    -0.063 C  
HETATM    5  C   UNL     1      -5.447   7.593  67.543  1.00  0.00    -0.035 C  
HETATM    6  O   UNL     1     -11.799   4.604  73.512  1.00  0.00    -0.159 OA 
HETATM    7  C   UNL     1     -10.809   4.804  72.822  1.00  0.00    -0.210 C  
HETATM    8  C   UNL     1      -6.154   5.580  66.463  1.00  0.00    -0.030 C  
HETATM    9  C   UNL     1     -10.639   6.098  72.064  1.00  0.00    -0.259 C  
HETATM   10  C   UNL     1      -9.953   5.802  70.942  1.00  0.00    -0.243 C  
HETATM   11  C   UNL     1      -5.635   6.073  65.088  1.00  0.00    -0.017 C  
HETATM   12  C   UNL     1      -7.675   6.235  72.029  1.00  0.00    -0.096 C  
HETATM   13  C   UNL     1      -5.261   4.862  67.977  1.00  0.00    -0.010 C  
HETATM   14  C   UNL     1     -10.731   5.225  69.779  1.00  0.00    -0.179 C  
HETATM   15  C   UNL     1      -8.502   5.275  71.081  1.00  0.00    -0.123 C  
HETATM   16  C   UNL     1      -6.281   4.633  69.420  1.00  0.00    -0.027 C  
HETATM   17  C   UNL     1      -8.626   3.995  71.895  1.00  0.00    -0.118 C  
HETATM   18  O   UNL     1      -6.380   3.227  69.642  1.00  0.00    -0.027 OA 
HETATM   19  C   UNL     1      -9.680   3.808  72.726  1.00  0.00    -0.192 C  
HETATM   20  C   UNL     1      -7.806   5.402  69.652  1.00  0.00    -0.078 C  
HETATM   21  C   UNL     1      -8.697   5.241  68.322  1.00  0.00    -0.101 C  
HETATM   22  F   UNL     1      -7.607   6.799  69.727  1.00  0.00    -0.092 F  
HETATM   23  H   UNL     1      -6.924   3.106  70.412  1.00  0.00     0.000 HD 
HETATM   24  C   UNL     1     -10.138   5.733  68.483  1.00  0.00    -0.226 C  
ENDROOT
BRANCH   4  25
HETATM   25  O   UNL     1      -7.787   4.349  65.354  1.00  0.00    -0.088 OA 
BRANCH  25  26
HETATM   26  C   UNL     1      -8.834   3.490  65.247  1.00  0.00    -0.124 C  
HETATM   27  O   UNL     1      -9.209   2.696  66.098  1.00  0.00    -0.131 OA 
BRANCH  26  28
HETATM   28  C   UNL     1      -9.533   3.716  63.920  1.00  0.00    -0.143 C  
HETATM   29  C   UNL     1      -9.041   2.755  62.848  1.00  0.00    -0.087 C  
ENDBRANCH  26  28
ENDBRANCH  25  26
ENDBRANCH   4  25
BRANCH   4  30
HETATM   30  C   UNL     1      -5.951   3.359  66.027  1.00  0.00    -0.023 C  
HETATM   31  C   UNL     1      -5.911   1.940  66.536  1.00  0.00    -0.019 C  
HETATM   32  O   UNL     1      -5.190   3.551  65.062  1.00  0.00    -0.008 OA 
HETATM   33 CL   UNL     1      -7.045   1.540  67.801  1.00  0.00    -0.035 Cl 
ENDBRANCH   4  30
TORSDOF 4
ENDMDL
MODEL       68
REMARK 921   NORMALIZED FREE ENERGY PREDICTED BY IDOCK:   -2.09 KCAL/MOL
REMARK 922        TOTAL FREE ENERGY PREDICTED BY IDOCK:   -1.73 KCAL/MOL
REMARK 923 INTER-LIGAND FREE ENERGY PREDICTED BY IDOCK:   -3.48 KCAL/MOL
REMARK 924 INTRA-LIGAND FREE ENERGY PREDICTED BY IDOCK:    1.75 KCAL/MOL
REMARK 927      BINDING AFFINITY PREDICTED BY RF-SCORE:    0.00 PKD
ROOT
HETATM    1  C   UNL     1     -10.287  10.015  67.161  1.00  0.00    -0.300 C  
HETATM    2  C   UNL     1      -9.839   9.924  65.822  1.00  0.00    -0.356 C  
HETATM    3  C   UNL     1      -9.325   8.898  66.776  1.00  0.00    -0.224 C  
HETATM    4  C   UNL     1     -10.338   8.842  68.586  1.00  0.00    -0.204 C  
HETATM    5  C   UNL     1      -8.713   7.813  65.617  1.00  0.00    -0.132 C  
HETATM    6  O   UNL     1      -5.197  15.376  69.536  1.00  0.00    -0.097 OA 
HETATM    7  C   UNL     1      -5.549  14.248  69.220  1.00  0.00    -0.082 C  
HETATM    8  C   UNL     1     -10.183   8.066  67.486  1.00  0.00    -0.311 C  
HETATM    9  C   UNL     1      -6.065  13.954  67.833  1.00  0.00    -0.153 C  
HETATM   10  C   UNL     1      -6.974  12.966  67.959  1.00  0.00    -0.108 C  
HETATM   11  C   UNL     1     -11.284   7.217  66.801  1.00  0.00     0.374 C  
HETATM   12  C   UNL     1      -5.241  11.112  67.617  1.00  0.00    -0.041 C  
HETATM   13  C   UNL     1      -8.576   7.586  68.376  1.00  0.00    -0.124 C  
HETATM   14  C   UNL     1      -8.370  13.353  68.396  1.00  0.00    -0.137 C  
HETATM   15  C   UNL     1      -6.494  11.581  68.463  1.00  0.00    -0.054 C  
HETATM   16  C   UNL     1      -7.520   8.951  68.821  1.00  0.00    -0.083 C  
HETATM   17  C   UNL     1      -5.909  11.847  69.843  1.00  0.00    -0.137 C  
HETATM   18  O   UNL     1      -7.507   9.020  70.246  1.00  0.00    -0.063 OA 
HETATM   19  C   UNL     1      -5.439  13.077  70.166  1.00  0.00    -0.122 C  
HETATM   20  C   UNL     1      -7.640  10.525  68.129  1.00  0.00    -0.091 C  
HETATM   21  C   UNL     1      -9.177  10.999  68.133  1.00  0.00    -0.165 C  
HETATM   22  F   UNL     1      -7.343  10.441  66.749  1.00  0.00    -0.096 F  
HETATM   23  H   UNL     1      -6.944   9.748  70.483  1.00  0.00     0.000 HD 
HETATM   24  C   UNL     1      -9.374  12.456  67.704  1.00  0.00    -0.188 C  
ENDROOT
BRANCH   4  25
HETATM   25  O   UNL     1     -11.850   9.247  68.599  1.00  0.00     0.864 OA 
BRANCH  25  26
HETATM   26  C   UNL     1     -12.402   9.979  69.601  1.00  0.00     0.353 C  
HETATM   27  O   UNL     1     -13.039   9.543  70.551  1.00  0.00     0.038 OA 
BRANCH  26  28
HETATM   28  C   UNL     1     -12.044  11.440  69.410  1.00  0.00    -0.358 C  
HETATM   29  C   UNL     1     -12.176  12.232  70.702  1.00  0.00    -0.378 C  
ENDBRANCH  26  28
ENDBRANCH  25  26
ENDBRANCH   4  25
BRANCH   4  30
HETATM   30  C   UNL     1     -10.808   7.612  69.622  1.00  0.00    -0.191 C  
HETATM   31  C   UNL     1     -10.610   7.692  71.116  1.00  0.00    -0.221 C  
HETATM   32  O   UNL     1     -11.388   6.572  69.265  1.00  0.00    -0.335 OA 
HETATM   33 CL   UNL     1      -9.927   9.178  71.726  1.00  0.00    -0.353 Cl 
ENDBRANCH   4  30
TORSDOF 4
ENDMDL
MODEL       69
REMARK 921   NORMALIZED FREE ENERGY PREDICTED BY IDOCK:   -2.00 KCAL/MOL
REMARK 922        TOTAL FREE ENERGY PREDICTED BY IDOCK:   -1.62 KCAL/MOL
REMARK 923 INTER-LIGAND FREE ENERGY PREDICTED BY IDOCK:   -2.63 KCAL/MOL
REMARK 924 INTRA-LIGAND FREE ENERGY PREDICTED BY IDOCK:    1.01 KCAL/MOL
REMARK 927      BINDING AFFINITY PREDICTED BY RF-SCORE:    0.00 PKD
ROOT
HETATM    1  C   UNL     1      -9.322   9.315  70.849  1.00  0.00    -0.313 C  
HETATM    2  C   UNL     1      -9.950  10.580  70.916  1.00  0.00     1.679 C  
HETATM    3  C   UNL     1     -10.783   9.439  70.436  1.00  0.00    -0.317 C  
HETATM    4  C   UNL     1      -9.934   7.574  70.762  1.00  0.00    -0.182 C  
HETATM    5  C   UNL     1     -12.298  10.200  70.584  1.00  0.00    -0.382 C  
HETATM    6  O   UNL     1      -5.914  10.281  63.940  1.00  0.00    -0.133 OA 
HETATM    7  C   UNL     1      -6.857  10.063  64.687  1.00  0.00    -0.130 C  
HETATM    8  C   UNL     1     -10.984   8.303  71.212  1.00  0.00    -0.290 C  
HETATM    9  C   UNL     1      -7.305  11.093  65.695  1.00  0.00     0.258 C  
HETATM   10  C   UNL     1      -7.787  10.413  66.755  1.00  0.00    -0.117 C  
HETATM   11  C   UNL     1     -11.497   8.366  72.674  1.00  0.00    -0.359 C  
HETATM   12  C   UNL     1     -10.182  10.381  65.849  1.00  0.00    -0.302 C  
HETATM   13  C   UNL     1     -11.777   7.657  69.612  1.00  0.00     0.473 C  
HETATM   14  C   UNL     1      -6.784   9.873  67.753  1.00  0.00    -0.072 C  
HETATM   15  C   UNL     1      -9.048   9.534  66.558  1.00  0.00    -0.185 C  
HETATM   16  C   UNL     1     -10.862   7.996  68.122  1.00  0.00     0.076 C  
HETATM   17  C   UNL     1      -8.654   8.515  65.498  1.00  0.00    -0.204 C  
HETATM   18  O   UNL     1     -10.406   6.742  67.618  1.00  0.00    -0.163 OA 
HETATM   19  C   UNL     1      -7.663   8.789  64.614  1.00  0.00    -0.119 C  
HETATM   20  C   UNL     1      -9.626   9.192  68.003  1.00  0.00    -0.147 C  
HETATM   21  C   UNL     1      -8.614   9.045  69.245  1.00  0.00    -0.136 C  
HETATM   22  F   UNL     1     -10.201  10.466  68.219  1.00  0.00    -0.157 F  
HETATM   23  H   UNL     1      -9.918   6.923  66.823  1.00  0.00     0.000 HD 
HETATM   24  C   UNL     1      -7.378   9.944  69.143  1.00  0.00    -0.083 C  
ENDROOT
BRANCH   4  25
HETATM   25  O   UNL     1      -8.990   7.398  71.998  1.00  0.00    -0.124 OA 
BRANCH  25  26
HETATM   26  C   UNL     1      -7.842   6.676  71.944  1.00  0.00    -0.098 C  
HETATM   27  O   UNL     1      -7.048   6.645  71.013  1.00  0.00    -0.069 OA 
BRANCH  26  28
HETATM   28  C   UNL     1      -7.641   5.955  73.263  1.00  0.00    -0.098 C  
HETATM   29  C   UNL     1      -7.326   6.920  74.396  1.00  0.00    -0.107 C  
ENDBRANCH  26  28
ENDBRANCH  25  26
ENDBRANCH   4  25
BRANCH   4  30
HETATM   30  C   UNL     1     -10.542   6.075  71.196  1.00  0.00    -0.246 C  
HETATM   31  C   UNL     1     -10.174   4.809  70.463  1.00  0.00    -0.182 C  
HETATM   32  O   UNL     1     -11.296   5.873  72.164  1.00  0.00    -0.280 OA 
HETATM   33 CL   UNL     1      -9.010   4.974  69.172  1.00  0.00    -0.121 Cl 
ENDBRANCH   4  30
TORSDOF 4
ENDMDL
MODEL       70
REMARK 921   NORMALIZED FREE ENERGY PREDICTED BY IDOCK:   -1.94 KCAL/MOL
REMARK 922        TOTAL FREE ENERGY PREDICTED BY IDOCK:   -1.54 KCAL/MOL
REMARK 923 INTER-LIGAND FREE ENERGY PREDICTED BY IDOCK:   -2.87 KCAL/MOL
REMARK 924 INTRA-LIGAND FREE ENERGY PREDICTED BY IDOCK:    1.33 KCAL/MOL
REMARK 927      BINDING AFFINITY PREDICTED BY RF-SCORE:    0.00 PKD
ROOT
HETATM    1  C   UNL     1      -6.801  17.431  68.568  1.00  0.00    -0.203 C  
HETATM    2  C   UNL     1      -5.745  16.582  68.162  1.00  0.00    -0.121 C  
HETATM    3  C   UNL     1      -6.419  17.379  67.094  1.00  0.00    -0.191 C  
HETATM    4  C   UNL     1      -7.649  18.887  67.812  1.00  0.00    -0.233 C  
HETATM    5  C   UNL     1      -5.246  17.150  65.883  1.00  0.00     0.312 C  
HETATM    6  O   UNL     1     -12.399  12.051  68.667  1.00  0.00    -0.223 OA 
HETATM    7  C   UNL     1     -11.627  12.834  68.132  1.00  0.00    -0.336 C  
HETATM    8  C   UNL     1      -6.476  18.766  67.145  1.00  0.00    -0.197 C  
HETATM    9  C   UNL     1     -10.133  12.676  68.277  1.00  0.00    -0.233 C  
HETATM   10  C   UNL     1      -9.607  13.918  68.247  1.00  0.00    -0.218 C  
HETATM   11  C   UNL     1      -5.217  19.651  67.336  1.00  0.00    -0.161 C  
HETATM   12  C   UNL     1      -9.280  13.889  65.707  1.00  0.00     0.265 C  
HETATM   13  C   UNL     1      -7.646  18.521  65.669  1.00  0.00     0.071 C  
HETATM   14  C   UNL     1      -9.647  14.725  69.527  1.00  0.00     0.055 C  
HETATM   15  C   UNL     1      -9.754  14.750  66.947  1.00  0.00    -0.247 C  
HETATM   16  C   UNL     1      -8.848  17.221  65.865  1.00  0.00     0.043 C  
HETATM   17  C   UNL     1     -11.256  14.880  66.733  1.00  0.00    -0.338 C  
HETATM   18  O   UNL     1     -10.130  17.845  65.926  1.00  0.00    -0.533 OA 
HETATM   19  C   UNL     1     -12.108  13.964  67.255  1.00  0.00    -0.403 C  
HETATM   20  C   UNL     1      -8.721  15.961  67.033  1.00  0.00    -0.222 C  
HETATM   21  C   UNL     1      -8.360  16.592  68.468  1.00  0.00    -0.228 C  
HETATM   22  F   UNL     1      -7.580  15.180  66.740  1.00  0.00    -0.224 F  
HETATM   23  H   UNL     1     -10.771  17.152  66.030  1.00  0.00     0.000 HD 
HETATM   24  C   UNL     1      -8.399  15.577  69.615  1.00  0.00    -0.113 C  
ENDROOT
BRANCH   4  25
HETATM   25  O   UNL     1      -7.281  19.552  69.181  1.00  0.00    -0.354 OA 
BRANCH  25  26
HETATM   26  C   UNL     1      -8.195  19.749  70.166  1.00  0.00     1.092 C  
HETATM   27  O   UNL     1      -9.387  19.477  70.114  1.00  0.00     0.521 OA 
BRANCH  26  28
HETATM   28  C   UNL     1      -7.496  20.297  71.395  1.00  0.00     1.391 C  
HETATM   29  C   UNL     1      -6.002  20.007  71.377  1.00  0.00    -0.302 C  
ENDBRANCH  26  28
ENDBRANCH  25  26
ENDBRANCH   4  25
BRANCH   4  30
HETATM   30  C   UNL     1      -7.993  20.449  67.312  1.00  0.00    -0.335 C  
HETATM   31  C   UNL     1      -9.405  20.939  67.103  1.00  0.00    -0.170 C  
HETATM   32  O   UNL     1      -7.139  21.332  67.119  1.00  0.00    -0.491 OA 
HETATM   33 CL   UNL     1     -10.679  19.808  67.483  1.00  0.00    -0.542 Cl 
ENDBRANCH   4  30
TORSDOF 4
ENDMDL
MODEL       71
REMARK 921   NORMALIZED FREE ENERGY PREDICTED BY IDOCK:   -1.91 KCAL/MOL
REMARK 922        TOTAL FREE ENERGY PREDICTED BY IDOCK:   -1.51 KCAL/MOL
REMARK 923 INTER-LIGAND FREE ENERGY PREDICTED BY IDOCK:   -3.86 KCAL/MOL
REMARK 924 INTRA-LIGAND FREE ENERGY PREDICTED BY IDOCK:    2.35 KCAL/MOL
REMARK 927      BINDING AFFINITY PREDICTED BY RF-SCORE:    0.00 PKD
ROOT
HETATM    1  C   UNL     1      -8.378   9.500  68.948  1.00  0.00    -0.121 C  
HETATM    2  C   UNL     1      -8.448   8.785  70.166  1.00  0.00    -0.139 C  
HETATM    3  C   UNL     1      -7.115   8.850  69.499  1.00  0.00    -0.059 C  
HETATM    4  C   UNL     1      -7.002  10.246  67.968  1.00  0.00    -0.082 C  
HETATM    5  C   UNL     1      -6.185   8.325  70.824  1.00  0.00    -0.033 C  
HETATM    6  O   UNL     1     -10.880   3.789  64.320  1.00  0.00    -0.265 OA 
HETATM    7  C   UNL     1     -10.056   4.372  65.011  1.00  0.00    -0.148 C  
HETATM    8  C   UNL     1      -6.501  10.064  69.213  1.00  0.00    -0.049 C  
HETATM    9  C   UNL     1     -10.295   4.596  66.484  1.00  0.00    -0.235 C  
HETATM   10  C   UNL     1      -9.693   5.759  66.802  1.00  0.00    -0.172 C  
HETATM   11  C   UNL     1      -6.280  11.165  70.282  1.00  0.00    -0.134 C  
HETATM   12  C   UNL     1      -7.478   4.629  67.417  1.00  0.00    -0.078 C  
HETATM   13  C   UNL     1      -5.289   8.942  68.274  1.00  0.00    -0.034 C  
HETATM   14  C   UNL     1     -10.436   7.040  66.487  1.00  0.00    -0.072 C  
HETATM   15  C   UNL     1      -8.151   5.852  66.671  1.00  0.00    -0.102 C  
HETATM   16  C   UNL     1      -6.049   7.671  67.283  1.00  0.00    -0.048 C  
HETATM   17  C   UNL     1      -7.864   5.571  65.203  1.00  0.00    -0.097 C  
HETATM   18  O   UNL     1      -5.776   7.987  65.919  1.00  0.00    -0.036 OA 
HETATM   19  C   UNL     1      -8.737   4.852  64.456  1.00  0.00    -0.148 C  
HETATM   20  C   UNL     1      -7.678   7.143  67.479  1.00  0.00    -0.111 C  
HETATM   21  C   UNL     1      -8.650   8.421  67.567  1.00  0.00    -0.129 C  
HETATM   22  F   UNL     1      -7.817   6.556  68.757  1.00  0.00    -0.101 F  
HETATM   23  H   UNL     1      -6.180   7.309  65.391  1.00  0.00     0.000 HD 
HETATM   24  C   UNL     1     -10.140   8.063  67.562  1.00  0.00    -0.281 C  
ENDROOT
BRANCH   4  25
HETATM   25  O   UNL     1      -7.902  11.523  68.064  1.00  0.00    -0.113 OA 
BRANCH  25  26
HETATM   26  C   UNL     1      -9.151  11.579  67.536  1.00  0.00    -0.166 C  
HETATM   27  O   UNL     1     -10.196  11.713  68.159  1.00  0.00    -0.184 OA 
BRANCH  26  28
HETATM   28  C   UNL     1      -9.058  11.526  66.024  1.00  0.00    -0.206 C  
HETATM   29  C   UNL     1     -10.220  12.248  65.356  1.00  0.00    -0.297 C  
ENDBRANCH  26  28
ENDBRANCH  25  26
ENDBRANCH   4  25
BRANCH   4  30
HETATM   30  C   UNL     1      -5.814  11.299  67.434  1.00  0.00    -0.061 C  
HETATM   31  C   UNL     1      -5.403  11.390  65.986  1.00  0.00     0.011 C  
HETATM   32  O   UNL     1      -5.213  12.111  68.161  1.00  0.00    -0.051 OA 
HETATM   33 CL   UNL     1      -6.289  10.384  64.867  1.00  0.00    -0.116 Cl 
ENDBRANCH   4  30
TORSDOF 4
ENDMDL
MODEL       72
REMARK 921   NORMALIZED FREE ENERGY PREDICTED BY IDOCK:   -1.53 KCAL/MOL
REMARK 922        TOTAL FREE ENERGY PREDICTED BY IDOCK:   -1.04 KCAL/MOL
REMARK 923 INTER-LIGAND FREE ENERGY PREDICTED BY IDOCK:   -2.10 KCAL/MOL
REMARK 924 INTRA-LIGAND FREE ENERGY PREDICTED BY IDOCK:    1.06 KCAL/MOL
REMARK 927      BINDING AFFINITY PREDICTED BY RF-SCORE:    0.00 PKD
ROOT
HETATM    1  C   UNL     1      -9.386  15.359  65.962  1.00  0.00    -0.364 C  
HETATM    2  C   UNL     1     -10.585  15.309  65.213  1.00  0.00    -0.438 C  
HETATM    3  C   UNL     1     -10.684  15.823  66.610  1.00  0.00    -0.287 C  
HETATM    4  C   UNL     1      -8.854  16.257  67.485  1.00  0.00    -0.186 C  
HETATM    5  C   UNL     1     -12.235  16.511  66.477  1.00  0.00     2.665 C  
HETATM    6  O   UNL     1      -9.358   7.939  68.253  1.00  0.00    -0.143 OA 
HETATM    7  C   UNL     1      -9.730   9.104  68.281  1.00  0.00    -0.154 C  
HETATM    8  C   UNL     1      -9.947  16.921  67.038  1.00  0.00    -0.279 C  
HETATM    9  C   UNL     1     -10.383   9.741  67.078  1.00  0.00    -0.305 C  
HETATM   10  C   UNL     1     -10.044  11.046  67.099  1.00  0.00    -0.227 C  
HETATM   11  C   UNL     1      -9.952  18.279  66.289  1.00  0.00    -0.361 C  
HETATM   12  C   UNL     1     -12.099  11.722  68.470  1.00  0.00    -0.134 C  
HETATM   13  C   UNL     1     -10.628  16.401  68.733  1.00  0.00    -0.310 C  
HETATM   14  C   UNL     1      -8.682  11.423  66.558  1.00  0.00    -0.181 C  
HETATM   15  C   UNL     1     -10.540  11.919  68.281  1.00  0.00    -0.236 C  
HETATM   16  C   UNL     1     -10.562  14.653  69.071  1.00  0.00    -0.247 C  
HETATM   17  C   UNL     1      -9.949  11.269  69.524  1.00  0.00     0.270 C  
HETATM   18  O   UNL     1      -9.626  14.469  70.132  1.00  0.00     0.002 OA 
HETATM   19  C   UNL     1      -9.614   9.955  69.521  1.00  0.00    -0.242 C  
HETATM   20  C   UNL     1     -10.363  13.445  67.857  1.00  0.00    -0.238 C  
HETATM   21  C   UNL     1      -9.153  13.859  66.881  1.00  0.00    -0.257 C  
HETATM   22  F   UNL     1     -11.483  13.473  66.996  1.00  0.00    -0.302 F  
HETATM   23  H   UNL     1      -9.591  13.536  70.312  1.00  0.00     0.000 HD 
HETATM   24  C   UNL     1      -8.774  12.769  65.873  1.00  0.00     0.648 C  
ENDROOT
BRANCH   4  25
HETATM   25  O   UNL     1      -7.681  16.715  66.555  1.00  0.00    -0.250 OA 
BRANCH  25  26
HETATM   26  C   UNL     1      -6.391  16.353  66.774  1.00  0.00     0.028 C  
HETATM   27  O   UNL     1      -5.983  15.219  66.989  1.00  0.00    -0.206 OA 
BRANCH  26  28
HETATM   28  C   UNL     1      -5.498  17.571  66.636  1.00  0.00    -0.214 C  
HETATM   29  C   UNL     1      -5.540  18.151  65.230  1.00  0.00    -0.150 C  
ENDBRANCH  26  28
ENDBRANCH  25  26
ENDBRANCH   4  25
BRANCH   4  30
HETATM   30  C   UNL     1      -8.310  17.458  68.519  1.00  0.00    -0.271 C  
HETATM   31  C   UNL     1      -7.448  17.161  69.721  1.00  0.00     0.715 C  
HETATM   32  O   UNL     1      -8.527  18.673  68.365  1.00  0.00    -0.319 OA 
HETATM   33 CL   UNL     1      -6.977  15.495  69.942  1.00  0.00    -0.127 Cl 
ENDBRANCH   4  30
TORSDOF 4
ENDMDL
MODEL       73
REMARK 921   NORMALIZED FREE ENERGY PREDICTED BY IDOCK:   -1.18 KCAL/MOL
REMARK 922        TOTAL FREE ENERGY PREDICTED BY IDOCK:   -0.60 KCAL/MOL
REMARK 923 INTER-LIGAND FREE ENERGY PREDICTED BY IDOCK:   -4.88 KCAL/MOL
REMARK 924 INTRA-LIGAND FREE ENERGY PREDICTED BY IDOCK:    4.28 KCAL/MOL
REMARK 927      BINDING AFFINITY PREDICTED BY RF-SCORE:    0.00 PKD
ROOT
HETATM    1  C   UNL     1      -9.885   5.311  67.964  1.00  0.00    -0.193 C  
HETATM    2  C   UNL     1     -10.252   4.741  66.723  1.00  0.00    -0.253 C  
HETATM    3  C   UNL     1      -8.798   4.750  67.057  1.00  0.00    -0.107 C  
HETATM    4  C   UNL     1      -8.386   5.207  69.038  1.00  0.00    -0.087 C  
HETATM    5  C   UNL     1      -8.297   3.641  65.867  1.00  0.00    -0.106 C  
HETATM    6  O   UNL     1      -9.831  12.725  65.657  1.00  0.00    -0.248 OA 
HETATM    7  C   UNL     1      -9.381  11.591  65.748  1.00  0.00    -0.221 C  
HETATM    8  C   UNL     1      -8.308   4.141  68.206  1.00  0.00    -0.099 C  
HETATM    9  C   UNL     1     -10.128  10.409  65.181  1.00  0.00    -0.379 C  
HETATM   10  C   UNL     1      -9.844   9.355  65.973  1.00  0.00    -0.366 C  
HETATM   11  C   UNL     1      -8.621   2.667  68.572  1.00  0.00    -0.112 C  
HETATM   12  C   UNL     1      -7.821   8.644  64.572  1.00  0.00    -0.132 C  
HETATM   13  C   UNL     1      -6.702   5.006  67.678  1.00  0.00    -0.055 C  
HETATM   14  C   UNL     1     -10.619   9.225  67.267  1.00  0.00    -0.303 C  
HETATM   15  C   UNL     1      -8.378   8.855  66.039  1.00  0.00    -0.128 C  
HETATM   16  C   UNL     1      -6.892   6.699  67.154  1.00  0.00    -0.069 C  
HETATM   17  C   UNL     1      -7.580  10.044  66.552  1.00  0.00    -0.106 C  
HETATM   18  O   UNL     1      -6.229   7.511  68.122  1.00  0.00    -0.037 OA 
HETATM   19  C   UNL     1      -8.038  11.309  66.376  1.00  0.00    -0.138 C  
HETATM   20  C   UNL     1      -8.396   7.400  66.689  1.00  0.00    -0.124 C  
HETATM   21  C   UNL     1      -9.519   7.037  67.783  1.00  0.00    -0.132 C  
HETATM   22  F   UNL     1      -8.867   6.743  65.529  1.00  0.00    -0.155 F  
HETATM   23  H   UNL     1      -6.330   8.413  67.842  1.00  0.00     0.000 HD 
HETATM   24  C   UNL     1     -10.852   7.758  67.561  1.00  0.00    -0.182 C  
ENDROOT
BRANCH   4  25
HETATM   25  O   UNL     1      -9.443   4.811  70.123  1.00  0.00    -0.144 OA 
BRANCH  25  26
HETATM   26  C   UNL     1     -10.227   5.727  70.748  1.00  0.00    -0.219 C  
HETATM   27  O   UNL     1     -11.445   5.808  70.676  1.00  0.00    -0.150 OA 
BRANCH  26  28
HETATM   28  C   UNL     1      -9.362   6.608  71.628  1.00  0.00    -0.149 C  
HETATM   29  C   UNL     1      -9.449   8.073  71.227  1.00  0.00    -0.190 C  
ENDBRANCH  26  28
ENDBRANCH  25  26
ENDBRANCH   4  25
BRANCH   4  30
HETATM   30  C   UNL     1      -7.256   4.666  70.150  1.00  0.00    -0.050 C  
HETATM   31  C   UNL     1      -7.572   3.601  71.172  1.00  0.00    -0.044 C  
HETATM   32  O   UNL     1      -6.075   5.052  70.200  1.00  0.00    -0.020 OA 
HETATM   33 CL   UNL     1      -9.168   2.900  71.089  1.00  0.00    -0.184 Cl 
ENDBRANCH   4  30
TORSDOF 4
ENDMDL
MODEL       74
REMARK 921   NORMALIZED FREE ENERGY PREDICTED BY IDOCK:   -1.14 KCAL/MOL
REMARK 922        TOTAL FREE ENERGY PREDICTED BY IDOCK:   -0.56 KCAL/MOL
REMARK 923 INTER-LIGAND FREE ENERGY PREDICTED BY IDOCK:   -4.94 KCAL/MOL
REMARK 924 INTRA-LIGAND FREE ENERGY PREDICTED BY IDOCK:    4.38 KCAL/MOL
REMARK 927      BINDING AFFINITY PREDICTED BY RF-SCORE:    0.00 PKD
ROOT
HETATM    1  C   UNL     1      -7.974   6.084  69.297  1.00  0.00    -0.103 C  
HETATM    2  C   UNL     1      -8.329   6.322  70.645  1.00  0.00    -0.133 C  
HETATM    3  C   UNL     1      -9.448   6.182  69.668  1.00  0.00    -0.162 C  
HETATM    4  C   UNL     1      -8.872   5.428  67.823  1.00  0.00    -0.105 C  
HETATM    5  C   UNL     1     -10.700   5.976  70.802  1.00  0.00    -0.340 C  
HETATM    6  O   UNL     1      -6.620  13.471  67.327  1.00  0.00    -0.247 OA 
HETATM    7  C   UNL     1      -7.327  12.507  67.583  1.00  0.00    -0.134 C  
HETATM    8  C   UNL     1      -9.604   5.038  68.895  1.00  0.00    -0.213 C  
HETATM    9  C   UNL     1      -7.277  11.844  68.939  1.00  0.00    -0.098 C  
HETATM   10  C   UNL     1      -7.537  10.536  68.740  1.00  0.00    -0.101 C  
HETATM   11  C   UNL     1      -9.649   3.613  69.505  1.00  0.00    -0.207 C  
HETATM   12  C   UNL     1     -10.061  10.824  69.064  1.00  0.00    -0.225 C  
HETATM   13  C   UNL     1     -10.929   6.098  68.042  1.00  0.00    -0.399 C  
HETATM   14  C   UNL     1      -6.395   9.661  68.270  1.00  0.00    -0.056 C  
HETATM   15  C   UNL     1      -8.932  10.135  68.195  1.00  0.00    -0.122 C  
HETATM   16  C   UNL     1     -10.444   7.777  67.692  1.00  0.00    -0.239 C  
HETATM   17  C   UNL     1      -9.044  10.836  66.849  1.00  0.00    -0.160 C  
HETATM   18  O   UNL     1     -10.377   7.904  66.272  1.00  0.00    -0.461 OA 
HETATM   19  C   UNL     1      -8.324  11.956  66.594  1.00  0.00    -0.117 C  
HETATM   20  C   UNL     1      -9.112   8.571  68.444  1.00  0.00    -0.139 C  
HETATM   21  C   UNL     1      -7.822   7.610  68.406  1.00  0.00    -0.121 C  
HETATM   22  F   UNL     1      -9.373   8.688  69.829  1.00  0.00    -0.156 F  
HETATM   23  H   UNL     1     -10.119   8.799  66.086  1.00  0.00     0.000 HD 
HETATM   24  C   UNL     1      -6.535   8.286  68.888  1.00  0.00    -0.052 C  
ENDROOT
BRANCH   4  25
HETATM   25  O   UNL     1      -7.653   4.447  67.774  1.00  0.00    -0.075 OA 
BRANCH  25  26
HETATM   26  C   UNL     1      -6.449   4.804  67.260  1.00  0.00    -0.045 C  
HETATM   27  O   UNL     1      -5.352   4.553  67.741  1.00  0.00    -0.010 OA 
BRANCH  26  28
HETATM   28  C   UNL     1      -6.659   5.510  65.935  1.00  0.00    -0.044 C  
HETATM   29  C   UNL     1      -5.597   5.131  64.913  1.00  0.00    -0.014 C  
ENDBRANCH  26  28
ENDBRANCH  25  26
ENDBRANCH   4  25
BRANCH   4  30
HETATM   30  C   UNL     1      -9.574   4.379  66.720  1.00  0.00    -0.199 C  
HETATM   31  C   UNL     1      -9.178   2.928  66.618  1.00  0.00    -0.114 C  
HETATM   32  O   UNL     1     -10.492   4.688  65.940  1.00  0.00    -0.287 OA 
HETATM   33 CL   UNL     1      -7.990   2.368  67.769  1.00  0.00    -0.059 Cl 
ENDBRANCH   4  30
TORSDOF 4
ENDMDL
MODEL       75
REMARK 921   NORMALIZED FREE ENERGY PREDICTED BY IDOCK:   -1.12 KCAL/MOL
REMARK 922        TOTAL FREE ENERGY PREDICTED BY IDOCK:   -0.53 KCAL/MOL
REMARK 923 INTER-LIGAND FREE ENERGY PREDICTED BY IDOCK:   -1.68 KCAL/MOL
REMARK 924 INTRA-LIGAND FREE ENERGY PREDICTED BY IDOCK:    1.15 KCAL/MOL
REMARK 927      BINDING AFFINITY PREDICTED BY RF-SCORE:    0.00 PKD
ROOT
HETATM    1  C   UNL     1      -9.262   9.347  67.633  1.00  0.00    -0.142 C  
HETATM    2  C   UNL     1     -10.673   9.304  67.718  1.00  0.00    -0.270 C  
HETATM    3  C   UNL     1      -9.913   8.955  68.953  1.00  0.00    -0.199 C  
HETATM    4  C   UNL     1      -7.898   9.442  68.873  1.00  0.00    -0.083 C  
HETATM    5  C   UNL     1     -11.214   9.062  70.045  1.00  0.00    -0.141 C  
HETATM    6  O   UNL     1      -8.259   2.304  64.521  1.00  0.00    -0.080 OA 
HETATM    7  C   UNL     1      -8.488   3.089  65.430  1.00  0.00    -0.100 C  
HETATM    8  C   UNL     1      -9.012   9.842  69.532  1.00  0.00    -0.215 C  
HETATM    9  C   UNL     1      -9.689   4.002  65.386  1.00  0.00    -0.196 C  
HETATM   10  C   UNL     1      -9.339   5.133  66.031  1.00  0.00    -0.165 C  
HETATM   11  C   UNL     1      -9.389  11.301  69.895  1.00  0.00     1.349 C  
HETATM   12  C   UNL     1     -10.171   4.286  68.300  1.00  0.00     0.223 C  
HETATM   13  C   UNL     1      -8.599   8.330  70.605  1.00  0.00    -0.139 C  
HETATM   14  C   UNL     1      -8.533   6.156  65.259  1.00  0.00    -0.121 C  
HETATM   15  C   UNL     1      -9.009   5.049  67.543  1.00  0.00    -0.113 C  
HETATM   16  C   UNL     1      -8.433   6.795  69.717  1.00  0.00    -0.133 C  
HETATM   17  C   UNL     1      -7.835   4.085  67.635  1.00  0.00    -0.090 C  
HETATM   18  O   UNL     1      -7.064   6.405  69.811  1.00  0.00    -0.068 OA 
HETATM   19  C   UNL     1      -7.629   3.157  66.669  1.00  0.00    -0.076 C  
HETATM   20  C   UNL     1      -9.039   6.533  68.124  1.00  0.00    -0.114 C  
HETATM   21  C   UNL     1      -8.609   7.762  67.178  1.00  0.00    -0.128 C  
HETATM   22  F   UNL     1     -10.448   6.637  68.149  1.00  0.00    -0.159 F  
HETATM   23  H   UNL     1      -6.975   5.586  69.338  1.00  0.00     0.000 HD 
HETATM   24  C   UNL     1      -8.943   7.546  65.698  1.00  0.00    -0.012 C  
ENDROOT
BRANCH   4  25
HETATM   25  O   UNL     1      -7.468  10.669  68.001  1.00  0.00    -0.088 OA 
BRANCH  25  26
HETATM   26  C   UNL     1      -6.434  10.614  67.122  1.00  0.00    -0.075 C  
HETATM   27  O   UNL     1      -5.917   9.600  66.674  1.00  0.00    -0.057 OA 
BRANCH  26  28
HETATM   28  C   UNL     1      -6.054  12.023  66.709  1.00  0.00     0.028 C  
HETATM   29  C   UNL     1      -6.534  13.060  67.714  1.00  0.00    -0.148 C  
ENDBRANCH  26  28
ENDBRANCH  25  26
ENDBRANCH   4  25
BRANCH   4  30
HETATM   30  C   UNL     1      -6.795  10.033  69.988  1.00  0.00    -0.126 C  
HETATM   31  C   UNL     1      -5.481   9.346  70.268  1.00  0.00    -0.031 C  
HETATM   32  O   UNL     1      -6.939  11.087  70.632  1.00  0.00     0.010 OA 
HETATM   33 CL   UNL     1      -5.129   7.931  69.310  1.00  0.00    -0.018 Cl 
ENDBRANCH   4  30
TORSDOF 4
ENDMDL
MODEL       76
REMARK 921   NORMALIZED FREE ENERGY PREDICTED BY IDOCK:   -0.95 KCAL/MOL
REMARK 922        TOTAL FREE ENERGY PREDICTED BY IDOCK:   -0.32 KCAL/MOL
REMARK 923 INTER-LIGAND FREE ENERGY PREDICTED BY IDOCK:   -4.30 KCAL/MOL
REMARK 924 INTRA-LIGAND FREE ENERGY PREDICTED BY IDOCK:    3.98 KCAL/MOL
REMARK 927      BINDING AFFINITY PREDICTED BY RF-SCORE:    0.00 PKD
ROOT
HETATM    1  C   UNL     1      -8.487  10.281  68.781  1.00  0.00    -0.130 C  
HETATM    2  C   UNL     1      -7.149  10.713  68.930  1.00  0.00    -0.078 C  
HETATM    3  C   UNL     1      -7.847  11.104  67.671  1.00  0.00    -0.115 C  
HETATM    4  C   UNL     1      -9.899  10.802  67.711  1.00  0.00    -0.166 C  
HETATM    5  C   UNL     1      -6.737  12.293  67.170  1.00  0.00    -0.105 C  
HETATM    6  O   UNL     1      -6.919   3.133  66.183  1.00  0.00    -0.055 OA 
HETATM    7  C   UNL     1      -7.026   4.348  66.083  1.00  0.00    -0.066 C  
HETATM    8  C   UNL     1      -9.027  11.839  67.688  1.00  0.00    -0.169 C  
HETATM    9  C   UNL     1      -6.185   5.274  66.927  1.00  0.00    -0.031 C  
HETATM   10  C   UNL     1      -6.930   6.375  67.153  1.00  0.00    -0.071 C  
HETATM   11  C   UNL     1      -9.172  13.176  68.460  1.00  0.00    -0.066 C  
HETATM   12  C   UNL     1      -6.044   7.593  65.081  1.00  0.00    -0.038 C  
HETATM   13  C   UNL     1      -9.009  11.437  65.832  1.00  0.00    -0.184 C  
HETATM   14  C   UNL     1      -7.963   6.306  68.257  1.00  0.00    -0.108 C  
HETATM   15  C   UNL     1      -7.329   7.257  65.942  1.00  0.00    -0.075 C  
HETATM   16  C   UNL     1      -8.602   9.751  65.427  1.00  0.00    -0.149 C  
HETATM   17  C   UNL     1      -8.132   6.337  65.034  1.00  0.00    -0.136 C  
HETATM   18  O   UNL     1      -9.774   9.162  64.866  1.00  0.00    -0.389 OA 
HETATM   19  C   UNL     1      -7.953   4.994  65.083  1.00  0.00    -0.103 C  
HETATM   20  C   UNL     1      -7.825   8.660  66.513  1.00  0.00    -0.099 C  
HETATM   21  C   UNL     1      -8.556   8.717  67.945  1.00  0.00    -0.130 C  
HETATM   22  F   UNL     1      -6.531   9.149  66.803  1.00  0.00    -0.062 F  
HETATM   23  H   UNL     1      -9.557   8.263  64.649  1.00  0.00     0.000 HD 
HETATM   24  C   UNL     1      -8.059   7.657  68.933  1.00  0.00    -0.127 C  
ENDROOT
BRANCH   4  25
HETATM   25  O   UNL     1     -10.635  10.909  69.088  1.00  0.00    -0.203 OA 
BRANCH  25  26
HETATM   26  C   UNL     1     -11.203   9.837  69.698  1.00  0.00    -0.178 C  
HETATM   27  O   UNL     1     -11.654   8.843  69.145  1.00  0.00     0.445 OA 
BRANCH  26  28
HETATM   28  C   UNL     1     -11.128  10.018  71.202  1.00  0.00    -0.270 C  
HETATM   29  C   UNL     1     -10.201   9.002  71.852  1.00  0.00    -0.342 C  
ENDBRANCH  26  28
ENDBRANCH  25  26
ENDBRANCH   4  25
BRANCH   4  30
HETATM   30  C   UNL     1     -11.215  11.646  67.107  1.00  0.00    -0.309 C  
HETATM   31  C   UNL     1     -11.968  12.664  67.926  1.00  0.00    -0.249 C  
HETATM   32  O   UNL     1     -11.646  11.541  65.945  1.00  0.00    -0.273 OA 
HETATM   33 CL   UNL     1     -11.349  12.979  69.527  1.00  0.00    -0.265 Cl 
ENDBRANCH   4  30
TORSDOF 4
ENDMDL
MODEL       77
REMARK 921   NORMALIZED FREE ENERGY PREDICTED BY IDOCK:   -0.65 KCAL/MOL
REMARK 922        TOTAL FREE ENERGY PREDICTED BY IDOCK:    0.05 KCAL/MOL
REMARK 923 INTER-LIGAND FREE ENERGY PREDICTED BY IDOCK:   -4.24 KCAL/MOL
REMARK 924 INTRA-LIGAND FREE ENERGY PREDICTED BY IDOCK:    4.29 KCAL/MOL
REMARK 927      BINDING AFFINITY PREDICTED BY RF-SCORE:    0.00 PKD
ROOT
HETATM    1  C   UNL     1      -9.238   9.592  67.179  1.00  0.00    -0.156 C  
HETATM    2  C   UNL     1     -10.645   9.670  67.057  1.00  0.00    -0.267 C  
HETATM    3  C   UNL     1     -10.077   9.843  68.426  1.00  0.00    -0.189 C  
HETATM    4  C   UNL     1      -8.023  10.134  68.459  1.00  0.00    -0.104 C  
HETATM    5  C   UNL     1     -11.473  10.483  69.159  1.00  0.00    -0.314 C  
HETATM    6  O   UNL     1      -8.713   1.851  67.488  1.00  0.00    -0.089 OA 
HETATM    7  C   UNL     1      -8.952   2.963  67.940  1.00  0.00    -0.155 C  
HETATM    8  C   UNL     1      -9.151  10.841  68.711  1.00  0.00    -0.180 C  
HETATM    9  C   UNL     1     -10.025   3.834  67.334  1.00  0.00     0.141 C  
HETATM   10  C   UNL     1      -9.621   5.111  67.493  1.00  0.00    -0.159 C  
HETATM   11  C   UNL     1      -9.394  12.333  68.369  1.00  0.00    -0.162 C  
HETATM   12  C   UNL     1     -10.800   5.371  69.752  1.00  0.00    -0.180 C  
HETATM   13  C   UNL     1      -9.043   9.916  70.367  1.00  0.00    -0.021 C  
HETATM   14  C   UNL     1      -8.619   5.656  66.498  1.00  0.00    -0.119 C  
HETATM   15  C   UNL     1      -9.478   5.667  68.933  1.00  0.00    -0.157 C  
HETATM   16  C   UNL     1      -8.956   8.142  70.239  1.00  0.00    -0.146 C  
HETATM   17  C   UNL     1      -8.443   4.772  69.598  1.00  0.00    -0.093 C  
HETATM   18  O   UNL     1      -7.661   7.753  70.696  1.00  0.00    -0.087 OA 
HETATM   19  C   UNL     1      -8.237   3.508  69.152  1.00  0.00    -0.075 C  
HETATM   20  C   UNL     1      -9.401   7.256  68.829  1.00  0.00    -0.143 C  
HETATM   21  C   UNL     1      -8.726   7.931  67.534  1.00  0.00    -0.125 C  
HETATM   22  F   UNL     1     -10.783   7.439  68.591  1.00  0.00    -0.206 F  
HETATM   23  H   UNL     1      -7.615   6.807  70.628  1.00  0.00     0.000 HD 
HETATM   24  C   UNL     1      -8.911   7.119  66.248  1.00  0.00    -0.181 C  
ENDROOT
BRANCH   4  25
HETATM   25  O   UNL     1      -7.356  10.840  67.232  1.00  0.00    -0.091 OA 
BRANCH  25  26
HETATM   26  C   UNL     1      -6.732  10.151  66.243  1.00  0.00    -0.102 C  
HETATM   27  O   UNL     1      -7.036  10.148  65.058  1.00  0.00    -0.131 OA 
BRANCH  26  28
HETATM   28  C   UNL     1      -5.529   9.428  66.818  1.00  0.00    -0.046 C  
HETATM   29  C   UNL     1      -5.301   8.081  66.148  1.00  0.00    -0.025 C  
ENDBRANCH  26  28
ENDBRANCH  25  26
ENDBRANCH   4  25
BRANCH   4  30
HETATM   30  C   UNL     1      -6.993  11.083  69.380  1.00  0.00    -0.126 C  
HETATM   31  C   UNL     1      -6.524  12.443  68.926  1.00  0.00    -0.090 C  
HETATM   32  O   UNL     1      -6.573  10.776  70.510  1.00  0.00    -0.310 OA 
HETATM   33 CL   UNL     1      -7.172  13.018  67.411  1.00  0.00    -0.148 Cl 
ENDBRANCH   4  30
TORSDOF 4
ENDMDL
MODEL       78
REMARK 921   NORMALIZED FREE ENERGY PREDICTED BY IDOCK:   -0.08 KCAL/MOL
REMARK 922        TOTAL FREE ENERGY PREDICTED BY IDOCK:    0.75 KCAL/MOL
REMARK 923 INTER-LIGAND FREE ENERGY PREDICTED BY IDOCK:   -3.45 KCAL/MOL
REMARK 924 INTRA-LIGAND FREE ENERGY PREDICTED BY IDOCK:    4.19 KCAL/MOL
REMARK 927      BINDING AFFINITY PREDICTED BY RF-SCORE:    0.00 PKD
ROOT
HETATM    1  C   UNL     1      -9.285   6.009  66.982  1.00  0.00    -0.124 C  
HETATM    2  C   UNL     1     -10.150   7.061  66.601  1.00  0.00    -0.219 C  
HETATM    3  C   UNL     1      -8.706   7.218  66.258  1.00  0.00    -0.162 C  
HETATM    4  C   UNL     1      -7.593   5.480  66.466  1.00  0.00    -0.088 C  
HETATM    5  C   UNL     1      -8.884   8.500  65.153  1.00  0.00    -0.116 C  
HETATM    6  O   UNL     1      -8.212   8.245  74.340  1.00  0.00    -0.254 OA 
HETATM    7  C   UNL     1      -8.037   8.299  73.131  1.00  0.00    -0.153 C  
HETATM    8  C   UNL     1      -8.037   6.287  65.473  1.00  0.00    -0.129 C  
HETATM    9  C   UNL     1      -9.183   8.588  72.191  1.00  0.00    -0.336 C  
HETATM   10  C   UNL     1      -8.920   7.926  71.046  1.00  0.00    -0.152 C  
HETATM   11  C   UNL     1      -8.557   5.832  64.085  1.00  0.00     0.097 C  
HETATM   12  C   UNL     1      -7.674   9.904  70.001  1.00  0.00    -0.188 C  
HETATM   13  C   UNL     1      -6.524   7.312  65.990  1.00  0.00    -0.045 C  
HETATM   14  C   UNL     1      -9.254   6.450  71.000  1.00  0.00    -0.157 C  
HETATM   15  C   UNL     1      -7.672   8.337  70.225  1.00  0.00    -0.084 C  
HETATM   16  C   UNL     1      -6.463   7.754  67.715  1.00  0.00    -0.052 C  
HETATM   17  C   UNL     1      -6.494   8.117  71.164  1.00  0.00    -0.039 C  
HETATM   18  O   UNL     1      -5.356   7.058  68.285  1.00  0.00    -0.018 OA 
HETATM   19  C   UNL     1      -6.672   8.140  72.508  1.00  0.00    -0.092 C  
HETATM   20  C   UNL     1      -7.827   7.709  68.768  1.00  0.00    -0.120 C  
HETATM   21  C   UNL     1      -8.598   6.308  68.590  1.00  0.00    -0.121 C  
HETATM   22  F   UNL     1      -8.781   8.650  68.321  1.00  0.00    -0.135 F  
HETATM   23  H   UNL     1      -5.323   7.294  69.205  1.00  0.00     0.000 HD 
HETATM   24  C   UNL     1      -9.722   6.089  69.607  1.00  0.00    -0.188 C  
ENDROOT
BRANCH   4  25
HETATM   25  O   UNL     1      -8.314   4.109  66.241  1.00  0.00    -0.104 OA 
BRANCH  25  26
HETATM   26  C   UNL     1      -8.550   3.233  67.251  1.00  0.00    -0.110 C  
HETATM   27  O   UNL     1      -9.537   2.521  67.377  1.00  0.00    -0.097 OA 
BRANCH  26  28
HETATM   28  C   UNL     1      -7.353   3.207  68.181  1.00  0.00    -0.050 C  
HETATM   29  C   UNL     1      -7.726   2.725  69.576  1.00  0.00    -0.046 C  
ENDBRANCH  26  28
ENDBRANCH  25  26
ENDBRANCH   4  25
BRANCH   4  30
HETATM   30  C   UNL     1      -6.331   4.792  65.605  1.00  0.00    -0.035 C  
HETATM   31  C   UNL     1      -6.551   3.730  64.557  1.00  0.00    -0.043 C  
HETATM   32  O   UNL     1      -5.137   5.121  65.720  1.00  0.00    -0.005 OA 
HETATM   33 CL   UNL     1      -8.210   3.300  64.228  1.00  0.00    -0.086 Cl 
ENDBRANCH   4  30
TORSDOF 4
ENDMDL
MODEL       79
REMARK 921   NORMALIZED FREE ENERGY PREDICTED BY IDOCK:   -0.08 KCAL/MOL
REMARK 922        TOTAL FREE ENERGY PREDICTED BY IDOCK:    0.75 KCAL/MOL
REMARK 923 INTER-LIGAND FREE ENERGY PREDICTED BY IDOCK:   -3.26 KCAL/MOL
REMARK 924 INTRA-LIGAND FREE ENERGY PREDICTED BY IDOCK:    4.01 KCAL/MOL
REMARK 927      BINDING AFFINITY PREDICTED BY RF-SCORE:    0.00 PKD
ROOT
HETATM    1  C   UNL     1      -8.250  11.378  68.687  1.00  0.00    -0.142 C  
HETATM    2  C   UNL     1      -8.050  10.501  69.778  1.00  0.00     0.017 C  
HETATM    3  C   UNL     1      -6.843  11.194  69.240  1.00  0.00    -0.110 C  
HETATM    4  C   UNL     1      -7.271  12.755  67.942  1.00  0.00    -0.120 C  
HETATM    5  C   UNL     1      -5.803  10.863  70.546  1.00  0.00    -0.130 C  
HETATM    6  O   UNL     1      -8.177   6.001  63.086  1.00  0.00    -0.111 OA 
HETATM    7  C   UNL     1      -7.668   6.736  63.920  1.00  0.00    -0.112 C  
HETATM    8  C   UNL     1      -6.760  12.580  69.185  1.00  0.00    -0.089 C  
HETATM    9  C   UNL     1      -8.002   6.600  65.386  1.00  0.00    -0.121 C  
HETATM   10  C   UNL     1      -7.921   7.836  65.918  1.00  0.00    -0.107 C  
HETATM   11  C   UNL     1      -7.017  13.485  70.418  1.00  0.00     0.921 C  
HETATM   12  C   UNL     1      -5.450   7.579  66.542  1.00  0.00    -0.024 C  
HETATM   13  C   UNL     1      -5.185  12.197  68.196  1.00  0.00    -0.058 C  
HETATM   14  C   UNL     1      -9.109   8.755  65.733  1.00  0.00    -0.267 C  
HETATM   15  C   UNL     1      -6.543   8.546  65.930  1.00  0.00    -0.053 C  
HETATM   16  C   UNL     1      -5.355  10.914  66.971  1.00  0.00    -0.052 C  
HETATM   17  C   UNL     1      -6.142   8.649  64.465  1.00  0.00    -0.066 C  
HETATM   18  O   UNL     1      -5.208  11.534  65.695  1.00  0.00    -0.479 OA 
HETATM   19  C   UNL     1      -6.641   7.779  63.552  1.00  0.00    -0.062 C  
HETATM   20  C   UNL     1      -6.640   9.765  66.953  1.00  0.00    -0.067 C  
HETATM   21  C   UNL     1      -8.044  10.526  67.145  1.00  0.00    -0.120 C  
HETATM   22  F   UNL     1      -6.555   8.966  68.116  1.00  0.00    -0.057 F  
HETATM   23  H   UNL     1      -5.298  10.849  65.042  1.00  0.00     0.000 HD 
HETATM   24  C   UNL     1      -9.266   9.619  66.966  1.00  0.00    -0.167 C  
ENDROOT
BRANCH   4  25
HETATM   25  O   UNL     1      -8.608  13.543  68.150  1.00  0.00    -0.161 OA 
BRANCH  25  26
HETATM   26  C   UNL     1      -9.636  13.483  67.265  1.00  0.00    -0.235 C  
HETATM   27  O   UNL     1      -9.541  13.386  66.049  1.00  0.00    -0.249 OA 
BRANCH  26  28
HETATM   28  C   UNL     1     -10.949  13.477  68.023  1.00  0.00    -0.271 C  
HETATM   29  C   UNL     1     -11.690  12.156  67.868  1.00  0.00    -0.403 C  
ENDBRANCH  26  28
ENDBRANCH  25  26
ENDBRANCH   4  25
BRANCH   4  30
HETATM   30  C   UNL     1      -6.595  14.263  67.668  1.00  0.00    -0.153 C  
HETATM   31  C   UNL     1      -7.165  15.527  68.263  1.00  0.00    -0.116 C  
HETATM   32  O   UNL     1      -5.562  14.463  67.003  1.00  0.00     0.138 OA 
HETATM   33 CL   UNL     1      -8.536  15.330  69.324  1.00  0.00    -0.234 Cl 
ENDBRANCH   4  30
TORSDOF 4
ENDMDL
MODEL       80
REMARK 921   NORMALIZED FREE ENERGY PREDICTED BY IDOCK:   -0.03 KCAL/MOL
REMARK 922        TOTAL FREE ENERGY PREDICTED BY IDOCK:    0.81 KCAL/MOL
REMARK 923 INTER-LIGAND FREE ENERGY PREDICTED BY IDOCK:   -3.58 KCAL/MOL
REMARK 924 INTRA-LIGAND FREE ENERGY PREDICTED BY IDOCK:    4.39 KCAL/MOL
REMARK 927      BINDING AFFINITY PREDICTED BY RF-SCORE:    0.00 PKD
ROOT
HETATM    1  C   UNL     1      -8.883  15.343  66.456  1.00  0.00    -0.347 C  
HETATM    2  C   UNL     1      -9.461  15.082  65.192  1.00  0.00     0.387 C  
HETATM    3  C   UNL     1     -10.288  15.853  66.164  1.00  0.00    -0.341 C  
HETATM    4  C   UNL     1      -9.233  16.549  67.809  1.00  0.00    -0.202 C  
HETATM    5  C   UNL     1     -11.453  16.415  65.058  1.00  0.00     0.118 C  
HETATM    6  O   UNL     1     -10.616   8.527  69.747  1.00  0.00    -0.222 OA 
HETATM    7  C   UNL     1     -10.864   9.652  69.338  1.00  0.00    -0.217 C  
HETATM    8  C   UNL     1      -9.845  17.052  66.710  1.00  0.00    -0.283 C  
HETATM    9  C   UNL     1     -10.694  10.005  67.880  1.00  0.00    -0.322 C  
HETATM   10  C   UNL     1     -10.340  11.306  67.836  1.00  0.00    -0.205 C  
HETATM   11  C   UNL     1      -9.345  18.235  65.842  1.00  0.00     0.160 C  
HETATM   12  C   UNL     1     -12.762  12.122  67.664  1.00  0.00     2.230 C  
HETATM   13  C   UNL     1     -11.388  16.836  67.798  1.00  0.00     0.109 C  
HETATM   14  C   UNL     1      -8.886  11.644  68.087  1.00  0.00    -0.164 C  
HETATM   15  C   UNL     1     -11.353  12.364  68.344  1.00  0.00    -0.330 C  
HETATM   16  C   UNL     1     -11.635  15.194  68.443  1.00  0.00    -0.337 C  
HETATM   17  C   UNL     1     -11.598  12.003  69.802  1.00  0.00    -0.348 C  
HETATM   18  O   UNL     1     -11.463  15.272  69.858  1.00  0.00    -0.260 OA 
HETATM   19  C   UNL     1     -11.404  10.735  70.240  1.00  0.00    -0.374 C  
HETATM   20  C   UNL     1     -10.871  13.785  67.808  1.00  0.00    -0.250 C  
HETATM   21  C   UNL     1      -9.299  14.067  67.616  1.00  0.00    -0.203 C  
HETATM   22  F   UNL     1     -11.316  13.583  66.482  1.00  0.00    -0.295 F  
HETATM   23  H   UNL     1     -11.595  14.397  70.202  1.00  0.00     0.000 HD 
HETATM   24  C   UNL     1      -8.494  12.823  67.224  1.00  0.00    -0.194 C  
ENDROOT
BRANCH   4  25
HETATM   25  O   UNL     1      -7.714  16.881  67.626  1.00  0.00    -0.160 OA 
BRANCH  25  26
HETATM   26  C   UNL     1      -6.729  16.102  68.142  1.00  0.00    -0.126 C  
HETATM   27  O   UNL     1      -5.784  15.627  67.527  1.00  0.00    -0.237 OA 
BRANCH  26  28
HETATM   28  C   UNL     1      -6.930  15.965  69.639  1.00  0.00    -0.147 C  
HETATM   29  C   UNL     1      -5.608  15.872  70.385  1.00  0.00    -0.138 C  
ENDBRANCH  26  28
ENDBRANCH  25  26
ENDBRANCH   4  25
BRANCH   4  30
HETATM   30  C   UNL     1      -9.281  17.957  68.717  1.00  0.00    -0.221 C  
HETATM   31  C   UNL     1      -8.290  19.077  68.526  1.00  0.00    -0.352 C  
HETATM   32  O   UNL     1     -10.145  18.213  69.574  1.00  0.00    -0.094 OA 
HETATM   33 CL   UNL     1      -7.121  18.866  67.247  1.00  0.00    -0.213 Cl 
ENDBRANCH   4  30
TORSDOF 4
ENDMDL
MODEL       81
REMARK 921   NORMALIZED FREE ENERGY PREDICTED BY IDOCK:    0.34 KCAL/MOL
REMARK 922        TOTAL FREE ENERGY PREDICTED BY IDOCK:    1.27 KCAL/MOL
REMARK 923 INTER-LIGAND FREE ENERGY PREDICTED BY IDOCK:   -2.19 KCAL/MOL
REMARK 924 INTRA-LIGAND FREE ENERGY PREDICTED BY IDOCK:    3.47 KCAL/MOL
REMARK 927      BINDING AFFINITY PREDICTED BY RF-SCORE:    0.00 PKD
ROOT
HETATM    1  C   UNL     1      -8.276  16.978  66.770  1.00  0.00    -0.273 C  
HETATM    2  C   UNL     1      -9.163  16.923  65.670  1.00  0.00     0.244 C  
HETATM    3  C   UNL     1      -9.312  18.081  66.599  1.00  0.00    -0.297 C  
HETATM    4  C   UNL     1      -7.732  18.315  67.922  1.00  0.00    -0.243 C  
HETATM    5  C   UNL     1     -10.291  19.041  65.590  1.00  0.00    -0.156 C  
HETATM    6  O   UNL     1     -12.215  12.190  71.444  1.00  0.00    -0.087 OA 
HETATM    7  C   UNL     1     -11.996  13.253  70.880  1.00  0.00    -0.000 C  
HETATM    8  C   UNL     1      -8.261  18.955  66.851  1.00  0.00    -0.276 C  
HETATM    9  C   UNL     1     -11.997  13.349  69.374  1.00  0.00    -0.369 C  
HETATM   10  C   UNL     1     -11.102  14.303  69.047  1.00  0.00    -0.284 C  
HETATM   11  C   UNL     1      -7.468  19.662  65.722  1.00  0.00    -0.304 C  
HETATM   12  C   UNL     1     -12.846  16.177  69.084  1.00  0.00     1.572 C  
HETATM   13  C   UNL     1      -9.457  19.614  68.171  1.00  0.00    -0.449 C  
HETATM   14  C   UNL     1      -9.640  13.909  69.021  1.00  0.00     0.128 C  
HETATM   15  C   UNL     1     -11.376  15.760  69.498  1.00  0.00    -0.328 C  
HETATM   16  C   UNL     1     -10.290  18.365  69.129  1.00  0.00     0.067 C  
HETATM   17  C   UNL     1     -11.443  15.693  71.017  1.00  0.00    -0.439 C  
HETATM   18  O   UNL     1      -9.806  18.473  70.467  1.00  0.00     1.423 OA 
HETATM   19  C   UNL     1     -11.770  14.535  71.642  1.00  0.00    -0.146 C  
HETATM   20  C   UNL     1     -10.419  16.713  68.652  1.00  0.00    -0.323 C  
HETATM   21  C   UNL     1      -8.976  16.174  68.187  1.00  0.00    -0.185 C  
HETATM   22  F   UNL     1     -11.178  16.639  67.462  1.00  0.00    -0.256 F  
HETATM   23  H   UNL     1     -10.250  17.806  70.977  1.00  0.00     0.000 HD 
HETATM   24  C   UNL     1      -8.941  14.667  67.913  1.00  0.00    -0.174 C  
ENDROOT
BRANCH   4  25
HETATM   25  O   UNL     1      -6.310  17.847  67.465  1.00  0.00    -0.163 OA 
BRANCH  25  26
HETATM   26  C   UNL     1      -5.935  16.542  67.467  1.00  0.00    -0.149 C  
HETATM   27  O   UNL     1      -5.961  15.778  66.511  1.00  0.00     0.261 OA 
BRANCH  26  28
HETATM   28  C   UNL     1      -5.394  16.179  68.837  1.00  0.00    -0.111 C  
HETATM   29  C   UNL     1      -5.244  14.674  69.009  1.00  0.00    -0.090 C  
ENDBRANCH  26  28
ENDBRANCH  25  26
ENDBRANCH   4  25
BRANCH   4  30
HETATM   30  C   UNL     1      -6.930  19.641  68.560  1.00  0.00    -0.310 C  
HETATM   31  C   UNL     1      -6.136  19.568  69.841  1.00  0.00    -0.294 C  
HETATM   32  O   UNL     1      -6.884  20.762  68.024  1.00  0.00    -0.294 OA 
HETATM   33 CL   UNL     1      -6.030  17.997  70.595  1.00  0.00     0.111 Cl 
ENDBRANCH   4  30
TORSDOF 4
ENDMDL
MODEL       82
REMARK 921   NORMALIZED FREE ENERGY PREDICTED BY IDOCK:    0.92 KCAL/MOL
REMARK 922        TOTAL FREE ENERGY PREDICTED BY IDOCK:    1.98 KCAL/MOL
REMARK 923 INTER-LIGAND FREE ENERGY PREDICTED BY IDOCK:   -3.21 KCAL/MOL
REMARK 924 INTRA-LIGAND FREE ENERGY PREDICTED BY IDOCK:    5.19 KCAL/MOL
REMARK 927      BINDING AFFINITY PREDICTED BY RF-SCORE:    0.00 PKD
ROOT
HETATM    1  C   UNL     1      -9.363  12.491  68.826  1.00  0.00     0.121 C  
HETATM    2  C   UNL     1      -7.973  12.734  68.924  1.00  0.00     0.182 C  
HETATM    3  C   UNL     1      -8.586  12.864  67.570  1.00  0.00    -0.188 C  
HETATM    4  C   UNL     1     -10.660  12.907  67.579  1.00  0.00    -0.226 C  
HETATM    5  C   UNL     1      -7.292  13.681  66.825  1.00  0.00     0.955 C  
HETATM    6  O   UNL     1      -8.965   4.750  68.361  1.00  0.00    -0.105 OA 
HETATM    7  C   UNL     1      -8.870   5.890  67.929  1.00  0.00    -0.105 C  
HETATM    8  C   UNL     1      -9.630  13.749  67.322  1.00  0.00    -0.237 C  
HETATM    9  C   UNL     1      -7.897   6.873  68.533  1.00  0.00    -0.118 C  
HETATM   10  C   UNL     1      -8.453   8.095  68.409  1.00  0.00    -0.126 C  
HETATM   11  C   UNL     1      -9.560  15.253  67.692  1.00  0.00    -0.206 C  
HETATM   12  C   UNL     1      -7.360   8.537  66.135  1.00  0.00    -0.081 C  
HETATM   13  C   UNL     1      -9.661  12.850  65.649  1.00  0.00    -0.116 C  
HETATM   14  C   UNL     1      -9.493   8.496  69.433  1.00  0.00    -0.161 C  
HETATM   15  C   UNL     1      -8.691   8.657  66.984  1.00  0.00    -0.135 C  
HETATM   16  C   UNL     1      -9.532  11.075  65.741  1.00  0.00    -0.210 C  
HETATM   17  C   UNL     1      -9.625   7.656  66.319  1.00  0.00    -0.155 C  
HETATM   18  O   UNL     1     -10.780  10.543  65.299  1.00  0.00    -0.146 OA 
HETATM   19  C   UNL     1      -9.669   6.369  66.742  1.00  0.00    -0.199 C  
HETATM   20  C   UNL     1      -8.955  10.223  67.124  1.00  0.00    -0.135 C  
HETATM   21  C   UNL     1      -9.680  10.787  68.445  1.00  0.00    -0.179 C  
HETATM   22  F   UNL     1      -7.601  10.566  67.340  1.00  0.00    -0.091 F  
HETATM   23  H   UNL     1     -10.711   9.597  65.348  1.00  0.00     0.000 HD 
HETATM   24  C   UNL     1      -9.372   9.979  69.709  1.00  0.00    -0.233 C  
ENDROOT
BRANCH   4  25
HETATM   25  O   UNL     1     -11.381  13.505  68.834  1.00  0.00    -0.255 OA 
BRANCH  25  26
HETATM   26  C   UNL     1     -11.822  12.733  69.860  1.00  0.00    -0.301 C  
HETATM   27  O   UNL     1     -11.812  13.030  71.047  1.00  0.00     0.023 OA 
BRANCH  26  28
HETATM   28  C   UNL     1     -12.413  11.451  69.304  1.00  0.00     0.025 C  
HETATM   29  C   UNL     1     -12.756  10.459  70.406  1.00  0.00    -0.289 C  
ENDBRANCH  26  28
ENDBRANCH  25  26
ENDBRANCH   4  25
BRANCH   4  30
HETATM   30  C   UNL     1     -11.815  13.743  66.698  1.00  0.00    -0.412 C  
HETATM   31  C   UNL     1     -12.520  14.962  67.240  1.00  0.00     0.595 C  
HETATM   32  O   UNL     1     -12.149  13.466  65.533  1.00  0.00    -0.377 OA 
HETATM   33 CL   UNL     1     -12.016  15.509  68.819  1.00  0.00    -0.323 Cl 
ENDBRANCH   4  30
TORSDOF 4
ENDMDL
MODEL       83
REMARK 921   NORMALIZED FREE ENERGY PREDICTED BY IDOCK:    1.52 KCAL/MOL
REMARK 922        TOTAL FREE ENERGY PREDICTED BY IDOCK:    2.72 KCAL/MOL
REMARK 923 INTER-LIGAND FREE ENERGY PREDICTED BY IDOCK:   -2.78 KCAL/MOL
REMARK 924 INTRA-LIGAND FREE ENERGY PREDICTED BY IDOCK:    5.50 KCAL/MOL
REMARK 927      BINDING AFFINITY PREDICTED BY RF-SCORE:    0.00 PKD
ROOT
HETATM    1  C   UNL     1      -9.956   7.495  68.402  1.00  0.00    -0.185 C  
HETATM    2  C   UNL     1     -11.328   7.392  68.728  1.00  0.00     0.371 C  
HETATM    3  C   UNL     1     -10.555   8.474  69.404  1.00  0.00    -0.203 C  
HETATM    4  C   UNL     1      -8.686   8.825  68.574  1.00  0.00    -0.135 C  
HETATM    5  C   UNL     1     -11.887   9.361  69.983  1.00  0.00     0.107 C  
HETATM    6  O   UNL     1      -7.382   2.030  73.281  1.00  0.00    -0.031 OA 
HETATM    7  C   UNL     1      -7.803   3.140  72.986  1.00  0.00    -0.060 C  
HETATM    8  C   UNL     1      -9.883   9.452  68.682  1.00  0.00    -0.174 C  
HETATM    9  C   UNL     1      -9.167   3.314  72.364  1.00  0.00    -0.150 C  
HETATM   10  C   UNL     1      -9.087   4.384  71.547  1.00  0.00    -0.177 C  
HETATM   11  C   UNL     1     -10.571  10.308  67.587  1.00  0.00    -0.312 C  
HETATM   12  C   UNL     1      -9.800   6.032  73.374  1.00  0.00    -0.166 C  
HETATM   13  C   UNL     1      -9.198   9.893  70.397  1.00  0.00    -0.040 C  
HETATM   14  C   UNL     1      -8.488   4.171  70.173  1.00  0.00    -0.091 C  
HETATM   15  C   UNL     1      -8.799   5.772  72.175  1.00  0.00    -0.137 C  
HETATM   16  C   UNL     1      -8.681   8.504  71.386  1.00  0.00    -0.185 C  
HETATM   17  C   UNL     1      -7.452   5.618  72.867  1.00  0.00    -0.096 C  
HETATM   18  O   UNL     1      -7.264   8.599  71.529  1.00  0.00    -0.088 OA 
HETATM   19  C   UNL     1      -7.021   4.398  73.271  1.00  0.00    -0.064 C  
HETATM   20  C   UNL     1      -9.161   6.877  71.084  1.00  0.00    -0.154 C  
HETATM   21  C   UNL     1      -8.968   6.539  69.523  1.00  0.00    -0.137 C  
HETATM   22  F   UNL     1     -10.561   6.775  71.254  1.00  0.00    -0.226 F  
HETATM   23  H   UNL     1      -6.989   7.858  72.056  1.00  0.00     0.000 HD 
HETATM   24  C   UNL     1      -9.197   5.064  69.178  1.00  0.00    -0.154 C  
ENDROOT
BRANCH   4  25
HETATM   25  O   UNL     1      -8.495   8.555  67.044  1.00  0.00    -0.112 OA 
BRANCH  25  26
HETATM   26  C   UNL     1      -9.195   7.603  66.377  1.00  0.00    -0.175 C  
HETATM   27  O   UNL     1     -10.314   7.728  65.898  1.00  0.00     0.597 OA 
BRANCH  26  28
HETATM   28  C   UNL     1      -8.342   6.356  66.242  1.00  0.00    -0.123 C  
HETATM   29  C   UNL     1      -9.119   5.199  65.632  1.00  0.00    -0.161 C  
ENDBRANCH  26  28
ENDBRANCH  25  26
ENDBRANCH   4  25
BRANCH   4  30
HETATM   30  C   UNL     1      -7.772  10.202  68.298  1.00  0.00    -0.088 C  
HETATM   31  C   UNL     1      -6.283  10.152  68.066  1.00  0.00    -0.056 C  
HETATM   32  O   UNL     1      -8.238  11.353  68.217  1.00  0.00    -0.134 OA 
HETATM   33 CL   UNL     1      -5.561   8.563  68.025  1.00  0.00    -0.035 Cl 
ENDBRANCH   4  30
TORSDOF 4
ENDMDL
MODEL       84
REMARK 921   NORMALIZED FREE ENERGY PREDICTED BY IDOCK:    2.30 KCAL/MOL
REMARK 922        TOTAL FREE ENERGY PREDICTED BY IDOCK:    3.69 KCAL/MOL
REMARK 923 INTER-LIGAND FREE ENERGY PREDICTED BY IDOCK:   -4.42 KCAL/MOL
REMARK 924 INTRA-LIGAND FREE ENERGY PREDICTED BY IDOCK:    8.11 KCAL/MOL
REMARK 927      BINDING AFFINITY PREDICTED BY RF-SCORE:    0.00 PKD
ROOT
HETATM    1  C   UNL     1      -9.667   5.004  70.594  1.00  0.00    -0.266 C  
HETATM    2  C   UNL     1      -9.350   3.635  70.436  1.00  0.00    -0.238 C  
HETATM    3  C   UNL     1      -8.279   4.515  70.987  1.00  0.00    -0.090 C  
HETATM    4  C   UNL     1      -8.944   6.390  71.577  1.00  0.00    -0.144 C  
HETATM    5  C   UNL     1      -7.258   3.280  71.559  1.00  0.00    -0.036 C  
HETATM    6  O   UNL     1      -8.270   7.184  63.274  1.00  0.00    -0.052 OA 
HETATM    7  C   UNL     1      -7.955   6.857  64.410  1.00  0.00    -0.093 C  
HETATM    8  C   UNL     1      -8.469   5.256  72.147  1.00  0.00    -0.126 C  
HETATM    9  C   UNL     1      -8.325   5.501  64.960  1.00  0.00    -0.146 C  
HETATM   10  C   UNL     1      -8.515   5.659  66.285  1.00  0.00    -0.124 C  
HETATM   11  C   UNL     1      -8.957   4.624  73.476  1.00  0.00    -0.104 C  
HETATM   12  C   UNL     1      -6.075   5.134  66.858  1.00  0.00    -0.031 C  
HETATM   13  C   UNL     1      -6.803   6.013  71.636  1.00  0.00    -0.068 C  
HETATM   14  C   UNL     1      -9.851   6.208  66.739  1.00  0.00    -0.203 C  
HETATM   15  C   UNL     1      -7.306   6.082  67.159  1.00  0.00    -0.076 C  
HETATM   16  C   UNL     1      -6.659   6.426  69.909  1.00  0.00    -0.048 C  
HETATM   17  C   UNL     1      -6.864   7.424  66.593  1.00  0.00    -0.062 C  
HETATM   18  O   UNL     1      -6.576   7.848  69.826  1.00  0.00    -0.034 OA 
HETATM   19  C   UNL     1      -7.138   7.754  65.307  1.00  0.00    -0.060 C  
HETATM   20  C   UNL     1      -7.690   5.796  68.679  1.00  0.00    -0.090 C  
HETATM   21  C   UNL     1      -9.224   5.927  69.146  1.00  0.00    -0.131 C  
HETATM   22  F   UNL     1      -7.505   4.397  68.600  1.00  0.00    -0.058 F  
HETATM   23  H   UNL     1      -6.498   8.068  68.904  1.00  0.00     0.000 HD 
HETATM   24  C   UNL     1     -10.233   5.561  68.053  1.00  0.00    -0.233 C  
ENDROOT
BRANCH   4  25
HETATM   25  O   UNL     1     -10.418   6.525  72.086  1.00  0.00    -0.201 OA 
BRANCH  25  26
HETATM   26  C   UNL     1     -11.193   7.602  71.802  1.00  0.00    -0.247 C  
HETATM   27  O   UNL     1     -11.840   8.261  72.605  1.00  0.00    -0.401 OA 
BRANCH  26  28
HETATM   28  C   UNL     1     -11.081   7.925  70.325  1.00  0.00    -0.232 C  
HETATM   29  C   UNL     1     -10.513   9.316  70.088  1.00  0.00    -0.265 C  
ENDBRANCH  26  28
ENDBRANCH  25  26
ENDBRANCH   4  25
BRANCH   4  30
HETATM   30  C   UNL     1      -8.565   7.416  72.846  1.00  0.00    -0.126 C  
HETATM   31  C   UNL     1      -7.501   7.087  73.863  1.00  0.00    -0.090 C  
HETATM   32  O   UNL     1      -9.084   8.532  73.030  1.00  0.00    -0.270 OA 
HETATM   33 CL   UNL     1      -6.621   5.602  73.608  1.00  0.00    -0.076 Cl 
ENDBRANCH   4  30
TORSDOF 4
ENDMDL
MODEL       85
REMARK 921   NORMALIZED FREE ENERGY PREDICTED BY IDOCK:    2.98 KCAL/MOL
REMARK 922        TOTAL FREE ENERGY PREDICTED BY IDOCK:    4.52 KCAL/MOL
REMARK 923 INTER-LIGAND FREE ENERGY PREDICTED BY IDOCK:   -2.92 KCAL/MOL
REMARK 924 INTRA-LIGAND FREE ENERGY PREDICTED BY IDOCK:    7.45 KCAL/MOL
REMARK 927      BINDING AFFINITY PREDICTED BY RF-SCORE:    0.00 PKD
ROOT
HETATM    1  C   UNL     1      -8.780   8.773  70.220  1.00  0.00    -0.170 C  
HETATM    2  C   UNL     1      -8.722   9.310  71.527  1.00  0.00     0.161 C  
HETATM    3  C   UNL     1      -7.432   8.863  70.924  1.00  0.00    -0.110 C  
HETATM    4  C   UNL     1      -7.536   8.488  68.886  1.00  0.00    -0.091 C  
HETATM    5  C   UNL     1      -6.397   9.633  72.033  1.00  0.00     0.389 C  
HETATM    6  O   UNL     1     -10.828   1.556  72.221  1.00  0.00    -0.132 OA 
HETATM    7  C   UNL     1     -10.046   2.486  72.085  1.00  0.00    -0.143 C  
HETATM    8  C   UNL     1      -6.967   9.388  69.724  1.00  0.00    -0.065 C  
HETATM    9  C   UNL     1     -10.247   3.787  72.823  1.00  0.00    -0.236 C  
HETATM   10  C   UNL     1      -9.763   4.762  72.028  1.00  0.00    -0.217 C  
HETATM   11  C   UNL     1      -6.824  10.912  69.474  1.00  0.00    -0.125 C  
HETATM   12  C   UNL     1      -7.416   4.645  73.044  1.00  0.00    -0.086 C  
HETATM   13  C   UNL     1      -5.679   8.004  69.908  1.00  0.00    -0.023 C  
HETATM   14  C   UNL     1     -10.655   5.259  70.910  1.00  0.00    -0.247 C  
HETATM   15  C   UNL     1      -8.248   4.766  71.703  1.00  0.00    -0.109 C  
HETATM   16  C   UNL     1      -6.334   6.422  70.400  1.00  0.00    -0.036 C  
HETATM   17  C   UNL     1      -7.992   3.437  71.008  1.00  0.00    -0.058 C  
HETATM   18  O   UNL     1      -6.154   5.535  69.297  1.00  0.00    -0.022 OA 
HETATM   19  C   UNL     1      -8.811   2.378  71.224  1.00  0.00    -0.125 C  
HETATM   20  C   UNL     1      -7.886   6.204  71.118  1.00  0.00    -0.111 C  
HETATM   21  C   UNL     1      -8.989   7.013  70.270  1.00  0.00    -0.149 C  
HETATM   22  F   UNL     1      -7.909   6.864  72.368  1.00  0.00    -0.094 F  
HETATM   23  H   UNL     1      -6.503   4.691  69.560  1.00  0.00     0.000 HD 
HETATM   24  C   UNL     1     -10.429   6.743  70.716  1.00  0.00    -0.242 C  
ENDROOT
BRANCH   4  25
HETATM   25  O   UNL     1      -8.565   9.306  68.035  1.00  0.00    -0.120 OA 
BRANCH  25  26
HETATM   26  C   UNL     1      -8.663  10.658  68.110  1.00  0.00    -0.130 C  
HETATM   27  O   UNL     1      -8.453  11.346  69.099  1.00  0.00    -0.008 OA 
BRANCH  26  28
HETATM   28  C   UNL     1      -9.005  11.211  66.740  1.00  0.00    -0.169 C  
HETATM   29  C   UNL     1      -9.256  10.105  65.726  1.00  0.00    -0.221 C  
ENDBRANCH  26  28
ENDBRANCH  25  26
ENDBRANCH   4  25
BRANCH   4  30
HETATM   30  C   UNL     1      -6.493   8.739  67.599  1.00  0.00    -0.061 C  
HETATM   31  C   UNL     1      -6.446   7.820  66.404  1.00  0.00    -0.047 C  
HETATM   32  O   UNL     1      -5.717   9.706  67.498  1.00  0.00    -0.040 OA 
HETATM   33 CL   UNL     1      -7.598   6.508  66.393  1.00  0.00    -0.089 Cl 
ENDBRANCH   4  30
TORSDOF 4
ENDMDL
MODEL       86
REMARK 921   NORMALIZED FREE ENERGY PREDICTED BY IDOCK:    3.75 KCAL/MOL
REMARK 922        TOTAL FREE ENERGY PREDICTED BY IDOCK:    5.48 KCAL/MOL
REMARK 923 INTER-LIGAND FREE ENERGY PREDICTED BY IDOCK:    1.35 KCAL/MOL
REMARK 924 INTRA-LIGAND FREE ENERGY PREDICTED BY IDOCK:    4.13 KCAL/MOL
REMARK 927      BINDING AFFINITY PREDICTED BY RF-SCORE:    0.00 PKD
ROOT
HETATM    1  C   UNL     1      -8.689  15.053  68.626  1.00  0.00    -0.176 C  
HETATM    2  C   UNL     1      -7.495  15.781  68.419  1.00  0.00    -0.121 C  
HETATM    3  C   UNL     1      -8.258  15.377  67.202  1.00  0.00    -0.250 C  
HETATM    4  C   UNL     1     -10.178  14.696  67.594  1.00  0.00    -0.232 C  
HETATM    5  C   UNL     1      -7.463  16.401  66.099  1.00  0.00     0.209 C  
HETATM    6  O   UNL     1      -5.435   8.047  69.418  1.00  0.00    -0.026 OA 
HETATM    7  C   UNL     1      -5.830   9.019  68.788  1.00  0.00    -0.041 C  
HETATM    8  C   UNL     1      -9.580  15.761  67.009  1.00  0.00    -0.236 C  
HETATM    9  C   UNL     1      -5.241  10.389  69.022  1.00  0.00    -0.038 C  
HETATM   10  C   UNL     1      -6.230  11.278  68.799  1.00  0.00    -0.045 C  
HETATM   11  C   UNL     1     -10.046  17.238  67.097  1.00  0.00    -0.297 C  
HETATM   12  C   UNL     1      -5.649  11.543  66.319  1.00  0.00    -0.003 C  
HETATM   13  C   UNL     1      -9.455  14.553  65.549  1.00  0.00     0.042 C  
HETATM   14  C   UNL     1      -7.223  11.513  69.918  1.00  0.00     0.440 C  
HETATM   15  C   UNL     1      -6.822  11.382  67.370  1.00  0.00    -0.101 C  
HETATM   16  C   UNL     1      -8.652  13.005  65.915  1.00  0.00     1.021 C  
HETATM   17  C   UNL     1      -7.374   9.995  67.073  1.00  0.00    -0.091 C  
HETATM   18  O   UNL     1      -9.645  11.986  65.813  1.00  0.00    -0.241 OA 
HETATM   19  C   UNL     1      -6.878   8.905  67.709  1.00  0.00    -0.070 C  
HETATM   20  C   UNL     1      -7.644  12.745  67.289  1.00  0.00    -0.112 C  
HETATM   21  C   UNL     1      -8.375  13.307  68.607  1.00  0.00     0.004 C  
HETATM   22  F   UNL     1      -6.506  13.578  67.185  1.00  0.00    -0.156 F  
HETATM   23  H   UNL     1      -9.217  11.160  66.008  1.00  0.00     0.000 HD 
HETATM   24  C   UNL     1      -7.645  12.967  69.910  1.00  0.00     1.474 C  
ENDROOT
BRANCH   4  25
HETATM   25  O   UNL     1     -10.927  15.273  68.842  1.00  0.00    -0.239 OA 
BRANCH  25  26
HETATM   26  C   UNL     1     -10.930  14.647  70.046  1.00  0.00    -0.112 C  
HETATM   27  O   UNL     1      -9.949  14.379  70.726  1.00  0.00     1.367 OA 
BRANCH  26  28
HETATM   28  C   UNL     1     -12.362  14.390  70.473  1.00  0.00    -0.413 C  
HETATM   29  C   UNL     1     -12.463  14.053  71.953  1.00  0.00    -0.293 C  
ENDBRANCH  26  28
ENDBRANCH  25  26
ENDBRANCH   4  25
BRANCH   4  30
HETATM   30  C   UNL     1     -11.654  14.853  66.817  1.00  0.00    -0.269 C  
HETATM   31  C   UNL     1     -12.484  13.663  66.406  1.00  0.00    -0.324 C  
HETATM   32  O   UNL     1     -12.202  15.940  66.558  1.00  0.00     1.042 OA 
HETATM   33 CL   UNL     1     -11.859  12.095  66.851  1.00  0.00    -0.365 Cl 
ENDBRANCH   4  30
TORSDOF 4
ENDMDL
MODEL       87
REMARK 921   NORMALIZED FREE ENERGY PREDICTED BY IDOCK:    3.96 KCAL/MOL
REMARK 922        TOTAL FREE ENERGY PREDICTED BY IDOCK:    5.74 KCAL/MOL
REMARK 923 INTER-LIGAND FREE ENERGY PREDICTED BY IDOCK:   -1.73 KCAL/MOL
REMARK 924 INTRA-LIGAND FREE ENERGY PREDICTED BY IDOCK:    7.47 KCAL/MOL
REMARK 927      BINDING AFFINITY PREDICTED BY RF-SCORE:    0.00 PKD
ROOT
HETATM    1  C   UNL     1      -8.885   8.288  68.887  1.00  0.00    -0.140 C  
HETATM    2  C   UNL     1      -9.290   7.076  68.281  1.00  0.00    -0.126 C  
HETATM    3  C   UNL     1      -7.865   7.478  68.097  1.00  0.00    -0.122 C  
HETATM    4  C   UNL     1      -7.251   9.017  69.345  1.00  0.00    -0.057 C  
HETATM    5  C   UNL     1      -7.289   5.978  67.535  1.00  0.00    -0.077 C  
HETATM    6  O   UNL     1     -11.385  13.062  63.298  1.00  0.00    -0.317 OA 
HETATM    7  C   UNL     1     -10.618  12.251  63.799  1.00  0.00    -0.451 C  
HETATM    8  C   UNL     1      -7.021   7.692  69.181  1.00  0.00    -0.068 C  
HETATM    9  C   UNL     1     -11.083  10.862  64.161  1.00  0.00     0.217 C  
HETATM   10  C   UNL     1     -10.370  10.485  65.241  1.00  0.00    -0.300 C  
HETATM   11  C   UNL     1      -6.825   6.648  70.311  1.00  0.00    -0.058 C  
HETATM   12  C   UNL     1      -8.516   9.409  63.839  1.00  0.00    -0.204 C  
HETATM   13  C   UNL     1      -5.855   8.333  67.825  1.00  0.00    -0.043 C  
HETATM   14  C   UNL     1     -10.827  10.990  66.593  1.00  0.00    -0.284 C  
HETATM   15  C   UNL     1      -8.835  10.321  65.092  1.00  0.00    -0.205 C  
HETATM   16  C   UNL     1      -6.615   9.396  66.614  1.00  0.00    -0.068 C  
HETATM   17  C   UNL     1      -8.334  11.694  64.666  1.00  0.00     1.071 C  
HETATM   18  O   UNL     1      -6.051  10.694  66.787  1.00  0.00    -0.061 OA 
HETATM   19  C   UNL     1      -9.161  12.563  64.033  1.00  0.00     1.230 C  
HETATM   20  C   UNL     1      -8.316   9.494  66.352  1.00  0.00    -0.119 C  
HETATM   21  C   UNL     1      -9.070   9.648  67.765  1.00  0.00    -0.132 C  
HETATM   22  F   UNL     1      -8.780   8.242  65.886  1.00  0.00    -0.127 F  
HETATM   23  H   UNL     1      -6.456  11.261  66.140  1.00  0.00     0.000 HD 
HETATM   24  C   UNL     1     -10.571   9.923  67.635  1.00  0.00    -0.325 C  
ENDROOT
BRANCH   4  25
HETATM   25  O   UNL     1      -7.935   9.149  70.747  1.00  0.00    -0.139 OA 
BRANCH  25  26
HETATM   26  C   UNL     1      -8.910   8.303  71.167  1.00  0.00    -0.151 C  
HETATM   27  O   UNL     1      -9.983   8.101  70.613  1.00  0.00    -0.187 OA 
BRANCH  26  28
HETATM   28  C   UNL     1      -8.438   7.569  72.407  1.00  0.00    -0.134 C  
HETATM   29  C   UNL     1      -9.594   6.947  73.175  1.00  0.00    -0.183 C  
ENDBRANCH  26  28
ENDBRANCH  25  26
ENDBRANCH   4  25
BRANCH   4  30
HETATM   30  C   UNL     1      -5.832   9.357  70.168  1.00  0.00    -0.033 C  
HETATM   31  C   UNL     1      -5.166  10.710  70.109  1.00  0.00    -0.044 C  
HETATM   32  O   UNL     1      -5.241   8.558  70.915  1.00  0.00    -0.028 OA 
HETATM   33 CL   UNL     1      -5.998  11.940  69.192  1.00  0.00    -0.066 Cl 
ENDBRANCH   4  30
TORSDOF 4
ENDMDL
MODEL       88
REMARK 921   NORMALIZED FREE ENERGY PREDICTED BY IDOCK:    4.43 KCAL/MOL
REMARK 922        TOTAL FREE ENERGY PREDICTED BY IDOCK:    6.31 KCAL/MOL
REMARK 923 INTER-LIGAND FREE ENERGY PREDICTED BY IDOCK:    1.61 KCAL/MOL
REMARK 924 INTRA-LIGAND FREE ENERGY PREDICTED BY IDOCK:    4.70 KCAL/MOL
REMARK 927      BINDING AFFINITY PREDICTED BY RF-SCORE:    0.00 PKD
ROOT
HETATM    1  C   UNL     1      -8.874  10.238  65.993  1.00  0.00    -0.166 C  
HETATM    2  C   UNL     1      -9.726  10.244  64.864  1.00  0.00    -0.385 C  
HETATM    3  C   UNL     1     -10.368  10.453  66.195  1.00  0.00    -0.269 C  
HETATM    4  C   UNL     1      -9.028  10.847  67.729  1.00  0.00    -0.139 C  
HETATM    5  C   UNL     1     -11.866  11.025  65.624  1.00  0.00     1.264 C  
HETATM    6  O   UNL     1      -8.522   2.535  66.906  1.00  0.00    -0.091 OA 
HETATM    7  C   UNL     1      -9.050   3.635  66.986  1.00  0.00    -0.167 C  
HETATM    8  C   UNL     1      -9.991  11.497  67.032  1.00  0.00    -0.225 C  
HETATM    9  C   UNL     1      -9.345   4.448  65.749  1.00  0.00    -0.162 C  
HETATM   10  C   UNL     1      -9.230   5.745  66.102  1.00  0.00    -0.169 C  
HETATM   11  C   UNL     1      -9.944  12.974  66.562  1.00  0.00    -0.262 C  
HETATM   12  C   UNL     1     -11.704   5.957  66.729  1.00  0.00     1.369 C  
HETATM   13  C   UNL     1     -11.121  10.588  68.258  1.00  0.00    -0.340 C  
HETATM   14  C   UNL     1      -7.837   6.334  66.157  1.00  0.00    -0.105 C  
HETATM   15  C   UNL     1     -10.221   6.315  67.149  1.00  0.00    -0.247 C  
HETATM   16  C   UNL     1     -10.915   8.819  68.309  1.00  0.00     0.156 C  
HETATM   17  C   UNL     1      -9.996   5.476  68.399  1.00  0.00    -0.210 C  
HETATM   18  O   UNL     1     -10.377   8.499  69.592  1.00  0.00    -0.208 OA 
HETATM   19  C   UNL     1      -9.489   4.222  68.305  1.00  0.00    -0.212 C  
HETATM   20  C   UNL     1     -10.139   7.905  67.071  1.00  0.00    -0.277 C  
HETATM   21  C   UNL     1      -8.746   8.606  66.678  1.00  0.00    -0.137 C  
HETATM   22  F   UNL     1     -10.892   8.017  65.880  1.00  0.00     0.725 F  
HETATM   23  H   UNL     1     -10.268   7.556  69.619  1.00  0.00     0.000 HD 
HETATM   24  C   UNL     1      -7.890   7.779  65.713  1.00  0.00    -0.104 C  
ENDROOT
BRANCH   4  25
HETATM   25  O   UNL     1      -7.691  11.579  67.373  1.00  0.00    -0.127 OA 
BRANCH  25  26
HETATM   26  C   UNL     1      -6.500  11.235  67.925  1.00  0.00    -0.058 C  
HETATM   27  O   UNL     1      -6.270  11.089  69.118  1.00  0.00    -0.043 OA 
BRANCH  26  28
HETATM   28  C   UNL     1      -5.492  10.977  66.822  1.00  0.00    -0.084 C  
HETATM   29  C   UNL     1      -5.205   9.493  66.649  1.00  0.00    -0.044 C  
ENDBRANCH  26  28
ENDBRANCH  25  26
ENDBRANCH   4  25
BRANCH   4  30
HETATM   30  C   UNL     1      -9.052  11.851  69.070  1.00  0.00     0.303 C  
HETATM   31  C   UNL     1      -8.566  13.279  69.020  1.00  0.00     0.430 C  
HETATM   32  O   UNL     1      -9.502  11.530  70.184  1.00  0.00     1.769 OA 
HETATM   33 CL   UNL     1      -8.042  13.863  67.461  1.00  0.00    -0.176 Cl 
ENDBRANCH   4  30
TORSDOF 4
ENDMDL
MODEL       89
REMARK 921   NORMALIZED FREE ENERGY PREDICTED BY IDOCK:    4.75 KCAL/MOL
REMARK 922        TOTAL FREE ENERGY PREDICTED BY IDOCK:    6.71 KCAL/MOL
REMARK 923 INTER-LIGAND FREE ENERGY PREDICTED BY IDOCK:   -4.39 KCAL/MOL
REMARK 924 INTRA-LIGAND FREE ENERGY PREDICTED BY IDOCK:   11.09 KCAL/MOL
REMARK 927      BINDING AFFINITY PREDICTED BY RF-SCORE:    0.00 PKD
ROOT
HETATM    1  C   UNL     1      -8.460   7.197  69.925  1.00  0.00    -0.140 C  
HETATM    2  C   UNL     1      -7.221   7.670  70.418  1.00  0.00    -0.063 C  
HETATM    3  C   UNL     1      -8.429   8.490  70.731  1.00  0.00    -0.166 C  
HETATM    4  C   UNL     1     -10.227   7.529  70.345  1.00  0.00    -0.202 C  
HETATM    5  C   UNL     1      -7.726   9.454  71.944  1.00  0.00     0.744 C  
HETATM    6  O   UNL     1      -7.830  10.105  62.753  1.00  0.00    -0.136 OA 
HETATM    7  C   UNL     1      -8.036  10.166  63.957  1.00  0.00    -0.158 C  
HETATM    8  C   UNL     1      -9.515   7.958  71.416  1.00  0.00    -0.182 C  
HETATM    9  C   UNL     1      -6.959   9.804  64.950  1.00  0.00    -0.124 C  
HETATM   10  C   UNL     1      -7.583   9.286  66.027  1.00  0.00    -0.096 C  
HETATM   11  C   UNL     1      -9.372   7.225  72.775  1.00  0.00    -0.186 C  
HETATM   12  C   UNL     1      -7.784  11.555  67.198  1.00  0.00    -0.160 C  
HETATM   13  C   UNL     1     -10.306   9.618  70.943  1.00  0.00    -0.334 C  
HETATM   14  C   UNL     1      -8.009   7.835  65.958  1.00  0.00    -0.108 C  
HETATM   15  C   UNL     1      -8.529  10.204  66.844  1.00  0.00    -0.126 C  
HETATM   16  C   UNL     1     -10.031  10.135  69.260  1.00  0.00    -0.219 C  
HETATM   17  C   UNL     1      -9.601  10.641  65.856  1.00  0.00    -0.253 C  
HETATM   18  O   UNL     1     -11.297  10.102  68.602  1.00  0.00    -0.433 OA 
HETATM   19  C   UNL     1      -9.346  10.655  64.524  1.00  0.00    -0.284 C  
HETATM   20  C   UNL     1      -8.793   9.495  68.246  1.00  0.00    -0.124 C  
HETATM   21  C   UNL     1      -8.809   7.888  68.329  1.00  0.00    -0.129 C  
HETATM   22  F   UNL     1      -7.534   9.823  68.799  1.00  0.00    -0.070 F  
HETATM   23  H   UNL     1     -11.150  10.378  67.705  1.00  0.00     0.000 HD 
HETATM   24  C   UNL     1      -7.866   7.210  67.329  1.00  0.00    -0.111 C  
ENDROOT
BRANCH   4  25
HETATM   25  O   UNL     1     -10.275   5.970  70.475  1.00  0.00    -0.188 OA 
BRANCH  25  26
HETATM   26  C   UNL     1      -9.577   5.147  69.651  1.00  0.00    -0.167 C  
HETATM   27  O   UNL     1      -8.552   4.540  69.931  1.00  0.00    -0.069 OA 
BRANCH  26  28
HETATM   28  C   UNL     1     -10.308   5.025  68.328  1.00  0.00    -0.089 C  
HETATM   29  C   UNL     1     -11.443   6.033  68.210  1.00  0.00     0.485 C  
ENDBRANCH  26  28
ENDBRANCH  25  26
ENDBRANCH   4  25
BRANCH   4  30
HETATM   30  C   UNL     1     -11.718   7.493  71.109  1.00  0.00    -0.291 C  
HETATM   31  C   UNL     1     -12.489   8.747  71.438  1.00  0.00    -0.303 C  
HETATM   32  O   UNL     1     -12.324   6.454  71.423  1.00  0.00    -0.258 OA 
HETATM   33 CL   UNL     1     -11.779  10.252  70.910  1.00  0.00    -0.448 Cl 
ENDBRANCH   4  30
TORSDOF 4
ENDMDL
MODEL       90
REMARK 921   NORMALIZED FREE ENERGY PREDICTED BY IDOCK:    5.15 KCAL/MOL
REMARK 922        TOTAL FREE ENERGY PREDICTED BY IDOCK:    7.21 KCAL/MOL
REMARK 923 INTER-LIGAND FREE ENERGY PREDICTED BY IDOCK:   -2.37 KCAL/MOL
REMARK 924 INTRA-LIGAND FREE ENERGY PREDICTED BY IDOCK:    9.57 KCAL/MOL
REMARK 927      BINDING AFFINITY PREDICTED BY RF-SCORE:    0.00 PKD
ROOT
HETATM    1  C   UNL     1      -8.158   5.006  67.623  1.00  0.00    -0.098 C  
HETATM    2  C   UNL     1      -9.381   4.766  68.292  1.00  0.00    -0.177 C  
HETATM    3  C   UNL     1      -9.411   5.740  67.162  1.00  0.00    -0.121 C  
HETATM    4  C   UNL     1      -7.705   5.721  65.982  1.00  0.00    -0.095 C  
HETATM    5  C   UNL     1     -11.101   5.793  66.969  1.00  0.00    -0.062 C  
HETATM    6  O   UNL     1      -5.332  10.244  72.610  1.00  0.00    -0.313 OA 
HETATM    7  C   UNL     1      -6.054   9.860  71.701  1.00  0.00     0.225 C  
HETATM    8  C   UNL     1      -9.013   5.382  65.879  1.00  0.00    -0.151 C  
HETATM    9  C   UNL     1      -7.068   8.764  71.923  1.00  0.00    -0.057 C  
HETATM   10  C   UNL     1      -7.175   8.094  70.758  1.00  0.00    -0.050 C  
HETATM   11  C   UNL     1      -9.584   4.146  65.137  1.00  0.00    -0.185 C  
HETATM   12  C   UNL     1      -9.083   9.572  69.899  1.00  0.00    -0.237 C  
HETATM   13  C   UNL     1      -9.198   7.247  65.573  1.00  0.00     0.278 C  
HETATM   14  C   UNL     1      -6.119   7.054  70.450  1.00  0.00    -0.027 C  
HETATM   15  C   UNL     1      -7.727   8.847  69.520  1.00  0.00    -0.088 C  
HETATM   16  C   UNL     1      -8.510   8.294  66.841  1.00  0.00    -0.118 C  
HETATM   17  C   UNL     1      -6.760  10.002  69.300  1.00  0.00    -0.057 C  
HETATM   18  O   UNL     1      -7.404   8.982  66.258  1.00  0.00    -0.089 OA 
HETATM   19  C   UNL     1      -6.020  10.485  70.328  1.00  0.00    -0.104 C  
HETATM   20  C   UNL     1      -8.130   7.754  68.433  1.00  0.00    -0.124 C  
HETATM   21  C   UNL     1      -7.300   6.378  68.350  1.00  0.00    -0.087 C  
HETATM   22  F   UNL     1      -9.324   7.360  69.079  1.00  0.00    -0.146 F  
HETATM   23  H   UNL     1      -7.038   9.540  66.934  1.00  0.00     0.000 HD 
HETATM   24  C   UNL     1      -6.757   5.904  69.702  1.00  0.00    -0.055 C  
ENDROOT
BRANCH   4  25
HETATM   25  O   UNL     1      -6.916   4.376  65.845  1.00  0.00    -0.056 OA 
BRANCH  25  26
HETATM   26  C   UNL     1      -6.242   3.815  66.882  1.00  0.00    -0.028 C  
HETATM   27  O   UNL     1      -5.145   4.157  67.303  1.00  0.00    -0.007 OA 
BRANCH  26  28
HETATM   28  C   UNL     1      -7.098   2.729  67.506  1.00  0.00    -0.053 C  
HETATM   29  C   UNL     1      -7.461   3.050  68.948  1.00  0.00    -0.048 C  
ENDBRANCH  26  28
ENDBRANCH  25  26
ENDBRANCH   4  25
BRANCH   4  30
HETATM   30  C   UNL     1      -7.420   5.886  64.339  1.00  0.00    -0.077 C  
HETATM   31  C   UNL     1      -6.749   7.103  63.752  1.00  0.00    -0.044 C  
HETATM   32  O   UNL     1      -7.690   5.022  63.486  1.00  0.00    -0.066 OA 
HETATM   33 CL   UNL     1      -6.210   8.312  64.890  1.00  0.00    -0.052 Cl 
ENDBRANCH   4  30
TORSDOF 4
ENDMDL
MODEL       91
REMARK 921   NORMALIZED FREE ENERGY PREDICTED BY IDOCK:    6.85 KCAL/MOL
REMARK 922        TOTAL FREE ENERGY PREDICTED BY IDOCK:    9.30 KCAL/MOL
REMARK 923 INTER-LIGAND FREE ENERGY PREDICTED BY IDOCK:    4.61 KCAL/MOL
REMARK 924 INTRA-LIGAND FREE ENERGY PREDICTED BY IDOCK:    4.68 KCAL/MOL
REMARK 927      BINDING AFFINITY PREDICTED BY RF-SCORE:    0.00 PKD
ROOT
HETATM    1  C   UNL     1      -8.961  12.958  66.866  1.00  0.00    -0.210 C  
HETATM    2  C   UNL     1      -7.815  12.655  67.638  1.00  0.00    -0.162 C  
HETATM    3  C   UNL     1      -8.680  11.507  67.235  1.00  0.00    -0.151 C  
HETATM    4  C   UNL     1     -10.081  11.972  65.778  1.00  0.00    -0.238 C  
HETATM    5  C   UNL     1      -7.573  10.266  67.599  1.00  0.00    -0.090 C  
HETATM    6  O   UNL     1     -13.611  14.934  72.763  1.00  0.00    -0.438 OA 
HETATM    7  C   UNL     1     -13.013  14.148  72.041  1.00  0.00    -0.360 C  
HETATM    8  C   UNL     1      -8.953  11.231  65.901  1.00  0.00    -0.206 C  
HETATM    9  C   UNL     1     -11.507  14.166  71.952  1.00  0.00     1.082 C  
HETATM   10  C   UNL     1     -11.189  13.785  70.698  1.00  0.00     0.588 C  
HETATM   11  C   UNL     1      -7.840  11.070  64.833  1.00  0.00     0.407 C  
HETATM   12  C   UNL     1     -11.039  11.305  71.319  1.00  0.00     2.262 C  
HETATM   13  C   UNL     1     -10.169   9.990  66.667  1.00  0.00    -0.288 C  
HETATM   14  C   UNL     1     -11.266  14.832  69.608  1.00  0.00    -0.305 C  
HETATM   15  C   UNL     1     -11.557  12.348  70.247  1.00  0.00    -0.060 C  
HETATM   16  C   UNL     1     -11.133  10.617  68.028  1.00  0.00    -0.301 C  
HETATM   17  C   UNL     1     -13.071  12.270  70.382  1.00  0.00     0.552 C  
HETATM   18  O   UNL     1     -12.490  10.665  67.590  1.00  0.00     0.711 OA 
HETATM   19  C   UNL     1     -13.728  13.084  71.245  1.00  0.00     0.436 C  
HETATM   20  C   UNL     1     -10.726  12.032  68.925  1.00  0.00    -0.185 C  
HETATM   21  C   UNL     1     -10.371  13.228  67.909  1.00  0.00    -0.239 C  
HETATM   22  F   UNL     1      -9.498  11.813  69.590  1.00  0.00     0.412 F  
HETATM   23  H   UNL     1     -13.004  10.999  68.316  1.00  0.00     0.000 HD 
HETATM   24  C   UNL     1     -10.167  14.581  68.598  1.00  0.00    -0.243 C  
ENDROOT
BRANCH   4  25
HETATM   25  O   UNL     1      -9.729  13.096  64.747  1.00  0.00    -0.047 OA 
BRANCH  25  26
HETATM   26  C   UNL     1     -10.415  14.266  64.678  1.00  0.00    -0.298 C  
HETATM   27  O   UNL     1      -9.934  15.380  64.522  1.00  0.00     0.013 OA 
BRANCH  26  28
HETATM   28  C   UNL     1     -11.902  13.978  64.748  1.00  0.00    -0.415 C  
HETATM   29  C   UNL     1     -12.504  13.750  63.370  1.00  0.00     0.067 C  
ENDBRANCH  26  28
ENDBRANCH  25  26
ENDBRANCH   4  25
BRANCH   4  30
HETATM   30  C   UNL     1     -10.703  11.155  64.454  1.00  0.00    -0.318 C  
HETATM   31  C   UNL     1     -10.046  11.192  63.097  1.00  0.00    -0.330 C  
HETATM   32  O   UNL     1     -11.712  10.427  64.486  1.00  0.00     2.040 OA 
HETATM   33 CL   UNL     1      -8.546  12.078  62.989  1.00  0.00     0.931 Cl 
ENDBRANCH   4  30
TORSDOF 4
ENDMDL
MODEL       92
REMARK 921   NORMALIZED FREE ENERGY PREDICTED BY IDOCK:    7.10 KCAL/MOL
REMARK 922        TOTAL FREE ENERGY PREDICTED BY IDOCK:    9.61 KCAL/MOL
REMARK 923 INTER-LIGAND FREE ENERGY PREDICTED BY IDOCK:    4.75 KCAL/MOL
REMARK 924 INTRA-LIGAND FREE ENERGY PREDICTED BY IDOCK:    4.86 KCAL/MOL
REMARK 927      BINDING AFFINITY PREDICTED BY RF-SCORE:    0.00 PKD
ROOT
HETATM    1  C   UNL     1      -7.872  14.141  67.063  1.00  0.00     0.070 C  
HETATM    2  C   UNL     1      -6.698  14.436  67.794  1.00  0.00    -0.191 C  
HETATM    3  C   UNL     1      -7.976  14.388  68.563  1.00  0.00    -0.144 C  
HETATM    4  C   UNL     1      -9.560  13.547  67.520  1.00  0.00    -0.221 C  
HETATM    5  C   UNL     1      -7.289  14.324  70.119  1.00  0.00     0.461 C  
HETATM    6  O   UNL     1      -9.231  21.325  64.450  1.00  0.00     2.022 OA 
HETATM    7  C   UNL     1      -9.219  20.438  65.292  1.00  0.00     0.910 C  
HETATM    8  C   UNL     1      -8.773  13.250  68.582  1.00  0.00     0.032 C  
HETATM    9  C   UNL     1      -7.924  19.799  65.731  1.00  0.00    -0.188 C  
HETATM   10  C   UNL     1      -8.210  18.519  66.042  1.00  0.00    -0.084 C  
HETATM   11  C   UNL     1      -8.225  11.847  68.953  1.00  0.00     0.089 C  
HETATM   12  C   UNL     1      -8.682  19.055  68.502  1.00  0.00    -0.392 C  
HETATM   13  C   UNL     1      -9.982  14.418  69.467  1.00  0.00     0.195 C  
HETATM   14  C   UNL     1      -8.313  17.528  64.902  1.00  0.00     4.231 C  
HETATM   15  C   UNL     1      -9.166  18.244  67.232  1.00  0.00    -0.256 C  
HETATM   16  C   UNL     1     -10.143  16.035  68.736  1.00  0.00    -0.225 C  
HETATM   17  C   UNL     1     -10.471  18.928  66.853  1.00  0.00    -0.496 C  
HETATM   18  O   UNL     1     -11.470  16.128  68.221  1.00  0.00    -0.348 OA 
HETATM   19  C   UNL     1     -10.476  19.968  65.983  1.00  0.00    -0.523 C  
HETATM   20  C   UNL     1      -9.004  16.710  67.632  1.00  0.00    -0.205 C  
HETATM   21  C   UNL     1      -8.653  15.628  66.494  1.00  0.00    -0.335 C  
HETATM   22  F   UNL     1      -7.768  16.877  68.296  1.00  0.00    -0.176 F  
HETATM   23  H   UNL     1     -11.556  16.991  67.831  1.00  0.00     0.000 HD 
HETATM   24  C   UNL     1      -7.786  16.186  65.361  1.00  0.00     3.074 C  
ENDROOT
BRANCH   4  25
HETATM   25  O   UNL     1      -9.241  12.453  66.447  1.00  0.00    -0.231 OA 
BRANCH  25  26
HETATM   26  C   UNL     1     -10.154  12.039  65.531  1.00  0.00    -0.252 C  
HETATM   27  O   UNL     1     -10.593  10.904  65.408  1.00  0.00    -0.246 OA 
BRANCH  26  28
HETATM   28  C   UNL     1     -10.617  13.229  64.714  1.00  0.00    -0.402 C  
HETATM   29  C   UNL     1     -11.901  12.932  63.954  1.00  0.00    -0.541 C  
ENDBRANCH  26  28
ENDBRANCH  25  26
ENDBRANCH   4  25
BRANCH   4  30
HETATM   30  C   UNL     1     -10.839  12.552  67.944  1.00  0.00    -0.222 C  
HETATM   31  C   UNL     1     -12.224  12.726  67.374  1.00  0.00     0.037 C  
HETATM   32  O   UNL     1     -10.750  11.578  68.713  1.00  0.00    -0.196 OA 
HETATM   33 CL   UNL     1     -12.415  13.985  66.179  1.00  0.00    -0.496 Cl 
ENDBRANCH   4  30
TORSDOF 4
ENDMDL
MODEL       93
REMARK 921   NORMALIZED FREE ENERGY PREDICTED BY IDOCK:    7.17 KCAL/MOL
REMARK 922        TOTAL FREE ENERGY PREDICTED BY IDOCK:    9.70 KCAL/MOL
REMARK 923 INTER-LIGAND FREE ENERGY PREDICTED BY IDOCK:    2.42 KCAL/MOL
REMARK 924 INTRA-LIGAND FREE ENERGY PREDICTED BY IDOCK:    7.29 KCAL/MOL
REMARK 927      BINDING AFFINITY PREDICTED BY RF-SCORE:    0.00 PKD
ROOT
HETATM    1  C   UNL     1      -9.253  13.236  68.365  1.00  0.00    -0.145 C  
HETATM    2  C   UNL     1      -8.898  12.695  67.107  1.00  0.00    -0.204 C  
HETATM    3  C   UNL     1     -10.245  12.335  67.640  1.00  0.00    -0.208 C  
HETATM    4  C   UNL     1     -10.851  13.485  69.257  1.00  0.00    -0.063 C  
HETATM    5  C   UNL     1     -10.892  11.720  66.191  1.00  0.00    -0.336 C  
HETATM    6  O   UNL     1      -5.644   7.950  72.760  1.00  0.00    -0.039 OA 
HETATM    7  C   UNL     1      -6.541   8.361  72.037  1.00  0.00    -0.074 C  
HETATM    8  C   UNL     1     -11.188  13.306  67.956  1.00  0.00    -0.307 C  
HETATM    9  C   UNL     1      -6.261   8.790  70.618  1.00  0.00    -0.039 C  
HETATM   10  C   UNL     1      -7.133   9.778  70.333  1.00  0.00    -0.146 C  
HETATM   11  C   UNL     1     -11.619  14.413  66.960  1.00  0.00    -0.402 C  
HETATM   12  C   UNL     1      -8.900   8.171  69.411  1.00  0.00    -0.143 C  
HETATM   13  C   UNL     1     -12.114  11.813  68.677  1.00  0.00    -0.164 C  
HETATM   14  C   UNL     1      -6.794  11.171  70.821  1.00  0.00     1.264 C  
HETATM   15  C   UNL     1      -8.647   9.445  70.314  1.00  0.00    -0.249 C  
HETATM   16  C   UNL     1     -11.113  10.693  69.637  1.00  0.00    -0.284 C  
HETATM   17  C   UNL     1      -8.957   8.949  71.719  1.00  0.00    -0.203 C  
HETATM   18  O   UNL     1     -11.565  10.784  70.988  1.00  0.00    -0.298 OA 
HETATM   19  C   UNL     1      -7.979   8.414  72.492  1.00  0.00    -0.166 C  
HETATM   20  C   UNL     1      -9.392  10.639  69.567  1.00  0.00     0.019 C  
HETATM   21  C   UNL     1      -8.802  12.132  69.678  1.00  0.00     1.824 C  
HETATM   22  F   UNL     1      -9.000  10.245  68.267  1.00  0.00    -0.124 F  
HETATM   23  H   UNL     1     -11.032  10.187  71.499  1.00  0.00     0.000 HD 
HETATM   24  C   UNL     1      -7.276  12.184  69.805  1.00  0.00     0.584 C  
ENDROOT
BRANCH   4  25
HETATM   25  O   UNL     1     -10.331  14.958  69.351  1.00  0.00    -0.235 OA 
BRANCH  25  26
HETATM   26  C   UNL     1     -10.468  15.711  70.473  1.00  0.00    -0.099 C  
HETATM   27  O   UNL     1     -10.202  15.363  71.616  1.00  0.00     0.741 OA 
BRANCH  26  28
HETATM   28  C   UNL     1     -10.938  17.101  70.090  1.00  0.00     0.556 C  
HETATM   29  C   UNL     1     -10.177  17.648  68.891  1.00  0.00    -0.354 C  
ENDBRANCH  26  28
ENDBRANCH  25  26
ENDBRANCH   4  25
BRANCH   4  30
HETATM   30  C   UNL     1     -12.319  14.125  69.748  1.00  0.00    -0.299 C  
HETATM   31  C   UNL     1     -13.044  15.187  68.959  1.00  0.00     1.363 C  
HETATM   32  O   UNL     1     -12.946  13.757  70.757  1.00  0.00    -0.266 OA 
HETATM   33 CL   UNL     1     -12.306  15.669  67.453  1.00  0.00     0.913 Cl 
ENDBRANCH   4  30
TORSDOF 4
ENDMDL
MODEL       94
REMARK 921   NORMALIZED FREE ENERGY PREDICTED BY IDOCK:    7.18 KCAL/MOL
REMARK 922        TOTAL FREE ENERGY PREDICTED BY IDOCK:    9.70 KCAL/MOL
REMARK 923 INTER-LIGAND FREE ENERGY PREDICTED BY IDOCK:    1.66 KCAL/MOL
REMARK 924 INTRA-LIGAND FREE ENERGY PREDICTED BY IDOCK:    8.04 KCAL/MOL
REMARK 927      BINDING AFFINITY PREDICTED BY RF-SCORE:    0.00 PKD
ROOT
HETATM    1  C   UNL     1      -8.413   8.040  70.480  1.00  0.00    -0.125 C  
HETATM    2  C   UNL     1      -8.148   7.073  71.477  1.00  0.00    -0.104 C  
HETATM    3  C   UNL     1      -6.967   7.741  70.855  1.00  0.00    -0.049 C  
HETATM    4  C   UNL     1      -7.439   9.417  69.727  1.00  0.00    -0.087 C  
HETATM    5  C   UNL     1      -5.813   7.256  72.008  1.00  0.00    -0.037 C  
HETATM    6  O   UNL     1      -9.278   3.112  64.542  1.00  0.00    -0.127 OA 
HETATM    7  C   UNL     1      -8.636   3.753  65.363  1.00  0.00    -0.114 C  
HETATM    8  C   UNL     1      -6.807   9.121  70.889  1.00  0.00    -0.096 C  
HETATM    9  C   UNL     1      -8.816   3.523  66.843  1.00  0.00    -0.145 C  
HETATM   10  C   UNL     1      -8.603   4.708  67.449  1.00  0.00    -0.104 C  
HETATM   11  C   UNL     1      -6.873   9.941  72.203  1.00  0.00     1.382 C  
HETATM   12  C   UNL     1      -6.099   4.275  67.769  1.00  0.00    -0.032 C  
HETATM   13  C   UNL     1      -5.376   8.732  69.703  1.00  0.00    -0.030 C  
HETATM   14  C   UNL     1      -9.746   5.701  67.465  1.00  0.00    -0.134 C  
HETATM   15  C   UNL     1      -7.192   5.342  67.354  1.00  0.00    -0.075 C  
HETATM   16  C   UNL     1      -5.755   7.557  68.418  1.00  0.00    -0.027 C  
HETATM   17  C   UNL     1      -6.947   5.536  65.864  1.00  0.00    -0.066 C  
HETATM   18  O   UNL     1      -5.711   8.265  67.180  1.00  0.00    -0.037 OA 
HETATM   19  C   UNL     1      -7.595   4.766  64.955  1.00  0.00    -0.077 C  
HETATM   20  C   UNL     1      -7.102   6.482  68.465  1.00  0.00    -0.083 C  
HETATM   21  C   UNL     1      -8.428   7.299  68.868  1.00  0.00    -0.126 C  
HETATM   22  F   UNL     1      -6.940   5.594  69.552  1.00  0.00    -0.054 F  
HETATM   23  H   UNL     1      -5.913   7.638  66.495  1.00  0.00     0.000 HD 
HETATM   24  C   UNL     1      -9.715   6.474  68.765  1.00  0.00    -0.131 C  
ENDROOT
BRANCH   4  25
HETATM   25  O   UNL     1      -8.695  10.256  70.140  1.00  0.00    -0.002 OA 
BRANCH  25  26
HETATM   26  C   UNL     1      -9.672  10.588  69.259  1.00  0.00    -0.196 C  
HETATM   27  O   UNL     1      -9.512  11.082  68.151  1.00  0.00    -0.160 OA 
BRANCH  26  28
HETATM   28  C   UNL     1     -11.018  10.181  69.827  1.00  0.00    -0.325 C  
HETATM   29  C   UNL     1     -10.873   9.332  71.081  1.00  0.00    -0.407 C  
ENDBRANCH  26  28
ENDBRANCH  25  26
ENDBRANCH   4  25
BRANCH   4  30
HETATM   30  C   UNL     1      -6.706  10.904  69.485  1.00  0.00    -0.117 C  
HETATM   31  C   UNL     1      -6.243  11.774  70.627  1.00  0.00     0.308 C  
HETATM   32  O   UNL     1      -6.445  11.388  68.369  1.00  0.00    -0.049 OA 
HETATM   33 CL   UNL     1      -6.443  11.115  72.230  1.00  0.00     3.089 Cl 
ENDBRANCH   4  30
TORSDOF 4
ENDMDL
MODEL       95
REMARK 921   NORMALIZED FREE ENERGY PREDICTED BY IDOCK:    7.61 KCAL/MOL
REMARK 922        TOTAL FREE ENERGY PREDICTED BY IDOCK:   10.24 KCAL/MOL
REMARK 923 INTER-LIGAND FREE ENERGY PREDICTED BY IDOCK:    7.62 KCAL/MOL
REMARK 924 INTRA-LIGAND FREE ENERGY PREDICTED BY IDOCK:    2.62 KCAL/MOL
REMARK 927      BINDING AFFINITY PREDICTED BY RF-SCORE:    0.00 PKD
ROOT
HETATM    1  C   UNL     1      -9.936   5.128  66.456  1.00  0.00    -0.237 C  
HETATM    2  C   UNL     1     -11.246   5.338  66.946  1.00  0.00     0.736 C  
HETATM    3  C   UNL     1     -10.338   6.522  66.922  1.00  0.00    -0.311 C  
HETATM    4  C   UNL     1      -8.605   6.237  65.816  1.00  0.00    -0.150 C  
HETATM    5  C   UNL     1     -11.531   7.714  67.149  1.00  0.00     1.194 C  
HETATM    6  O   UNL     1      -6.859   2.380  73.034  1.00  0.00    -0.024 OA 
HETATM    7  C   UNL     1      -7.277   3.256  72.290  1.00  0.00    -0.046 C  
HETATM    8  C   UNL     1      -9.747   6.964  65.744  1.00  0.00     0.473 C  
HETATM    9  C   UNL     1      -8.712   3.261  71.823  1.00  0.00    -0.119 C  
HETATM   10  C   UNL     1      -8.716   3.802  70.588  1.00  0.00    -0.121 C  
HETATM   11  C   UNL     1     -10.560   7.269  64.460  1.00  0.00     8.231 C  
HETATM   12  C   UNL     1      -9.079   6.182  71.459  1.00  0.00    -0.145 C  
HETATM   13  C   UNL     1      -8.792   8.088  66.941  1.00  0.00    -0.146 C  
HETATM   14  C   UNL     1      -8.343   2.901  69.430  1.00  0.00    -0.088 C  
HETATM   15  C   UNL     1      -8.284   5.282  70.429  1.00  0.00    -0.103 C  
HETATM   16  C   UNL     1      -8.183   7.285  68.410  1.00  0.00    -0.125 C  
HETATM   17  C   UNL     1      -6.854   5.331  70.948  1.00  0.00    -0.048 C  
HETATM   18  O   UNL     1      -6.759   7.284  68.325  1.00  0.00    -0.050 OA 
HETATM   19  C   UNL     1      -6.413   4.408  71.839  1.00  0.00    -0.022 C  
HETATM   20  C   UNL     1      -8.766   5.770  68.991  1.00  0.00    -0.112 C  
HETATM   21  C   UNL     1      -8.826   4.716  67.776  1.00  0.00    -0.115 C  
HETATM   22  F   UNL     1     -10.126   5.911  69.349  1.00  0.00    -0.187 F  
HETATM   23  H   UNL     1      -6.435   6.856  69.109  1.00  0.00     0.000 HD 
HETATM   24  C   UNL     1      -9.160   3.288  68.217  1.00  0.00    -0.211 C  
ENDROOT
BRANCH   4  25
HETATM   25  O   UNL     1      -8.660   5.257  64.597  1.00  0.00    -0.148 OA 
BRANCH  25  26
HETATM   26  C   UNL     1      -7.613   4.466  64.248  1.00  0.00    -0.072 C  
HETATM   27  O   UNL     1      -6.580   4.829  63.703  1.00  0.00    -0.035 OA 
BRANCH  26  28
HETATM   28  C   UNL     1      -7.882   3.047  64.711  1.00  0.00    -0.078 C  
HETATM   29  C   UNL     1      -6.605   2.332  65.127  1.00  0.00    -0.027 C  
ENDBRANCH  26  28
ENDBRANCH  25  26
ENDBRANCH   4  25
BRANCH   4  30
HETATM   30  C   UNL     1      -7.692   7.213  64.805  1.00  0.00    -0.115 C  
HETATM   31  C   UNL     1      -6.261   7.578  65.109  1.00  0.00    -0.038 C  
HETATM   32  O   UNL     1      -8.091   7.673  63.721  1.00  0.00    -0.120 OA 
HETATM   33 CL   UNL     1      -5.569   6.865  66.544  1.00  0.00    -0.021 Cl 
ENDBRANCH   4  30
TORSDOF 4
ENDMDL
MODEL       96
REMARK 921   NORMALIZED FREE ENERGY PREDICTED BY IDOCK:    7.80 KCAL/MOL
REMARK 922        TOTAL FREE ENERGY PREDICTED BY IDOCK:   10.47 KCAL/MOL
REMARK 923 INTER-LIGAND FREE ENERGY PREDICTED BY IDOCK:    6.29 KCAL/MOL
REMARK 924 INTRA-LIGAND FREE ENERGY PREDICTED BY IDOCK:    4.17 KCAL/MOL
REMARK 927      BINDING AFFINITY PREDICTED BY RF-SCORE:    0.00 PKD
ROOT
HETATM    1  C   UNL     1      -8.925   9.072  66.995  1.00  0.00    -0.144 C  
HETATM    2  C   UNL     1      -9.798   8.794  65.917  1.00  0.00    -0.136 C  
HETATM    3  C   UNL     1     -10.337   8.584  67.293  1.00  0.00    -0.372 C  
HETATM    4  C   UNL     1      -9.164   9.401  68.796  1.00  0.00    -0.132 C  
HETATM    5  C   UNL     1     -11.981   8.479  66.865  1.00  0.00     5.475 C  
HETATM    6  O   UNL     1      -5.165   2.278  66.981  1.00  0.00    -0.008 OA 
HETATM    7  C   UNL     1      -6.110   3.019  67.215  1.00  0.00    -0.028 C  
HETATM    8  C   UNL     1     -10.375   9.613  68.227  1.00  0.00    -0.240 C  
HETATM    9  C   UNL     1      -6.845   3.718  66.097  1.00  0.00    -0.057 C  
HETATM   10  C   UNL     1      -7.275   4.896  66.594  1.00  0.00    -0.080 C  
HETATM   11  C   UNL     1     -11.022  10.991  67.932  1.00  0.00    -0.317 C  
HETATM   12  C   UNL     1      -9.522   3.935  67.359  1.00  0.00    -0.236 C  
HETATM   13  C   UNL     1     -10.874   8.198  69.391  1.00  0.00    -0.096 C  
HETATM   14  C   UNL     1      -6.279   6.035  66.651  1.00  0.00    -0.030 C  
HETATM   15  C   UNL     1      -8.310   4.877  67.747  1.00  0.00    -0.104 C  
HETATM   16  C   UNL     1      -9.913   6.706  69.225  1.00  0.00    -0.158 C  
HETATM   17  C   UNL     1      -7.625   4.123  68.878  1.00  0.00    -0.055 C  
HETATM   18  O   UNL     1      -9.171   6.552  70.434  1.00  0.00    -0.154 OA 
HETATM   19  C   UNL     1      -6.633   3.237  68.613  1.00  0.00    -0.040 C  
HETATM   20  C   UNL     1      -8.938   6.339  67.852  1.00  0.00    -0.113 C  
HETATM   21  C   UNL     1      -8.034   7.616  67.477  1.00  0.00    -0.120 C  
HETATM   22  F   UNL     1      -9.774   6.205  66.720  1.00  0.00    -0.146 F  
HETATM   23  H   UNL     1      -8.659   5.756  70.345  1.00  0.00     0.000 HD 
HETATM   24  C   UNL     1      -6.999   7.338  66.382  1.00  0.00    -0.069 C  
ENDROOT
BRANCH   4  25
HETATM   25  O   UNL     1      -8.321  10.678  68.465  1.00  0.00    -0.116 OA 
BRANCH  25  26
HETATM   26  C   UNL     1      -6.983  10.630  68.237  1.00  0.00    -0.072 C  
HETATM   27  O   UNL     1      -6.137  10.157  68.984  1.00  0.00    -0.040 OA 
BRANCH  26  28
HETATM   28  C   UNL     1      -6.689  11.193  66.860  1.00  0.00    -0.128 C  
HETATM   29  C   UNL     1      -7.652  12.310  66.484  1.00  0.00     0.356 C  
ENDBRANCH  26  28
ENDBRANCH  25  26
ENDBRANCH   4  25
BRANCH   4  30
HETATM   30  C   UNL     1      -9.496  10.175  70.245  1.00  0.00     0.163 C  
HETATM   31  C   UNL     1      -8.442  10.408  71.298  1.00  0.00     3.506 C  
HETATM   32  O   UNL     1     -10.603  10.652  70.552  1.00  0.00     0.012 OA 
HETATM   33 CL   UNL     1      -6.822   9.894  70.897  1.00  0.00    -0.028 Cl 
ENDBRANCH   4  30
TORSDOF 4
ENDMDL
MODEL       97
REMARK 921   NORMALIZED FREE ENERGY PREDICTED BY IDOCK:    8.58 KCAL/MOL
REMARK 922        TOTAL FREE ENERGY PREDICTED BY IDOCK:   11.43 KCAL/MOL
REMARK 923 INTER-LIGAND FREE ENERGY PREDICTED BY IDOCK:    4.53 KCAL/MOL
REMARK 924 INTRA-LIGAND FREE ENERGY PREDICTED BY IDOCK:    6.91 KCAL/MOL
REMARK 927      BINDING AFFINITY PREDICTED BY RF-SCORE:    0.00 PKD
ROOT
HETATM    1  C   UNL     1      -7.822   5.496  67.658  1.00  0.00    -0.097 C  
HETATM    2  C   UNL     1      -6.668   5.674  68.456  1.00  0.00    -0.057 C  
HETATM    3  C   UNL     1      -7.911   6.368  68.904  1.00  0.00    -0.110 C  
HETATM    4  C   UNL     1      -9.633   5.728  67.938  1.00  0.00    -0.115 C  
HETATM    5  C   UNL     1      -7.392   6.745  70.480  1.00  0.00    -0.081 C  
HETATM    6  O   UNL     1      -6.196  10.933  62.359  1.00  0.00    -0.130 OA 
HETATM    7  C   UNL     1      -6.571  10.530  63.451  1.00  0.00     0.024 C  
HETATM    8  C   UNL     1      -9.081   5.668  69.174  1.00  0.00    -0.126 C  
HETATM    9  C   UNL     1      -5.643   9.754  64.354  1.00  0.00    -0.082 C  
HETATM   10  C   UNL     1      -6.412   8.891  65.049  1.00  0.00    -0.065 C  
HETATM   11  C   UNL     1      -9.130   4.457  70.142  1.00  0.00    -0.167 C  
HETATM   12  C   UNL     1      -6.786  10.530  66.980  1.00  0.00    -0.087 C  
HETATM   13  C   UNL     1      -9.805   7.420  69.293  1.00  0.00    -0.168 C  
HETATM   14  C   UNL     1      -6.817   7.605  64.359  1.00  0.00    -0.058 C  
HETATM   15  C   UNL     1      -7.467   9.465  66.028  1.00  0.00    -0.096 C  
HETATM   16  C   UNL     1      -9.297   8.537  68.001  1.00  0.00    -0.136 C  
HETATM   17  C   UNL     1      -8.391  10.308  65.160  1.00  0.00    -0.162 C  
HETATM   18  O   UNL     1     -10.456   8.829  67.222  1.00  0.00    -0.270 OA 
HETATM   19  C   UNL     1      -7.950  10.827  63.987  1.00  0.00     0.215 C  
HETATM   20  C   UNL     1      -7.925   8.279  66.990  1.00  0.00    -0.100 C  
HETATM   21  C   UNL     1      -7.945   6.771  66.431  1.00  0.00    -0.106 C  
HETATM   22  F   UNL     1      -6.758   8.301  67.788  1.00  0.00    -0.059 F  
HETATM   23  H   UNL     1     -10.185   9.425  66.534  1.00  0.00     0.000 HD 
HETATM   24  C   UNL     1      -6.867   6.489  65.380  1.00  0.00    -0.048 C  
ENDROOT
BRANCH   4  25
HETATM   25  O   UNL     1      -9.692   4.247  67.437  1.00  0.00    -0.184 OA 
BRANCH  25  26
HETATM   26  C   UNL     1      -9.824   3.924  66.124  1.00  0.00    -0.115 C  
HETATM   27  O   UNL     1      -9.948   4.710  65.194  1.00  0.00    -0.149 OA 
BRANCH  26  28
HETATM   28  C   UNL     1      -9.717   2.420  65.965  1.00  0.00     0.457 C  
HETATM   29  C   UNL     1      -8.747   1.809  66.965  1.00  0.00    -0.124 C  
ENDBRANCH  26  28
ENDBRANCH  25  26
ENDBRANCH   4  25
BRANCH   4  30
HETATM   30  C   UNL     1     -11.217   5.475  68.422  1.00  0.00     0.692 C  
HETATM   31  C   UNL     1     -11.756   5.995  69.731  1.00  0.00     0.325 C  
HETATM   32  O   UNL     1     -12.077   4.888  67.741  1.00  0.00     5.948 OA 
HETATM   33 CL   UNL     1     -10.658   6.950  70.694  1.00  0.00    -0.239 Cl 
ENDBRANCH   4  30
TORSDOF 4
ENDMDL
MODEL       98
REMARK 921   NORMALIZED FREE ENERGY PREDICTED BY IDOCK:    8.95 KCAL/MOL
REMARK 922        TOTAL FREE ENERGY PREDICTED BY IDOCK:   11.89 KCAL/MOL
REMARK 923 INTER-LIGAND FREE ENERGY PREDICTED BY IDOCK:    2.25 KCAL/MOL
REMARK 924 INTRA-LIGAND FREE ENERGY PREDICTED BY IDOCK:    9.63 KCAL/MOL
REMARK 927      BINDING AFFINITY PREDICTED BY RF-SCORE:    0.00 PKD
ROOT
HETATM    1  C   UNL     1     -10.209  14.205  66.816  1.00  0.00    -0.262 C  
HETATM    2  C   UNL     1      -9.064  13.391  66.653  1.00  0.00    -0.180 C  
HETATM    3  C   UNL     1      -9.393  13.822  68.044  1.00  0.00    -0.199 C  
HETATM    4  C   UNL     1     -11.287  14.644  68.250  1.00  0.00    -0.297 C  
HETATM    5  C   UNL     1      -8.379  12.722  68.856  1.00  0.00     0.276 C  
HETATM    6  O   UNL     1      -6.844  20.982  65.068  1.00  0.00    -0.059 OA 
HETATM    7  C   UNL     1      -7.100  20.027  65.789  1.00  0.00    -0.303 C  
HETATM    8  C   UNL     1     -10.619  13.527  68.628  1.00  0.00    -0.259 C  
HETATM    9  C   UNL     1      -6.711  18.625  65.389  1.00  0.00    -0.231 C  
HETATM   10  C   UNL     1      -7.649  17.802  65.902  1.00  0.00    -0.170 C  
HETATM   11  C   UNL     1     -11.196  12.089  68.687  1.00  0.00    -0.309 C  
HETATM   12  C   UNL     1      -6.367  17.445  68.090  1.00  0.00    -0.167 C  
HETATM   13  C   UNL     1      -9.971  14.693  69.980  1.00  0.00     0.406 C  
HETATM   14  C   UNL     1      -8.947  17.660  65.137  1.00  0.00     2.494 C  
HETATM   15  C   UNL     1      -7.787  17.710  67.443  1.00  0.00    -0.217 C  
HETATM   16  C   UNL     1      -9.206  16.189  69.386  1.00  0.00    -0.170 C  
HETATM   17  C   UNL     1      -8.121  19.125  67.892  1.00  0.00    -0.323 C  
HETATM   18  O   UNL     1     -10.045  17.272  69.783  1.00  0.00     0.036 OA 
HETATM   19  C   UNL     1      -7.763  20.191  67.135  1.00  0.00    -0.343 C  
HETATM   20  C   UNL     1      -8.643  16.406  67.771  1.00  0.00    -0.168 C  
HETATM   21  C   UNL     1      -9.778  15.924  66.737  1.00  0.00    -0.252 C  
HETATM   22  F   UNL     1      -7.591  15.494  67.527  1.00  0.00    -0.131 F  
HETATM   23  H   UNL     1      -9.637  18.070  69.466  1.00  0.00     0.000 HD 
HETATM   24  C   UNL     1      -9.452  16.240  65.274  1.00  0.00     0.574 C  
ENDROOT
BRANCH   4  25
HETATM   25  O   UNL     1     -12.417  14.146  67.288  1.00  0.00    -0.253 OA 
BRANCH  25  26
HETATM   26  C   UNL     1     -12.402  14.395  65.954  1.00  0.00    -0.326 C  
HETATM   27  O   UNL     1     -12.348  15.495  65.422  1.00  0.00     0.489 OA 
BRANCH  26  28
HETATM   28  C   UNL     1     -12.387  13.079  65.199  1.00  0.00    -0.536 C  
HETATM   29  C   UNL     1     -11.954  13.259  63.752  1.00  0.00    -0.551 C  
ENDBRANCH  26  28
ENDBRANCH  25  26
ENDBRANCH   4  25
BRANCH   4  30
HETATM   30  C   UNL     1     -12.466  14.573  69.437  1.00  0.00    -0.078 C  
HETATM   31  C   UNL     1     -12.134  14.417  70.900  1.00  0.00    -0.344 C  
HETATM   32  O   UNL     1     -13.687  14.687  69.226  1.00  0.00     2.483 OA 
HETATM   33 CL   UNL     1     -10.437  14.387  71.308  1.00  0.00     1.625 Cl 
ENDBRANCH   4  30
TORSDOF 4
ENDMDL
MODEL       99
REMARK 921   NORMALIZED FREE ENERGY PREDICTED BY IDOCK:   11.09 KCAL/MOL
REMARK 922        TOTAL FREE ENERGY PREDICTED BY IDOCK:   14.53 KCAL/MOL
REMARK 923 INTER-LIGAND FREE ENERGY PREDICTED BY IDOCK:   -0.33 KCAL/MOL
REMARK 924 INTRA-LIGAND FREE ENERGY PREDICTED BY IDOCK:   14.86 KCAL/MOL
REMARK 927      BINDING AFFINITY PREDICTED BY RF-SCORE:    0.00 PKD
ROOT
HETATM    1  C   UNL     1      -8.829  14.484  67.466  1.00  0.00    -0.193 C  
HETATM    2  C   UNL     1      -8.547  14.567  66.083  1.00  0.00     0.521 C  
HETATM    3  C   UNL     1      -9.912  14.102  66.465  1.00  0.00    -0.289 C  
HETATM    4  C   UNL     1     -10.381  14.406  68.464  1.00  0.00    -0.248 C  
HETATM    5  C   UNL     1     -10.638  14.285  64.937  1.00  0.00    -0.452 C  
HETATM    6  O   UNL     1      -5.653   7.505  68.691  1.00  0.00    -0.022 OA 
HETATM    7  C   UNL     1      -6.519   8.272  68.295  1.00  0.00    -0.059 C  
HETATM    8  C   UNL     1     -10.755  14.880  67.250  1.00  0.00    -0.294 C  
HETATM    9  C   UNL     1      -6.225   9.292  67.223  1.00  0.00    -0.058 C  
HETATM   10  C   UNL     1      -7.006  10.360  67.480  1.00  0.00    -0.084 C  
HETATM   11  C   UNL     1     -11.099  16.353  66.908  1.00  0.00     0.108 C  
HETATM   12  C   UNL     1      -8.930   9.505  66.023  1.00  0.00    -0.198 C  
HETATM   13  C   UNL     1     -11.803  13.296  67.250  1.00  0.00    -0.421 C  
HETATM   14  C   UNL     1      -6.531  11.335  68.537  1.00  0.00    -0.051 C  
HETATM   15  C   UNL     1      -8.544  10.188  67.397  1.00  0.00    -0.122 C  
HETATM   16  C   UNL     1     -10.895  11.788  67.522  1.00  0.00    -0.239 C  
HETATM   17  C   UNL     1      -8.875   9.118  68.428  1.00  0.00    -0.129 C  
HETATM   18  O   UNL     1     -11.313  11.271  68.784  1.00  0.00    -0.220 OA 
HETATM   19  C   UNL     1      -7.938   8.213  68.806  1.00  0.00    -0.115 C  
HETATM   20  C   UNL     1      -9.188  11.645  67.333  1.00  0.00    -0.168 C  
HETATM   21  C   UNL     1      -8.460  12.865  68.089  1.00  0.00    -0.176 C  
HETATM   22  F   UNL     1      -8.857  11.875  65.979  1.00  0.00    -0.195 F  
HETATM   23  H   UNL     1     -10.829  10.466  68.929  1.00  0.00     0.000 HD 
HETATM   24  C   UNL     1      -6.934  12.738  68.136  1.00  0.00    -0.096 C  
ENDROOT
BRANCH   4  25
HETATM   25  O   UNL     1      -9.724  15.621  69.200  1.00  0.00    -0.214 OA 
BRANCH  25  26
HETATM   26  C   UNL     1     -10.401  16.386  70.095  1.00  0.00     0.095 C  
HETATM   27  O   UNL     1     -11.371  16.039  70.757  1.00  0.00    -0.369 OA 
BRANCH  26  28
HETATM   28  C   UNL     1      -9.723  17.736  70.214  1.00  0.00     1.963 C  
HETATM   29  C   UNL     1      -9.398  18.332  68.852  1.00  0.00    -0.205 C  
ENDBRANCH  26  28
ENDBRANCH  25  26
ENDBRANCH   4  25
BRANCH   4  30
HETATM   30  C   UNL     1     -11.774  14.850  69.281  1.00  0.00    -0.316 C  
HETATM   31  C   UNL     1     -12.558  16.089  68.930  1.00  0.00     0.954 C  
HETATM   32  O   UNL     1     -12.296  14.188  70.196  1.00  0.00    -0.325 OA 
HETATM   33 CL   UNL     1     -11.978  17.010  67.565  1.00  0.00     1.286 Cl 
ENDBRANCH   4  30
TORSDOF 4
ENDMDL
MODEL      100
REMARK 921   NORMALIZED FREE ENERGY PREDICTED BY IDOCK:   11.68 KCAL/MOL
REMARK 922        TOTAL FREE ENERGY PREDICTED BY IDOCK:   15.25 KCAL/MOL
REMARK 923 INTER-LIGAND FREE ENERGY PREDICTED BY IDOCK:    6.47 KCAL/MOL
REMARK 924 INTRA-LIGAND FREE ENERGY PREDICTED BY IDOCK:    8.78 KCAL/MOL
REMARK 927      BINDING AFFINITY PREDICTED BY RF-SCORE:    0.00 PKD
ROOT
HETATM    1  C   UNL     1      -8.108   8.090  69.245  1.00  0.00    -0.118 C  
HETATM    2  C   UNL     1      -7.778   9.247  69.988  1.00  0.00    -0.104 C  
HETATM    3  C   UNL     1      -9.181   8.752  70.100  1.00  0.00    -0.179 C  
HETATM    4  C   UNL     1      -9.470   6.846  69.333  1.00  0.00    -0.148 C  
HETATM    5  C   UNL     1      -9.623   9.663  71.468  1.00  0.00     0.667 C  
HETATM    6  O   UNL     1      -9.455  11.628  62.466  1.00  0.00    -0.203 OA 
HETATM    7  C   UNL     1      -9.726  11.289  63.610  1.00  0.00    -0.321 C  
HETATM    8  C   UNL     1      -9.469   7.465  70.538  1.00  0.00    -0.161 C  
HETATM    9  C   UNL     1      -8.870  11.726  64.774  1.00  0.00     0.558 C  
HETATM   10  C   UNL     1      -8.923  10.735  65.687  1.00  0.00    -0.205 C  
HETATM   11  C   UNL     1      -8.911   6.887  71.865  1.00  0.00    -0.139 C  
HETATM   12  C   UNL     1     -10.940  11.744  66.899  1.00  0.00    -0.333 C  
HETATM   13  C   UNL     1     -11.225   7.943  69.998  1.00  0.00    -0.105 C  
HETATM   14  C   UNL     1      -8.020   9.538  65.472  1.00  0.00    -0.112 C  
HETATM   15  C   UNL     1     -10.287  10.412  66.347  1.00  0.00    -0.278 C  
HETATM   16  C   UNL     1     -11.334   8.771  68.425  1.00  0.00     0.742 C  
HETATM   17  C   UNL     1     -11.200  10.023  65.193  1.00  0.00     2.219 C  
HETATM   18  O   UNL     1     -12.016   7.889  67.535  1.00  0.00     1.828 OA 
HETATM   19  C   UNL     1     -10.949  10.469  63.937  1.00  0.00     0.992 C  
HETATM   20  C   UNL     1      -9.997   9.525  67.639  1.00  0.00    -0.180 C  
HETATM   21  C   UNL     1      -8.737   8.524  67.645  1.00  0.00    -0.136 C  
HETATM   22  F   UNL     1      -9.545  10.600  68.438  1.00  0.00    -0.147 F  
HETATM   23  H   UNL     1     -12.074   8.331  66.696  1.00  0.00     0.000 HD 
HETATM   24  C   UNL     1      -7.550   9.024  66.815  1.00  0.00    -0.090 C  
ENDROOT
BRANCH   4  25
HETATM   25  O   UNL     1      -8.271   5.841  69.381  1.00  0.00    -0.105 OA 
BRANCH  25  26
HETATM   26  C   UNL     1      -7.763   5.365  70.546  1.00  0.00    -0.084 C  
HETATM   27  O   UNL     1      -8.252   5.501  71.659  1.00  0.00    -0.115 OA 
BRANCH  26  28
HETATM   28  C   UNL     1      -6.512   4.558  70.255  1.00  0.00    -0.034 C  
HETATM   29  C   UNL     1      -5.294   5.115  70.976  1.00  0.00    -0.005 C  
ENDBRANCH  26  28
ENDBRANCH  25  26
ENDBRANCH   4  25
BRANCH   4  30
HETATM   30  C   UNL     1     -10.401   5.531  69.794  1.00  0.00    -0.296 C  
HETATM   31  C   UNL     1     -11.173   4.698  68.801  1.00  0.00     3.171 C  
HETATM   32  O   UNL     1     -10.499   5.111  70.961  1.00  0.00    -0.221 OA 
HETATM   33 CL   UNL     1     -10.986   5.129  67.120  1.00  0.00     0.117 Cl 
ENDBRANCH   4  30
TORSDOF 4
ENDMDL
MODEL      101
REMARK 921   NORMALIZED FREE ENERGY PREDICTED BY IDOCK:   12.44 KCAL/MOL
REMARK 922        TOTAL FREE ENERGY PREDICTED BY IDOCK:   16.20 KCAL/MOL
REMARK 923 INTER-LIGAND FREE ENERGY PREDICTED BY IDOCK:    7.56 KCAL/MOL
REMARK 924 INTRA-LIGAND FREE ENERGY PREDICTED BY IDOCK:    8.64 KCAL/MOL
REMARK 927      BINDING AFFINITY PREDICTED BY RF-SCORE:    0.00 PKD
ROOT
HETATM    1  C   UNL     1     -10.087   8.182  66.152  1.00  0.00     0.096 C  
HETATM    2  C   UNL     1     -10.599   8.837  65.008  1.00  0.00     3.933 C  
HETATM    3  C   UNL     1      -9.133   8.562  65.027  1.00  0.00     0.095 C  
HETATM    4  C   UNL     1      -8.536   7.248  66.517  1.00  0.00    -0.133 C  
HETATM    5  C   UNL     1      -8.839   8.843  63.374  1.00  0.00     0.063 C  
HETATM    6  O   UNL     1      -9.392  14.476  70.646  1.00  0.00     1.518 OA 
HETATM    7  C   UNL     1      -9.061  13.719  69.744  1.00  0.00     1.654 C  
HETATM    8  C   UNL     1      -8.633   7.273  65.166  1.00  0.00     0.044 C  
HETATM    9  C   UNL     1      -9.970  13.470  68.565  1.00  0.00    -0.202 C  
HETATM   10  C   UNL     1      -9.747  12.202  68.165  1.00  0.00    -0.208 C  
HETATM   11  C   UNL     1      -9.077   6.098  64.257  1.00  0.00     0.835 C  
HETATM   12  C   UNL     1      -7.917  12.877  66.506  1.00  0.00     0.557 C  
HETATM   13  C   UNL     1      -6.983   8.200  65.330  1.00  0.00    -0.063 C  
HETATM   14  C   UNL     1     -10.439  11.096  68.933  1.00  0.00    -0.233 C  
HETATM   15  C   UNL     1      -8.343  11.836  67.619  1.00  0.00    -0.145 C  
HETATM   16  C   UNL     1      -7.025   9.636  66.384  1.00  0.00    -0.088 C  
HETATM   17  C   UNL     1      -7.387  12.132  68.765  1.00  0.00    -0.090 C  
HETATM   18  O   UNL     1      -6.212   9.344  67.519  1.00  0.00    -0.056 OA 
HETATM   19  C   UNL     1      -7.716  13.036  69.721  1.00  0.00     1.324 C  
HETATM   20  C   UNL     1      -8.473  10.442  66.856  1.00  0.00    -0.124 C  
HETATM   21  C   UNL     1      -9.549   9.360  67.365  1.00  0.00    -0.184 C  
HETATM   22  F   UNL     1      -9.093  10.980  65.705  1.00  0.00    -0.187 F  
HETATM   23  H   UNL     1      -6.233  10.110  68.081  1.00  0.00     0.000 HD 
HETATM   24  C   UNL     1     -10.809   9.983  67.976  1.00  0.00    -0.311 C  
ENDROOT
BRANCH   4  25
HETATM   25  O   UNL     1      -9.551   6.152  66.986  1.00  0.00    -0.126 OA 
BRANCH  25  26
HETATM   26  C   UNL     1     -10.055   5.215  66.143  1.00  0.00    -0.207 C  
HETATM   27  O   UNL     1     -11.135   5.261  65.570  1.00  0.00     0.189 OA 
BRANCH  26  28
HETATM   28  C   UNL     1      -9.031   4.113  65.950  1.00  0.00    -0.126 C  
HETATM   29  C   UNL     1      -9.617   2.912  65.224  1.00  0.00     0.011 C  
ENDBRANCH  26  28
ENDBRANCH  25  26
ENDBRANCH   4  25
BRANCH   4  30
HETATM   30  C   UNL     1      -7.397   6.023  66.605  1.00  0.00    -0.078 C  
HETATM   31  C   UNL     1      -7.203   5.186  67.845  1.00  0.00    -0.067 C  
HETATM   32  O   UNL     1      -6.660   5.676  65.665  1.00  0.00    -0.039 OA 
HETATM   33 CL   UNL     1      -8.288   5.509  69.173  1.00  0.00    -0.098 Cl 
ENDBRANCH   4  30
TORSDOF 4
ENDMDL
MODEL      102
REMARK 921   NORMALIZED FREE ENERGY PREDICTED BY IDOCK:   14.51 KCAL/MOL
REMARK 922        TOTAL FREE ENERGY PREDICTED BY IDOCK:   18.75 KCAL/MOL
REMARK 923 INTER-LIGAND FREE ENERGY PREDICTED BY IDOCK:    4.86 KCAL/MOL
REMARK 924 INTRA-LIGAND FREE ENERGY PREDICTED BY IDOCK:   13.89 KCAL/MOL
REMARK 927      BINDING AFFINITY PREDICTED BY RF-SCORE:    0.00 PKD
ROOT
HETATM    1  C   UNL     1      -8.952  16.824  67.842  1.00  0.00    -0.219 C  
HETATM    2  C   UNL     1      -9.312  16.765  66.476  1.00  0.00    -0.288 C  
HETATM    3  C   UNL     1     -10.348  16.346  67.465  1.00  0.00    -0.288 C  
HETATM    4  C   UNL     1      -9.901  16.853  69.426  1.00  0.00    -0.064 C  
HETATM    5  C   UNL     1     -11.681  16.374  66.407  1.00  0.00     1.198 C  
HETATM    6  O   UNL     1      -5.268   9.997  68.177  1.00  0.00    -0.036 OA 
HETATM    7  C   UNL     1      -6.253  10.722  68.136  1.00  0.00    -0.057 C  
HETATM    8  C   UNL     1     -10.791  17.202  68.466  1.00  0.00    -0.281 C  
HETATM    9  C   UNL     1      -6.505  11.626  66.954  1.00  0.00    -0.134 C  
HETATM   10  C   UNL     1      -7.137  12.718  67.430  1.00  0.00    -0.134 C  
HETATM   11  C   UNL     1     -11.312  18.633  68.176  1.00  0.00     0.905 C  
HETATM   12  C   UNL     1      -9.468  11.725  67.062  1.00  0.00    -0.191 C  
HETATM   13  C   UNL     1     -11.664  15.630  69.077  1.00  0.00    -0.408 C  
HETATM   14  C   UNL     1      -6.286  13.794  68.072  1.00  0.00    -0.141 C  
HETATM   15  C   UNL     1      -8.545  12.543  68.054  1.00  0.00    -0.185 C  
HETATM   16  C   UNL     1     -10.666  14.154  69.057  1.00  0.00    -0.231 C  
HETATM   17  C   UNL     1      -8.342  11.584  69.219  1.00  0.00     0.321 C  
HETATM   18  O   UNL     1     -10.463  13.770  70.416  1.00  0.00     0.508 OA 
HETATM   19  C   UNL     1      -7.297  10.720  69.225  1.00  0.00    -0.129 C  
HETATM   20  C   UNL     1      -9.212  13.988  68.147  1.00  0.00    -0.196 C  
HETATM   21  C   UNL     1      -8.278  15.276  68.385  1.00  0.00    -0.146 C  
HETATM   22  F   UNL     1      -9.522  14.078  66.770  1.00  0.00    -0.239 F  
HETATM   23  H   UNL     1      -9.931  12.983  70.405  1.00  0.00     0.000 HD 
HETATM   24  C   UNL     1      -6.884  15.149  67.763  1.00  0.00    -0.190 C  
ENDROOT
BRANCH   4  25
HETATM   25  O   UNL     1      -9.039  18.135  69.680  1.00  0.00     0.519 OA 
BRANCH  25  26
HETATM   26  C   UNL     1      -9.029  19.190  68.825  1.00  0.00    -0.346 C  
HETATM   27  O   UNL     1     -10.010  19.745  68.348  1.00  0.00    -0.404 OA 
BRANCH  26  28
HETATM   28  C   UNL     1      -7.599  19.638  68.599  1.00  0.00    -0.366 C  
HETATM   29  C   UNL     1      -7.112  19.305  67.196  1.00  0.00    -0.218 C  
ENDBRANCH  26  28
ENDBRANCH  25  26
ENDBRANCH   4  25
BRANCH   4  30
HETATM   30  C   UNL     1     -10.809  17.382  70.731  1.00  0.00     1.386 C  
HETATM   31  C   UNL     1     -10.517  18.676  71.449  1.00  0.00     3.156 C  
HETATM   32  O   UNL     1     -11.806  16.791  71.182  1.00  0.00     0.146 OA 
HETATM   33 CL   UNL     1      -9.218  19.644  70.799  1.00  0.00     1.615 Cl 
ENDBRANCH   4  30
TORSDOF 4
ENDMDL
MODEL      103
REMARK 921   NORMALIZED FREE ENERGY PREDICTED BY IDOCK:   15.51 KCAL/MOL
REMARK 922        TOTAL FREE ENERGY PREDICTED BY IDOCK:   19.98 KCAL/MOL
REMARK 923 INTER-LIGAND FREE ENERGY PREDICTED BY IDOCK:    3.43 KCAL/MOL
REMARK 924 INTRA-LIGAND FREE ENERGY PREDICTED BY IDOCK:   16.55 KCAL/MOL
REMARK 927      BINDING AFFINITY PREDICTED BY RF-SCORE:    0.00 PKD
ROOT
HETATM    1  C   UNL     1      -7.964  14.286  67.427  1.00  0.00    -0.211 C  
HETATM    2  C   UNL     1      -7.289  13.693  66.335  1.00  0.00     2.254 C  
HETATM    3  C   UNL     1      -8.729  13.344  66.507  1.00  0.00     0.083 C  
HETATM    4  C   UNL     1      -9.740  14.559  67.852  1.00  0.00    -0.218 C  
HETATM    5  C   UNL     1      -8.971  12.659  64.968  1.00  0.00     1.114 C  
HETATM    6  O   UNL     1      -5.660   9.237  72.858  1.00  0.00    -0.168 OA 
HETATM    7  C   UNL     1      -6.332   9.607  71.905  1.00  0.00     0.341 C  
HETATM    8  C   UNL     1      -9.720  14.318  66.518  1.00  0.00    -0.304 C  
HETATM    9  C   UNL     1      -5.685   9.975  70.593  1.00  0.00    -0.080 C  
HETATM   10  C   UNL     1      -6.448  10.941  70.042  1.00  0.00    -0.151 C  
HETATM   11  C   UNL     1      -9.870  15.375  65.394  1.00  0.00    -0.314 C  
HETATM   12  C   UNL     1      -7.911   9.276  68.759  1.00  0.00    -0.088 C  
HETATM   13  C   UNL     1     -10.808  12.849  67.036  1.00  0.00    -0.282 C  
HETATM   14  C   UNL     1      -6.248  12.357  70.538  1.00  0.00     0.236 C  
HETATM   15  C   UNL     1      -7.903  10.592  69.638  1.00  0.00    -0.048 C  
HETATM   16  C   UNL     1     -10.100  11.784  68.276  1.00  0.00    -0.197 C  
HETATM   17  C   UNL     1      -8.576  10.156  70.932  1.00  0.00     1.394 C  
HETATM   18  O   UNL     1     -10.893  11.930  69.453  1.00  0.00    -0.420 OA 
HETATM   19  C   UNL     1      -7.839   9.665  71.960  1.00  0.00     1.619 C  
HETATM   20  C   UNL     1      -8.421  11.744  68.666  1.00  0.00    -0.068 C  
HETATM   21  C   UNL     1      -7.879  13.247  68.862  1.00  0.00     0.104 C  
HETATM   22  F   UNL     1      -7.700  11.297  67.536  1.00  0.00    -0.106 F  
HETATM   23  H   UNL     1     -10.516  11.362  70.114  1.00  0.00     0.000 HD 
HETATM   24  C   UNL     1      -6.442  13.319  69.386  1.00  0.00    -0.097 C  
ENDROOT
BRANCH   4  25
HETATM   25  O   UNL     1      -9.261  16.040  68.014  1.00  0.00    -0.192 OA 
BRANCH  25  26
HETATM   26  C   UNL     1      -8.259  16.395  68.859  1.00  0.00    -0.235 C  
HETATM   27  O   UNL     1      -8.316  17.255  69.728  1.00  0.00     0.697 OA 
BRANCH  26  28
HETATM   28  C   UNL     1      -7.058  15.502  68.615  1.00  0.00    -0.118 C  
HETATM   29  C   UNL     1      -6.205  16.000  67.458  1.00  0.00    -0.194 C  
ENDBRANCH  26  28
ENDBRANCH  25  26
ENDBRANCH   4  25
BRANCH   4  30
HETATM   30  C   UNL     1     -11.285  15.205  67.907  1.00  0.00    -0.329 C  
HETATM   31  C   UNL     1     -12.455  14.567  67.200  1.00  0.00     0.209 C  
HETATM   32  O   UNL     1     -11.603  16.217  68.556  1.00  0.00    -0.346 OA 
HETATM   33 CL   UNL     1     -12.132  13.064  66.374  1.00  0.00    -0.456 Cl 
ENDBRANCH   4  30
TORSDOF 4
ENDMDL
MODEL      104
REMARK 921   NORMALIZED FREE ENERGY PREDICTED BY IDOCK:   16.88 KCAL/MOL
REMARK 922        TOTAL FREE ENERGY PREDICTED BY IDOCK:   21.68 KCAL/MOL
REMARK 923 INTER-LIGAND FREE ENERGY PREDICTED BY IDOCK:    9.01 KCAL/MOL
REMARK 924 INTRA-LIGAND FREE ENERGY PREDICTED BY IDOCK:   12.67 KCAL/MOL
REMARK 927      BINDING AFFINITY PREDICTED BY RF-SCORE:    0.00 PKD
ROOT
HETATM    1  C   UNL     1      -8.749  11.060  68.024  1.00  0.00    -0.138 C  
HETATM    2  C   UNL     1      -7.746  11.353  68.977  1.00  0.00    -0.064 C  
HETATM    3  C   UNL     1      -8.627  10.182  69.263  1.00  0.00    -0.180 C  
HETATM    4  C   UNL     1      -9.774   9.571  67.646  1.00  0.00    -0.154 C  
HETATM    5  C   UNL     1      -7.673   9.491  70.491  1.00  0.00    -0.177 C  
HETATM    6  O   UNL     1     -14.020  16.171  70.550  1.00  0.00     0.906 OA 
HETATM    7  C   UNL     1     -13.385  15.126  70.588  1.00  0.00    -0.261 C  
HETATM    8  C   UNL     1      -8.730   9.114  68.380  1.00  0.00    -0.129 C  
HETATM    9  C   UNL     1     -11.884  15.134  70.740  1.00  0.00    -0.371 C  
HETATM   10  C   UNL     1     -11.423  14.055  70.075  1.00  0.00    -0.235 C  
HETATM   11  C   UNL     1      -7.495   8.349  67.839  1.00  0.00    -0.098 C  
HETATM   12  C   UNL     1     -11.540  12.538  72.135  1.00  0.00     4.172 C  
HETATM   13  C   UNL     1     -10.128   8.601  69.559  1.00  0.00    -0.203 C  
HETATM   14  C   UNL     1     -11.272  14.170  68.573  1.00  0.00    -0.285 C  
HETATM   15  C   UNL     1     -11.827  12.647  70.583  1.00  0.00    -0.016 C  
HETATM   16  C   UNL     1     -11.224   9.916  70.051  1.00  0.00    -0.276 C  
HETATM   17  C   UNL     1     -13.347  12.622  70.502  1.00  0.00     0.883 C  
HETATM   18  O   UNL     1     -12.500   9.631  69.481  1.00  0.00     0.080 OA 
HETATM   19  C   UNL     1     -14.057  13.776  70.545  1.00  0.00     1.702 C  
HETATM   20  C   UNL     1     -10.845  11.591  69.903  1.00  0.00     0.245 C  
HETATM   21  C   UNL     1     -10.267  11.883  68.430  1.00  0.00    -0.205 C  
HETATM   22  F   UNL     1      -9.741  11.885  70.736  1.00  0.00     3.570 F  
HETATM   23  H   UNL     1     -13.085  10.332  69.743  1.00  0.00     0.000 HD 
HETATM   24  C   UNL     1     -10.064  13.372  68.132  1.00  0.00    -0.244 C  
ENDROOT
BRANCH   4  25
HETATM   25  O   UNL     1      -9.202   9.797  66.207  1.00  0.00    -0.151 OA 
BRANCH  25  26
HETATM   26  C   UNL     1      -7.881   9.679  65.919  1.00  0.00    -0.102 C  
HETATM   27  O   UNL     1      -6.973  10.348  66.395  1.00  0.00    -0.099 OA 
BRANCH  26  28
HETATM   28  C   UNL     1      -7.678   8.523  64.958  1.00  0.00    -0.102 C  
HETATM   29  C   UNL     1      -6.244   8.443  64.458  1.00  0.00    -0.065 C  
ENDBRANCH  26  28
ENDBRANCH  25  26
ENDBRANCH   4  25
BRANCH   4  30
HETATM   30  C   UNL     1     -10.264   8.080  67.060  1.00  0.00    -0.303 C  
HETATM   31  C   UNL     1      -9.920   6.785  67.754  1.00  0.00    -0.138 C  
HETATM   32  O   UNL     1     -10.973   7.917  66.052  1.00  0.00     1.585 OA 
HETATM   33 CL   UNL     1      -9.041   6.923  69.255  1.00  0.00    -0.140 Cl 
ENDBRANCH   4  30
TORSDOF 4
ENDMDL
MODEL      105
REMARK 921   NORMALIZED FREE ENERGY PREDICTED BY IDOCK:   16.99 KCAL/MOL
REMARK 922        TOTAL FREE ENERGY PREDICTED BY IDOCK:   21.81 KCAL/MOL
REMARK 923 INTER-LIGAND FREE ENERGY PREDICTED BY IDOCK:   14.57 KCAL/MOL
REMARK 924 INTRA-LIGAND FREE ENERGY PREDICTED BY IDOCK:    7.24 KCAL/MOL
REMARK 927      BINDING AFFINITY PREDICTED BY RF-SCORE:    0.00 PKD
ROOT
HETATM    1  C   UNL     1      -8.089   8.786  66.138  1.00  0.00    -0.107 C  
HETATM    2  C   UNL     1      -7.514   9.228  64.924  1.00  0.00    -0.107 C  
HETATM    3  C   UNL     1      -8.928   8.757  64.867  1.00  0.00    -0.065 C  
HETATM    4  C   UNL     1      -9.820   8.528  66.726  1.00  0.00    -0.257 C  
HETATM    5  C   UNL     1      -9.306   9.393  63.335  1.00  0.00     0.284 C  
HETATM    6  O   UNL     1      -5.236   1.565  65.995  1.00  0.00    -0.004 OA 
HETATM    7  C   UNL     1      -5.999   2.460  65.657  1.00  0.00    -0.022 C  
HETATM    8  C   UNL     1      -9.923   9.337  65.644  1.00  0.00    -0.130 C  
HETATM    9  C   UNL     1      -5.481   3.716  65.000  1.00  0.00    -0.010 C  
HETATM   10  C   UNL     1      -6.302   4.717  65.377  1.00  0.00    -0.035 C  
HETATM   11  C   UNL     1     -10.188  10.865  65.664  1.00  0.00    -0.323 C  
HETATM   12  C   UNL     1      -7.862   4.408  63.369  1.00  0.00    -0.076 C  
HETATM   13  C   UNL     1     -10.943   7.878  64.981  1.00  0.00     7.992 C  
HETATM   14  C   UNL     1      -6.070   5.335  66.739  1.00  0.00    -0.030 C  
HETATM   15  C   UNL     1      -7.785   4.664  64.930  1.00  0.00    -0.078 C  
HETATM   16  C   UNL     1     -10.111   6.303  65.003  1.00  0.00     2.212 C  
HETATM   17  C   UNL     1      -8.329   3.374  65.526  1.00  0.00    -0.099 C  
HETATM   18  O   UNL     1     -10.792   5.485  65.953  1.00  0.00    -0.594 OA 
HETATM   19  C   UNL     1      -7.494   2.347  65.822  1.00  0.00    -0.068 C  
HETATM   20  C   UNL     1      -8.403   6.118  65.143  1.00  0.00    -0.129 C  
HETATM   21  C   UNL     1      -7.860   7.039  66.345  1.00  0.00    -0.106 C  
HETATM   22  F   UNL     1      -7.787   6.691  64.008  1.00  0.00    -0.100 F  
HETATM   23  H   UNL     1     -10.349   4.645  65.964  1.00  0.00     0.000 HD 
HETATM   24  C   UNL     1      -6.380   6.815  66.673  1.00  0.00    -0.042 C  
ENDROOT
BRANCH   4  25
HETATM   25  O   UNL     1      -9.343   9.455  67.894  1.00  0.00    -0.129 OA 
BRANCH  25  26
HETATM   26  C   UNL     1      -8.801   8.966  69.039  1.00  0.00    -0.136 C  
HETATM   27  O   UNL     1      -7.962   9.520  69.737  1.00  0.00    -0.101 OA 
BRANCH  26  28
HETATM   28  C   UNL     1      -9.456   7.641  69.377  1.00  0.00    -0.152 C  
HETATM   29  C   UNL     1      -8.440   6.604  69.834  1.00  0.00    -0.139 C  
ENDBRANCH  26  28
ENDBRANCH  25  26
ENDBRANCH   4  25
BRANCH   4  30
HETATM   30  C   UNL     1     -11.359   8.811  67.325  1.00  0.00     1.234 C  
HETATM   31  C   UNL     1     -11.617   9.732  68.491  1.00  0.00     0.394 C  
HETATM   32  O   UNL     1     -12.402   8.335  66.843  1.00  0.00     5.714 OA 
HETATM   33 CL   UNL     1     -10.225  10.556  69.148  1.00  0.00    -0.226 Cl 
ENDBRANCH   4  30
TORSDOF 4
ENDMDL
MODEL      106
REMARK 921   NORMALIZED FREE ENERGY PREDICTED BY IDOCK:   17.19 KCAL/MOL
REMARK 922        TOTAL FREE ENERGY PREDICTED BY IDOCK:   22.05 KCAL/MOL
REMARK 923 INTER-LIGAND FREE ENERGY PREDICTED BY IDOCK:    6.63 KCAL/MOL
REMARK 924 INTRA-LIGAND FREE ENERGY PREDICTED BY IDOCK:   15.42 KCAL/MOL
REMARK 927      BINDING AFFINITY PREDICTED BY RF-SCORE:    0.00 PKD
ROOT
HETATM    1  C   UNL     1      -9.435  10.039  66.624  1.00  0.00    -0.215 C  
HETATM    2  C   UNL     1     -10.648  10.543  66.101  1.00  0.00    -0.182 C  
HETATM    3  C   UNL     1     -10.015  11.322  67.205  1.00  0.00    -0.219 C  
HETATM    4  C   UNL     1      -8.061  10.763  67.623  1.00  0.00    -0.114 C  
HETATM    5  C   UNL     1     -10.926  12.747  67.014  1.00  0.00    -0.295 C  
HETATM    6  O   UNL     1     -12.554   4.865  71.502  1.00  0.00     2.966 OA 
HETATM    7  C   UNL     1     -12.233   5.987  71.137  1.00  0.00     0.516 C  
HETATM    8  C   UNL     1      -8.722  11.823  67.097  1.00  0.00    -0.169 C  
HETATM    9  C   UNL     1     -12.800   6.587  69.873  1.00  0.00     2.283 C  
HETATM   10  C   UNL     1     -11.844   7.390  69.363  1.00  0.00     0.698 C  
HETATM   11  C   UNL     1      -8.256  12.693  65.902  1.00  0.00     1.273 C  
HETATM   12  C   UNL     1     -12.684   9.456  70.622  1.00  0.00     0.042 C  
HETATM   13  C   UNL     1      -8.995  12.226  68.933  1.00  0.00     0.269 C  
HETATM   14  C   UNL     1     -10.740   6.738  68.559  1.00  0.00    -0.280 C  
HETATM   15  C   UNL     1     -11.407   8.630  70.183  1.00  0.00    -0.083 C  
HETATM   16  C   UNL     1      -9.748  10.924  69.890  1.00  0.00     0.608 C  
HETATM   17  C   UNL     1     -10.883   8.068  71.497  1.00  0.00    -0.278 C  
HETATM   18  O   UNL     1      -8.766  10.470  70.820  1.00  0.00     0.423 OA 
HETATM   19  C   UNL     1     -11.303   6.859  71.945  1.00  0.00    -0.297 C  
HETATM   20  C   UNL     1     -10.605   9.596  69.202  1.00  0.00    -0.220 C  
HETATM   21  C   UNL     1      -9.740   8.963  68.001  1.00  0.00    -0.181 C  
HETATM   22  F   UNL     1     -11.750  10.088  68.536  1.00  0.00    -0.174 F  
HETATM   23  H   UNL     1      -9.167   9.776  71.330  1.00  0.00     0.000 HD 
HETATM   24  C   UNL     1     -10.328   7.666  67.436  1.00  0.00    -0.347 C  
ENDROOT
BRANCH   4  25
HETATM   25  O   UNL     1      -7.188  10.197  66.454  1.00  0.00    -0.098 OA 
BRANCH  25  26
HETATM   26  C   UNL     1      -7.417  10.511  65.153  1.00  0.00    -0.036 C  
HETATM   27  O   UNL     1      -8.079  11.454  64.741  1.00  0.00     0.507 OA 
BRANCH  26  28
HETATM   28  C   UNL     1      -6.654   9.548  64.264  1.00  0.00    -0.100 C  
HETATM   29  C   UNL     1      -5.659  10.268  63.366  1.00  0.00    -0.141 C  
ENDBRANCH  26  28
ENDBRANCH  25  26
ENDBRANCH   4  25
BRANCH   4  30
HETATM   30  C   UNL     1      -6.676  11.599  68.059  1.00  0.00    -0.064 C  
HETATM   31  C   UNL     1      -6.408  13.013  67.606  1.00  0.00    -0.161 C  
HETATM   32  O   UNL     1      -5.791  11.155  68.812  1.00  0.00    -0.043 OA 
HETATM   33 CL   UNL     1      -7.661  13.771  66.656  1.00  0.00     0.745 Cl 
ENDBRANCH   4  30
TORSDOF 4
ENDMDL
MODEL      107
REMARK 921   NORMALIZED FREE ENERGY PREDICTED BY IDOCK:   17.80 KCAL/MOL
REMARK 922        TOTAL FREE ENERGY PREDICTED BY IDOCK:   22.81 KCAL/MOL
REMARK 923 INTER-LIGAND FREE ENERGY PREDICTED BY IDOCK:    6.46 KCAL/MOL
REMARK 924 INTRA-LIGAND FREE ENERGY PREDICTED BY IDOCK:   16.35 KCAL/MOL
REMARK 927      BINDING AFFINITY PREDICTED BY RF-SCORE:    0.00 PKD
ROOT
HETATM    1  C   UNL     1      -9.593   5.309  70.953  1.00  0.00    -0.233 C  
HETATM    2  C   UNL     1      -8.262   5.087  71.375  1.00  0.00    -0.113 C  
HETATM    3  C   UNL     1      -8.574   6.431  70.808  1.00  0.00    -0.135 C  
HETATM    4  C   UNL     1     -10.603   6.816  70.609  1.00  0.00    -0.224 C  
HETATM    5  C   UNL     1      -7.167   7.224  71.346  1.00  0.00    -0.076 C  
HETATM    6  O   UNL     1      -8.950   2.040  63.939  1.00  0.00    -0.090 OA 
HETATM    7  C   UNL     1      -8.788   2.928  64.765  1.00  0.00    -0.115 C  
HETATM    8  C   UNL     1      -9.558   7.245  71.358  1.00  0.00    -0.165 C  
HETATM    9  C   UNL     1      -7.986   2.686  66.020  1.00  0.00    -0.082 C  
HETATM   10  C   UNL     1      -8.527   3.462  66.981  1.00  0.00    -0.109 C  
HETATM   11  C   UNL     1      -9.599   7.612  72.864  1.00  0.00    -0.274 C  
HETATM   12  C   UNL     1      -6.984   5.441  66.475  1.00  0.00    -0.064 C  
HETATM   13  C   UNL     1      -9.213   8.283  69.805  1.00  0.00    -0.154 C  
HETATM   14  C   UNL     1      -9.770   2.948  67.676  1.00  0.00     0.125 C  
HETATM   15  C   UNL     1      -8.467   5.001  66.809  1.00  0.00    -0.106 C  
HETATM   16  C   UNL     1      -9.072   7.354  68.291  1.00  0.00    -0.128 C  
HETATM   17  C   UNL     1      -9.218   5.280  65.514  1.00  0.00    -0.122 C  
HETATM   18  O   UNL     1     -10.186   7.715  67.475  1.00  0.00    -0.187 OA 
HETATM   19  C   UNL     1      -9.325   4.323  64.560  1.00  0.00    -0.160 C  
HETATM   20  C   UNL     1      -8.786   5.656  68.226  1.00  0.00    -0.108 C  
HETATM   21  C   UNL     1      -9.787   4.904  69.237  1.00  0.00    -0.272 C  
HETATM   22  F   UNL     1      -7.517   5.384  68.785  1.00  0.00    -0.069 F  
HETATM   23  H   UNL     1     -10.110   7.220  66.668  1.00  0.00     0.000 HD 
HETATM   24  C   UNL     1      -9.741   3.376  69.127  1.00  0.00     0.001 C  
ENDROOT
BRANCH   4  25
HETATM   25  O   UNL     1     -11.586   6.136  71.619  1.00  0.00    -0.295 OA 
BRANCH  25  26
HETATM   26  C   UNL     1     -12.915   6.007  71.370  1.00  0.00     1.219 C  
HETATM   27  O   UNL     1     -13.812   6.011  72.202  1.00  0.00     0.318 OA 
BRANCH  26  28
HETATM   28  C   UNL     1     -13.139   5.929  69.872  1.00  0.00     6.037 C  
HETATM   29  C   UNL     1     -12.384   7.020  69.127  1.00  0.00     2.007 C  
ENDBRANCH  26  28
ENDBRANCH  25  26
ENDBRANCH   4  25
BRANCH   4  30
HETATM   30  C   UNL     1     -11.559   8.176  70.817  1.00  0.00    -0.238 C  
HETATM   31  C   UNL     1     -11.008   9.481  71.336  1.00  0.00    -0.345 C  
HETATM   32  O   UNL     1     -12.766   8.240  70.527  1.00  0.00     0.295 OA 
HETATM   33 CL   UNL     1      -9.290   9.527  71.642  1.00  0.00     0.320 Cl 
ENDBRANCH   4  30
TORSDOF 4
ENDMDL
MODEL      108
REMARK 921   NORMALIZED FREE ENERGY PREDICTED BY IDOCK:   19.13 KCAL/MOL
REMARK 922        TOTAL FREE ENERGY PREDICTED BY IDOCK:   24.45 KCAL/MOL
REMARK 923 INTER-LIGAND FREE ENERGY PREDICTED BY IDOCK:   16.68 KCAL/MOL
REMARK 924 INTRA-LIGAND FREE ENERGY PREDICTED BY IDOCK:    7.76 KCAL/MOL
REMARK 927      BINDING AFFINITY PREDICTED BY RF-SCORE:    0.00 PKD
ROOT
HETATM    1  C   UNL     1      -9.531  11.631  67.535  1.00  0.00    -0.173 C  
HETATM    2  C   UNL     1      -8.394  11.794  68.361  1.00  0.00    -0.153 C  
HETATM    3  C   UNL     1      -9.221  10.573  68.586  1.00  0.00    -0.172 C  
HETATM    4  C   UNL     1     -10.603  10.197  67.084  1.00  0.00    -0.246 C  
HETATM    5  C   UNL     1      -8.092   9.719  69.530  1.00  0.00    -0.141 C  
HETATM    6  O   UNL     1     -14.349  16.155  71.611  1.00  0.00     0.084 OA 
HETATM    7  C   UNL     1     -13.717  15.133  71.386  1.00  0.00    -0.495 C  
HETATM    8  C   UNL     1      -9.459   9.655  67.570  1.00  0.00    -0.157 C  
HETATM    9  C   UNL     1     -12.210  15.151  71.308  1.00  0.00    -0.395 C  
HETATM   10  C   UNL     1     -11.857  14.202  70.418  1.00  0.00    -0.367 C  
HETATM   11  C   UNL     1      -8.322   9.014  66.734  1.00  0.00    -0.115 C  
HETATM   12  C   UNL     1     -11.659  12.377  72.204  1.00  0.00     4.279 C  
HETATM   13  C   UNL     1     -10.660   8.929  68.850  1.00  0.00    -0.188 C  
HETATM   14  C   UNL     1     -11.937  14.556  68.949  1.00  0.00    -0.326 C  
HETATM   15  C   UNL     1     -12.180  12.722  70.750  1.00  0.00    -0.338 C  
HETATM   16  C   UNL     1     -11.668  10.125  69.705  1.00  0.00    -0.139 C  
HETATM   17  C   UNL     1     -13.694  12.675  70.897  1.00  0.00     1.334 C  
HETATM   18  O   UNL     1     -13.016   9.903  69.296  1.00  0.00     0.411 OA 
HETATM   19  C   UNL     1     -14.389  13.791  71.230  1.00  0.00     0.527 C  
HETATM   20  C   UNL     1     -11.314  11.810  69.770  1.00  0.00    -0.170 C  
HETATM   21  C   UNL     1     -10.967  12.345  68.293  1.00  0.00    -0.269 C  
HETATM   22  F   UNL     1     -10.095  11.995  70.462  1.00  0.00     2.028 F  
HETATM   23  H   UNL     1     -13.553  10.540  69.752  1.00  0.00     0.000 HD 
HETATM   24  C   UNL     1     -10.812  13.866  68.209  1.00  0.00    -0.263 C  
ENDROOT
BRANCH   4  25
HETATM   25  O   UNL     1     -10.257  10.661  65.630  1.00  0.00    -0.255 OA 
BRANCH  25  26
HETATM   26  C   UNL     1     -10.629  11.872  65.141  1.00  0.00    -0.287 C  
HETATM   27  O   UNL     1     -11.775  12.283  65.020  1.00  0.00    -0.352 OA 
BRANCH  26  28
HETATM   28  C   UNL     1      -9.390  12.689  64.831  1.00  0.00     0.486 C  
HETATM   29  C   UNL     1      -9.730  13.990  64.120  1.00  0.00     2.091 C  
ENDBRANCH  26  28
ENDBRANCH  25  26
ENDBRANCH   4  25
BRANCH   4  30
HETATM   30  C   UNL     1     -11.177   8.806  66.349  1.00  0.00     2.013 C  
HETATM   31  C   UNL     1     -10.714   7.428  66.750  1.00  0.00    -0.132 C  
HETATM   32  O   UNL     1     -12.048   8.786  65.461  1.00  0.00     8.707 OA 
HETATM   33 CL   UNL     1      -9.592   7.348  68.085  1.00  0.00    -0.144 Cl 
ENDBRANCH   4  30
TORSDOF 4
ENDMDL
MODEL      109
REMARK 921   NORMALIZED FREE ENERGY PREDICTED BY IDOCK:   19.17 KCAL/MOL
REMARK 922        TOTAL FREE ENERGY PREDICTED BY IDOCK:   24.50 KCAL/MOL
REMARK 923 INTER-LIGAND FREE ENERGY PREDICTED BY IDOCK:   12.60 KCAL/MOL
REMARK 924 INTRA-LIGAND FREE ENERGY PREDICTED BY IDOCK:   11.90 KCAL/MOL
REMARK 927      BINDING AFFINITY PREDICTED BY RF-SCORE:    0.00 PKD
ROOT
HETATM    1  C   UNL     1     -10.513  14.699  69.361  1.00  0.00    -0.175 C  
HETATM    2  C   UNL     1      -9.307  14.085  69.773  1.00  0.00     1.187 C  
HETATM    3  C   UNL     1      -9.906  15.086  70.703  1.00  0.00     0.808 C  
HETATM    4  C   UNL     1     -11.855  15.619  70.232  1.00  0.00    -0.365 C  
HETATM    5  C   UNL     1      -8.985  14.683  72.076  1.00  0.00     6.231 C  
HETATM    6  O   UNL     1      -7.332  20.165  64.856  1.00  0.00    -0.242 OA 
HETATM    7  C   UNL     1      -7.651  19.658  65.922  1.00  0.00    -0.310 C  
HETATM    8  C   UNL     1     -11.196  14.940  71.201  1.00  0.00    -0.190 C  
HETATM    9  C   UNL     1      -7.108  18.313  66.337  1.00  0.00    -0.271 C  
HETATM   10  C   UNL     1      -8.067  17.719  67.076  1.00  0.00    -0.239 C  
HETATM   11  C   UNL     1     -11.681  13.647  71.907  1.00  0.00     1.386 C  
HETATM   12  C   UNL     1      -7.177  18.666  69.283  1.00  0.00    -0.153 C  
HETATM   13  C   UNL     1     -10.876  16.698  71.846  1.00  0.00     1.567 C  
HETATM   14  C   UNL     1      -9.196  17.035  66.335  1.00  0.00    -0.298 C  
HETATM   15  C   UNL     1      -8.472  18.372  68.422  1.00  0.00    -0.345 C  
HETATM   16  C   UNL     1     -10.114  17.806  70.677  1.00  0.00     2.404 C  
HETATM   17  C   UNL     1      -8.971  19.761  68.050  1.00  0.00    -0.376 C  
HETATM   18  O   UNL     1     -11.079  18.810  70.366  1.00  0.00     1.813 OA 
HETATM   19  C   UNL     1      -8.552  20.360  66.908  1.00  0.00    -0.330 C  
HETATM   20  C   UNL     1      -9.287  17.286  69.256  1.00  0.00     0.091 C  
HETATM   21  C   UNL     1     -10.186  16.202  68.478  1.00  0.00    -0.241 C  
HETATM   22  F   UNL     1      -8.153  16.534  69.638  1.00  0.00    -0.141 F  
HETATM   23  H   UNL     1     -10.673  19.401  69.743  1.00  0.00     0.000 HD 
HETATM   24  C   UNL     1      -9.625  15.806  67.108  1.00  0.00    -0.224 C  
ENDROOT
BRANCH   4  25
HETATM   25  O   UNL     1     -12.761  14.558  69.524  1.00  0.00    -0.114 OA 
BRANCH  25  26
HETATM   26  C   UNL     1     -12.291  13.720  68.564  1.00  0.00     0.031 C  
HETATM   27  O   UNL     1     -11.672  14.044  67.560  1.00  0.00    -0.343 OA 
BRANCH  26  28
HETATM   28  C   UNL     1     -12.585  12.287  68.962  1.00  0.00     0.712 C  
HETATM   29  C   UNL     1     -11.656  11.301  68.269  1.00  0.00    -0.370 C  
ENDBRANCH  26  28
ENDBRANCH  25  26
ENDBRANCH   4  25
BRANCH   4  30
HETATM   30  C   UNL     1     -13.221  15.967  71.138  1.00  0.00     0.458 C  
HETATM   31  C   UNL     1     -13.144  16.557  72.524  1.00  0.00     0.744 C  
HETATM   32  O   UNL     1     -14.389  15.815  70.739  1.00  0.00    -0.121 OA 
HETATM   33 CL   UNL     1     -11.546  16.934  73.116  1.00  0.00     0.018 Cl 
ENDBRANCH   4  30
TORSDOF 4
ENDMDL
MODEL      110
REMARK 921   NORMALIZED FREE ENERGY PREDICTED BY IDOCK:   21.81 KCAL/MOL
REMARK 922        TOTAL FREE ENERGY PREDICTED BY IDOCK:   27.75 KCAL/MOL
REMARK 923 INTER-LIGAND FREE ENERGY PREDICTED BY IDOCK:   14.07 KCAL/MOL
REMARK 924 INTRA-LIGAND FREE ENERGY PREDICTED BY IDOCK:   13.68 KCAL/MOL
REMARK 927      BINDING AFFINITY PREDICTED BY RF-SCORE:    0.00 PKD
ROOT
HETATM    1  C   UNL     1      -8.188  17.777  69.935  1.00  0.00     1.641 C  
HETATM    2  C   UNL     1      -7.166  17.044  70.583  1.00  0.00     2.903 C  
HETATM    3  C   UNL     1      -7.209  16.969  69.093  1.00  0.00    -0.209 C  
HETATM    4  C   UNL     1      -8.447  18.380  68.209  1.00  0.00    -0.303 C  
HETATM    5  C   UNL     1      -5.659  16.303  68.867  1.00  0.00    -0.117 C  
HETATM    6  O   UNL     1     -13.842  12.522  70.779  1.00  0.00     1.309 OA 
HETATM    7  C   UNL     1     -12.829  12.986  70.274  1.00  0.00     0.236 C  
HETATM    8  C   UNL     1      -7.122  18.108  68.302  1.00  0.00    -0.249 C  
HETATM    9  C   UNL     1     -11.579  13.198  71.091  1.00  0.00     1.168 C  
HETATM   10  C   UNL     1     -10.954  14.274  70.571  1.00  0.00     0.331 C  
HETATM   11  C   UNL     1      -5.981  19.148  68.450  1.00  0.00    -0.231 C  
HETATM   12  C   UNL     1      -9.555  12.875  68.946  1.00  0.00     0.215 C  
HETATM   13  C   UNL     1      -7.549  16.876  66.921  1.00  0.00    -0.250 C  
HETATM   14  C   UNL     1     -11.456  15.641  70.984  1.00  0.00    -0.439 C  
HETATM   15  C   UNL     1     -10.422  14.188  69.118  1.00  0.00    -0.143 C  
HETATM   16  C   UNL     1      -8.856  15.729  67.308  1.00  0.00    -0.195 C  
HETATM   17  C   UNL     1     -11.652  13.913  68.265  1.00  0.00    -0.372 C  
HETATM   18  O   UNL     1      -9.954  16.046  66.454  1.00  0.00    -0.262 OA 
HETATM   19  C   UNL     1     -12.745  13.320  68.805  1.00  0.00     0.955 C  
HETATM   20  C   UNL     1      -9.398  15.392  68.909  1.00  0.00    -0.218 C  
HETATM   21  C   UNL     1      -9.632  16.774  69.699  1.00  0.00     0.272 C  
HETATM   22  F   UNL     1      -8.342  14.793  69.633  1.00  0.00    -0.128 F  
HETATM   23  H   UNL     1     -10.651  15.434  66.660  1.00  0.00     0.000 HD 
HETATM   24  C   UNL     1     -10.284  16.595  71.074  1.00  0.00     2.060 C  
ENDROOT
BRANCH   4  25
HETATM   25  O   UNL     1      -8.641  19.752  68.937  1.00  0.00    -0.251 OA 
BRANCH  25  26
HETATM   26  C   UNL     1      -7.821  20.173  69.933  1.00  0.00     0.760 C  
HETATM   27  O   UNL     1      -6.609  20.013  69.991  1.00  0.00    -0.356 OA 
BRANCH  26  28
HETATM   28  C   UNL     1      -8.630  20.953  70.951  1.00  0.00     3.118 C  
HETATM   29  C   UNL     1      -9.250  20.045  72.003  1.00  0.00     2.821 C  
ENDBRANCH  26  28
ENDBRANCH  25  26
ENDBRANCH   4  25
BRANCH   4  30
HETATM   30  C   UNL     1      -8.356  19.299  66.811  1.00  0.00    -0.296 C  
HETATM   31  C   UNL     1      -7.656  18.813  65.567  1.00  0.00     0.261 C  
HETATM   32  O   UNL     1      -8.884  20.416  66.667  1.00  0.00    -0.260 OA 
HETATM   33 CL   UNL     1      -7.001  17.196  65.630  1.00  0.00     0.303 Cl 
ENDBRANCH   4  30
TORSDOF 4
ENDMDL
MODEL      111
REMARK 921   NORMALIZED FREE ENERGY PREDICTED BY IDOCK:   22.06 KCAL/MOL
REMARK 922        TOTAL FREE ENERGY PREDICTED BY IDOCK:   28.07 KCAL/MOL
REMARK 923 INTER-LIGAND FREE ENERGY PREDICTED BY IDOCK:   14.50 KCAL/MOL
REMARK 924 INTRA-LIGAND FREE ENERGY PREDICTED BY IDOCK:   13.57 KCAL/MOL
REMARK 927      BINDING AFFINITY PREDICTED BY RF-SCORE:    0.00 PKD
ROOT
HETATM    1  C   UNL     1      -8.652  17.883  68.124  1.00  0.00    -0.265 C  
HETATM    2  C   UNL     1      -9.038  17.974  66.766  1.00  0.00    -0.280 C  
HETATM    3  C   UNL     1     -10.109  18.170  67.787  1.00  0.00    -0.371 C  
HETATM    4  C   UNL     1      -9.400  18.439  69.718  1.00  0.00     0.940 C  
HETATM    5  C   UNL     1     -11.278  18.841  66.747  1.00  0.00     0.366 C  
HETATM    6  O   UNL     1      -8.937  10.146  68.705  1.00  0.00    -0.125 OA 
HETATM    7  C   UNL     1      -9.417  11.269  68.646  1.00  0.00    -0.175 C  
HETATM    8  C   UNL     1     -10.021  19.163  68.756  1.00  0.00    -0.493 C  
HETATM    9  C   UNL     1      -9.215  12.139  67.430  1.00  0.00    -0.182 C  
HETATM   10  C   UNL     1      -9.189  13.414  67.866  1.00  0.00    -0.216 C  
HETATM   11  C   UNL     1      -9.753  20.651  68.411  1.00  0.00     0.110 C  
HETATM   12  C   UNL     1     -11.713  13.735  67.574  1.00  0.00    -0.410 C  
HETATM   13  C   UNL     1     -11.550  18.274  69.447  1.00  0.00     3.955 C  
HETATM   14  C   UNL     1      -7.888  13.927  68.448  1.00  0.00    -0.138 C  
HETATM   15  C   UNL     1     -10.469  14.000  68.516  1.00  0.00    -0.251 C  
HETATM   16  C   UNL     1     -11.442  16.495  69.477  1.00  0.00     0.015 C  
HETATM   17  C   UNL     1     -10.741  13.107  69.719  1.00  0.00     0.545 C  
HETATM   18  O   UNL     1     -11.415  16.103  70.849  1.00  0.00    -0.403 OA 
HETATM   19  C   UNL     1     -10.281  11.832  69.748  1.00  0.00     0.912 C  
HETATM   20  C   UNL     1     -10.306  15.585  68.555  1.00  0.00    -0.225 C  
HETATM   21  C   UNL     1      -8.839  16.225  68.724  1.00  0.00    -0.243 C  
HETATM   22  F   UNL     1     -10.574  15.778  67.181  1.00  0.00    -0.289 F  
HETATM   23  H   UNL     1     -11.358  15.155  70.865  1.00  0.00     0.000 HD 
HETATM   24  C   UNL     1      -7.725  15.388  68.089  1.00  0.00    -0.126 C  
ENDROOT
BRANCH   4  25
HETATM   25  O   UNL     1      -7.998  19.112  69.903  1.00  0.00     0.420 OA 
BRANCH  25  26
HETATM   26  C   UNL     1      -7.645  20.253  69.259  1.00  0.00     0.321 C  
HETATM   27  O   UNL     1      -8.256  21.313  69.275  1.00  0.00     2.712 OA 
BRANCH  26  28
HETATM   28  C   UNL     1      -6.314  20.044  68.563  1.00  0.00    -0.322 C  
HETATM   29  C   UNL     1      -6.481  19.853  67.062  1.00  0.00    -0.212 C  
ENDBRANCH  26  28
ENDBRANCH  25  26
ENDBRANCH   4  25
BRANCH   4  30
HETATM   30  C   UNL     1      -9.868  19.397  71.011  1.00  0.00     2.286 C  
HETATM   31  C   UNL     1      -8.881  20.192  71.828  1.00  0.00     2.530 C  
HETATM   32  O   UNL     1     -11.046  19.566  71.372  1.00  0.00     3.470 OA 
HETATM   33 CL   UNL     1      -7.216  20.126  71.309  1.00  0.00     0.643 Cl 
ENDBRANCH   4  30
TORSDOF 4
ENDMDL
MODEL      112
REMARK 921   NORMALIZED FREE ENERGY PREDICTED BY IDOCK:   23.95 KCAL/MOL
REMARK 922        TOTAL FREE ENERGY PREDICTED BY IDOCK:   30.39 KCAL/MOL
REMARK 923 INTER-LIGAND FREE ENERGY PREDICTED BY IDOCK:   22.62 KCAL/MOL
REMARK 924 INTRA-LIGAND FREE ENERGY PREDICTED BY IDOCK:    7.77 KCAL/MOL
REMARK 927      BINDING AFFINITY PREDICTED BY RF-SCORE:    0.00 PKD
ROOT
HETATM    1  C   UNL     1      -9.788  14.973  66.580  1.00  0.00    -0.266 C  
HETATM    2  C   UNL     1      -9.351  15.834  65.547  1.00  0.00    -0.056 C  
HETATM    3  C   UNL     1     -10.820  15.785  65.809  1.00  0.00    -0.286 C  
HETATM    4  C   UNL     1     -11.332  14.841  67.583  1.00  0.00    -0.339 C  
HETATM    5  C   UNL     1     -11.241  17.182  64.933  1.00  0.00     0.403 C  
HETATM    6  O   UNL     1      -9.891   8.423  62.410  1.00  0.00     2.084 OA 
HETATM    7  C   UNL     1     -10.321   9.508  62.777  1.00  0.00     2.911 C  
HETATM    8  C   UNL     1     -11.349  16.089  67.057  1.00  0.00     0.149 C  
HETATM    9  C   UNL     1      -9.524  10.772  62.570  1.00  0.00    -0.279 C  
HETATM   10  C   UNL     1      -9.822  11.591  63.598  1.00  0.00    -0.379 C  
HETATM   11  C   UNL     1     -11.023  17.405  67.809  1.00  0.00    -0.142 C  
HETATM   12  C   UNL     1     -11.761  12.709  62.354  1.00  0.00     2.722 C  
HETATM   13  C   UNL     1     -12.947  15.444  66.258  1.00  0.00     2.206 C  
HETATM   14  C   UNL     1      -9.105  11.354  64.911  1.00  0.00     0.002 C  
HETATM   15  C   UNL     1     -11.278  12.105  63.735  1.00  0.00    -0.509 C  
HETATM   16  C   UNL     1     -12.769  13.942  65.317  1.00  0.00    -0.449 C  
HETATM   17  C   UNL     1     -12.125  10.849  63.886  1.00  0.00     1.777 C  
HETATM   18  O   UNL     1     -13.493  12.927  66.011  1.00  0.00     0.846 OA 
HETATM   19  C   UNL     1     -11.685   9.660  63.404  1.00  0.00     9.224 C  
HETATM   20  C   UNL     1     -11.259  13.338  64.744  1.00  0.00    -0.331 C  
HETATM   21  C   UNL     1     -10.181  13.366  65.939  1.00  0.00    -0.302 C  
HETATM   22  F   UNL     1     -10.721  14.259  63.817  1.00  0.00     0.188 F  
HETATM   23  H   UNL     1     -13.398  12.126  65.509  1.00  0.00     0.000 HD 
HETATM   24  C   UNL     1      -8.855  12.685  65.587  1.00  0.00     0.683 C  
ENDROOT
BRANCH   4  25
HETATM   25  O   UNL     1     -10.319  14.905  68.775  1.00  0.00    -0.230 OA 
BRANCH  25  26
HETATM   26  C   UNL     1      -8.993  15.136  68.594  1.00  0.00    -0.191 C  
HETATM   27  O   UNL     1      -8.408  16.192  68.794  1.00  0.00    -0.203 OA 
BRANCH  26  28
HETATM   28  C   UNL     1      -8.314  13.848  68.172  1.00  0.00    -0.163 C  
HETATM   29  C   UNL     1      -7.906  13.001  69.369  1.00  0.00     0.710 C  
ENDBRANCH  26  28
ENDBRANCH  25  26
ENDBRANCH   4  25
BRANCH   4  30
HETATM   30  C   UNL     1     -12.501  15.110  68.753  1.00  0.00     0.221 C  
HETATM   31  C   UNL     1     -12.505  14.385  70.076  1.00  0.00    -0.301 C  
HETATM   32  O   UNL     1     -13.419  15.943  68.654  1.00  0.00     2.543 OA 
HETATM   33 CL   UNL     1     -11.173  13.293  70.362  1.00  0.00     0.379 Cl 
ENDBRANCH   4  30
TORSDOF 4
ENDMDL
MODEL      113
REMARK 921   NORMALIZED FREE ENERGY PREDICTED BY IDOCK:   34.31 KCAL/MOL
REMARK 922        TOTAL FREE ENERGY PREDICTED BY IDOCK:   43.18 KCAL/MOL
REMARK 923 INTER-LIGAND FREE ENERGY PREDICTED BY IDOCK:   29.14 KCAL/MOL
REMARK 924 INTRA-LIGAND FREE ENERGY PREDICTED BY IDOCK:   14.05 KCAL/MOL
REMARK 927      BINDING AFFINITY PREDICTED BY RF-SCORE:    0.00 PKD
ROOT
HETATM    1  C   UNL     1      -6.934  11.534  68.207  1.00  0.00    -0.073 C  
HETATM    2  C   UNL     1      -6.126  12.620  67.798  1.00  0.00    -0.127 C  
HETATM    3  C   UNL     1      -6.949  12.817  69.027  1.00  0.00    -0.059 C  
HETATM    4  C   UNL     1      -7.765  11.068  69.788  1.00  0.00     0.294 C  
HETATM    5  C   UNL     1      -6.159  14.214  69.594  1.00  0.00    -0.121 C  
HETATM    6  O   UNL     1     -12.927  12.935  63.472  1.00  0.00    -0.568 OA 
HETATM    7  C   UNL     1     -12.228  13.124  64.458  1.00  0.00    -0.406 C  
HETATM    8  C   UNL     1      -6.823  11.980  70.131  1.00  0.00     0.628 C  
HETATM    9  C   UNL     1     -10.776  13.514  64.319  1.00  0.00    -0.324 C  
HETATM   10  C   UNL     1     -10.131  12.984  65.378  1.00  0.00    -0.265 C  
HETATM   11  C   UNL     1      -5.460  11.682  70.807  1.00  0.00    -0.135 C  
HETATM   12  C   UNL     1     -10.466  15.069  66.827  1.00  0.00    -0.283 C  
HETATM   13  C   UNL     1      -8.351  12.944  70.718  1.00  0.00     7.506 C  
HETATM   14  C   UNL     1      -9.746  11.522  65.302  1.00  0.00    -0.268 C  
HETATM   15  C   UNL     1     -10.503  13.487  66.797  1.00  0.00    -0.273 C  
HETATM   16  C   UNL     1      -9.612  13.190  69.483  1.00  0.00     1.322 C  
HETATM   17  C   UNL     1     -11.982  13.165  66.952  1.00  0.00    -0.421 C  
HETATM   18  O   UNL     1     -10.751  12.436  69.895  1.00  0.00    -0.169 OA 
HETATM   19  C   UNL     1     -12.777  13.038  65.861  1.00  0.00     0.012 C  
HETATM   20  C   UNL     1      -9.344  13.025  67.789  1.00  0.00    -0.199 C  
HETATM   21  C   UNL     1      -8.557  11.652  67.500  1.00  0.00    -0.149 C  
HETATM   22  F   UNL     1      -8.417  14.009  67.375  1.00  0.00    -0.155 F  
HETATM   23  H   UNL     1     -11.423  12.568  69.236  1.00  0.00     0.000 HD 
HETATM   24  C   UNL     1      -8.424  11.319  66.011  1.00  0.00    -0.102 C  
ENDROOT
BRANCH   4  25
HETATM   25  O   UNL     1      -6.984   9.730  69.565  1.00  0.00    -0.053 OA 
BRANCH  25  26
HETATM   26  C   UNL     1      -7.339   8.826  68.616  1.00  0.00    -0.080 C  
HETATM   27  O   UNL     1      -7.235   7.610  68.698  1.00  0.00    -0.078 OA 
BRANCH  26  28
HETATM   28  C   UNL     1      -7.968   9.553  67.443  1.00  0.00    -0.106 C  
HETATM   29  C   UNL     1      -7.854   8.757  66.152  1.00  0.00    -0.102 C  
ENDBRANCH  26  28
ENDBRANCH  25  26
ENDBRANCH   4  25
BRANCH   4  30
HETATM   30  C   UNL     1      -8.035  10.483  71.335  1.00  0.00     3.968 C  
HETATM   31  C   UNL     1      -7.785  11.312  72.570  1.00  0.00    12.638 C  
HETATM   32  O   UNL     1      -8.497   9.357  71.592  1.00  0.00    -0.232 OA 
HETATM   33 CL   UNL     1      -7.266  12.957  72.303  1.00  0.00     7.517 Cl 
ENDBRANCH   4  30
TORSDOF 4
ENDMDL
MODEL      114
REMARK 921   NORMALIZED FREE ENERGY PREDICTED BY IDOCK:   35.91 KCAL/MOL
REMARK 922        TOTAL FREE ENERGY PREDICTED BY IDOCK:   45.16 KCAL/MOL
REMARK 923 INTER-LIGAND FREE ENERGY PREDICTED BY IDOCK:   23.06 KCAL/MOL
REMARK 924 INTRA-LIGAND FREE ENERGY PREDICTED BY IDOCK:   22.10 KCAL/MOL
REMARK 927      BINDING AFFINITY PREDICTED BY RF-SCORE:    0.00 PKD
ROOT
HETATM    1  C   UNL     1     -10.275   4.571  65.673  1.00  0.00    -0.275 C  
HETATM    2  C   UNL     1     -11.689   4.579  65.700  1.00  0.00     2.176 C  
HETATM    3  C   UNL     1     -11.002   5.868  66.007  1.00  0.00     0.552 C  
HETATM    4  C   UNL     1      -8.981   5.882  65.540  1.00  0.00    -0.050 C  
HETATM    5  C   UNL     1     -12.361   6.880  65.846  1.00  0.00     7.832 C  
HETATM    6  O   UNL     1      -9.174   1.798  72.841  1.00  0.00    -0.065 OA 
HETATM    7  C   UNL     1      -9.445   2.662  72.019  1.00  0.00    -0.120 C  
HETATM    8  C   UNL     1     -10.127   6.460  65.105  1.00  0.00     2.037 C  
HETATM    9  C   UNL     1     -10.632   2.515  71.099  1.00  0.00     1.274 C  
HETATM   10  C   UNL     1     -10.307   3.134  69.946  1.00  0.00     1.532 C  
HETATM   11  C   UNL     1     -10.507   6.745  63.629  1.00  0.00     8.810 C  
HETATM   12  C   UNL     1     -11.272   5.384  70.695  1.00  0.00     0.198 C  
HETATM   13  C   UNL     1      -9.789   7.613  66.576  1.00  0.00    -0.242 C  
HETATM   14  C   UNL     1      -9.448   2.369  68.961  1.00  0.00    -0.153 C  
HETATM   15  C   UNL     1     -10.062   4.664  69.972  1.00  0.00    -0.267 C  
HETATM   16  C   UNL     1      -9.590   6.797  68.147  1.00  0.00    -0.122 C  
HETATM   17  C   UNL     1      -8.905   4.860  70.941  1.00  0.00    -0.155 C  
HETATM   18  O   UNL     1      -8.232   6.983  68.544  1.00  0.00    -0.122 OA 
HETATM   19  C   UNL     1      -8.654   3.943  71.909  1.00  0.00    -0.115 C  
HETATM   20  C   UNL     1     -10.108   5.184  68.466  1.00  0.00    -0.144 C  
HETATM   21  C   UNL     1      -9.614   4.216  67.280  1.00  0.00    -0.228 C  
HETATM   22  F   UNL     1     -11.516   5.125  68.351  1.00  0.00     0.578 F  
HETATM   23  H   UNL     1      -8.126   6.548  69.382  1.00  0.00     0.000 HD 
HETATM   24  C   UNL     1      -9.868   2.730  67.552  1.00  0.00     0.469 C  
ENDROOT
BRANCH   4  25
HETATM   25  O   UNL     1      -8.491   4.988  64.352  1.00  0.00    -0.134 OA 
BRANCH  25  26
HETATM   26  C   UNL     1      -9.315   4.135  63.691  1.00  0.00    -0.143 C  
HETATM   27  O   UNL     1      -9.177   3.740  62.541  1.00  0.00    -0.091 OA 
BRANCH  26  28
HETATM   28  C   UNL     1     -10.415   3.674  64.627  1.00  0.00    -0.083 C  
HETATM   29  C   UNL     1     -11.098   2.410  64.125  1.00  0.00     0.639 C  
ENDBRANCH  26  28
ENDBRANCH  25  26
ENDBRANCH   4  25
BRANCH   4  30
HETATM   30  C   UNL     1      -7.936   7.032  64.914  1.00  0.00    -0.127 C  
HETATM   31  C   UNL     1      -8.041   8.496  65.263  1.00  0.00    -0.138 C  
HETATM   32  O   UNL     1      -6.978   6.780  64.162  1.00  0.00    -0.047 OA 
HETATM   33 CL   UNL     1      -9.272   8.927  66.422  1.00  0.00    -0.218 Cl 
ENDBRANCH   4  30
TORSDOF 4
ENDMDL
MODEL      115
REMARK 921   NORMALIZED FREE ENERGY PREDICTED BY IDOCK:   58.53 KCAL/MOL
REMARK 922        TOTAL FREE ENERGY PREDICTED BY IDOCK:   73.06 KCAL/MOL
REMARK 923 INTER-LIGAND FREE ENERGY PREDICTED BY IDOCK:   58.32 KCAL/MOL
REMARK 924 INTRA-LIGAND FREE ENERGY PREDICTED BY IDOCK:   14.74 KCAL/MOL
REMARK 927      BINDING AFFINITY PREDICTED BY RF-SCORE:    0.00 PKD
ROOT
HETATM    1  C   UNL     1      -9.349  12.161  68.506  1.00  0.00    -0.108 C  
HETATM    2  C   UNL     1      -8.243  13.043  68.476  1.00  0.00    -0.067 C  
HETATM    3  C   UNL     1      -9.320  13.346  69.463  1.00  0.00     1.275 C  
HETATM    4  C   UNL     1     -10.678  11.801  69.737  1.00  0.00     0.369 C  
HETATM    5  C   UNL     1      -8.443  14.462  70.403  1.00  0.00     1.938 C  
HETATM    6  O   UNL     1     -13.286  15.330  62.611  1.00  0.00     2.696 OA 
HETATM    7  C   UNL     1     -12.875  15.271  63.762  1.00  0.00     1.192 C  
HETATM    8  C   UNL     1      -9.700  12.427  70.435  1.00  0.00     4.811 C  
HETATM    9  C   UNL     1     -11.396  15.301  64.062  1.00  0.00     0.278 C  
HETATM   10  C   UNL     1     -11.211  14.554  65.169  1.00  0.00    -0.367 C  
HETATM   11  C   UNL     1      -8.686  11.755  71.396  1.00  0.00    12.266 C  
HETATM   12  C   UNL     1     -11.488  16.547  66.753  1.00  0.00     0.698 C  
HETATM   13  C   UNL     1     -11.086  13.691  70.730  1.00  0.00     1.244 C  
HETATM   14  C   UNL     1     -11.145  13.051  64.996  1.00  0.00    -0.319 C  
HETATM   15  C   UNL     1     -11.855  15.028  66.497  1.00  0.00    -0.052 C  
HETATM   16  C   UNL     1     -11.856  14.328  69.255  1.00  0.00    -0.330 C  
HETATM   17  C   UNL     1     -13.350  15.070  66.214  1.00  0.00     2.535 C  
HETATM   18  O   UNL     1     -13.201  13.850  69.247  1.00  0.00     0.542 OA 
HETATM   19  C   UNL     1     -13.808  15.221  64.947  1.00  0.00     2.837 C  
HETATM   20  C   UNL     1     -11.157  14.226  67.683  1.00  0.00    -0.292 C  
HETATM   21  C   UNL     1     -10.636  12.725  67.424  1.00  0.00    -0.241 C  
HETATM   22  F   UNL     1      -9.961  14.978  67.665  1.00  0.00    -0.221 F  
HETATM   23  H   UNL     1     -13.611  14.190  68.461  1.00  0.00     0.000 HD 
HETATM   24  C   UNL     1     -10.158  12.479  65.990  1.00  0.00    -0.268 C  
ENDROOT
BRANCH   4  25
HETATM   25  O   UNL     1     -10.174  10.332  69.543  1.00  0.00    -0.216 OA 
BRANCH  25  26
HETATM   26  C   UNL     1      -9.281   9.987  68.580  1.00  0.00    -0.152 C  
HETATM   27  O   UNL     1      -8.220   9.403  68.752  1.00  0.00    -0.105 OA 
BRANCH  26  28
HETATM   28  C   UNL     1      -9.835  10.370  67.222  1.00  0.00    -0.214 C  
HETATM   29  C   UNL     1      -9.483   9.346  66.153  1.00  0.00    -0.287 C  
ENDBRANCH  26  28
ENDBRANCH  25  26
ENDBRANCH   4  25
BRANCH   4  30
HETATM   30  C   UNL     1     -11.499  11.190  71.063  1.00  0.00     0.587 C  
HETATM   31  C   UNL     1     -11.079  11.485  72.481  1.00  0.00     9.162 C  
HETATM   32  O   UNL     1     -12.528  10.495  70.996  1.00  0.00    -0.329 OA 
HETATM   33 CL   UNL     1      -9.723  12.567  72.676  1.00  0.00    19.460 Cl 
ENDBRANCH   4  30
TORSDOF 4
ENDMDL
MODEL      116
REMARK 921   NORMALIZED FREE ENERGY PREDICTED BY IDOCK:   65.76 KCAL/MOL
REMARK 922        TOTAL FREE ENERGY PREDICTED BY IDOCK:   81.99 KCAL/MOL
REMARK 923 INTER-LIGAND FREE ENERGY PREDICTED BY IDOCK:   65.16 KCAL/MOL
REMARK 924 INTRA-LIGAND FREE ENERGY PREDICTED BY IDOCK:   16.83 KCAL/MOL
REMARK 927      BINDING AFFINITY PREDICTED BY RF-SCORE:    0.00 PKD
ROOT
HETATM    1  C   UNL     1      -9.193  18.177  69.015  1.00  0.00    -0.068 C  
HETATM    2  C   UNL     1      -9.756  18.985  68.000  1.00  0.00    -0.399 C  
HETATM    3  C   UNL     1     -10.690  18.458  69.038  1.00  0.00     0.514 C  
HETATM    4  C   UNL     1      -9.743  17.650  70.698  1.00  0.00     3.228 C  
HETATM    5  C   UNL     1     -12.004  19.481  68.685  1.00  0.00     4.285 C  
HETATM    6  O   UNL     1      -9.171  11.500  65.051  1.00  0.00    -0.149 OA 
HETATM    7  C   UNL     1      -9.688  12.403  65.694  1.00  0.00    -0.172 C  
HETATM    8  C   UNL     1     -10.506  18.727  70.389  1.00  0.00     1.790 C  
HETATM    9  C   UNL     1      -9.673  13.825  65.190  1.00  0.00     0.014 C  
HETATM   10  C   UNL     1      -9.627  14.621  66.278  1.00  0.00    -0.333 C  
HETATM   11  C   UNL     1     -10.330  20.164  70.943  1.00  0.00     1.968 C  
HETATM   12  C   UNL     1     -12.176  14.799  66.452  1.00  0.00    -0.031 C  
HETATM   13  C   UNL     1     -11.905  17.455  70.575  1.00  0.00     3.380 C  
HETATM   14  C   UNL     1      -8.278  14.837  66.929  1.00  0.00    -0.144 C  
HETATM   15  C   UNL     1     -10.828  14.602  67.258  1.00  0.00    -0.305 C  
HETATM   16  C   UNL     1     -11.741  15.997  69.565  1.00  0.00    -0.272 C  
HETATM   17  C   UNL     1     -10.915  13.163  67.744  1.00  0.00    -0.272 C  
HETATM   18  O   UNL     1     -11.524  14.899  70.450  1.00  0.00    -0.253 OA 
HETATM   19  C   UNL     1     -10.417  12.150  66.992  1.00  0.00    -0.244 C  
HETATM   20  C   UNL     1     -10.708  15.891  68.189  1.00  0.00    -0.302 C  
HETATM   21  C   UNL     1      -9.252  16.463  68.564  1.00  0.00    -0.226 C  
HETATM   22  F   UNL     1     -11.159  16.803  67.208  1.00  0.00    -0.242 F  
HETATM   23  H   UNL     1     -11.437  14.121  69.911  1.00  0.00     0.000 HD 
HETATM   24  C   UNL     1      -8.205  16.251  67.465  1.00  0.00    -0.165 C  
ENDROOT
BRANCH   4  25
HETATM   25  O   UNL     1      -8.350  18.233  71.110  1.00  0.00     5.963 OA 
BRANCH  25  26
HETATM   26  C   UNL     1      -8.216  19.425  71.745  1.00  0.00     4.780 C  
HETATM   27  O   UNL     1      -8.318  19.621  72.948  1.00  0.00     3.010 OA 
BRANCH  26  28
HETATM   28  C   UNL     1      -7.839  20.491  70.734  1.00  0.00     1.970 C  
HETATM   29  C   UNL     1      -9.065  21.149  70.117  1.00  0.00     3.498 C  
ENDBRANCH  26  28
ENDBRANCH  25  26
ENDBRANCH   4  25
BRANCH   4  30
HETATM   30  C   UNL     1     -10.067  17.650  72.341  1.00  0.00     7.156 C  
HETATM   31  C   UNL     1     -11.175  18.474  72.948  1.00  0.00     3.054 C  
HETATM   32  O   UNL     1      -9.467  16.953  73.178  1.00  0.00    11.026 OA 
HETATM   33 CL   UNL     1     -12.163  19.382  71.831  1.00  0.00    13.103 Cl 
ENDBRANCH   4  30
TORSDOF 4
ENDMDL
MODEL      117
REMARK 921   NORMALIZED FREE ENERGY PREDICTED BY IDOCK:   70.01 KCAL/MOL
REMARK 922        TOTAL FREE ENERGY PREDICTED BY IDOCK:   87.23 KCAL/MOL
REMARK 923 INTER-LIGAND FREE ENERGY PREDICTED BY IDOCK:   65.15 KCAL/MOL
REMARK 924 INTRA-LIGAND FREE ENERGY PREDICTED BY IDOCK:   22.08 KCAL/MOL
REMARK 927      BINDING AFFINITY PREDICTED BY RF-SCORE:    0.00 PKD
ROOT
HETATM    1  C   UNL     1     -11.510  18.001  68.581  1.00  0.00     1.630 C  
HETATM    2  C   UNL     1     -12.832  18.486  68.717  1.00  0.00    10.418 C  
HETATM    3  C   UNL     1     -11.909  18.711  69.868  1.00  0.00     7.677 C  
HETATM    4  C   UNL     1      -9.912  18.357  69.434  1.00  0.00     0.094 C  
HETATM    5  C   UNL     1     -12.858  19.867  70.681  1.00  0.00    19.822 C  
HETATM    6  O   UNL     1     -12.949  10.653  70.637  1.00  0.00    -0.345 OA 
HETATM    7  C   UNL     1     -12.769  11.844  70.845  1.00  0.00    -0.209 C  
HETATM    8  C   UNL     1     -10.716  19.409  69.721  1.00  0.00     1.300 C  
HETATM    9  C   UNL     1     -13.697  12.884  70.266  1.00  0.00     2.395 C  
HETATM   10  C   UNL     1     -12.950  13.982  70.032  1.00  0.00     0.182 C  
HETATM   11  C   UNL     1     -10.642  20.820  69.083  1.00  0.00     0.603 C  
HETATM   12  C   UNL     1     -13.406  14.982  72.345  1.00  0.00    -0.509 C  
HETATM   13  C   UNL     1     -10.433  18.800  71.498  1.00  0.00     3.212 C  
HETATM   14  C   UNL     1     -12.127  14.009  68.761  1.00  0.00    -0.338 C  
HETATM   15  C   UNL     1     -12.306  14.709  71.240  1.00  0.00    -0.407 C  
HETATM   16  C   UNL     1     -10.845  17.090  71.786  1.00  0.00     1.914 C  
HETATM   17  C   UNL     1     -11.404  13.669  71.889  1.00  0.00     2.712 C  
HETATM   18  O   UNL     1      -9.623  16.409  72.065  1.00  0.00     5.660 OA 
HETATM   19  C   UNL     1     -11.653  12.346  71.729  1.00  0.00     3.037 C  
HETATM   20  C   UNL     1     -11.849  16.153  70.744  1.00  0.00    -0.250 C  
HETATM   21  C   UNL     1     -11.374  16.352  69.219  1.00  0.00    -0.225 C  
HETATM   22  F   UNL     1     -13.149  16.708  70.740  1.00  0.00     1.160 F  
HETATM   23  H   UNL     1      -9.843  15.497  72.219  1.00  0.00     0.000 HD 
HETATM   24  C   UNL     1     -12.084  15.425  68.228  1.00  0.00     0.039 C  
ENDROOT
BRANCH   4  25
HETATM   25  O   UNL     1      -9.420  18.598  67.968  1.00  0.00    -0.297 OA 
BRANCH  25  26
HETATM   26  C   UNL     1     -10.276  18.808  66.935  1.00  0.00    -0.386 C  
HETATM   27  O   UNL     1     -10.451  18.068  65.976  1.00  0.00    -0.429 OA 
BRANCH  26  28
HETATM   28  C   UNL     1     -11.058  20.083  67.185  1.00  0.00     0.062 C  
HETATM   29  C   UNL     1     -10.206  21.151  67.855  1.00  0.00     0.570 C  
ENDBRANCH  26  28
ENDBRANCH  25  26
ENDBRANCH   4  25
BRANCH   4  30
HETATM   30  C   UNL     1      -8.473  19.088  69.883  1.00  0.00     1.038 C  
HETATM   31  C   UNL     1      -8.313  19.828  71.187  1.00  0.00     2.546 C  
HETATM   32  O   UNL     1      -7.423  19.047  69.216  1.00  0.00    -0.265 OA 
HETATM   33 CL   UNL     1      -9.695  19.821  72.254  1.00  0.00     2.739 Cl 
ENDBRANCH   4  30
TORSDOF 4
ENDMDL
MODEL      118
REMARK 921   NORMALIZED FREE ENERGY PREDICTED BY IDOCK:   72.34 KCAL/MOL
REMARK 922        TOTAL FREE ENERGY PREDICTED BY IDOCK:   90.10 KCAL/MOL
REMARK 923 INTER-LIGAND FREE ENERGY PREDICTED BY IDOCK:   85.84 KCAL/MOL
REMARK 924 INTRA-LIGAND FREE ENERGY PREDICTED BY IDOCK:    4.26 KCAL/MOL
REMARK 927      BINDING AFFINITY PREDICTED BY RF-SCORE:    0.00 PKD
ROOT
HETATM    1  C   UNL     1      -6.526  13.283  68.815  1.00  0.00    -0.099 C  
HETATM    2  C   UNL     1      -5.320  12.901  69.448  1.00  0.00    -0.077 C  
HETATM    3  C   UNL     1      -6.575  12.267  69.949  1.00  0.00     0.094 C  
HETATM    4  C   UNL     1      -8.218  12.551  68.714  1.00  0.00     0.116 C  
HETATM    5  C   UNL     1      -5.843  11.014  70.839  1.00  0.00    -0.003 C  
HETATM    6  O   UNL     1      -7.723  19.808  72.849  1.00  0.00     2.191 OA 
HETATM    7  C   UNL     1      -7.715  18.597  72.683  1.00  0.00     8.490 C  
HETATM    8  C   UNL     1      -7.409  11.538  69.109  1.00  0.00    -0.057 C  
HETATM    9  C   UNL     1      -6.429  17.859  72.399  1.00  0.00     4.223 C  
HETATM   10  C   UNL     1      -6.748  16.815  71.608  1.00  0.00     4.412 C  
HETATM   11  C   UNL     1      -6.897  10.373  68.222  1.00  0.00    -0.065 C  
HETATM   12  C   UNL     1      -7.125  15.229  73.583  1.00  0.00     5.983 C  
HETATM   13  C   UNL     1      -8.550  11.573  70.627  1.00  0.00     5.323 C  
HETATM   14  C   UNL     1      -6.919  17.086  70.128  1.00  0.00     0.995 C  
HETATM   15  C   UNL     1      -7.675  15.712  72.179  1.00  0.00     7.039 C  
HETATM   16  C   UNL     1      -8.679  13.153  71.440  1.00  0.00    13.157 C  
HETATM   17  C   UNL     1      -8.968  16.431  72.536  1.00  0.00    12.859 C  
HETATM   18  O   UNL     1     -10.018  13.611  71.251  1.00  0.00     4.623 OA 
HETATM   19  C   UNL     1      -8.965  17.760  72.804  1.00  0.00    15.032 C  
HETATM   20  C   UNL     1      -7.553  14.441  71.226  1.00  0.00     3.044 C  
HETATM   21  C   UNL     1      -7.274  14.654  69.655  1.00  0.00    -0.098 C  
HETATM   22  F   UNL     1      -6.292  14.030  71.714  1.00  0.00    -0.156 F  
HETATM   23  H   UNL     1     -10.087  14.453  71.685  1.00  0.00     0.000 HD 
HETATM   24  C   UNL     1      -6.424  15.890  69.344  1.00  0.00    -0.167 C  
ENDROOT
BRANCH   4  25
HETATM   25  O   UNL     1      -7.969  12.705  67.176  1.00  0.00    -0.170 OA 
BRANCH  25  26
HETATM   26  C   UNL     1      -8.803  13.408  66.368  1.00  0.00     0.128 C  
HETATM   27  O   UNL     1      -9.821  12.987  65.835  1.00  0.00    -0.275 OA 
BRANCH  26  28
HETATM   28  C   UNL     1      -8.322  14.843  66.279  1.00  0.00     0.433 C  
HETATM   29  C   UNL     1      -9.470  15.836  66.393  1.00  0.00    -0.326 C  
ENDBRANCH  26  28
ENDBRANCH  25  26
ENDBRANCH   4  25
BRANCH   4  30
HETATM   30  C   UNL     1      -9.516  11.593  68.260  1.00  0.00    -0.191 C  
HETATM   31  C   UNL     1     -10.872  12.169  67.935  1.00  0.00    -0.217 C  
HETATM   32  O   UNL     1      -9.465  10.359  68.113  1.00  0.00    -0.141 OA 
HETATM   33 CL   UNL     1     -11.003  13.909  67.982  1.00  0.00    -0.259 Cl 
ENDBRANCH   4  30
TORSDOF 4
ENDMDL
MODEL      119
REMARK 921   NORMALIZED FREE ENERGY PREDICTED BY IDOCK:   87.31 KCAL/MOL
REMARK 922        TOTAL FREE ENERGY PREDICTED BY IDOCK:  108.57 KCAL/MOL
REMARK 923 INTER-LIGAND FREE ENERGY PREDICTED BY IDOCK:   83.75 KCAL/MOL
REMARK 924 INTRA-LIGAND FREE ENERGY PREDICTED BY IDOCK:   24.82 KCAL/MOL
REMARK 927      BINDING AFFINITY PREDICTED BY RF-SCORE:    0.00 PKD
ROOT
HETATM    1  C   UNL     1      -8.534  12.833  65.764  1.00  0.00     1.237 C  
HETATM    2  C   UNL     1      -7.450  11.979  65.454  1.00  0.00     2.236 C  
HETATM    3  C   UNL     1      -8.822  11.408  65.310  1.00  0.00     0.059 C  
HETATM    4  C   UNL     1     -10.338  12.823  65.372  1.00  0.00    -0.293 C  
HETATM    5  C   UNL     1      -8.389  10.033  64.406  1.00  0.00    -0.169 C  
HETATM    6  O   UNL     1      -8.448  11.770  73.455  1.00  0.00    17.539 OA 
HETATM    7  C   UNL     1      -8.688  11.456  72.298  1.00  0.00    16.912 C  
HETATM    8  C   UNL     1      -9.768  11.985  64.472  1.00  0.00    -0.101 C  
HETATM    9  C   UNL     1      -7.577  11.297  71.289  1.00  0.00     5.508 C  
HETATM   10  C   UNL     1      -8.086  11.654  70.093  1.00  0.00     2.497 C  
HETATM   11  C   UNL     1      -9.488  12.297  62.979  1.00  0.00     0.829 C  
HETATM   12  C   UNL     1      -8.834   9.273  69.520  1.00  0.00    -0.151 C  
HETATM   13  C   UNL     1     -10.914  10.727  65.314  1.00  0.00     0.052 C  
HETATM   14  C   UNL     1      -8.160  13.133  69.778  1.00  0.00     1.751 C  
HETATM   15  C   UNL     1      -9.237  10.804  69.496  1.00  0.00     0.103 C  
HETATM   16  C   UNL     1     -10.732  10.604  67.082  1.00  0.00    -0.272 C  
HETATM   17  C   UNL     1     -10.360  10.890  70.519  1.00  0.00     1.135 C  
HETATM   18  O   UNL     1     -11.941  11.093  67.661  1.00  0.00    -0.613 OA 
HETATM   19  C   UNL     1     -10.087  11.155  71.820  1.00  0.00     8.446 C  
HETATM   20  C   UNL     1      -9.358  11.177  67.951  1.00  0.00    -0.161 C  
HETATM   21  C   UNL     1      -9.001  12.669  67.467  1.00  0.00    -0.187 C  
HETATM   22  F   UNL     1      -8.222  10.438  67.548  1.00  0.00    -0.112 F  
HETATM   23  H   UNL     1     -11.844  11.027  68.604  1.00  0.00     0.000 HD 
HETATM   24  C   UNL     1      -7.905  13.341  68.301  1.00  0.00    -0.143 C  
ENDROOT
BRANCH   4  25
HETATM   25  O   UNL     1     -10.024  14.266  64.853  1.00  0.00    -0.317 OA 
BRANCH  25  26
HETATM   26  C   UNL     1     -10.103  14.604  63.541  1.00  0.00     5.283 C  
HETATM   27  O   UNL     1     -10.437  15.692  63.092  1.00  0.00     3.966 OA 
BRANCH  26  28
HETATM   28  C   UNL     1      -9.635  13.437  62.694  1.00  0.00     7.640 C  
HETATM   29  C   UNL     1      -8.118  13.389  62.580  1.00  0.00    11.950 C  
ENDBRANCH  26  28
ENDBRANCH  25  26
ENDBRANCH   4  25
BRANCH   4  30
HETATM   30  C   UNL     1     -11.795  13.007  64.565  1.00  0.00    -0.377 C  
HETATM   31  C   UNL     1     -12.059  12.385  63.217  1.00  0.00    -0.421 C  
HETATM   32  O   UNL     1     -12.778  13.620  65.018  1.00  0.00    -0.622 OA 
HETATM   33 CL   UNL     1     -10.783  11.389  62.563  1.00  0.00     0.551 Cl 
ENDBRANCH   4  30
TORSDOF 4
ENDMDL
