MODEL        1
REMARK 921   NORMALIZED FREE ENERGY PREDICTED BY IDOCK:   -7.92 KCAL/MOL
REMARK 922        TOTAL FREE ENERGY PREDICTED BY IDOCK:   -7.10 KCAL/MOL
REMARK 923 INTER-LIGAND FREE ENERGY PREDICTED BY IDOCK:   -8.38 KCAL/MOL
REMARK 924 INTRA-LIGAND FREE ENERGY PREDICTED BY IDOCK:    1.28 KCAL/MOL
REMARK 927      BINDING AFFINITY PREDICTED BY RF-SCORE:    0.00 PKD
ROOT
HETATM    1  C   UNL     1     -11.159  14.917  66.110  1.00  0.00    -0.335 C  
HETATM    2  C   UNL     1     -10.339  14.479  65.046  1.00  0.00    -0.442 C  
HETATM    3  C   UNL     1      -9.892  13.884  66.371  1.00  0.00    -0.304 C  
HETATM    4  C   UNL     1      -9.038  12.568  65.713  1.00  0.00     0.215 C  
HETATM    5  C   UNL     1     -11.155  14.200  67.970  1.00  0.00    -0.267 C  
HETATM    6  O   UNL     1     -12.523  14.766  67.793  1.00  0.00    -0.533 OA 
HETATM    7  C   UNL     1      -6.389  16.706  67.106  1.00  0.00    -0.219 C  
HETATM    8  C   UNL     1     -10.960  13.225  67.047  1.00  0.00    -0.291 C  
HETATM    9  C   UNL     1      -9.491  13.193  68.318  1.00  0.00    -0.210 C  
HETATM   10  C   UNL     1     -11.903  12.144  66.526  1.00  0.00    -0.322 C  
HETATM   11  C   UNL     1      -7.812  17.313  67.473  1.00  0.00    -0.194 C  
HETATM   12  C   UNL     1      -7.533  18.111  68.737  1.00  0.00    -0.285 C  
HETATM   13  H   UNL     1     -13.105  14.911  68.530  1.00  0.00     0.000 HD 
HETATM   14  C   UNL     1      -8.732  14.835  68.535  1.00  0.00    -0.174 C  
HETATM   15  O   UNL     1      -6.860  21.346  67.270  1.00  0.00    -0.572 OA 
HETATM   16  O   UNL     1      -9.173  15.320  69.811  1.00  0.00    -0.420 OA 
HETATM   17  C   UNL     1      -8.826  16.096  67.324  1.00  0.00    -0.186 C  
HETATM   18  C   UNL     1     -10.371  16.333  66.872  1.00  0.00    -0.299 C  
HETATM   19  F   UNL     1      -8.244  15.652  66.111  1.00  0.00    -0.291 F  
HETATM   20  H   UNL     1      -8.777  16.177  69.924  1.00  0.00     0.000 HD 
HETATM   21  C   UNL     1     -10.510  17.525  65.907  1.00  0.00    -0.251 C  
HETATM   22  C   UNL     1      -9.687  18.716  66.379  1.00  0.00    -0.363 C  
HETATM   23  C   UNL     1      -8.213  18.366  66.409  1.00  0.00    -0.280 C  
HETATM   24  C   UNL     1      -7.323  19.328  66.091  1.00  0.00    -0.289 C  
HETATM   25  C   UNL     1      -7.108  20.150  67.340  1.00  0.00    -0.269 C  
HETATM   26  C   UNL     1      -7.161  19.413  68.655  1.00  0.00    -0.364 C  
ENDROOT
BRANCH   5  27
HETATM   27  C   UNL     1     -11.820  13.185  69.190  1.00  0.00    -0.314 C  
HETATM   28  C   UNL     1     -12.135  13.804  70.547  1.00  0.00    -0.345 C  
HETATM   29  O   UNL     1     -12.004  11.964  69.125  1.00  0.00    -0.306 OA 
HETATM   30 CL   UNL     1     -12.575  15.512  70.473  1.00  0.00    -0.471 Cl 
ENDBRANCH   5  27
TORSDOF 1
ENDMDL
MODEL        2
REMARK 921   NORMALIZED FREE ENERGY PREDICTED BY IDOCK:   -7.39 KCAL/MOL
REMARK 922        TOTAL FREE ENERGY PREDICTED BY IDOCK:   -6.54 KCAL/MOL
REMARK 923 INTER-LIGAND FREE ENERGY PREDICTED BY IDOCK:   -7.80 KCAL/MOL
REMARK 924 INTRA-LIGAND FREE ENERGY PREDICTED BY IDOCK:    1.25 KCAL/MOL
REMARK 927      BINDING AFFINITY PREDICTED BY RF-SCORE:    0.00 PKD
ROOT
HETATM    1  C   UNL     1     -11.441  15.327  66.135  1.00  0.00    -0.083 C  
HETATM    2  C   UNL     1     -10.858  15.247  64.850  1.00  0.00    -0.444 C  
HETATM    3  C   UNL     1     -10.261  14.217  65.794  1.00  0.00    -0.347 C  
HETATM    4  C   UNL     1      -9.668  13.172  64.589  1.00  0.00     0.142 C  
HETATM    5  C   UNL     1     -11.202  14.017  67.618  1.00  0.00    -0.297 C  
HETATM    6  O   UNL     1     -12.515  14.664  67.902  1.00  0.00    -0.586 OA 
HETATM    7  C   UNL     1      -6.413  16.472  66.734  1.00  0.00    -0.123 C  
HETATM    8  C   UNL     1     -11.264  13.410  66.406  1.00  0.00    -0.323 C  
HETATM    9  C   UNL     1      -9.616  12.885  67.291  1.00  0.00    -0.220 C  
HETATM   10  C   UNL     1     -12.387  12.612  65.749  1.00  0.00    -0.323 C  
HETATM   11  C   UNL     1      -7.685  16.974  67.545  1.00  0.00    -0.187 C  
HETATM   12  C   UNL     1      -7.120  17.279  68.923  1.00  0.00    -0.242 C  
HETATM   13  H   UNL     1     -12.948  14.572  68.742  1.00  0.00     0.000 HD 
HETATM   14  C   UNL     1      -8.666  14.322  67.887  1.00  0.00    -0.178 C  
HETATM   15  O   UNL     1      -6.371  20.790  68.502  1.00  0.00    -0.316 OA 
HETATM   16  O   UNL     1      -8.838  14.358  69.310  1.00  0.00    -0.382 OA 
HETATM   17  C   UNL     1      -8.830  15.923  67.200  1.00  0.00    -0.207 C  
HETATM   18  C   UNL     1     -10.396  16.363  67.154  1.00  0.00    -0.290 C  
HETATM   19  F   UNL     1      -8.506  15.898  65.821  1.00  0.00    -0.297 F  
HETATM   20  H   UNL     1      -8.342  15.108  69.621  1.00  0.00     0.000 HD 
HETATM   21  C   UNL     1     -10.569  17.819  66.681  1.00  0.00    -0.224 C  
HETATM   22  C   UNL     1      -9.562  18.741  67.352  1.00  0.00    -0.337 C  
HETATM   23  C   UNL     1      -8.147  18.343  66.983  1.00  0.00    -0.239 C  
HETATM   24  C   UNL     1      -7.228  19.319  66.835  1.00  0.00    -0.217 C  
HETATM   25  C   UNL     1      -6.725  19.653  68.220  1.00  0.00    -0.278 C  
HETATM   26  C   UNL     1      -6.635  18.514  69.204  1.00  0.00    -0.281 C  
ENDROOT
BRANCH   5  27
HETATM   27  C   UNL     1     -11.756  12.673  68.539  1.00  0.00    -0.330 C  
HETATM   28  C   UNL     1     -11.734  12.786  70.059  1.00  0.00    -0.209 C  
HETATM   29  O   UNL     1     -12.105  11.569  68.109  1.00  0.00    -0.604 OA 
HETATM   30 CL   UNL     1     -11.956  14.431  70.662  1.00  0.00    -0.375 Cl 
ENDBRANCH   5  27
TORSDOF 1
ENDMDL
MODEL        3
REMARK 921   NORMALIZED FREE ENERGY PREDICTED BY IDOCK:   -7.03 KCAL/MOL
REMARK 922        TOTAL FREE ENERGY PREDICTED BY IDOCK:   -6.16 KCAL/MOL
REMARK 923 INTER-LIGAND FREE ENERGY PREDICTED BY IDOCK:   -7.45 KCAL/MOL
REMARK 924 INTRA-LIGAND FREE ENERGY PREDICTED BY IDOCK:    1.30 KCAL/MOL
REMARK 927      BINDING AFFINITY PREDICTED BY RF-SCORE:    0.00 PKD
ROOT
HETATM    1  C   UNL     1     -11.219  14.505  68.527  1.00  0.00    -0.285 C  
HETATM    2  C   UNL     1     -10.164  14.845  69.404  1.00  0.00    -0.180 C  
HETATM    3  C   UNL     1      -9.644  14.503  68.017  1.00  0.00    -0.217 C  
HETATM    4  C   UNL     1      -8.154  15.309  68.167  1.00  0.00    -0.136 C  
HETATM    5  C   UNL     1     -11.077  14.264  66.554  1.00  0.00    -0.323 C  
HETATM    6  O   UNL     1     -12.504  14.632  66.781  1.00  0.00    -0.444 OA 
HETATM    7  C   UNL     1      -8.256  10.265  68.961  1.00  0.00    -0.139 C  
HETATM    8  C   UNL     1     -10.287  15.271  67.003  1.00  0.00    -0.277 C  
HETATM    9  C   UNL     1      -9.192  13.999  66.025  1.00  0.00     0.026 C  
HETATM   10  C   UNL     1     -10.452  16.786  66.906  1.00  0.00    -0.269 C  
HETATM   11  C   UNL     1      -9.819  10.405  68.709  1.00  0.00    -0.190 C  
HETATM   12  C   UNL     1     -10.161   9.140  67.937  1.00  0.00    -0.266 C  
HETATM   13  H   UNL     1     -13.164  14.522  66.107  1.00  0.00     0.000 HD 
HETATM   14  C   UNL     1      -9.436  12.289  66.607  1.00  0.00    -0.226 C  
HETATM   15  O   UNL     1     -11.097   6.991  70.689  1.00  0.00    -0.249 OA 
HETATM   16  O   UNL     1     -10.224  11.629  65.606  1.00  0.00    -0.224 OA 
HETATM   17  C   UNL     1     -10.021  11.903  68.211  1.00  0.00    -0.202 C  
HETATM   18  C   UNL     1     -11.390  12.723  68.528  1.00  0.00    -0.326 C  
HETATM   19  F   UNL     1      -9.144  12.433  69.190  1.00  0.00     0.123 F  
HETATM   20  H   UNL     1     -10.351  10.737  65.910  1.00  0.00     0.000 HD 
HETATM   21  C   UNL     1     -12.007  12.309  69.877  1.00  0.00    -0.377 C  
HETATM   22  C   UNL     1     -11.995  10.797  70.049  1.00  0.00    -0.427 C  
HETATM   23  C   UNL     1     -10.573  10.274  70.057  1.00  0.00    -0.321 C  
HETATM   24  C   UNL     1     -10.284   9.225  70.854  1.00  0.00    -0.371 C  
HETATM   25  C   UNL     1     -10.690   7.982  70.097  1.00  0.00    -0.244 C  
HETATM   26  C   UNL     1     -10.517   8.011  68.600  1.00  0.00    -0.196 C  
ENDROOT
BRANCH   5  27
HETATM   27  C   UNL     1     -11.262  14.861  64.951  1.00  0.00    -0.410 C  
HETATM   28  C   UNL     1     -11.795  13.908  63.886  1.00  0.00    -0.278 C  
HETATM   29  O   UNL     1     -10.933  15.974  64.527  1.00  0.00    -0.592 OA 
HETATM   30 CL   UNL     1     -12.894  12.675  64.510  1.00  0.00    -0.432 Cl 
ENDBRANCH   5  27
TORSDOF 1
ENDMDL
MODEL        4
REMARK 921   NORMALIZED FREE ENERGY PREDICTED BY IDOCK:   -6.82 KCAL/MOL
REMARK 922        TOTAL FREE ENERGY PREDICTED BY IDOCK:   -5.94 KCAL/MOL
REMARK 923 INTER-LIGAND FREE ENERGY PREDICTED BY IDOCK:   -7.21 KCAL/MOL
REMARK 924 INTRA-LIGAND FREE ENERGY PREDICTED BY IDOCK:    1.27 KCAL/MOL
REMARK 927      BINDING AFFINITY PREDICTED BY RF-SCORE:    0.00 PKD
ROOT
HETATM    1  C   UNL     1      -9.691  18.582  66.246  1.00  0.00    -0.315 C  
HETATM    2  C   UNL     1     -10.896  19.003  66.853  1.00  0.00    -0.393 C  
HETATM    3  C   UNL     1      -9.783  18.851  67.877  1.00  0.00    -0.376 C  
HETATM    4  C   UNL     1     -10.476  19.854  69.064  1.00  0.00    -0.073 C  
HETATM    5  C   UNL     1      -7.897  18.519  67.112  1.00  0.00    -0.230 C  
HETATM    6  O   UNL     1      -7.603  18.653  65.657  1.00  0.00    -0.505 OA 
HETATM    7  C   UNL     1     -11.080  14.803  69.524  1.00  0.00    -0.302 C  
HETATM    8  C   UNL     1      -8.621  19.593  67.515  1.00  0.00    -0.357 C  
HETATM    9  C   UNL     1      -8.078  18.576  69.079  1.00  0.00    -0.126 C  
HETATM   10  C   UNL     1      -8.501  21.070  67.147  1.00  0.00     0.020 C  
HETATM   11  C   UNL     1     -10.283  14.731  68.150  1.00  0.00    -0.228 C  
HETATM   12  C   UNL     1      -9.416  13.494  68.316  1.00  0.00    -0.212 C  
HETATM   13  H   UNL     1      -6.733  18.500  65.305  1.00  0.00     0.000 HD 
HETATM   14  C   UNL     1      -8.499  16.809  68.932  1.00  0.00    -0.217 C  
HETATM   15  O   UNL     1     -11.602  11.022  66.841  1.00  0.00    -0.378 OA 
HETATM   16  O   UNL     1      -7.269  16.120  68.669  1.00  0.00    -0.144 OA 
HETATM   17  C   UNL     1      -9.777  16.217  67.892  1.00  0.00    -0.233 C  
HETATM   18  C   UNL     1      -9.595  16.799  66.383  1.00  0.00    -0.303 C  
HETATM   19  F   UNL     1     -11.016  16.793  68.266  1.00  0.00    -0.331 F  
HETATM   20  H   UNL     1      -7.488  15.198  68.592  1.00  0.00     0.000 HD 
HETATM   21  C   UNL     1     -10.622  16.195  65.408  1.00  0.00    -0.399 C  
HETATM   22  C   UNL     1     -10.757  14.692  65.609  1.00  0.00    -0.340 C  
HETATM   23  C   UNL     1     -11.267  14.385  67.003  1.00  0.00    -0.336 C  
HETATM   24  C   UNL     1     -12.093  13.331  67.162  1.00  0.00    -0.352 C  
HETATM   25  C   UNL     1     -11.217  12.105  67.260  1.00  0.00    -0.306 C  
HETATM   26  C   UNL     1      -9.883  12.276  67.942  1.00  0.00    -0.201 C  
ENDROOT
BRANCH   5  27
HETATM   27  C   UNL     1      -6.347  19.204  67.408  1.00  0.00    -0.184 C  
HETATM   28  C   UNL     1      -5.139  18.274  67.417  1.00  0.00    -0.138 C  
HETATM   29  O   UNL     1      -6.095  20.378  67.701  1.00  0.00    -0.206 OA 
HETATM   30 CL   UNL     1      -5.305  16.871  66.357  1.00  0.00    -0.044 Cl 
ENDBRANCH   5  27
TORSDOF 1
ENDMDL
MODEL        5
REMARK 921   NORMALIZED FREE ENERGY PREDICTED BY IDOCK:   -6.68 KCAL/MOL
REMARK 922        TOTAL FREE ENERGY PREDICTED BY IDOCK:   -5.79 KCAL/MOL
REMARK 923 INTER-LIGAND FREE ENERGY PREDICTED BY IDOCK:   -7.29 KCAL/MOL
REMARK 924 INTRA-LIGAND FREE ENERGY PREDICTED BY IDOCK:    1.50 KCAL/MOL
REMARK 927      BINDING AFFINITY PREDICTED BY RF-SCORE:    0.00 PKD
ROOT
HETATM    1  C   UNL     1      -8.952  14.614  67.747  1.00  0.00    -0.181 C  
HETATM    2  C   UNL     1      -8.700  15.140  66.460  1.00  0.00    -0.280 C  
HETATM    3  C   UNL     1     -10.177  14.841  66.656  1.00  0.00    -0.271 C  
HETATM    4  C   UNL     1     -10.747  15.874  65.430  1.00  0.00    -0.415 C  
HETATM    5  C   UNL     1     -10.745  14.338  68.574  1.00  0.00    -0.255 C  
HETATM    6  O   UNL     1      -9.820  14.486  69.733  1.00  0.00    -0.408 OA 
HETATM    7  C   UNL     1     -10.268  10.902  64.365  1.00  0.00    -0.423 C  
HETATM    8  C   UNL     1     -10.697  15.469  67.826  1.00  0.00    -0.297 C  
HETATM    9  C   UNL     1     -12.154  14.353  67.189  1.00  0.00    -0.367 C  
HETATM   10  C   UNL     1     -10.620  16.936  68.243  1.00  0.00    -0.363 C  
HETATM   11  C   UNL     1      -9.702  10.789  65.846  1.00  0.00    -0.272 C  
HETATM   12  C   UNL     1     -10.265   9.464  66.333  1.00  0.00    -0.300 C  
HETATM   13  H   UNL     1     -10.081  14.254  70.617  1.00  0.00     0.000 HD 
HETATM   14  C   UNL     1     -11.616  12.645  66.850  1.00  0.00    -0.373 C  
HETATM   15  O   UNL     1      -7.528   7.280  65.437  1.00  0.00    -0.078 OA 
HETATM   16  O   UNL     1     -12.125  11.840  67.923  1.00  0.00    -0.592 OA 
HETATM   17  C   UNL     1      -9.956  12.222  66.491  1.00  0.00    -0.220 C  
HETATM   18  C   UNL     1      -8.958  12.828  67.625  1.00  0.00    -0.191 C  
HETATM   19  F   UNL     1      -9.516  12.912  65.334  1.00  0.00    -0.146 F  
HETATM   20  H   UNL     1     -11.845  10.949  67.746  1.00  0.00     0.000 HD 
HETATM   21  C   UNL     1      -7.504  12.365  67.417  1.00  0.00    -0.157 C  
HETATM   22  C   UNL     1      -7.439  10.879  67.094  1.00  0.00    -0.109 C  
HETATM   23  C   UNL     1      -8.166  10.584  65.797  1.00  0.00    -0.160 C  
HETATM   24  C   UNL     1      -7.674   9.617  64.996  1.00  0.00    -0.119 C  
HETATM   25  C   UNL     1      -8.191   8.304  65.533  1.00  0.00    -0.138 C  
HETATM   26  C   UNL     1      -9.573   8.314  66.137  1.00  0.00    -0.217 C  
ENDROOT
BRANCH   5  27
HETATM   27  C   UNL     1     -12.011  14.849  69.621  1.00  0.00    -0.320 C  
HETATM   28  C   UNL     1     -12.822  13.779  70.343  1.00  0.00    -0.096 C  
HETATM   29  O   UNL     1     -12.405  16.005  69.803  1.00  0.00    -0.206 OA 
HETATM   30 CL   UNL     1     -11.916  12.304  70.694  1.00  0.00    -0.336 Cl 
ENDBRANCH   5  27
TORSDOF 1
ENDMDL
MODEL        6
REMARK 921   NORMALIZED FREE ENERGY PREDICTED BY IDOCK:   -6.67 KCAL/MOL
REMARK 922        TOTAL FREE ENERGY PREDICTED BY IDOCK:   -5.77 KCAL/MOL
REMARK 923 INTER-LIGAND FREE ENERGY PREDICTED BY IDOCK:   -8.42 KCAL/MOL
REMARK 924 INTRA-LIGAND FREE ENERGY PREDICTED BY IDOCK:    2.64 KCAL/MOL
REMARK 927      BINDING AFFINITY PREDICTED BY RF-SCORE:    0.00 PKD
ROOT
HETATM    1  C   UNL     1      -9.326  13.660  67.001  1.00  0.00    -0.249 C  
HETATM    2  C   UNL     1      -9.758  13.669  68.347  1.00  0.00    -0.217 C  
HETATM    3  C   UNL     1     -10.863  14.125  67.407  1.00  0.00    -0.291 C  
HETATM    4  C   UNL     1     -12.157  13.805  68.462  1.00  0.00    -0.327 C  
HETATM    5  C   UNL     1     -10.480  13.895  65.393  1.00  0.00    -0.345 C  
HETATM    6  O   UNL     1      -9.307  13.121  64.898  1.00  0.00    -0.211 OA 
HETATM    7  C   UNL     1     -10.430  18.601  68.150  1.00  0.00    -0.361 C  
HETATM    8  C   UNL     1     -11.099  13.180  66.366  1.00  0.00    -0.311 C  
HETATM    9  C   UNL     1     -12.211  14.703  65.898  1.00  0.00    -0.165 C  
HETATM   10  C   UNL     1     -11.384  11.684  66.474  1.00  0.00    -0.331 C  
HETATM   11  C   UNL     1      -9.360  17.994  67.142  1.00  0.00    -0.259 C  
HETATM   12  C   UNL     1      -9.216  19.083  66.091  1.00  0.00    -0.216 C  
HETATM   13  H   UNL     1      -9.131  13.015  63.970  1.00  0.00     0.000 HD 
HETATM   14  C   UNL     1     -11.285  16.271  65.942  1.00  0.00     0.234 C  
HETATM   15  O   UNL     1      -6.426  20.906  67.493  1.00  0.00    -0.284 OA 
HETATM   16  O   UNL     1     -11.058  16.646  64.576  1.00  0.00    -0.940 OA 
HETATM   17  C   UNL     1      -9.834  16.495  66.896  1.00  0.00    -0.257 C  
HETATM   18  C   UNL     1      -8.764  15.309  66.587  1.00  0.00    -0.327 C  
HETATM   19  F   UNL     1     -10.113  16.271  68.267  1.00  0.00    -0.225 F  
HETATM   20  H   UNL     1     -10.575  17.464  64.599  1.00  0.00     0.000 HD 
HETATM   21  C   UNL     1      -7.423  15.544  67.307  1.00  0.00    -0.258 C  
HETATM   22  C   UNL     1      -6.976  16.994  67.181  1.00  0.00    -0.213 C  
HETATM   23  C   UNL     1      -7.978  17.919  67.841  1.00  0.00    -0.235 C  
HETATM   24  C   UNL     1      -7.514  19.022  68.464  1.00  0.00    -0.352 C  
HETATM   25  C   UNL     1      -7.316  20.072  67.396  1.00  0.00    -0.270 C  
HETATM   26  C   UNL     1      -8.294  20.067  66.249  1.00  0.00    -0.322 C  
ENDROOT
BRANCH   5  27
HETATM   27  C   UNL     1     -11.368  13.240  64.073  1.00  0.00    -0.363 C  
HETATM   28  C   UNL     1     -10.701  12.167  63.220  1.00  0.00    -0.318 C  
HETATM   29  O   UNL     1     -12.481  13.599  63.672  1.00  0.00    -0.728 OA 
HETATM   30 CL   UNL     1      -9.546  11.164  64.101  1.00  0.00    -0.275 Cl 
ENDBRANCH   5  27
TORSDOF 1
ENDMDL
MODEL        7
REMARK 921   NORMALIZED FREE ENERGY PREDICTED BY IDOCK:   -6.65 KCAL/MOL
REMARK 922        TOTAL FREE ENERGY PREDICTED BY IDOCK:   -5.76 KCAL/MOL
REMARK 923 INTER-LIGAND FREE ENERGY PREDICTED BY IDOCK:   -7.07 KCAL/MOL
REMARK 924 INTRA-LIGAND FREE ENERGY PREDICTED BY IDOCK:    1.32 KCAL/MOL
REMARK 927      BINDING AFFINITY PREDICTED BY RF-SCORE:    0.00 PKD
ROOT
HETATM    1  C   UNL     1     -10.793  11.337  67.503  1.00  0.00    -0.292 C  
HETATM    2  C   UNL     1     -11.709  11.848  66.557  1.00  0.00    -0.247 C  
HETATM    3  C   UNL     1     -10.404  12.627  66.542  1.00  0.00    -0.256 C  
HETATM    4  C   UNL     1     -10.586  13.277  64.980  1.00  0.00    -0.360 C  
HETATM    5  C   UNL     1      -8.868  11.828  67.661  1.00  0.00    -0.162 C  
HETATM    6  O   UNL     1      -8.952  10.462  68.253  1.00  0.00    -0.129 OA 
HETATM    7  C   UNL     1     -11.851  16.203  68.971  1.00  0.00    -0.181 C  
HETATM    8  C   UNL     1      -9.276  11.773  66.369  1.00  0.00    -0.223 C  
HETATM    9  C   UNL     1      -8.508  13.524  66.714  1.00  0.00     0.013 C  
HETATM   10  C   UNL     1      -9.022  10.725  65.288  1.00  0.00    -0.211 C  
HETATM   11  C   UNL     1     -11.470  14.926  69.839  1.00  0.00    -0.321 C  
HETATM   12  C   UNL     1     -10.800  15.528  71.065  1.00  0.00    -0.203 C  
HETATM   13  H   UNL     1      -8.244  10.094  68.769  1.00  0.00     0.000 HD 
HETATM   14  C   UNL     1      -9.232  14.315  68.187  1.00  0.00    -0.202 C  
HETATM   15  O   UNL     1     -13.669  15.794  73.249  1.00  0.00    -0.496 OA 
HETATM   16  O   UNL     1      -8.243  14.225  69.223  1.00  0.00    -0.351 OA 
HETATM   17  C   UNL     1     -10.818  13.908  68.806  1.00  0.00    -0.263 C  
HETATM   18  C   UNL     1     -10.952  12.298  69.005  1.00  0.00    -0.250 C  
HETATM   19  F   UNL     1     -11.804  14.150  67.818  1.00  0.00    -0.334 F  
HETATM   20  H   UNL     1      -8.621  14.637  69.991  1.00  0.00     0.000 HD 
HETATM   21  C   UNL     1     -12.285  11.912  69.673  1.00  0.00    -0.216 C  
HETATM   22  C   UNL     1     -12.601  12.830  70.845  1.00  0.00    -0.342 C  
HETATM   23  C   UNL     1     -12.765  14.260  70.371  1.00  0.00    -0.355 C  
HETATM   24  C   UNL     1     -13.678  15.037  70.990  1.00  0.00    -0.417 C  
HETATM   25  C   UNL     1     -13.016  15.573  72.238  1.00  0.00    -0.416 C  
HETATM   26  C   UNL     1     -11.540  15.866  72.151  1.00  0.00    -0.515 C  
ENDROOT
BRANCH   5  27
HETATM   27  C   UNL     1      -7.205  11.506  67.356  1.00  0.00    -0.119 C  
HETATM   28  C   UNL     1      -6.242  11.518  68.538  1.00  0.00    -0.050 C  
HETATM   29  O   UNL     1      -6.668  11.341  66.255  1.00  0.00    -0.106 OA 
HETATM   30 CL   UNL     1      -6.977  11.033  70.069  1.00  0.00    -0.072 Cl 
ENDBRANCH   5  27
TORSDOF 1
ENDMDL
MODEL        8
REMARK 921   NORMALIZED FREE ENERGY PREDICTED BY IDOCK:   -6.40 KCAL/MOL
REMARK 922        TOTAL FREE ENERGY PREDICTED BY IDOCK:   -5.49 KCAL/MOL
REMARK 923 INTER-LIGAND FREE ENERGY PREDICTED BY IDOCK:   -6.73 KCAL/MOL
REMARK 924 INTRA-LIGAND FREE ENERGY PREDICTED BY IDOCK:    1.24 KCAL/MOL
REMARK 927      BINDING AFFINITY PREDICTED BY RF-SCORE:    0.00 PKD
ROOT
HETATM    1  C   UNL     1      -9.787   9.461  68.783  1.00  0.00    -0.172 C  
HETATM    2  C   UNL     1     -10.456   8.436  68.078  1.00  0.00    -0.242 C  
HETATM    3  C   UNL     1      -9.070   8.689  67.507  1.00  0.00    -0.146 C  
HETATM    4  C   UNL     1      -8.903   7.182  66.736  1.00  0.00    -0.137 C  
HETATM    5  C   UNL     1      -7.864   9.953  68.602  1.00  0.00    -0.086 C  
HETATM    6  O   UNL     1      -8.233  10.401  69.975  1.00  0.00    -0.358 OA 
HETATM    7  C   UNL     1     -10.380  11.178  63.920  1.00  0.00    -0.441 C  
HETATM    8  C   UNL     1      -8.059   8.614  68.509  1.00  0.00    -0.117 C  
HETATM    9  C   UNL     1      -7.121   9.225  66.922  1.00  0.00    -0.082 C  
HETATM   10  C   UNL     1      -7.782   7.495  69.510  1.00  0.00    -0.104 C  
HETATM   11  C   UNL     1     -10.328  11.978  65.293  1.00  0.00    -0.311 C  
HETATM   12  C   UNL     1      -9.790  13.339  64.883  1.00  0.00    -0.044 C  
HETATM   13  H   UNL     1      -7.677  10.983  70.479  1.00  0.00     0.000 HD 
HETATM   14  C   UNL     1      -7.958  10.636  66.128  1.00  0.00    -0.151 C  
HETATM   15  O   UNL     1     -12.910  15.078  64.327  1.00  0.00    -0.567 OA 
HETATM   16  O   UNL     1      -7.174  11.797  66.435  1.00  0.00    -0.369 OA 
HETATM   17  C   UNL     1      -9.665  10.968  66.329  1.00  0.00    -0.207 C  
HETATM   18  C   UNL     1     -10.053  11.001  67.910  1.00  0.00    -0.199 C  
HETATM   19  F   UNL     1     -10.433   9.868  65.876  1.00  0.00    -0.303 F  
HETATM   20  H   UNL     1      -7.610  12.533  66.022  1.00  0.00     0.000 HD 
HETATM   21  C   UNL     1     -11.517  11.423  68.132  1.00  0.00    -0.375 C  
HETATM   22  C   UNL     1     -11.889  12.610  67.255  1.00  0.00    -0.395 C  
HETATM   23  C   UNL     1     -11.773  12.246  65.789  1.00  0.00    -0.445 C  
HETATM   24  C   UNL     1     -12.657  12.785  64.925  1.00  0.00    -0.541 C  
HETATM   25  C   UNL     1     -12.139  14.162  64.579  1.00  0.00    -0.468 C  
HETATM   26  C   UNL     1     -10.642  14.326  64.508  1.00  0.00    -0.232 C  
ENDROOT
BRANCH   5  27
HETATM   27  C   UNL     1      -6.235   9.876  69.152  1.00  0.00    -0.044 C  
HETATM   28  C   UNL     1      -5.429  11.169  69.193  1.00  0.00    -0.040 C  
HETATM   29  O   UNL     1      -5.597   8.860  69.450  1.00  0.00    -0.034 OA 
HETATM   30 CL   UNL     1      -6.401  12.613  69.488  1.00  0.00    -0.122 Cl 
ENDBRANCH   5  27
TORSDOF 1
ENDMDL
MODEL        9
REMARK 921   NORMALIZED FREE ENERGY PREDICTED BY IDOCK:   -6.37 KCAL/MOL
REMARK 922        TOTAL FREE ENERGY PREDICTED BY IDOCK:   -5.46 KCAL/MOL
REMARK 923 INTER-LIGAND FREE ENERGY PREDICTED BY IDOCK:   -8.02 KCAL/MOL
REMARK 924 INTRA-LIGAND FREE ENERGY PREDICTED BY IDOCK:    2.56 KCAL/MOL
REMARK 927      BINDING AFFINITY PREDICTED BY RF-SCORE:    0.00 PKD
ROOT
HETATM    1  C   UNL     1      -8.938   8.792  67.304  1.00  0.00    -0.144 C  
HETATM    2  C   UNL     1      -7.730   9.516  67.424  1.00  0.00    -0.095 C  
HETATM    3  C   UNL     1      -8.629   9.734  68.630  1.00  0.00    -0.121 C  
HETATM    4  C   UNL     1      -7.404  10.244  69.694  1.00  0.00    -0.150 C  
HETATM    5  C   UNL     1     -10.298   8.527  68.737  1.00  0.00    -0.213 C  
HETATM    6  O   UNL     1     -10.487   7.363  67.825  1.00  0.00    -0.211 OA 
HETATM    7  C   UNL     1     -10.246  13.815  67.401  1.00  0.00    -0.252 C  
HETATM    8  C   UNL     1      -9.032   8.502  69.224  1.00  0.00    -0.146 C  
HETATM    9  C   UNL     1     -10.049   9.855  70.179  1.00  0.00    -0.309 C  
HETATM   10  C   UNL     1      -8.167   7.334  69.691  1.00  0.00    -0.131 C  
HETATM   11  C   UNL     1     -10.946  12.584  66.678  1.00  0.00    -0.303 C  
HETATM   12  C   UNL     1     -12.405  13.005  66.612  1.00  0.00    -0.131 C  
HETATM   13  H   UNL     1     -11.256   6.807  67.874  1.00  0.00     0.000 HD 
HETATM   14  C   UNL     1     -10.897  11.005  69.048  1.00  0.00    -0.229 C  
HETATM   15  O   UNL     1     -12.436  14.561  63.349  1.00  0.00    -0.649 OA 
HETATM   16  O   UNL     1     -12.286  10.649  69.075  1.00  0.00    -0.770 OA 
HETATM   17  C   UNL     1     -10.362  11.296  67.407  1.00  0.00    -0.200 C  
HETATM   18  C   UNL     1     -10.175   9.887  66.614  1.00  0.00    -0.293 C  
HETATM   19  F   UNL     1      -9.036  11.795  67.407  1.00  0.00    -0.163 F  
HETATM   20  H   UNL     1     -12.728  11.249  68.485  1.00  0.00     0.000 HD 
HETATM   21  C   UNL     1      -9.834  10.106  65.128  1.00  0.00    -0.394 C  
HETATM   22  C   UNL     1     -10.712  11.189  64.514  1.00  0.00    -0.368 C  
HETATM   23  C   UNL     1     -10.476  12.518  65.202  1.00  0.00    -0.320 C  
HETATM   24  C   UNL     1     -10.538  13.641  64.458  1.00  0.00    -0.428 C  
HETATM   25  C   UNL     1     -12.000  14.007  64.349  1.00  0.00    -0.454 C  
HETATM   26  C   UNL     1     -12.866  13.707  65.546  1.00  0.00    -0.443 C  
ENDROOT
BRANCH   5  27
HETATM   27  C   UNL     1     -11.005   7.568  69.978  1.00  0.00    -0.240 C  
HETATM   28  C   UNL     1     -11.376   6.126  69.649  1.00  0.00    -0.372 C  
HETATM   29  O   UNL     1     -11.330   7.938  71.111  1.00  0.00    -0.257 OA 
HETATM   30 CL   UNL     1     -10.346   5.380  68.424  1.00  0.00    -0.235 Cl 
ENDBRANCH   5  27
TORSDOF 1
ENDMDL
MODEL       10
REMARK 921   NORMALIZED FREE ENERGY PREDICTED BY IDOCK:   -6.35 KCAL/MOL
REMARK 922        TOTAL FREE ENERGY PREDICTED BY IDOCK:   -5.44 KCAL/MOL
REMARK 923 INTER-LIGAND FREE ENERGY PREDICTED BY IDOCK:   -8.16 KCAL/MOL
REMARK 924 INTRA-LIGAND FREE ENERGY PREDICTED BY IDOCK:    2.71 KCAL/MOL
REMARK 927      BINDING AFFINITY PREDICTED BY RF-SCORE:    0.00 PKD
ROOT
HETATM    1  C   UNL     1     -11.040  12.733  67.720  1.00  0.00    -0.289 C  
HETATM    2  C   UNL     1      -9.957  13.259  68.461  1.00  0.00    -0.189 C  
HETATM    3  C   UNL     1      -9.473  12.361  67.333  1.00  0.00    -0.186 C  
HETATM    4  C   UNL     1      -7.896  12.991  67.250  1.00  0.00    -0.132 C  
HETATM    5  C   UNL     1     -10.914  11.748  65.991  1.00  0.00    -0.306 C  
HETATM    6  O   UNL     1     -12.286  12.332  65.987  1.00  0.00    -0.646 OA 
HETATM    7  C   UNL     1      -8.630   8.669  69.870  1.00  0.00    -0.131 C  
HETATM    8  C   UNL     1     -10.008  12.755  66.072  1.00  0.00    -0.277 C  
HETATM    9  C   UNL     1      -9.073  11.093  65.703  1.00  0.00    -0.221 C  
HETATM   10  C   UNL     1      -9.983  14.128  65.405  1.00  0.00    -0.321 C  
HETATM   11  C   UNL     1     -10.162   8.878  69.500  1.00  0.00    -0.204 C  
HETATM   12  C   UNL     1     -10.652   7.462  69.242  1.00  0.00    -0.220 C  
HETATM   13  H   UNL     1     -12.950  12.050  65.368  1.00  0.00     0.000 HD 
HETATM   14  C   UNL     1      -9.532   9.770  66.869  1.00  0.00    -0.160 C  
HETATM   15  O   UNL     1     -11.868   6.635  72.544  1.00  0.00    -0.223 OA 
HETATM   16  O   UNL     1     -10.388   8.873  66.148  1.00  0.00    -0.337 OA 
HETATM   17  C   UNL     1     -10.171  10.089  68.467  1.00  0.00    -0.175 C  
HETATM   18  C   UNL     1     -11.431  11.116  68.379  1.00  0.00    -0.377 C  
HETATM   19  F   UNL     1      -9.244  10.848  69.222  1.00  0.00    -0.182 F  
HETATM   20  H   UNL     1     -10.627   8.183  66.757  1.00  0.00     0.000 HD 
HETATM   21  C   UNL     1     -12.105  11.316  69.750  1.00  0.00    -0.394 C  
HETATM   22  C   UNL     1     -12.282   9.990  70.477  1.00  0.00    -0.308 C  
HETATM   23  C   UNL     1     -10.936   9.353  70.757  1.00  0.00    -0.371 C  
HETATM   24  C   UNL     1     -10.785   8.658  71.903  1.00  0.00    -0.414 C  
HETATM   25  C   UNL     1     -11.337   7.275  71.647  1.00  0.00    -0.254 C  
HETATM   26  C   UNL     1     -11.150   6.716  70.260  1.00  0.00    -0.379 C  
ENDROOT
BRANCH   5  27
HETATM   27  C   UNL     1     -11.012  11.710  64.274  1.00  0.00    -0.355 C  
HETATM   28  C   UNL     1     -12.182  12.422  63.604  1.00  0.00    -0.557 C  
HETATM   29  O   UNL     1     -10.274  11.092  63.499  1.00  0.00    -0.337 OA 
HETATM   30 CL   UNL     1     -12.778  13.823  64.499  1.00  0.00    -0.209 Cl 
ENDBRANCH   5  27
TORSDOF 1
ENDMDL
MODEL       11
REMARK 921   NORMALIZED FREE ENERGY PREDICTED BY IDOCK:   -6.25 KCAL/MOL
REMARK 922        TOTAL FREE ENERGY PREDICTED BY IDOCK:   -5.33 KCAL/MOL
REMARK 923 INTER-LIGAND FREE ENERGY PREDICTED BY IDOCK:   -7.84 KCAL/MOL
REMARK 924 INTRA-LIGAND FREE ENERGY PREDICTED BY IDOCK:    2.51 KCAL/MOL
REMARK 927      BINDING AFFINITY PREDICTED BY RF-SCORE:    0.00 PKD
ROOT
HETATM    1  C   UNL     1     -11.450  12.123  67.929  1.00  0.00    -0.392 C  
HETATM    2  C   UNL     1     -11.749  12.275  66.556  1.00  0.00    -0.420 C  
HETATM    3  C   UNL     1     -10.285  11.926  66.769  1.00  0.00    -0.232 C  
HETATM    4  C   UNL     1      -9.999  11.333  65.200  1.00  0.00    -0.312 C  
HETATM    5  C   UNL     1      -9.758  11.394  68.690  1.00  0.00    -0.176 C  
HETATM    6  O   UNL     1     -10.780  11.139  69.745  1.00  0.00    -0.439 OA 
HETATM    7  C   UNL     1      -8.617  16.136  66.251  1.00  0.00    -0.373 C  
HETATM    8  C   UNL     1     -10.127  10.748  67.556  1.00  0.00    -0.218 C  
HETATM    9  C   UNL     1      -8.321  11.427  67.335  1.00  0.00    -0.144 C  
HETATM   10  C   UNL     1     -10.747   9.368  67.352  1.00  0.00    -0.280 C  
HETATM   11  C   UNL     1      -9.243  15.848  67.683  1.00  0.00    -0.208 C  
HETATM   12  C   UNL     1      -8.301  16.578  68.627  1.00  0.00    -0.235 C  
HETATM   13  H   UNL     1     -10.537  10.893  70.630  1.00  0.00     0.000 HD 
HETATM   14  C   UNL     1      -8.197  13.199  67.743  1.00  0.00    -0.168 C  
HETATM   15  O   UNL     1     -10.012  19.755  68.846  1.00  0.00    -0.441 OA 
HETATM   16  O   UNL     1      -7.540  13.277  69.017  1.00  0.00    -0.299 OA 
HETATM   17  C   UNL     1      -9.565  14.289  67.682  1.00  0.00    -0.219 C  
HETATM   18  C   UNL     1     -10.811  13.682  68.534  1.00  0.00    -0.275 C  
HETATM   19  F   UNL     1     -10.108  14.318  66.374  1.00  0.00    -0.257 F  
HETATM   20  H   UNL     1      -7.476  14.201  69.229  1.00  0.00     0.000 HD 
HETATM   21  C   UNL     1     -11.987  14.673  68.616  1.00  0.00    -0.305 C  
HETATM   22  C   UNL     1     -11.501  16.083  68.921  1.00  0.00    -0.362 C  
HETATM   23  C   UNL     1     -10.599  16.587  67.811  1.00  0.00    -0.332 C  
HETATM   24  C   UNL     1     -10.648  17.897  67.496  1.00  0.00    -0.386 C  
HETATM   25  C   UNL     1      -9.758  18.614  68.484  1.00  0.00    -0.370 C  
HETATM   26  C   UNL     1      -8.529  17.876  68.950  1.00  0.00    -0.129 C  
ENDROOT
BRANCH   5  27
HETATM   27  C   UNL     1      -8.852  10.097  69.368  1.00  0.00    -0.185 C  
HETATM   28  C   UNL     1      -9.370   9.450  70.647  1.00  0.00    -0.252 C  
HETATM   29  O   UNL     1      -7.761   9.667  68.978  1.00  0.00    -0.073 OA 
HETATM   30 CL   UNL     1     -11.127   9.490  70.813  1.00  0.00    -0.358 Cl 
ENDBRANCH   5  27
TORSDOF 1
ENDMDL
MODEL       12
REMARK 921   NORMALIZED FREE ENERGY PREDICTED BY IDOCK:   -6.23 KCAL/MOL
REMARK 922        TOTAL FREE ENERGY PREDICTED BY IDOCK:   -5.31 KCAL/MOL
REMARK 923 INTER-LIGAND FREE ENERGY PREDICTED BY IDOCK:   -6.60 KCAL/MOL
REMARK 924 INTRA-LIGAND FREE ENERGY PREDICTED BY IDOCK:    1.29 KCAL/MOL
REMARK 927      BINDING AFFINITY PREDICTED BY RF-SCORE:    0.00 PKD
ROOT
HETATM    1  C   UNL     1      -7.768   8.609  65.125  1.00  0.00    -0.101 C  
HETATM    2  C   UNL     1      -6.643   9.463  65.067  1.00  0.00    -0.084 C  
HETATM    3  C   UNL     1      -7.121   9.273  66.497  1.00  0.00    -0.085 C  
HETATM    4  C   UNL     1      -5.660   9.716  67.248  1.00  0.00    -0.040 C  
HETATM    5  C   UNL     1      -8.571   7.833  66.776  1.00  0.00    -0.132 C  
HETATM    6  O   UNL     1      -8.956   6.883  65.694  1.00  0.00    -0.337 OA 
HETATM    7  C   UNL     1      -9.348  13.231  66.884  1.00  0.00    -0.244 C  
HETATM    8  C   UNL     1      -7.217   7.894  66.847  1.00  0.00    -0.089 C  
HETATM    9  C   UNL     1      -7.971   8.834  68.371  1.00  0.00    -0.109 C  
HETATM   10  C   UNL     1      -6.164   6.796  66.724  1.00  0.00    -0.040 C  
HETATM   11  C   UNL     1     -10.149  12.097  66.109  1.00  0.00    -0.251 C  
HETATM   12  C   UNL     1     -11.579  12.296  66.584  1.00  0.00    -0.438 C  
HETATM   13  H   UNL     1      -9.624   6.219  65.823  1.00  0.00     0.000 HD 
HETATM   14  C   UNL     1      -9.222  10.062  67.873  1.00  0.00    -0.137 C  
HETATM   15  O   UNL     1     -12.774  14.507  63.986  1.00  0.00    -0.759 OA 
HETATM   16  O   UNL     1     -10.498   9.503  68.215  1.00  0.00    -0.205 OA 
HETATM   17  C   UNL     1      -9.267  10.784  66.279  1.00  0.00    -0.173 C  
HETATM   18  C   UNL     1      -9.239   9.628  65.133  1.00  0.00    -0.305 C  
HETATM   19  F   UNL     1      -8.053  11.466  66.018  1.00  0.00    -0.156 F  
HETATM   20  H   UNL     1     -11.150  10.144  67.955  1.00  0.00     0.000 HD 
HETATM   21  C   UNL     1      -9.413  10.217  63.721  1.00  0.00    -0.352 C  
HETATM   22  C   UNL     1     -10.519  11.263  63.690  1.00  0.00    -0.464 C  
HETATM   23  C   UNL     1     -10.175  12.429  64.595  1.00  0.00    -0.312 C  
HETATM   24  C   UNL     1     -10.557  13.665  64.215  1.00  0.00    -0.245 C  
HETATM   25  C   UNL     1     -11.999  13.820  64.638  1.00  0.00    -0.416 C  
HETATM   26  C   UNL     1     -12.410  13.137  65.917  1.00  0.00    -0.462 C  
ENDROOT
BRANCH   5  27
HETATM   27  C   UNL     1      -8.767   6.529  67.882  1.00  0.00    -0.116 C  
HETATM   28  C   UNL     1     -10.185   6.107  68.251  1.00  0.00    -0.175 C  
HETATM   29  O   UNL     1      -7.875   5.929  68.491  1.00  0.00    -0.099 OA 
HETATM   30 CL   UNL     1     -11.371   6.375  66.971  1.00  0.00    -0.273 Cl 
ENDBRANCH   5  27
TORSDOF 1
ENDMDL
MODEL       13
REMARK 921   NORMALIZED FREE ENERGY PREDICTED BY IDOCK:   -6.23 KCAL/MOL
REMARK 922        TOTAL FREE ENERGY PREDICTED BY IDOCK:   -5.31 KCAL/MOL
REMARK 923 INTER-LIGAND FREE ENERGY PREDICTED BY IDOCK:   -6.58 KCAL/MOL
REMARK 924 INTRA-LIGAND FREE ENERGY PREDICTED BY IDOCK:    1.27 KCAL/MOL
REMARK 927      BINDING AFFINITY PREDICTED BY RF-SCORE:    0.00 PKD
ROOT
HETATM    1  C   UNL     1     -11.237  11.354  66.109  1.00  0.00    -0.203 C  
HETATM    2  C   UNL     1     -10.550  11.437  64.877  1.00  0.00    -0.368 C  
HETATM    3  C   UNL     1      -9.592  11.186  66.031  1.00  0.00    -0.248 C  
HETATM    4  C   UNL     1      -8.323  10.553  65.092  1.00  0.00    -0.150 C  
HETATM    5  C   UNL     1     -10.468  10.759  67.848  1.00  0.00    -0.199 C  
HETATM    6  O   UNL     1     -11.927  10.481  67.974  1.00  0.00    -0.758 OA 
HETATM    7  C   UNL     1      -8.090  15.468  66.463  1.00  0.00    -0.099 C  
HETATM    8  C   UNL     1      -9.974  10.050  66.802  1.00  0.00    -0.267 C  
HETATM    9  C   UNL     1      -8.494  10.829  67.790  1.00  0.00    -0.120 C  
HETATM   10  C   UNL     1     -10.273   8.628  66.334  1.00  0.00    -0.224 C  
HETATM   11  C   UNL     1      -9.505  15.195  67.135  1.00  0.00    -0.224 C  
HETATM   12  C   UNL     1      -9.447  16.016  68.413  1.00  0.00    -0.207 C  
HETATM   13  H   UNL     1     -12.331  10.284  68.811  1.00  0.00     0.000 HD 
HETATM   14  C   UNL     1      -8.710  12.619  68.055  1.00  0.00    -0.190 C  
HETATM   15  O   UNL     1     -10.934  19.089  67.223  1.00  0.00    -0.459 OA 
HETATM   16  O   UNL     1      -9.070  12.784  69.434  1.00  0.00     0.238 OA 
HETATM   17  C   UNL     1      -9.712  13.621  67.027  1.00  0.00    -0.251 C  
HETATM   18  C   UNL     1     -11.197  12.971  66.877  1.00  0.00    -0.331 C  
HETATM   19  F   UNL     1      -9.247  13.568  65.691  1.00  0.00    -0.049 F  
HETATM   20  H   UNL     1      -9.183  13.718  69.572  1.00  0.00     0.000 HD 
HETATM   21  C   UNL     1     -12.148  13.891  66.089  1.00  0.00    -0.478 C  
HETATM   22  C   UNL     1     -12.018  15.338  66.543  1.00  0.00     0.290 C  
HETATM   23  C   UNL     1     -10.618  15.854  66.280  1.00  0.00    -0.301 C  
HETATM   24  C   UNL     1     -10.471  17.147  65.923  1.00  0.00    -0.265 C  
HETATM   25  C   UNL     1     -10.480  17.953  67.200  1.00  0.00    -0.353 C  
HETATM   26  C   UNL     1      -9.858  17.309  68.414  1.00  0.00    -0.309 C  
ENDROOT
BRANCH   5  27
HETATM   27  C   UNL     1     -10.217   9.546  69.043  1.00  0.00    -0.200 C  
HETATM   28  C   UNL     1     -10.514   9.897  70.497  1.00  0.00    -0.264 C  
HETATM   29  O   UNL     1      -9.736   8.420  68.872  1.00  0.00    -0.162 OA 
HETATM   30 CL   UNL     1     -11.795  11.095  70.699  1.00  0.00    -0.435 Cl 
ENDBRANCH   5  27
TORSDOF 1
ENDMDL
MODEL       14
REMARK 921   NORMALIZED FREE ENERGY PREDICTED BY IDOCK:   -6.22 KCAL/MOL
REMARK 922        TOTAL FREE ENERGY PREDICTED BY IDOCK:   -5.30 KCAL/MOL
REMARK 923 INTER-LIGAND FREE ENERGY PREDICTED BY IDOCK:   -6.59 KCAL/MOL
REMARK 924 INTRA-LIGAND FREE ENERGY PREDICTED BY IDOCK:    1.28 KCAL/MOL
REMARK 927      BINDING AFFINITY PREDICTED BY RF-SCORE:    0.00 PKD
ROOT
HETATM    1  C   UNL     1      -7.821  17.367  69.326  1.00  0.00     0.096 C  
HETATM    2  C   UNL     1      -6.662  16.581  69.513  1.00  0.00    -0.198 C  
HETATM    3  C   UNL     1      -6.832  16.980  68.057  1.00  0.00    -0.166 C  
HETATM    4  C   UNL     1      -5.208  16.752  67.604  1.00  0.00    -0.142 C  
HETATM    5  C   UNL     1      -8.315  18.360  67.670  1.00  0.00    -0.251 C  
HETATM    6  O   UNL     1      -9.013  19.093  68.764  1.00  0.00    -0.363 OA 
HETATM    7  C   UNL     1      -8.541  13.020  66.581  1.00  0.00     0.027 C  
HETATM    8  C   UNL     1      -6.979  18.390  67.904  1.00  0.00    -0.218 C  
HETATM    9  C   UNL     1      -7.292  17.675  66.124  1.00  0.00    -0.344 C  
HETATM   10  C   UNL     1      -6.085  19.510  68.428  1.00  0.00    -0.261 C  
HETATM   11  C   UNL     1      -9.595  13.960  67.312  1.00  0.00    -0.243 C  
HETATM   12  C   UNL     1     -10.862  13.762  66.497  1.00  0.00    -0.287 C  
HETATM   13  H   UNL     1      -9.697  19.729  68.586  1.00  0.00     0.000 HD 
HETATM   14  C   UNL     1      -8.501  16.311  66.133  1.00  0.00    -0.278 C  
HETATM   15  O   UNL     1     -12.382  11.084  68.390  1.00  0.00    -0.528 OA 
HETATM   16  O   UNL     1      -9.718  16.845  65.594  1.00  0.00    -0.538 OA 
HETATM   17  C   UNL     1      -8.823  15.332  67.547  1.00  0.00    -0.179 C  
HETATM   18  C   UNL     1      -9.154  16.281  68.829  1.00  0.00    -0.245 C  
HETATM   19  F   UNL     1      -7.637  14.688  67.976  1.00  0.00    -0.098 F  
HETATM   20  H   UNL     1     -10.348  16.134  65.599  1.00  0.00     0.000 HD 
HETATM   21  C   UNL     1      -9.575  15.455  70.059  1.00  0.00     0.014 C  
HETATM   22  C   UNL     1     -10.559  14.358  69.678  1.00  0.00    -0.021 C  
HETATM   23  C   UNL     1      -9.918  13.380  68.713  1.00  0.00    -0.063 C  
HETATM   24  C   UNL     1     -10.257  12.078  68.805  1.00  0.00    -0.145 C  
HETATM   25  C   UNL     1     -11.552  11.913  68.044  1.00  0.00    -0.332 C  
HETATM   26  C   UNL     1     -11.736  12.776  66.822  1.00  0.00    -0.459 C  
ENDROOT
BRANCH   5  27
HETATM   27  C   UNL     1      -8.387  19.816  66.757  1.00  0.00    -0.319 C  
HETATM   28  C   UNL     1      -9.723  20.210  66.136  1.00  0.00    -0.366 C  
HETATM   29  O   UNL     1      -7.445  20.562  66.468  1.00  0.00    -0.253 OA 
HETATM   30 CL   UNL     1     -11.130  19.662  67.051  1.00  0.00    -0.424 Cl 
ENDBRANCH   5  27
TORSDOF 1
ENDMDL
MODEL       15
REMARK 921   NORMALIZED FREE ENERGY PREDICTED BY IDOCK:   -6.22 KCAL/MOL
REMARK 922        TOTAL FREE ENERGY PREDICTED BY IDOCK:   -5.30 KCAL/MOL
REMARK 923 INTER-LIGAND FREE ENERGY PREDICTED BY IDOCK:   -6.54 KCAL/MOL
REMARK 924 INTRA-LIGAND FREE ENERGY PREDICTED BY IDOCK:    1.24 KCAL/MOL
REMARK 927      BINDING AFFINITY PREDICTED BY RF-SCORE:    0.00 PKD
ROOT
HETATM    1  C   UNL     1     -10.019  13.479  65.214  1.00  0.00    -0.206 C  
HETATM    2  C   UNL     1     -11.185  12.909  64.655  1.00  0.00    -0.353 C  
HETATM    3  C   UNL     1     -11.507  13.723  65.897  1.00  0.00    -0.330 C  
HETATM    4  C   UNL     1     -13.153  13.967  65.545  1.00  0.00    -0.232 C  
HETATM    5  C   UNL     1      -9.957  14.848  66.662  1.00  0.00    -0.258 C  
HETATM    6  O   UNL     1      -8.679  15.037  65.918  1.00  0.00    -0.367 OA 
HETATM    7  C   UNL     1     -11.909  10.217  68.783  1.00  0.00     0.108 C  
HETATM    8  C   UNL     1     -10.995  15.051  65.812  1.00  0.00    -0.351 C  
HETATM    9  C   UNL     1     -11.681  14.913  67.624  1.00  0.00    -0.329 C  
HETATM   10  C   UNL     1     -11.189  16.085  64.706  1.00  0.00    -0.348 C  
HETATM   11  C   UNL     1     -10.410  10.650  68.477  1.00  0.00    -0.202 C  
HETATM   12  C   UNL     1      -9.722  10.494  69.824  1.00  0.00    -0.010 C  
HETATM   13  H   UNL     1      -7.965  15.555  66.270  1.00  0.00     0.000 HD 
HETATM   14  C   UNL     1     -11.079  13.419  68.477  1.00  0.00    -0.270 C  
HETATM   15  O   UNL     1      -8.502   7.108  69.487  1.00  0.00    -0.131 OA 
HETATM   16  O   UNL     1     -10.087  13.860  69.415  1.00  0.00    -0.411 OA 
HETATM   17  C   UNL     1     -10.537  11.989  67.626  1.00  0.00    -0.210 C  
HETATM   18  C   UNL     1      -9.428  12.385  66.502  1.00  0.00    -0.242 C  
HETATM   19  F   UNL     1     -11.582  11.475  66.819  1.00  0.00    -0.373 F  
HETATM   20  H   UNL     1      -9.773  13.081  69.860  1.00  0.00     0.000 HD 
HETATM   21  C   UNL     1      -8.829  11.139  65.824  1.00  0.00    -0.182 C  
HETATM   22  C   UNL     1      -8.492  10.062  66.845  1.00  0.00    -0.125 C  
HETATM   23  C   UNL     1      -9.746   9.594  67.557  1.00  0.00    -0.195 C  
HETATM   24  C   UNL     1      -9.833   8.294  67.906  1.00  0.00    -0.207 C  
HETATM   25  C   UNL     1      -9.089   8.146  69.213  1.00  0.00    -0.151 C  
HETATM   26  C   UNL     1      -9.156   9.310  70.168  1.00  0.00    -0.248 C  
ENDROOT
BRANCH   5  27
HETATM   27  C   UNL     1      -9.805  16.482  67.179  1.00  0.00    -0.255 C  
HETATM   28  C   UNL     1      -8.855  16.785  68.333  1.00  0.00    -0.237 C  
HETATM   29  O   UNL     1     -10.447  17.455  66.772  1.00  0.00    -0.310 OA 
HETATM   30 CL   UNL     1      -7.478  15.685  68.438  1.00  0.00    -0.117 Cl 
ENDBRANCH   5  27
TORSDOF 1
ENDMDL
MODEL       16
REMARK 921   NORMALIZED FREE ENERGY PREDICTED BY IDOCK:   -6.18 KCAL/MOL
REMARK 922        TOTAL FREE ENERGY PREDICTED BY IDOCK:   -5.26 KCAL/MOL
REMARK 923 INTER-LIGAND FREE ENERGY PREDICTED BY IDOCK:   -7.83 KCAL/MOL
REMARK 924 INTRA-LIGAND FREE ENERGY PREDICTED BY IDOCK:    2.57 KCAL/MOL
REMARK 927      BINDING AFFINITY PREDICTED BY RF-SCORE:    0.00 PKD
ROOT
HETATM    1  C   UNL     1      -9.104  12.494  67.018  1.00  0.00    -0.213 C  
HETATM    2  C   UNL     1      -9.494  12.400  68.373  1.00  0.00    -0.169 C  
HETATM    3  C   UNL     1     -10.688  12.662  67.468  1.00  0.00    -0.247 C  
HETATM    4  C   UNL     1     -11.874  12.092  68.546  1.00  0.00    -0.369 C  
HETATM    5  C   UNL     1     -10.323  12.542  65.442  1.00  0.00    -0.282 C  
HETATM    6  O   UNL     1      -9.041  12.005  64.903  1.00  0.00    -0.387 OA 
HETATM    7  C   UNL     1     -11.061  17.128  68.301  1.00  0.00    -0.118 C  
HETATM    8  C   UNL     1     -10.775  11.708  66.412  1.00  0.00    -0.316 C  
HETATM    9  C   UNL     1     -12.159  13.009  66.004  1.00  0.00    -0.493 C  
HETATM   10  C   UNL     1     -10.778  10.184  66.494  1.00  0.00    -0.118 C  
HETATM   11  C   UNL     1      -9.926  16.745  67.256  1.00  0.00    -0.272 C  
HETATM   12  C   UNL     1     -10.011  17.861  66.226  1.00  0.00    -0.333 C  
HETATM   13  H   UNL     1      -8.873  11.950  63.969  1.00  0.00     0.000 HD 
HETATM   14  C   UNL     1     -11.534  14.720  66.062  1.00  0.00    -0.316 C  
HETATM   15  O   UNL     1      -7.566  20.139  67.604  1.00  0.00    -0.286 OA 
HETATM   16  O   UNL     1     -11.416  15.155  64.699  1.00  0.00    -0.488 OA 
HETATM   17  C   UNL     1     -10.124  15.190  66.987  1.00  0.00    -0.244 C  
HETATM   18  C   UNL     1      -8.864  14.225  66.628  1.00  0.00    -0.167 C  
HETATM   19  F   UNL     1     -10.321  14.894  68.359  1.00  0.00    -0.217 F  
HETATM   20  H   UNL     1     -11.090  16.047  64.729  1.00  0.00     0.000 HD 
HETATM   21  C   UNL     1      -7.570  14.690  67.322  1.00  0.00    -0.173 C  
HETATM   22  C   UNL     1      -7.399  16.199  67.218  1.00  0.00    -0.226 C  
HETATM   23  C   UNL     1      -8.536  16.913  67.922  1.00  0.00    -0.203 C  
HETATM   24  C   UNL     1      -8.265  18.071  68.558  1.00  0.00    -0.311 C  
HETATM   25  C   UNL     1      -8.290  19.158  67.509  1.00  0.00    -0.287 C  
HETATM   26  C   UNL     1      -9.281  18.994  66.385  1.00  0.00    -0.350 C  
ENDROOT
BRANCH   5  27
HETATM   27  C   UNL     1     -11.111  11.759  64.128  1.00  0.00    -0.374 C  
HETATM   28  C   UNL     1     -10.266  10.904  63.190  1.00  0.00    -0.194 C  
HETATM   29  O   UNL     1     -12.296  11.871  63.796  1.00  0.00    -0.458 OA 
HETATM   30 CL   UNL     1      -8.867  10.154  63.965  1.00  0.00    -0.220 Cl 
ENDBRANCH   5  27
TORSDOF 1
ENDMDL
MODEL       17
REMARK 921   NORMALIZED FREE ENERGY PREDICTED BY IDOCK:   -6.07 KCAL/MOL
REMARK 922        TOTAL FREE ENERGY PREDICTED BY IDOCK:   -5.14 KCAL/MOL
REMARK 923 INTER-LIGAND FREE ENERGY PREDICTED BY IDOCK:   -6.43 KCAL/MOL
REMARK 924 INTRA-LIGAND FREE ENERGY PREDICTED BY IDOCK:    1.29 KCAL/MOL
REMARK 927      BINDING AFFINITY PREDICTED BY RF-SCORE:    0.00 PKD
ROOT
HETATM    1  C   UNL     1      -7.587   8.925  66.980  1.00  0.00    -0.094 C  
HETATM    2  C   UNL     1      -6.602   9.927  67.122  1.00  0.00    -0.070 C  
HETATM    3  C   UNL     1      -7.530   9.887  68.326  1.00  0.00    -0.080 C  
HETATM    4  C   UNL     1      -6.475  10.668  69.408  1.00  0.00    -0.067 C  
HETATM    5  C   UNL     1      -8.840   8.296  68.397  1.00  0.00    -0.137 C  
HETATM    6  O   UNL     1      -8.728   7.141  67.462  1.00  0.00    -0.121 OA 
HETATM    7  C   UNL     1     -10.120  13.453  67.163  1.00  0.00    -0.240 C  
HETATM    8  C   UNL     1      -7.610   8.581  68.893  1.00  0.00    -0.096 C  
HETATM    9  C   UNL     1      -8.937   9.614  69.866  1.00  0.00    -0.243 C  
HETATM   10  C   UNL     1      -6.480   7.660  69.344  1.00  0.00    -0.035 C  
HETATM   11  C   UNL     1     -10.485  12.100  66.411  1.00  0.00    -0.261 C  
HETATM   12  C   UNL     1     -12.004  12.140  66.342  1.00  0.00    -0.201 C  
HETATM   13  H   UNL     1      -9.332   6.408  67.495  1.00  0.00     0.000 HD 
HETATM   14  C   UNL     1     -10.045  10.536  68.751  1.00  0.00    -0.191 C  
HETATM   15  O   UNL     1     -12.418  13.704  63.109  1.00  0.00    -0.786 OA 
HETATM   16  O   UNL     1     -11.300   9.841  68.761  1.00  0.00    -0.468 OA 
HETATM   17  C   UNL     1      -9.597  10.986  67.120  1.00  0.00    -0.169 C  
HETATM   18  C   UNL     1      -9.059   9.686  66.301  1.00  0.00    -0.197 C  
HETATM   19  F   UNL     1      -8.440  11.803  67.139  1.00  0.00    -0.143 F  
HETATM   20  H   UNL     1     -11.878  10.322  68.179  1.00  0.00     0.000 HD 
HETATM   21  C   UNL     1      -8.781  10.014  64.823  1.00  0.00    -0.206 C  
HETATM   22  C   UNL     1      -9.902  10.852  64.223  1.00  0.00    -0.365 C  
HETATM   23  C   UNL     1     -10.010  12.184  64.938  1.00  0.00    -0.235 C  
HETATM   24  C   UNL     1     -10.353  13.270  64.215  1.00  0.00    -0.315 C  
HETATM   25  C   UNL     1     -11.859  13.258  64.102  1.00  0.00    -0.443 C  
HETATM   26  C   UNL     1     -12.624  12.724  65.287  1.00  0.00    -0.460 C  
ENDROOT
BRANCH   5  27
HETATM   27  C   UNL     1      -9.285   7.165  69.615  1.00  0.00    -0.146 C  
HETATM   28  C   UNL     1     -10.693   6.581  69.573  1.00  0.00    -0.270 C  
HETATM   29  O   UNL     1      -8.612   6.819  70.592  1.00  0.00    -0.139 OA 
HETATM   30 CL   UNL     1     -11.369   6.451  67.947  1.00  0.00    -0.252 Cl 
ENDBRANCH   5  27
TORSDOF 1
ENDMDL
MODEL       18
REMARK 921   NORMALIZED FREE ENERGY PREDICTED BY IDOCK:   -6.04 KCAL/MOL
REMARK 922        TOTAL FREE ENERGY PREDICTED BY IDOCK:   -5.11 KCAL/MOL
REMARK 923 INTER-LIGAND FREE ENERGY PREDICTED BY IDOCK:   -6.35 KCAL/MOL
REMARK 924 INTRA-LIGAND FREE ENERGY PREDICTED BY IDOCK:    1.24 KCAL/MOL
REMARK 927      BINDING AFFINITY PREDICTED BY RF-SCORE:    0.00 PKD
ROOT
HETATM    1  C   UNL     1      -8.549  12.114  68.000  1.00  0.00    -0.175 C  
HETATM    2  C   UNL     1      -8.027  11.452  66.865  1.00  0.00    -0.158 C  
HETATM    3  C   UNL     1      -9.536  11.615  66.767  1.00  0.00    -0.197 C  
HETATM    4  C   UNL     1      -9.638  11.442  65.078  1.00  0.00    -0.250 C  
HETATM    5  C   UNL     1     -10.406  12.808  68.206  1.00  0.00    -0.243 C  
HETATM    6  O   UNL     1      -9.591  13.644  69.135  1.00  0.00    -0.394 OA 
HETATM    7  C   UNL     1     -10.644   7.364  67.983  1.00  0.00    -0.235 C  
HETATM    8  C   UNL     1      -9.938  12.971  66.944  1.00  0.00    -0.243 C  
HETATM    9  C   UNL     1     -11.606  11.978  66.875  1.00  0.00    -0.389 C  
HETATM   10  C   UNL     1      -9.445  14.220  66.217  1.00  0.00    -0.277 C  
HETATM   11  C   UNL     1     -10.281   8.323  69.198  1.00  0.00    -0.223 C  
HETATM   12  C   UNL     1     -11.273   7.912  70.274  1.00  0.00    -0.206 C  
HETATM   13  H   UNL     1      -9.993  14.194  69.798  1.00  0.00     0.000 HD 
HETATM   14  C   UNL     1     -11.601  10.545  68.001  1.00  0.00    -0.023 C  
HETATM   15  O   UNL     1      -9.286   5.443  72.013  1.00  0.00    -0.143 OA 
HETATM   16  O   UNL     1     -12.433  10.901  69.113  1.00  0.00    -0.668 OA 
HETATM   17  C   UNL     1     -10.131   9.768  68.548  1.00  0.00    -0.166 C  
HETATM   18  C   UNL     1      -9.103  10.870  69.162  1.00  0.00    -0.058 C  
HETATM   19  F   UNL     1      -9.393   9.283  67.440  1.00  0.00    -0.134 F  
HETATM   20  H   UNL     1     -12.431  10.154  69.701  1.00  0.00     0.000 HD 
HETATM   21  C   UNL     1      -7.854  10.209  69.776  1.00  0.00    -0.175 C  
HETATM   22  C   UNL     1      -8.228   8.998  70.619  1.00  0.00    -0.207 C  
HETATM   23  C   UNL     1      -8.889   7.937  69.761  1.00  0.00    -0.141 C  
HETATM   24  C   UNL     1      -8.653   6.642  70.054  1.00  0.00    -0.140 C  
HETATM   25  C   UNL     1      -9.602   6.269  71.168  1.00  0.00    -0.175 C  
HETATM   26  C   UNL     1     -10.960   6.924  71.150  1.00  0.00    -0.284 C  
ENDROOT
BRANCH   5  27
HETATM   27  C   UNL     1     -11.539  14.103  68.164  1.00  0.00    -0.331 C  
HETATM   28  C   UNL     1     -12.532  14.226  69.314  1.00  0.00    -0.030 C  
HETATM   29  O   UNL     1     -11.703  14.920  67.251  1.00  0.00    -0.362 OA 
HETATM   30 CL   UNL     1     -11.921  13.628  70.859  1.00  0.00    -0.319 Cl 
ENDBRANCH   5  27
TORSDOF 1
ENDMDL
MODEL       19
REMARK 921   NORMALIZED FREE ENERGY PREDICTED BY IDOCK:   -6.03 KCAL/MOL
REMARK 922        TOTAL FREE ENERGY PREDICTED BY IDOCK:   -5.10 KCAL/MOL
REMARK 923 INTER-LIGAND FREE ENERGY PREDICTED BY IDOCK:   -6.34 KCAL/MOL
REMARK 924 INTRA-LIGAND FREE ENERGY PREDICTED BY IDOCK:    1.24 KCAL/MOL
REMARK 927      BINDING AFFINITY PREDICTED BY RF-SCORE:    0.00 PKD
ROOT
HETATM    1  C   UNL     1      -7.949  10.917  67.840  1.00  0.00    -0.111 C  
HETATM    2  C   UNL     1      -8.673  10.966  69.053  1.00  0.00    -0.108 C  
HETATM    3  C   UNL     1      -9.476  10.288  67.955  1.00  0.00    -0.156 C  
HETATM    4  C   UNL     1     -10.539   9.450  68.985  1.00  0.00    -0.233 C  
HETATM    5  C   UNL     1      -8.453   9.885  66.211  1.00  0.00    -0.128 C  
HETATM    6  O   UNL     1      -6.972  10.032  66.115  1.00  0.00    -0.096 OA 
HETATM    7  C   UNL     1     -12.141  13.840  66.925  1.00  0.00    -0.454 C  
HETATM    8  C   UNL     1      -8.755   9.217  67.352  1.00  0.00    -0.118 C  
HETATM    9  C   UNL     1     -10.363   9.384  66.275  1.00  0.00    -0.211 C  
HETATM   10  C   UNL     1      -8.073   8.024  68.018  1.00  0.00    -0.129 C  
HETATM   11  C   UNL     1     -10.686  13.901  66.287  1.00  0.00    -0.285 C  
HETATM   12  C   UNL     1     -10.936  14.482  64.905  1.00  0.00    -0.421 C  
HETATM   13  H   UNL     1      -6.501   9.846  65.311  1.00  0.00     0.000 HD 
HETATM   14  C   UNL     1     -10.667  11.103  65.753  1.00  0.00    -0.188 C  
HETATM   15  O   UNL     1     -10.447  17.990  65.628  1.00  0.00    -0.619 OA 
HETATM   16  O   UNL     1     -10.323  11.172  64.362  1.00  0.00    -0.298 OA 
HETATM   17  C   UNL     1     -10.034  12.487  66.618  1.00  0.00    -0.236 C  
HETATM   18  C   UNL     1      -8.431  12.327  66.848  1.00  0.00    -0.159 C  
HETATM   19  F   UNL     1     -10.510  12.488  67.952  1.00  0.00    -0.201 F  
HETATM   20  H   UNL     1     -10.482  12.068  64.090  1.00  0.00     0.000 HD 
HETATM   21  C   UNL     1      -7.815  13.586  67.487  1.00  0.00    -0.184 C  
HETATM   22  C   UNL     1      -8.344  14.854  66.831  1.00  0.00    -0.212 C  
HETATM   23  C   UNL     1      -9.842  14.969  67.029  1.00  0.00    -0.241 C  
HETATM   24  C   UNL     1     -10.370  16.199  67.198  1.00  0.00    -0.291 C  
HETATM   25  C   UNL     1     -10.552  16.786  65.818  1.00  0.00    -0.250 C  
HETATM   26  C   UNL     1     -10.918  15.825  64.715  1.00  0.00    -0.410 C  
ENDROOT
BRANCH   5  27
HETATM   27  C   UNL     1      -8.300   8.498  65.205  1.00  0.00    -0.169 C  
HETATM   28  C   UNL     1      -8.131   8.712  63.705  1.00  0.00    -0.163 C  
HETATM   29  O   UNL     1      -8.394   7.314  65.549  1.00  0.00    -0.134 OA 
HETATM   30 CL   UNL     1      -7.302  10.214  63.283  1.00  0.00    -0.140 Cl 
ENDBRANCH   5  27
TORSDOF 1
ENDMDL
MODEL       20
REMARK 921   NORMALIZED FREE ENERGY PREDICTED BY IDOCK:   -5.97 KCAL/MOL
REMARK 922        TOTAL FREE ENERGY PREDICTED BY IDOCK:   -5.03 KCAL/MOL
REMARK 923 INTER-LIGAND FREE ENERGY PREDICTED BY IDOCK:   -7.54 KCAL/MOL
REMARK 924 INTRA-LIGAND FREE ENERGY PREDICTED BY IDOCK:    2.51 KCAL/MOL
REMARK 927      BINDING AFFINITY PREDICTED BY RF-SCORE:    0.00 PKD
ROOT
HETATM    1  C   UNL     1      -9.562  18.188  66.383  1.00  0.00    -0.298 C  
HETATM    2  C   UNL     1     -10.580  18.516  67.307  1.00  0.00    -0.453 C  
HETATM    3  C   UNL     1      -9.479  17.696  67.961  1.00  0.00    -0.282 C  
HETATM    4  C   UNL     1      -9.819  18.162  69.562  1.00  0.00     0.245 C  
HETATM    5  C   UNL     1      -7.791  17.384  66.819  1.00  0.00    -0.238 C  
HETATM    6  O   UNL     1      -7.565  18.106  65.534  1.00  0.00    -0.527 OA 
HETATM    7  C   UNL     1     -11.651  13.689  67.913  1.00  0.00    -0.376 C  
HETATM    8  C   UNL     1      -8.192  18.275  67.759  1.00  0.00    -0.253 C  
HETATM    9  C   UNL     1      -7.827  16.572  68.620  1.00  0.00    -0.226 C  
HETATM   10  C   UNL     1      -7.726  19.701  68.043  1.00  0.00    -0.332 C  
HETATM   11  C   UNL     1     -10.988  14.096  66.527  1.00  0.00    -0.309 C  
HETATM   12  C   UNL     1     -10.454  12.775  65.997  1.00  0.00    -0.291 C  
HETATM   13  H   UNL     1      -6.787  17.962  65.008  1.00  0.00     0.000 HD 
HETATM   14  C   UNL     1      -8.690  15.190  67.805  1.00  0.00    -0.166 C  
HETATM   15  O   UNL     1     -13.284  11.736  64.003  1.00  0.00    -0.527 OA 
HETATM   16  O   UNL     1      -7.694  14.468  67.067  1.00  0.00    -0.328 OA 
HETATM   17  C   UNL     1     -10.139  15.403  66.847  1.00  0.00    -0.257 C  
HETATM   18  C   UNL     1      -9.912  16.560  65.725  1.00  0.00    -0.302 C  
HETATM   19  F   UNL     1     -11.166  15.977  67.637  1.00  0.00    -0.328 F  
HETATM   20  H   UNL     1      -8.144  13.747  66.642  1.00  0.00     0.000 HD 
HETATM   21  C   UNL     1     -11.119  16.684  64.776  1.00  0.00    -0.120 C  
HETATM   22  C   UNL     1     -11.617  15.315  64.335  1.00  0.00    -0.265 C  
HETATM   23  C   UNL     1     -12.098  14.514  65.528  1.00  0.00    -0.299 C  
HETATM   24  C   UNL     1     -13.152  13.690  65.359  1.00  0.00    -0.180 C  
HETATM   25  C   UNL     1     -12.611  12.408  64.772  1.00  0.00    -0.335 C  
HETATM   26  C   UNL     1     -11.237  11.981  65.224  1.00  0.00    -0.374 C  
ENDROOT
BRANCH   5  27
HETATM   27  C   UNL     1      -6.103  17.537  67.110  1.00  0.00    -0.138 C  
HETATM   28  C   UNL     1      -5.239  18.160  66.019  1.00  0.00    -0.178 C  
HETATM   29  O   UNL     1      -5.475  17.121  68.090  1.00  0.00    -0.117 OA 
HETATM   30 CL   UNL     1      -6.083  19.351  65.026  1.00  0.00    -0.285 Cl 
ENDBRANCH   5  27
TORSDOF 1
ENDMDL
MODEL       21
REMARK 921   NORMALIZED FREE ENERGY PREDICTED BY IDOCK:   -5.92 KCAL/MOL
REMARK 922        TOTAL FREE ENERGY PREDICTED BY IDOCK:   -4.98 KCAL/MOL
REMARK 923 INTER-LIGAND FREE ENERGY PREDICTED BY IDOCK:   -6.22 KCAL/MOL
REMARK 924 INTRA-LIGAND FREE ENERGY PREDICTED BY IDOCK:    1.24 KCAL/MOL
REMARK 927      BINDING AFFINITY PREDICTED BY RF-SCORE:    0.00 PKD
ROOT
HETATM    1  C   UNL     1     -10.754  10.527  66.136  1.00  0.00    -0.115 C  
HETATM    2  C   UNL     1     -10.202  10.852  64.876  1.00  0.00    -0.381 C  
HETATM    3  C   UNL     1      -9.116  10.539  65.894  1.00  0.00    -0.192 C  
HETATM    4  C   UNL     1      -7.895  10.177  64.766  1.00  0.00    -0.146 C  
HETATM    5  C   UNL     1      -9.767   9.773  67.694  1.00  0.00    -0.156 C  
HETATM    6  O   UNL     1     -11.176   9.334  67.900  1.00  0.00    -0.501 OA 
HETATM    7  C   UNL     1      -7.961  14.847  66.834  1.00  0.00    -0.067 C  
HETATM    8  C   UNL     1      -9.319   9.272  66.516  1.00  0.00    -0.231 C  
HETATM    9  C   UNL     1      -7.822  10.051  67.480  1.00  0.00    -0.095 C  
HETATM   10  C   UNL     1      -9.536   7.908  65.866  1.00  0.00    -0.000 C  
HETATM   11  C   UNL     1      -9.273  14.340  67.575  1.00  0.00    -0.197 C  
HETATM   12  C   UNL     1      -9.161  14.974  68.953  1.00  0.00    -0.206 C  
HETATM   13  H   UNL     1     -11.476   8.981  68.730  1.00  0.00     0.000 HD 
HETATM   14  C   UNL     1      -8.168  11.754  68.028  1.00  0.00    -0.152 C  
HETATM   15  O   UNL     1     -11.023  18.017  68.368  1.00  0.00    -0.100 OA 
HETATM   16  O   UNL     1      -8.403  11.685  69.441  1.00  0.00    -0.290 OA 
HETATM   17  C   UNL     1      -9.351  12.784  67.251  1.00  0.00    -0.200 C  
HETATM   18  C   UNL     1     -10.780  12.014  67.131  1.00  0.00    -0.277 C  
HETATM   19  F   UNL     1      -9.017  12.968  65.887  1.00  0.00    -0.028 F  
HETATM   20  H   UNL     1      -8.583  12.574  69.727  1.00  0.00     0.000 HD 
HETATM   21  C   UNL     1     -11.882  12.935  66.575  1.00  0.00    -0.473 C  
HETATM   22  C   UNL     1     -11.835  14.310  67.228  1.00  0.00    -0.444 C  
HETATM   23  C   UNL     1     -10.519  14.997  66.927  1.00  0.00    -0.279 C  
HETATM   24  C   UNL     1     -10.522  16.335  66.756  1.00  0.00    -0.287 C  
HETATM   25  C   UNL     1     -10.475  16.948  68.136  1.00  0.00    -0.350 C  
HETATM   26  C   UNL     1      -9.683  16.205  69.182  1.00  0.00    -0.248 C  
ENDROOT
BRANCH   5  27
HETATM   27  C   UNL     1      -9.293   8.436  68.668  1.00  0.00    -0.143 C  
HETATM   28  C   UNL     1      -9.387   8.580  70.183  1.00  0.00    -0.161 C  
HETATM   29  O   UNL     1      -8.797   7.372  68.282  1.00  0.00    -0.128 OA 
HETATM   30 CL   UNL     1     -10.672   9.664  70.723  1.00  0.00    -0.379 Cl 
ENDBRANCH   5  27
TORSDOF 1
ENDMDL
MODEL       22
REMARK 921   NORMALIZED FREE ENERGY PREDICTED BY IDOCK:   -5.92 KCAL/MOL
REMARK 922        TOTAL FREE ENERGY PREDICTED BY IDOCK:   -4.98 KCAL/MOL
REMARK 923 INTER-LIGAND FREE ENERGY PREDICTED BY IDOCK:   -6.27 KCAL/MOL
REMARK 924 INTRA-LIGAND FREE ENERGY PREDICTED BY IDOCK:    1.29 KCAL/MOL
REMARK 927      BINDING AFFINITY PREDICTED BY RF-SCORE:    0.00 PKD
ROOT
HETATM    1  C   UNL     1     -10.361  16.658  66.860  1.00  0.00    -0.299 C  
HETATM    2  C   UNL     1     -11.523  16.304  67.582  1.00  0.00     0.095 C  
HETATM    3  C   UNL     1     -10.280  16.213  68.452  1.00  0.00    -0.240 C  
HETATM    4  C   UNL     1     -11.084  16.320  69.948  1.00  0.00    -0.347 C  
HETATM    5  C   UNL     1      -8.548  16.968  67.626  1.00  0.00    -0.210 C  
HETATM    6  O   UNL     1      -8.558  17.760  66.363  1.00  0.00    -0.289 OA 
HETATM    7  C   UNL     1      -9.771  11.688  68.241  1.00  0.00    -0.197 C  
HETATM    8  C   UNL     1      -9.531  17.426  68.440  1.00  0.00    -0.293 C  
HETATM    9  C   UNL     1      -8.419  16.182  69.434  1.00  0.00    -0.091 C  
HETATM   10  C   UNL     1     -10.005  18.849  68.726  1.00  0.00    -0.466 C  
HETATM   11  C   UNL     1      -9.233  12.472  66.967  1.00  0.00    -0.214 C  
HETATM   12  C   UNL     1      -7.968  11.712  66.601  1.00  0.00    -0.098 C  
HETATM   13  H   UNL     1      -7.759  18.108  65.983  1.00  0.00     0.000 HD 
HETATM   14  C   UNL     1      -8.203  14.599  68.556  1.00  0.00    -0.152 C  
HETATM   15  O   UNL     1      -9.340   9.369  64.215  1.00  0.00    -0.138 OA 
HETATM   16  O   UNL     1      -6.867  14.605  68.033  1.00  0.00    -0.112 OA 
HETATM   17  C   UNL     1      -9.336  14.011  67.359  1.00  0.00    -0.220 C  
HETATM   18  C   UNL     1      -9.617  15.154  66.235  1.00  0.00    -0.325 C  
HETATM   19  F   UNL     1     -10.621  13.863  67.936  1.00  0.00    -0.233 F  
HETATM   20  H   UNL     1      -6.754  13.780  67.575  1.00  0.00     0.000 HD 
HETATM   21  C   UNL     1     -10.505  14.627  65.092  1.00  0.00    -0.440 C  
HETATM   22  C   UNL     1     -10.063  13.242  64.642  1.00  0.00    -0.249 C  
HETATM   23  C   UNL     1     -10.200  12.246  65.776  1.00  0.00    -0.281 C  
HETATM   24  C   UNL     1     -10.561  10.982  65.475  1.00  0.00    -0.267 C  
HETATM   25  C   UNL     1      -9.302  10.261  65.052  1.00  0.00    -0.237 C  
HETATM   26  C   UNL     1      -8.026  10.659  65.748  1.00  0.00    -0.152 C  
ENDROOT
BRANCH   5  27
HETATM   27  C   UNL     1      -7.316  18.030  68.189  1.00  0.00    -0.250 C  
HETATM   28  C   UNL     1      -5.907  17.855  67.633  1.00  0.00    -0.142 C  
HETATM   29  O   UNL     1      -7.419  18.889  69.071  1.00  0.00    -0.320 OA 
HETATM   30 CL   UNL     1      -5.859  17.230  65.982  1.00  0.00    -0.102 Cl 
ENDBRANCH   5  27
TORSDOF 1
ENDMDL
MODEL       23
REMARK 921   NORMALIZED FREE ENERGY PREDICTED BY IDOCK:   -5.91 KCAL/MOL
REMARK 922        TOTAL FREE ENERGY PREDICTED BY IDOCK:   -4.97 KCAL/MOL
REMARK 923 INTER-LIGAND FREE ENERGY PREDICTED BY IDOCK:   -6.26 KCAL/MOL
REMARK 924 INTRA-LIGAND FREE ENERGY PREDICTED BY IDOCK:    1.29 KCAL/MOL
REMARK 927      BINDING AFFINITY PREDICTED BY RF-SCORE:    0.00 PKD
ROOT
HETATM    1  C   UNL     1      -8.587  12.207  66.833  1.00  0.00    -0.191 C  
HETATM    2  C   UNL     1      -8.497  11.159  65.890  1.00  0.00    -0.105 C  
HETATM    3  C   UNL     1      -9.943  11.456  66.252  1.00  0.00    -0.259 C  
HETATM    4  C   UNL     1     -10.635  10.762  64.862  1.00  0.00    -0.258 C  
HETATM    5  C   UNL     1     -10.254  13.143  67.396  1.00  0.00    -0.232 C  
HETATM    6  O   UNL     1      -9.168  14.132  67.653  1.00  0.00    -0.181 OA 
HETATM    7  C   UNL     1     -10.529   7.985  69.147  1.00  0.00    -0.217 C  
HETATM    8  C   UNL     1     -10.263  12.834  66.075  1.00  0.00    -0.290 C  
HETATM    9  C   UNL     1     -11.843  12.074  66.912  1.00  0.00    -0.250 C  
HETATM   10  C   UNL     1     -10.065  13.716  64.845  1.00  0.00    -0.293 C  
HETATM   11  C   UNL     1      -9.764   9.235  69.764  1.00  0.00    -0.202 C  
HETATM   12  C   UNL     1     -10.310   9.312  71.181  1.00  0.00    -0.392 C  
HETATM   13  H   UNL     1      -9.312  14.909  68.180  1.00  0.00     0.000 HD 
HETATM   14  C   UNL     1     -11.434  11.090  68.391  1.00  0.00    -0.308 C  
HETATM   15  O   UNL     1      -7.825   7.321  72.892  1.00  0.00    -0.091 OA 
HETATM   16  O   UNL     1     -11.820  11.881  69.523  1.00  0.00    -0.302 OA 
HETATM   17  C   UNL     1      -9.861  10.365  68.648  1.00  0.00    -0.177 C  
HETATM   18  C   UNL     1      -8.688  11.478  68.465  1.00  0.00    -0.138 C  
HETATM   19  F   UNL     1      -9.561   9.467  67.594  1.00  0.00    -0.141 F  
HETATM   20  H   UNL     1     -11.607  11.369  70.294  1.00  0.00     0.000 HD 
HETATM   21  C   UNL     1      -7.300  10.910  68.815  1.00  0.00    -0.104 C  
HETATM   22  C   UNL     1      -7.346  10.087  70.095  1.00  0.00    -0.171 C  
HETATM   23  C   UNL     1      -8.262   8.891  69.926  1.00  0.00    -0.118 C  
HETATM   24  C   UNL     1      -7.930   7.742  70.549  1.00  0.00    -0.098 C  
HETATM   25  C   UNL     1      -8.423   7.863  71.972  1.00  0.00    -0.132 C  
HETATM   26  C   UNL     1      -9.703   8.630  72.185  1.00  0.00    -0.383 C  
ENDROOT
BRANCH   5  27
HETATM   27  C   UNL     1     -11.335  14.478  67.293  1.00  0.00    -0.350 C  
HETATM   28  C   UNL     1     -11.759  15.161  68.588  1.00  0.00    -0.341 C  
HETATM   29  O   UNL     1     -11.888  14.912  66.276  1.00  0.00    -0.264 OA 
HETATM   30 CL   UNL     1     -10.542  15.098  69.866  1.00  0.00    -0.268 Cl 
ENDBRANCH   5  27
TORSDOF 1
ENDMDL
MODEL       24
REMARK 921   NORMALIZED FREE ENERGY PREDICTED BY IDOCK:   -5.89 KCAL/MOL
REMARK 922        TOTAL FREE ENERGY PREDICTED BY IDOCK:   -4.95 KCAL/MOL
REMARK 923 INTER-LIGAND FREE ENERGY PREDICTED BY IDOCK:   -6.25 KCAL/MOL
REMARK 924 INTRA-LIGAND FREE ENERGY PREDICTED BY IDOCK:    1.31 KCAL/MOL
REMARK 927      BINDING AFFINITY PREDICTED BY RF-SCORE:    0.00 PKD
ROOT
HETATM    1  C   UNL     1     -11.059  11.979  68.326  1.00  0.00    -0.290 C  
HETATM    2  C   UNL     1     -11.983  12.211  67.282  1.00  0.00    -0.158 C  
HETATM    3  C   UNL     1     -10.588  11.943  66.739  1.00  0.00    -0.264 C  
HETATM    4  C   UNL     1     -11.076  11.485  65.175  1.00  0.00    -0.260 C  
HETATM    5  C   UNL     1      -9.194  11.308  68.119  1.00  0.00    -0.170 C  
HETATM    6  O   UNL     1      -9.579  10.912  69.503  1.00  0.00    -0.424 OA 
HETATM    7  C   UNL     1      -9.468  16.280  65.892  1.00  0.00    -0.318 C  
HETATM    8  C   UNL     1     -10.047  10.724  67.241  1.00  0.00    -0.233 C  
HETATM    9  C   UNL     1      -8.582  11.534  66.254  1.00  0.00    -0.133 C  
HETATM   10  C   UNL     1     -10.657   9.325  67.226  1.00  0.00    -0.303 C  
HETATM   11  C   UNL     1      -9.324  15.848  67.415  1.00  0.00    -0.214 C  
HETATM   12  C   UNL     1      -8.062  16.568  67.863  1.00  0.00    -0.168 C  
HETATM   13  H   UNL     1      -8.937  10.619  70.139  1.00  0.00     0.000 HD 
HETATM   14  C   UNL     1      -8.318  13.276  66.720  1.00  0.00     0.096 C  
HETATM   15  O   UNL     1      -9.531  19.602  69.168  1.00  0.00    -0.351 OA 
HETATM   16  O   UNL     1      -7.134  13.303  67.529  1.00  0.00    -0.153 OA 
HETATM   17  C   UNL     1      -9.572  14.276  67.420  1.00  0.00    -0.214 C  
HETATM   18  C   UNL     1     -10.244  13.528  68.700  1.00  0.00    -0.193 C  
HETATM   19  F   UNL     1     -10.676  14.364  66.536  1.00  0.00    -0.290 F  
HETATM   20  H   UNL     1      -6.996  14.212  67.772  1.00  0.00     0.000 HD 
HETATM   21  C   UNL     1     -11.259  14.433  69.424  1.00  0.00    -0.317 C  
HETATM   22  C   UNL     1     -10.718  15.845  69.593  1.00  0.00    -0.304 C  
HETATM   23  C   UNL     1     -10.470  16.486  68.242  1.00  0.00    -0.313 C  
HETATM   24  C   UNL     1     -10.694  17.810  68.113  1.00  0.00    -0.293 C  
HETATM   25  C   UNL     1      -9.455  18.509  68.623  1.00  0.00    -0.345 C  
HETATM   26  C   UNL     1      -8.137  17.821  68.377  1.00  0.00    -0.297 C  
ENDROOT
BRANCH   5  27
HETATM   27  C   UNL     1      -8.045  10.028  68.158  1.00  0.00    -0.108 C  
HETATM   28  C   UNL     1      -6.664  10.319  68.736  1.00  0.00    -0.053 C  
HETATM   29  O   UNL     1      -8.178   8.892  67.690  1.00  0.00    -0.109 OA 
HETATM   30 CL   UNL     1      -6.658  11.560  69.992  1.00  0.00    -0.074 Cl 
ENDBRANCH   5  27
TORSDOF 1
ENDMDL
MODEL       25
REMARK 921   NORMALIZED FREE ENERGY PREDICTED BY IDOCK:   -5.75 KCAL/MOL
REMARK 922        TOTAL FREE ENERGY PREDICTED BY IDOCK:   -4.80 KCAL/MOL
REMARK 923 INTER-LIGAND FREE ENERGY PREDICTED BY IDOCK:   -6.04 KCAL/MOL
REMARK 924 INTRA-LIGAND FREE ENERGY PREDICTED BY IDOCK:    1.24 KCAL/MOL
REMARK 927      BINDING AFFINITY PREDICTED BY RF-SCORE:    0.00 PKD
ROOT
HETATM    1  C   UNL     1      -9.565  12.416  66.020  1.00  0.00    -0.214 C  
HETATM    2  C   UNL     1     -10.584  11.792  65.265  1.00  0.00    -0.327 C  
HETATM    3  C   UNL     1     -11.159  12.806  66.241  1.00  0.00    -0.321 C  
HETATM    4  C   UNL     1     -12.639  13.031  65.433  1.00  0.00    -0.481 C  
HETATM    5  C   UNL     1      -9.785  14.000  67.209  1.00  0.00    -0.237 C  
HETATM    6  O   UNL     1      -8.350  14.033  66.810  1.00  0.00    -0.409 OA 
HETATM    7  C   UNL     1     -12.525   9.830  69.411  1.00  0.00     1.092 C  
HETATM    8  C   UNL     1     -10.554  14.088  66.095  1.00  0.00    -0.290 C  
HETATM    9  C   UNL     1     -11.691  14.266  67.660  1.00  0.00    -0.421 C  
HETATM   10  C   UNL     1     -10.387  14.933  64.834  1.00  0.00    -0.347 C  
HETATM   11  C   UNL     1     -10.972  10.168  69.451  1.00  0.00    -0.285 C  
HETATM   12  C   UNL     1     -10.665  10.217  70.940  1.00  0.00    -0.059 C  
HETATM   13  H   UNL     1      -7.717  14.584  67.256  1.00  0.00     0.000 HD 
HETATM   14  C   UNL     1     -11.430  12.916  68.857  1.00  0.00    -0.304 C  
HETATM   15  O   UNL     1      -9.630   6.791  71.452  1.00  0.00    -0.168 OA 
HETATM   16  O   UNL     1     -10.685  13.479  69.946  1.00  0.00    -0.304 OA 
HETATM   17  C   UNL     1     -10.785  11.353  68.405  1.00  0.00    -0.203 C  
HETATM   18  C   UNL     1      -9.401  11.532  67.568  1.00  0.00    -0.166 C  
HETATM   19  F   UNL     1     -11.620  10.742  67.438  1.00  0.00    -0.369 F  
HETATM   20  H   UNL     1     -10.549  12.775  70.570  1.00  0.00     0.000 HD 
HETATM   21  C   UNL     1      -8.733  10.177  67.268  1.00  0.00    -0.130 C  
HETATM   22  C   UNL     1      -8.743   9.273  68.493  1.00  0.00    -0.128 C  
HETATM   23  C   UNL     1     -10.166   8.959  68.910  1.00  0.00    -0.220 C  
HETATM   24  C   UNL     1     -10.428   7.737  69.416  1.00  0.00    -0.221 C  
HETATM   25  C   UNL     1     -10.056   7.785  70.879  1.00  0.00    -0.187 C  
HETATM   26  C   UNL     1     -10.288   9.091  71.596  1.00  0.00    -0.420 C  
ENDROOT
BRANCH   5  27
HETATM   27  C   UNL     1      -9.661  15.692  67.496  1.00  0.00    -0.222 C  
HETATM   28  C   UNL     1      -9.020  16.156  68.799  1.00  0.00    -0.236 C  
HETATM   29  O   UNL     1     -10.112  16.602  66.791  1.00  0.00    -0.272 OA 
HETATM   30 CL   UNL     1      -7.792  15.053  69.428  1.00  0.00    -0.194 Cl 
ENDBRANCH   5  27
TORSDOF 1
ENDMDL
MODEL       26
REMARK 921   NORMALIZED FREE ENERGY PREDICTED BY IDOCK:   -5.74 KCAL/MOL
REMARK 922        TOTAL FREE ENERGY PREDICTED BY IDOCK:   -4.79 KCAL/MOL
REMARK 923 INTER-LIGAND FREE ENERGY PREDICTED BY IDOCK:   -6.10 KCAL/MOL
REMARK 924 INTRA-LIGAND FREE ENERGY PREDICTED BY IDOCK:    1.31 KCAL/MOL
REMARK 927      BINDING AFFINITY PREDICTED BY RF-SCORE:    0.00 PKD
ROOT
HETATM    1  C   UNL     1      -9.815  14.291  69.822  1.00  0.00     0.609 C  
HETATM    2  C   UNL     1     -10.560  15.190  70.617  1.00  0.00    -0.075 C  
HETATM    3  C   UNL     1     -11.239  14.938  69.281  1.00  0.00    -0.300 C  
HETATM    4  C   UNL     1     -12.798  15.416  69.765  1.00  0.00     0.080 C  
HETATM    5  C   UNL     1     -10.425  13.434  68.129  1.00  0.00    -0.245 C  
HETATM    6  O   UNL     1      -9.393  12.502  68.665  1.00  0.00    -0.379 OA 
HETATM    7  C   UNL     1      -9.918  18.790  67.235  1.00  0.00    -0.372 C  
HETATM    8  C   UNL     1     -11.429  13.546  69.034  1.00  0.00    -0.349 C  
HETATM    9  C   UNL     1     -11.972  14.409  67.380  1.00  0.00    -0.407 C  
HETATM   10  C   UNL     1     -12.092  12.496  69.922  1.00  0.00    -0.322 C  
HETATM   11  C   UNL     1      -8.810  17.650  67.270  1.00  0.00    -0.240 C  
HETATM   12  C   UNL     1      -8.138  17.777  65.912  1.00  0.00    -0.027 C  
HETATM   13  H   UNL     1      -9.018  11.809  68.134  1.00  0.00     0.000 HD 
HETATM   14  C   UNL     1     -10.729  15.601  66.785  1.00  0.00    -0.300 C  
HETATM   15  O   UNL     1      -5.437  20.015  66.785  1.00  0.00    -0.171 OA 
HETATM   16  O   UNL     1     -10.076  14.982  65.668  1.00  0.00    -0.312 OA 
HETATM   17  C   UNL     1      -9.562  16.368  67.840  1.00  0.00    -0.228 C  
HETATM   18  C   UNL     1      -8.776  15.249  68.723  1.00  0.00    -0.195 C  
HETATM   19  F   UNL     1     -10.227  17.105  68.850  1.00  0.00    -0.260 F  
HETATM   20  H   UNL     1      -9.428  15.603  65.357  1.00  0.00     0.000 HD 
HETATM   21  C   UNL     1      -7.648  15.873  69.566  1.00  0.00    -0.143 C  
HETATM   22  C   UNL     1      -6.839  16.874  68.752  1.00  0.00    -0.195 C  
HETATM   23  C   UNL     1      -7.716  18.025  68.301  1.00  0.00    -0.285 C  
HETATM   24  C   UNL     1      -7.168  19.256  68.236  1.00  0.00    -0.317 C  
HETATM   25  C   UNL     1      -6.451  19.341  66.909  1.00  0.00    -0.193 C  
HETATM   26  C   UNL     1      -7.074  18.603  65.752  1.00  0.00    -0.261 C  
ENDROOT
BRANCH   5  27
HETATM   27  C   UNL     1     -11.080  12.091  67.276  1.00  0.00    -0.285 C  
HETATM   28  C   UNL     1     -10.332  11.585  66.047  1.00  0.00    -0.246 C  
HETATM   29  O   UNL     1     -12.154  11.520  67.497  1.00  0.00    -0.614 OA 
HETATM   30 CL   UNL     1      -8.585  11.828  66.119  1.00  0.00    -0.071 Cl 
ENDBRANCH   5  27
TORSDOF 1
ENDMDL
MODEL       27
REMARK 921   NORMALIZED FREE ENERGY PREDICTED BY IDOCK:   -5.72 KCAL/MOL
REMARK 922        TOTAL FREE ENERGY PREDICTED BY IDOCK:   -4.78 KCAL/MOL
REMARK 923 INTER-LIGAND FREE ENERGY PREDICTED BY IDOCK:   -6.05 KCAL/MOL
REMARK 924 INTRA-LIGAND FREE ENERGY PREDICTED BY IDOCK:    1.28 KCAL/MOL
REMARK 927      BINDING AFFINITY PREDICTED BY RF-SCORE:    0.00 PKD
ROOT
HETATM    1  C   UNL     1      -9.562  12.714  64.869  1.00  0.00     0.161 C  
HETATM    2  C   UNL     1     -10.423  12.072  63.950  1.00  0.00    -0.440 C  
HETATM    3  C   UNL     1     -11.124  12.342  65.271  1.00  0.00    -0.342 C  
HETATM    4  C   UNL     1     -12.712  12.256  64.667  1.00  0.00    -0.275 C  
HETATM    5  C   UNL     1     -10.094  13.524  66.611  1.00  0.00    -0.277 C  
HETATM    6  O   UNL     1      -8.855  14.257  66.224  1.00  0.00    -0.474 OA 
HETATM    7  C   UNL     1     -10.781   8.125  66.966  1.00  0.00    -0.247 C  
HETATM    8  C   UNL     1     -11.035  13.713  65.652  1.00  0.00    -0.294 C  
HETATM    9  C   UNL     1     -11.859  12.840  67.179  1.00  0.00    -0.415 C  
HETATM   10  C   UNL     1     -11.401  14.958  64.848  1.00  0.00    -0.415 C  
HETATM   11  C   UNL     1      -9.460   8.999  67.103  1.00  0.00    -0.196 C  
HETATM   12  C   UNL     1      -8.924   8.607  68.470  1.00  0.00    -0.139 C  
HETATM   13  H   UNL     1      -8.381  14.802  66.841  1.00  0.00     0.000 HD 
HETATM   14  C   UNL     1     -10.936  11.359  67.706  1.00  0.00    -0.247 C  
HETATM   15  O   UNL     1      -6.699   5.929  67.498  1.00  0.00    -0.054 OA 
HETATM   16  O   UNL     1     -10.246  11.719  68.911  1.00  0.00    -0.330 OA 
HETATM   17  C   UNL     1      -9.886  10.459  66.634  1.00  0.00    -0.202 C  
HETATM   18  C   UNL     1      -8.825  11.458  65.910  1.00  0.00    -0.149 C  
HETATM   19  F   UNL     1     -10.621   9.978  65.522  1.00  0.00    -0.280 F  
HETATM   20  H   UNL     1      -9.765  10.947  69.186  1.00  0.00     0.000 HD 
HETATM   21  C   UNL     1      -7.798  10.686  65.061  1.00  0.00     0.017 C  
HETATM   22  C   UNL     1      -7.274   9.465  65.804  1.00  0.00    -0.095 C  
HETATM   23  C   UNL     1      -8.401   8.493  66.091  1.00  0.00    -0.121 C  
HETATM   24  C   UNL     1      -8.129   7.172  66.054  1.00  0.00    -0.115 C  
HETATM   25  C   UNL     1      -7.537   6.814  67.397  1.00  0.00    -0.105 C  
HETATM   26  C   UNL     1      -8.070   7.560  68.594  1.00  0.00    -0.124 C  
ENDROOT
BRANCH   5  27
HETATM   27  C   UNL     1     -10.510  14.893  67.566  1.00  0.00    -0.254 C  
HETATM   28  C   UNL     1      -9.786  15.090  68.894  1.00  0.00    -0.233 C  
HETATM   29  O   UNL     1     -11.404  15.716  67.340  1.00  0.00    -0.281 OA 
HETATM   30 CL   UNL     1      -8.138  14.457  68.914  1.00  0.00    -0.128 Cl 
ENDBRANCH   5  27
TORSDOF 1
ENDMDL
MODEL       28
REMARK 921   NORMALIZED FREE ENERGY PREDICTED BY IDOCK:   -5.71 KCAL/MOL
REMARK 922        TOTAL FREE ENERGY PREDICTED BY IDOCK:   -4.76 KCAL/MOL
REMARK 923 INTER-LIGAND FREE ENERGY PREDICTED BY IDOCK:   -6.03 KCAL/MOL
REMARK 924 INTRA-LIGAND FREE ENERGY PREDICTED BY IDOCK:    1.27 KCAL/MOL
REMARK 927      BINDING AFFINITY PREDICTED BY RF-SCORE:    0.00 PKD
ROOT
HETATM    1  C   UNL     1     -11.051   7.083  71.151  1.00  0.00    -0.288 C  
HETATM    2  C   UNL     1     -11.785   6.524  70.081  1.00  0.00    -0.419 C  
HETATM    3  C   UNL     1     -10.288   6.390  69.856  1.00  0.00    -0.242 C  
HETATM    4  C   UNL     1     -10.375   5.112  68.737  1.00  0.00    -0.162 C  
HETATM    5  C   UNL     1      -9.090   6.900  71.456  1.00  0.00    -0.144 C  
HETATM    6  O   UNL     1      -9.654   7.155  72.812  1.00  0.00    -0.144 OA 
HETATM    7  C   UNL     1      -9.838   9.863  66.938  1.00  0.00    -0.252 C  
HETATM    8  C   UNL     1      -9.638   5.762  70.960  1.00  0.00    -0.203 C  
HETATM    9  C   UNL     1      -8.185   6.322  69.798  1.00  0.00    -0.125 C  
HETATM   10  C   UNL     1      -9.968   4.436  71.640  1.00  0.00    -0.256 C  
HETATM   11  C   UNL     1      -9.912  10.292  68.467  1.00  0.00    -0.177 C  
HETATM   12  C   UNL     1      -8.912  11.434  68.556  1.00  0.00    -0.158 C  
HETATM   13  H   UNL     1      -9.102   7.390  73.549  1.00  0.00     0.000 HD 
HETATM   14  C   UNL     1      -8.338   8.068  69.296  1.00  0.00    -0.134 C  
HETATM   15  O   UNL     1     -11.132  14.226  67.969  1.00  0.00    -0.255 OA 
HETATM   16  O   UNL     1      -7.356   8.793  70.050  1.00  0.00    -0.049 OA 
HETATM   17  C   UNL     1      -9.864   8.925  69.279  1.00  0.00    -0.176 C  
HETATM   18  C   UNL     1     -10.620   8.764  70.712  1.00  0.00    -0.269 C  
HETATM   19  F   UNL     1     -10.776   8.279  68.408  1.00  0.00    -0.232 F  
HETATM   20  H   UNL     1      -7.435   9.703  69.789  1.00  0.00     0.000 HD 
HETATM   21  C   UNL     1     -11.903   9.613  70.781  1.00  0.00    -0.378 C  
HETATM   22  C   UNL     1     -11.672  11.010  70.220  1.00  0.00    -0.445 C  
HETATM   23  C   UNL     1     -11.291  10.938  68.755  1.00  0.00    -0.357 C  
HETATM   24  C   UNL     1     -11.724  11.918  67.935  1.00  0.00    -0.368 C  
HETATM   25  C   UNL     1     -10.756  13.067  68.085  1.00  0.00    -0.242 C  
HETATM   26  C   UNL     1      -9.311  12.711  68.328  1.00  0.00    -0.195 C  
ENDROOT
BRANCH   5  27
HETATM   27  C   UNL     1      -7.756   6.149  72.240  1.00  0.00    -0.100 C  
HETATM   28  C   UNL     1      -6.705   7.044  72.887  1.00  0.00    -0.069 C  
HETATM   29  O   UNL     1      -7.496   4.941  72.276  1.00  0.00    -0.084 OA 
HETATM   30 CL   UNL     1      -7.339   8.580  73.484  1.00  0.00    -0.108 Cl 
ENDBRANCH   5  27
TORSDOF 1
ENDMDL
MODEL       29
REMARK 921   NORMALIZED FREE ENERGY PREDICTED BY IDOCK:   -5.64 KCAL/MOL
REMARK 922        TOTAL FREE ENERGY PREDICTED BY IDOCK:   -4.69 KCAL/MOL
REMARK 923 INTER-LIGAND FREE ENERGY PREDICTED BY IDOCK:   -6.01 KCAL/MOL
REMARK 924 INTRA-LIGAND FREE ENERGY PREDICTED BY IDOCK:    1.32 KCAL/MOL
REMARK 927      BINDING AFFINITY PREDICTED BY RF-SCORE:    0.00 PKD
ROOT
HETATM    1  C   UNL     1      -8.092  10.644  68.625  1.00  0.00    -0.132 C  
HETATM    2  C   UNL     1      -7.504   9.667  67.790  1.00  0.00    -0.087 C  
HETATM    3  C   UNL     1      -8.885  10.063  67.293  1.00  0.00    -0.141 C  
HETATM    4  C   UNL     1      -8.668   9.541  65.688  1.00  0.00    -0.173 C  
HETATM    5  C   UNL     1      -9.750  11.679  68.237  1.00  0.00    -0.197 C  
HETATM    6  O   UNL     1      -8.984  12.545  69.178  1.00  0.00    -0.188 OA 
HETATM    7  C   UNL     1     -11.134   6.448  68.918  1.00  0.00    -0.420 C  
HETATM    8  C   UNL     1      -9.005  11.474  67.123  1.00  0.00    -0.166 C  
HETATM    9  C   UNL     1     -10.799  10.796  66.815  1.00  0.00    -0.256 C  
HETATM   10  C   UNL     1      -8.108  12.426  66.335  1.00  0.00     0.344 C  
HETATM   11  C   UNL     1     -10.830   7.574  69.998  1.00  0.00    -0.260 C  
HETATM   12  C   UNL     1     -12.090   7.591  70.848  1.00  0.00    -0.254 C  
HETATM   13  H   UNL     1      -9.383  13.290  69.613  1.00  0.00     0.000 HD 
HETATM   14  C   UNL     1     -11.346   9.670  68.140  1.00  0.00     0.220 C  
HETATM   15  O   UNL     1     -11.106   5.262  73.431  1.00  0.00    -0.301 OA 
HETATM   16  O   UNL     1     -12.293  10.403  68.930  1.00  0.00    -0.717 OA 
HETATM   17  C   UNL     1     -10.232   8.790  69.163  1.00  0.00    -0.207 C  
HETATM   18  C   UNL     1      -9.137   9.805  69.812  1.00  0.00    -0.246 C  
HETATM   19  F   UNL     1      -9.405   7.951  68.377  1.00  0.00    -0.140 F  
HETATM   20  H   UNL     1     -12.578   9.816  69.620  1.00  0.00     0.000 HD 
HETATM   21  C   UNL     1      -8.222   9.090  70.823  1.00  0.00    -0.213 C  
HETATM   22  C   UNL     1      -9.022   8.180  71.745  1.00  0.00    -0.216 C  
HETATM   23  C   UNL     1      -9.706   7.086  70.949  1.00  0.00    -0.176 C  
HETATM   24  C   UNL     1      -9.829   5.868  71.514  1.00  0.00    -0.201 C  
HETATM   25  C   UNL     1     -11.048   5.923  72.403  1.00  0.00    -0.280 C  
HETATM   26  C   UNL     1     -12.194   6.783  71.933  1.00  0.00    -0.377 C  
ENDROOT
BRANCH   5  27
HETATM   27  C   UNL     1     -10.535  13.109  67.688  1.00  0.00    -0.221 C  
HETATM   28  C   UNL     1     -11.788  13.569  68.424  1.00  0.00    -0.373 C  
HETATM   29  O   UNL     1     -10.245  13.782  66.693  1.00  0.00    -0.266 OA 
HETATM   30 CL   UNL     1     -11.813  13.142  70.137  1.00  0.00    -0.365 Cl 
ENDBRANCH   5  27
TORSDOF 1
ENDMDL
MODEL       30
REMARK 921   NORMALIZED FREE ENERGY PREDICTED BY IDOCK:   -5.64 KCAL/MOL
REMARK 922        TOTAL FREE ENERGY PREDICTED BY IDOCK:   -4.69 KCAL/MOL
REMARK 923 INTER-LIGAND FREE ENERGY PREDICTED BY IDOCK:   -5.93 KCAL/MOL
REMARK 924 INTRA-LIGAND FREE ENERGY PREDICTED BY IDOCK:    1.25 KCAL/MOL
REMARK 927      BINDING AFFINITY PREDICTED BY RF-SCORE:    0.00 PKD
ROOT
HETATM    1  C   UNL     1      -8.347   7.777  71.234  1.00  0.00    -0.108 C  
HETATM    2  C   UNL     1      -8.867   8.504  72.327  1.00  0.00    -0.279 C  
HETATM    3  C   UNL     1      -9.930   7.622  71.693  1.00  0.00    -0.207 C  
HETATM    4  C   UNL     1     -10.967   7.572  73.040  1.00  0.00    -0.443 C  
HETATM    5  C   UNL     1      -9.258   6.289  70.270  1.00  0.00    -0.157 C  
HETATM    6  O   UNL     1      -7.805   6.041  70.047  1.00  0.00    -0.100 OA 
HETATM    7  C   UNL     1     -12.027  10.887  69.302  1.00  0.00    -0.382 C  
HETATM    8  C   UNL     1      -9.508   6.263  71.603  1.00  0.00    -0.157 C  
HETATM    9  C   UNL     1     -11.198   6.310  70.644  1.00  0.00    -0.401 C  
HETATM   10  C   UNL     1      -8.965   5.351  72.701  1.00  0.00    -0.133 C  
HETATM   11  C   UNL     1     -10.691  10.338  68.636  1.00  0.00    -0.255 C  
HETATM   12  C   UNL     1     -11.029  10.309  67.154  1.00  0.00    -0.233 C  
HETATM   13  H   UNL     1      -7.495   5.426  69.391  1.00  0.00     0.000 HD 
HETATM   14  C   UNL     1     -11.257   7.658  69.419  1.00  0.00     0.138 C  
HETATM   15  O   UNL     1      -9.813  13.575  66.196  1.00  0.00    -0.286 OA 
HETATM   16  O   UNL     1     -11.110   7.043  68.132  1.00  0.00    -0.472 OA 
HETATM   17  C   UNL     1     -10.266   9.097  69.537  1.00  0.00    -0.203 C  
HETATM   18  C   UNL     1      -8.702   8.692  69.737  1.00  0.00    -0.132 C  
HETATM   19  F   UNL     1     -10.537   9.778  70.749  1.00  0.00    -0.321 F  
HETATM   20  H   UNL     1     -11.141   7.746  67.493  1.00  0.00     0.000 HD 
HETATM   21  C   UNL     1      -7.783   9.928  69.711  1.00  0.00    -0.159 C  
HETATM   22  C   UNL     1      -8.163  10.874  68.580  1.00  0.00    -0.146 C  
HETATM   23  C   UNL     1      -9.571  11.400  68.776  1.00  0.00    -0.139 C  
HETATM   24  C   UNL     1      -9.837  12.667  68.399  1.00  0.00    -0.200 C  
HETATM   25  C   UNL     1     -10.106  12.628  66.913  1.00  0.00    -0.230 C  
HETATM   26  C   UNL     1     -10.795  11.398  66.379  1.00  0.00    -0.323 C  
ENDROOT
BRANCH   5  27
HETATM   27  C   UNL     1      -9.506   4.609  69.991  1.00  0.00    -0.172 C  
HETATM   28  C   UNL     1      -9.504   4.112  68.549  1.00  0.00    -0.153 C  
HETATM   29  O   UNL     1      -9.771   3.745  70.833  1.00  0.00    -0.180 OA 
HETATM   30 CL   UNL     1      -8.475   5.053  67.466  1.00  0.00    -0.105 Cl 
ENDBRANCH   5  27
TORSDOF 1
ENDMDL
MODEL       31
REMARK 921   NORMALIZED FREE ENERGY PREDICTED BY IDOCK:   -5.58 KCAL/MOL
REMARK 922        TOTAL FREE ENERGY PREDICTED BY IDOCK:   -4.62 KCAL/MOL
REMARK 923 INTER-LIGAND FREE ENERGY PREDICTED BY IDOCK:   -5.87 KCAL/MOL
REMARK 924 INTRA-LIGAND FREE ENERGY PREDICTED BY IDOCK:    1.24 KCAL/MOL
REMARK 927      BINDING AFFINITY PREDICTED BY RF-SCORE:    0.00 PKD
ROOT
HETATM    1  C   UNL     1     -11.150   7.250  72.029  1.00  0.00    -0.277 C  
HETATM    2  C   UNL     1     -11.945   6.582  71.071  1.00  0.00    -0.358 C  
HETATM    3  C   UNL     1     -10.463   6.377  70.802  1.00  0.00    -0.270 C  
HETATM    4  C   UNL     1     -10.631   4.971  69.860  1.00  0.00    -0.073 C  
HETATM    5  C   UNL     1      -9.182   7.051  72.271  1.00  0.00    -0.133 C  
HETATM    6  O   UNL     1      -9.677   7.493  73.606  1.00  0.00    -0.270 OA 
HETATM    7  C   UNL     1     -10.069   9.437  67.447  1.00  0.00    -0.271 C  
HETATM    8  C   UNL     1      -9.778   5.876  71.948  1.00  0.00    -0.173 C  
HETATM    9  C   UNL     1      -8.368   6.242  70.662  1.00  0.00    -0.133 C  
HETATM   10  C   UNL     1     -10.107   4.657  72.806  1.00  0.00    -0.220 C  
HETATM   11  C   UNL     1     -10.062  10.059  68.910  1.00  0.00    -0.200 C  
HETATM   12  C   UNL     1      -9.033  11.174  68.808  1.00  0.00    -0.136 C  
HETATM   13  H   UNL     1      -9.086   7.803  74.282  1.00  0.00     0.000 HD 
HETATM   14  C   UNL     1      -8.503   7.914  69.949  1.00  0.00    -0.127 C  
HETATM   15  O   UNL     1     -11.213  13.931  67.965  1.00  0.00    -0.252 OA 
HETATM   16  O   UNL     1      -7.471   8.700  70.560  1.00  0.00    -0.059 OA 
HETATM   17  C   UNL     1     -10.008   8.805  69.887  1.00  0.00    -0.187 C  
HETATM   18  C   UNL     1     -10.701   8.849  71.360  1.00  0.00    -0.382 C  
HETATM   19  F   UNL     1     -10.974   8.081  69.145  1.00  0.00    -0.197 F  
HETATM   20  H   UNL     1      -7.541   9.572  70.188  1.00  0.00     0.000 HD 
HETATM   21  C   UNL     1     -11.959   9.737  71.375  1.00  0.00    -0.493 C  
HETATM   22  C   UNL     1     -11.722  11.044  70.631  1.00  0.00    -0.371 C  
HETATM   23  C   UNL     1     -11.411  10.776  69.171  1.00  0.00    -0.368 C  
HETATM   24  C   UNL     1     -11.859  11.656  68.252  1.00  0.00    -0.335 C  
HETATM   25  C   UNL     1     -10.858  12.787  68.212  1.00  0.00    -0.248 C  
HETATM   26  C   UNL     1      -9.412  12.422  68.437  1.00  0.00    -0.169 C  
ENDROOT
BRANCH   5  27
HETATM   27  C   UNL     1      -7.830   6.368  73.087  1.00  0.00    -0.101 C  
HETATM   28  C   UNL     1      -6.701   7.300  73.513  1.00  0.00    -0.065 C  
HETATM   29  O   UNL     1      -7.619   5.169  73.305  1.00  0.00    -0.090 OA 
HETATM   30 CL   UNL     1      -7.228   8.943  73.886  1.00  0.00     0.088 Cl 
ENDBRANCH   5  27
TORSDOF 1
ENDMDL
MODEL       32
REMARK 921   NORMALIZED FREE ENERGY PREDICTED BY IDOCK:   -5.58 KCAL/MOL
REMARK 922        TOTAL FREE ENERGY PREDICTED BY IDOCK:   -4.62 KCAL/MOL
REMARK 923 INTER-LIGAND FREE ENERGY PREDICTED BY IDOCK:   -5.89 KCAL/MOL
REMARK 924 INTRA-LIGAND FREE ENERGY PREDICTED BY IDOCK:    1.26 KCAL/MOL
REMARK 927      BINDING AFFINITY PREDICTED BY RF-SCORE:    0.00 PKD
ROOT
HETATM    1  C   UNL     1      -8.051   9.522  68.921  1.00  0.00    -0.096 C  
HETATM    2  C   UNL     1      -8.973   9.712  69.974  1.00  0.00    -0.266 C  
HETATM    3  C   UNL     1      -9.576   8.883  68.852  1.00  0.00    -0.160 C  
HETATM    4  C   UNL     1     -10.803   8.162  69.784  1.00  0.00    -0.190 C  
HETATM    5  C   UNL     1      -8.268   8.281  67.376  1.00  0.00    -0.121 C  
HETATM    6  O   UNL     1      -6.792   8.443  67.518  1.00  0.00    -0.068 OA 
HETATM    7  C   UNL     1     -12.013  12.221  66.929  1.00  0.00    -0.214 C  
HETATM    8  C   UNL     1      -8.764   7.758  68.525  1.00  0.00    -0.128 C  
HETATM    9  C   UNL     1     -10.161   7.754  67.175  1.00  0.00    -0.365 C  
HETATM   10  C   UNL     1      -8.211   6.674  69.447  1.00  0.00    -0.124 C  
HETATM   11  C   UNL     1     -10.469  12.229  66.548  1.00  0.00    -0.254 C  
HETATM   12  C   UNL     1     -10.475  12.623  65.080  1.00  0.00    -0.331 C  
HETATM   13  H   UNL     1      -6.189   8.166  66.838  1.00  0.00     0.000 HD 
HETATM   14  C   UNL     1     -10.366   9.387  66.392  1.00  0.00    -0.167 C  
HETATM   15  O   UNL     1     -10.109  16.204  65.418  1.00  0.00    -0.485 OA 
HETATM   16  O   UNL     1      -9.787   9.283  65.083  1.00  0.00    -0.441 OA 
HETATM   17  C   UNL     1      -9.889  10.882  67.166  1.00  0.00    -0.184 C  
HETATM   18  C   UNL     1      -8.350  10.784  67.687  1.00  0.00    -0.119 C  
HETATM   19  F   UNL     1     -10.588  11.044  68.387  1.00  0.00    -0.173 F  
HETATM   20  H   UNL     1      -9.893  10.135  64.675  1.00  0.00     0.000 HD 
HETATM   21  C   UNL     1      -7.850  12.126  68.254  1.00  0.00    -0.153 C  
HETATM   22  C   UNL     1      -8.255  13.289  67.359  1.00  0.00    -0.185 C  
HETATM   23  C   UNL     1      -9.764  13.400  67.280  1.00  0.00    -0.232 C  
HETATM   24  C   UNL     1     -10.310  14.630  67.195  1.00  0.00    -0.265 C  
HETATM   25  C   UNL     1     -10.249  15.032  65.740  1.00  0.00    -0.338 C  
HETATM   26  C   UNL     1     -10.421  13.932  64.724  1.00  0.00    -0.451 C  
ENDROOT
BRANCH   5  27
HETATM   27  C   UNL     1      -7.947   6.780  66.599  1.00  0.00    -0.108 C  
HETATM   28  C   UNL     1      -7.638   6.794  65.106  1.00  0.00    -0.098 C  
HETATM   29  O   UNL     1      -8.017   5.652  67.100  1.00  0.00    -0.101 OA 
HETATM   30 CL   UNL     1      -6.846   8.271  64.551  1.00  0.00    -0.068 Cl 
ENDBRANCH   5  27
TORSDOF 1
ENDMDL
MODEL       33
REMARK 921   NORMALIZED FREE ENERGY PREDICTED BY IDOCK:   -5.54 KCAL/MOL
REMARK 922        TOTAL FREE ENERGY PREDICTED BY IDOCK:   -4.59 KCAL/MOL
REMARK 923 INTER-LIGAND FREE ENERGY PREDICTED BY IDOCK:   -5.92 KCAL/MOL
REMARK 924 INTRA-LIGAND FREE ENERGY PREDICTED BY IDOCK:    1.33 KCAL/MOL
REMARK 927      BINDING AFFINITY PREDICTED BY RF-SCORE:    0.00 PKD
ROOT
HETATM    1  C   UNL     1     -10.053   6.879  68.849  1.00  0.00    -0.174 C  
HETATM    2  C   UNL     1      -8.653   6.735  68.723  1.00  0.00    -0.123 C  
HETATM    3  C   UNL     1      -9.027   7.374  70.050  1.00  0.00    -0.144 C  
HETATM    4  C   UNL     1      -7.581   6.993  70.861  1.00  0.00    -0.086 C  
HETATM    5  C   UNL     1     -11.038   7.391  70.504  1.00  0.00    -0.261 C  
HETATM    6  O   UNL     1     -12.033   6.623  69.702  1.00  0.00    -0.653 OA 
HETATM    7  C   UNL     1      -8.078  11.680  68.895  1.00  0.00    -0.005 C  
HETATM    8  C   UNL     1      -9.976   6.591  70.770  1.00  0.00    -0.205 C  
HETATM    9  C   UNL     1      -9.811   8.224  71.809  1.00  0.00    -0.284 C  
HETATM   10  C   UNL     1      -9.912   5.112  71.146  1.00  0.00    -0.272 C  
HETATM   11  C   UNL     1      -9.482  11.151  68.369  1.00  0.00    -0.189 C  
HETATM   12  C   UNL     1     -10.391  12.359  68.528  1.00  0.00    -0.232 C  
HETATM   13  H   UNL     1     -12.960   6.631  69.911  1.00  0.00     0.000 HD 
HETATM   14  C   UNL     1      -9.984   9.717  70.778  1.00  0.00    -0.189 C  
HETATM   15  O   UNL     1     -10.040  13.816  65.239  1.00  0.00    -0.325 OA 
HETATM   16  O   UNL     1     -11.283  10.255  71.059  1.00  0.00    -0.315 OA 
HETATM   17  C   UNL     1      -9.667   9.728  69.056  1.00  0.00    -0.177 C  
HETATM   18  C   UNL     1     -10.491   8.532  68.321  1.00  0.00    -0.222 C  
HETATM   19  F   UNL     1      -8.328   9.341  68.805  1.00  0.00    -0.110 F  
HETATM   20  H   UNL     1     -11.374  11.034  70.522  1.00  0.00     0.000 HD 
HETATM   21  C   UNL     1     -10.343   8.593  66.789  1.00  0.00    -0.336 C  
HETATM   22  C   UNL     1     -10.492  10.018  66.275  1.00  0.00    -0.172 C  
HETATM   23  C   UNL     1      -9.401  10.904  66.840  1.00  0.00    -0.186 C  
HETATM   24  C   UNL     1      -8.908  11.886  66.058  1.00  0.00    -0.007 C  
HETATM   25  C   UNL     1      -9.857  13.055  66.179  1.00  0.00    -0.273 C  
HETATM   26  C   UNL     1     -10.516  13.258  67.520  1.00  0.00    -0.237 C  
ENDROOT
BRANCH   5  27
HETATM   27  C   UNL     1     -11.955   6.969  71.897  1.00  0.00    -0.320 C  
HETATM   28  C   UNL     1     -13.103   7.886  72.308  1.00  0.00    -0.073 C  
HETATM   29  O   UNL     1     -11.742   6.032  72.674  1.00  0.00    -0.262 OA 
HETATM   30 CL   UNL     1     -13.870   8.725  70.957  1.00  0.00    -0.091 Cl 
ENDBRANCH   5  27
TORSDOF 1
ENDMDL
MODEL       34
REMARK 921   NORMALIZED FREE ENERGY PREDICTED BY IDOCK:   -5.54 KCAL/MOL
REMARK 922        TOTAL FREE ENERGY PREDICTED BY IDOCK:   -4.59 KCAL/MOL
REMARK 923 INTER-LIGAND FREE ENERGY PREDICTED BY IDOCK:   -5.84 KCAL/MOL
REMARK 924 INTRA-LIGAND FREE ENERGY PREDICTED BY IDOCK:    1.25 KCAL/MOL
REMARK 927      BINDING AFFINITY PREDICTED BY RF-SCORE:    0.00 PKD
ROOT
HETATM    1  C   UNL     1     -11.616  12.136  68.034  1.00  0.00    -0.411 C  
HETATM    2  C   UNL     1     -11.408  12.730  69.299  1.00  0.00    -0.307 C  
HETATM    3  C   UNL     1     -10.368  13.193  68.292  1.00  0.00    -0.256 C  
HETATM    4  C   UNL     1      -9.924  14.615  69.113  1.00  0.00    -0.149 C  
HETATM    5  C   UNL     1     -10.705  12.638  66.334  1.00  0.00    -0.255 C  
HETATM    6  O   UNL     1     -11.994  12.030  65.899  1.00  0.00    -0.540 OA 
HETATM    7  C   UNL     1      -6.981  10.480  69.684  1.00  0.00    -0.135 C  
HETATM    8  C   UNL     1     -10.969  13.719  67.110  1.00  0.00    -0.299 C  
HETATM    9  C   UNL     1      -9.068  13.679  66.710  1.00  0.00    -0.230 C  
HETATM   10  C   UNL     1     -12.033  14.805  66.976  1.00  0.00    -0.225 C  
HETATM   11  C   UNL     1      -8.056   9.767  68.755  1.00  0.00    -0.102 C  
HETATM   12  C   UNL     1      -7.211   8.846  67.890  1.00  0.00    -0.083 C  
HETATM   13  H   UNL     1     -12.149  11.774  64.997  1.00  0.00     0.000 HD 
HETATM   14  C   UNL     1      -8.318  12.062  67.088  1.00  0.00    -0.181 C  
HETATM   15  O   UNL     1      -7.371   5.834  69.882  1.00  0.00    -0.067 OA 
HETATM   16  O   UNL     1      -8.094  11.415  65.828  1.00  0.00    -0.369 OA 
HETATM   17  C   UNL     1      -9.001  10.942  68.248  1.00  0.00    -0.150 C  
HETATM   18  C   UNL     1     -10.576  10.683  67.926  1.00  0.00    -0.266 C  
HETATM   19  F   UNL     1      -9.073  11.548  69.526  1.00  0.00     0.179 F  
HETATM   20  H   UNL     1      -7.703  10.571  66.025  1.00  0.00     0.000 HD 
HETATM   21  C   UNL     1     -11.178   9.602  68.842  1.00  0.00    -0.020 C  
HETATM   22  C   UNL     1     -10.244   8.407  68.974  1.00  0.00    -0.217 C  
HETATM   23  C   UNL     1      -8.935   8.822  69.615  1.00  0.00    -0.145 C  
HETATM   24  C   UNL     1      -8.322   7.947  70.437  1.00  0.00    -0.121 C  
HETATM   25  C   UNL     1      -7.539   7.001  69.556  1.00  0.00    -0.098 C  
HETATM   26  C   UNL     1      -6.941   7.581  68.300  1.00  0.00    -0.068 C  
ENDROOT
BRANCH   5  27
HETATM   27  C   UNL     1     -10.684  13.476  64.832  1.00  0.00    -0.381 C  
HETATM   28  C   UNL     1     -10.267  12.704  63.584  1.00  0.00    -0.162 C  
HETATM   29  O   UNL     1     -10.896  14.679  64.646  1.00  0.00    -0.385 OA 
HETATM   30 CL   UNL     1     -10.657  10.983  63.639  1.00  0.00    -0.400 Cl 
ENDBRANCH   5  27
TORSDOF 1
ENDMDL
MODEL       35
REMARK 921   NORMALIZED FREE ENERGY PREDICTED BY IDOCK:   -5.50 KCAL/MOL
REMARK 922        TOTAL FREE ENERGY PREDICTED BY IDOCK:   -4.54 KCAL/MOL
REMARK 923 INTER-LIGAND FREE ENERGY PREDICTED BY IDOCK:   -5.88 KCAL/MOL
REMARK 924 INTRA-LIGAND FREE ENERGY PREDICTED BY IDOCK:    1.33 KCAL/MOL
REMARK 927      BINDING AFFINITY PREDICTED BY RF-SCORE:    0.00 PKD
ROOT
HETATM    1  C   UNL     1     -10.592   8.375  71.135  1.00  0.00    -0.266 C  
HETATM    2  C   UNL     1     -11.626   7.669  70.480  1.00  0.00    -0.195 C  
HETATM    3  C   UNL     1     -10.259   7.272  69.946  1.00  0.00    -0.210 C  
HETATM    4  C   UNL     1     -10.735   5.774  69.294  1.00  0.00    -0.386 C  
HETATM    5  C   UNL     1      -8.640   8.002  70.993  1.00  0.00    -0.133 C  
HETATM    6  O   UNL     1      -8.794   8.675  72.314  1.00  0.00    -0.295 OA 
HETATM    7  C   UNL     1     -10.387   9.777  66.140  1.00  0.00    -0.215 C  
HETATM    8  C   UNL     1      -9.378   6.864  70.990  1.00  0.00    -0.156 C  
HETATM    9  C   UNL     1      -8.262   6.896  69.400  1.00  0.00    -0.131 C  
HETATM   10  C   UNL     1      -9.600   5.818  72.080  1.00  0.00    -0.170 C  
HETATM   11  C   UNL     1     -10.012  10.592  67.453  1.00  0.00    -0.214 C  
HETATM   12  C   UNL     1      -8.950  11.565  66.966  1.00  0.00    -0.174 C  
HETATM   13  H   UNL     1      -8.047   9.011  72.796  1.00  0.00     0.000 HD 
HETATM   14  C   UNL     1      -8.427   8.457  68.474  1.00  0.00    -0.132 C  
HETATM   15  O   UNL     1     -11.051  14.395  66.165  1.00  0.00    -0.318 OA 
HETATM   16  O   UNL     1      -7.229   9.206  68.727  1.00  0.00    -0.072 OA 
HETATM   17  C   UNL     1      -9.838   9.486  68.584  1.00  0.00    -0.162 C  
HETATM   18  C   UNL     1     -10.184   9.808  70.142  1.00  0.00    -0.328 C  
HETATM   19  F   UNL     1     -10.994   8.774  68.182  1.00  0.00    -0.202 F  
HETATM   20  H   UNL     1      -7.315  10.020  68.244  1.00  0.00     0.000 HD 
HETATM   21  C   UNL     1     -11.338  10.819  70.276  1.00  0.00    -0.374 C  
HETATM   22  C   UNL     1     -11.174  11.977  69.301  1.00  0.00    -0.291 C  
HETATM   23  C   UNL     1     -11.213  11.478  67.871  1.00  0.00    -0.344 C  
HETATM   24  C   UNL     1     -11.786  12.264  66.936  1.00  0.00    -0.404 C  
HETATM   25  C   UNL     1     -10.737  13.265  66.512  1.00  0.00    -0.285 C  
HETATM   26  C   UNL     1      -9.309  12.783  66.487  1.00  0.00    -0.221 C  
ENDROOT
BRANCH   5  27
HETATM   27  C   UNL     1      -7.196   7.298  71.610  1.00  0.00    -0.075 C  
HETATM   28  C   UNL     1      -5.893   8.073  71.450  1.00  0.00    -0.034 C  
HETATM   29  O   UNL     1      -7.069   6.174  72.109  1.00  0.00    -0.080 OA 
HETATM   30 CL   UNL     1      -6.096   9.827  71.445  1.00  0.00    -0.011 Cl 
ENDBRANCH   5  27
TORSDOF 1
ENDMDL
MODEL       36
REMARK 921   NORMALIZED FREE ENERGY PREDICTED BY IDOCK:   -5.50 KCAL/MOL
REMARK 922        TOTAL FREE ENERGY PREDICTED BY IDOCK:   -4.54 KCAL/MOL
REMARK 923 INTER-LIGAND FREE ENERGY PREDICTED BY IDOCK:   -5.82 KCAL/MOL
REMARK 924 INTRA-LIGAND FREE ENERGY PREDICTED BY IDOCK:    1.28 KCAL/MOL
REMARK 927      BINDING AFFINITY PREDICTED BY RF-SCORE:    0.00 PKD
ROOT
HETATM    1  C   UNL     1     -10.860   6.268  69.694  1.00  0.00    -0.403 C  
HETATM    2  C   UNL     1      -9.790   5.366  69.888  1.00  0.00    -0.268 C  
HETATM    3  C   UNL     1      -9.663   6.579  70.795  1.00  0.00    -0.194 C  
HETATM    4  C   UNL     1      -8.632   5.856  71.938  1.00  0.00    -0.137 C  
HETATM    5  C   UNL     1     -11.290   7.845  70.835  1.00  0.00    -0.277 C  
HETATM    6  O   UNL     1     -12.590   7.477  70.205  1.00  0.00    -0.296 OA 
HETATM    7  C   UNL     1      -6.541   8.807  68.331  1.00  0.00    -0.060 C  
HETATM    8  C   UNL     1     -10.843   6.793  71.566  1.00  0.00    -0.265 C  
HETATM    9  C   UNL     1      -9.732   8.341  71.943  1.00  0.00    -0.299 C  
HETATM   10  C   UNL     1     -11.594   5.813  72.464  1.00  0.00    -0.321 C  
HETATM   11  C   UNL     1      -8.030   8.946  67.790  1.00  0.00    -0.102 C  
HETATM   12  C   UNL     1      -8.097  10.393  67.326  1.00  0.00    -0.114 C  
HETATM   13  H   UNL     1     -13.340   8.060  70.224  1.00  0.00     0.000 HD 
HETATM   14  C   UNL     1      -9.102   9.124  70.423  1.00  0.00    -0.233 C  
HETATM   15  O   UNL     1      -7.189   9.953  63.855  1.00  0.00    -0.119 OA 
HETATM   16  O   UNL     1      -9.859  10.330  70.245  1.00  0.00    -0.400 OA 
HETATM   17  C   UNL     1      -8.936   8.265  68.907  1.00  0.00    -0.144 C  
HETATM   18  C   UNL     1     -10.330   7.516  68.525  1.00  0.00    -0.224 C  
HETATM   19  F   UNL     1      -8.060   7.163  69.064  1.00  0.00    -0.113 F  
HETATM   20  H   UNL     1      -9.531  10.738  69.452  1.00  0.00     0.000 HD 
HETATM   21  C   UNL     1     -10.265   6.861  67.133  1.00  0.00    -0.308 C  
HETATM   22  C   UNL     1      -9.623   7.791  66.113  1.00  0.00    -0.104 C  
HETATM   23  C   UNL     1      -8.191   8.099  66.502  1.00  0.00    -0.107 C  
HETATM   24  C   UNL     1      -7.282   8.249  65.517  1.00  0.00    -0.071 C  
HETATM   25  C   UNL     1      -7.407   9.672  65.025  1.00  0.00    -0.117 C  
HETATM   26  C   UNL     1      -7.758  10.718  66.053  1.00  0.00    -0.139 C  
ENDROOT
BRANCH   5  27
HETATM   27  C   UNL     1     -12.201   8.584  72.094  1.00  0.00    -0.382 C  
HETATM   28  C   UNL     1     -12.666  10.023  71.895  1.00  0.00    -0.398 C  
HETATM   29  O   UNL     1     -12.464   8.106  73.203  1.00  0.00    -0.018 OA 
HETATM   30 CL   UNL     1     -12.962  10.456  70.209  1.00  0.00    -0.208 Cl 
ENDBRANCH   5  27
TORSDOF 1
ENDMDL
MODEL       37
REMARK 921   NORMALIZED FREE ENERGY PREDICTED BY IDOCK:   -5.48 KCAL/MOL
REMARK 922        TOTAL FREE ENERGY PREDICTED BY IDOCK:   -4.52 KCAL/MOL
REMARK 923 INTER-LIGAND FREE ENERGY PREDICTED BY IDOCK:   -5.83 KCAL/MOL
REMARK 924 INTRA-LIGAND FREE ENERGY PREDICTED BY IDOCK:    1.30 KCAL/MOL
REMARK 927      BINDING AFFINITY PREDICTED BY RF-SCORE:    0.00 PKD
ROOT
HETATM    1  C   UNL     1     -10.595  10.326  66.838  1.00  0.00    -0.282 C  
HETATM    2  C   UNL     1      -9.904  10.236  65.609  1.00  0.00    -0.332 C  
HETATM    3  C   UNL     1      -9.111   9.599  66.739  1.00  0.00    -0.171 C  
HETATM    4  C   UNL     1      -8.129   8.619  65.755  1.00  0.00    -0.114 C  
HETATM    5  C   UNL     1     -10.108   9.397  68.533  1.00  0.00    -0.187 C  
HETATM    6  O   UNL     1     -11.573   9.641  68.652  1.00  0.00    -0.414 OA 
HETATM    7  C   UNL     1      -6.215  13.052  67.419  1.00  0.00    -0.082 C  
HETATM    8  C   UNL     1      -9.878   8.624  67.443  1.00  0.00    -0.249 C  
HETATM    9  C   UNL     1      -8.233   8.777  68.465  1.00  0.00    -0.117 C  
HETATM   10  C   UNL     1     -10.647   7.426  66.891  1.00  0.00    -0.375 C  
HETATM   11  C   UNL     1      -7.646  13.252  68.083  1.00  0.00    -0.141 C  
HETATM   12  C   UNL     1      -7.323  13.923  69.408  1.00  0.00     0.127 C  
HETATM   13  H   UNL     1     -12.032   9.548  69.479  1.00  0.00     0.000 HD 
HETATM   14  C   UNL     1      -7.814  10.511  68.840  1.00  0.00    -0.124 C  
HETATM   15  O   UNL     1      -7.626  17.386  68.417  1.00  0.00    -0.233 OA 
HETATM   16  O   UNL     1      -8.114  10.709  70.229  1.00  0.00    -0.323 OA 
HETATM   17  C   UNL     1      -8.388  11.858  67.882  1.00  0.00    -0.152 C  
HETATM   18  C   UNL     1     -10.004  11.778  67.703  1.00  0.00    -0.204 C  
HETATM   19  F   UNL     1      -7.951  11.725  66.541  1.00  0.00    -0.161 F  
HETATM   20  H   UNL     1      -7.895  11.613  70.424  1.00  0.00     0.000 HD 
HETATM   21  C   UNL     1     -10.562  13.018  66.979  1.00  0.00    -0.262 C  
HETATM   22  C   UNL     1      -9.942  14.299  67.519  1.00  0.00    -0.235 C  
HETATM   23  C   UNL     1      -8.445  14.307  67.277  1.00  0.00    -0.226 C  
HETATM   24  C   UNL     1      -7.851  15.486  66.998  1.00  0.00    -0.260 C  
HETATM   25  C   UNL     1      -7.597  16.167  68.322  1.00  0.00    -0.146 C  
HETATM   26  C   UNL     1      -7.257  15.276  69.490  1.00  0.00    -0.205 C  
ENDROOT
BRANCH   5  27
HETATM   27  C   UNL     1     -10.313   8.105  69.650  1.00  0.00    -0.221 C  
HETATM   28  C   UNL     1     -10.532   8.452  71.119  1.00  0.00    -0.212 C  
HETATM   29  O   UNL     1     -10.223   6.895  69.415  1.00  0.00    -0.172 OA 
HETATM   30 CL   UNL     1     -11.355   9.993  71.378  1.00  0.00    -0.354 Cl 
ENDBRANCH   5  27
TORSDOF 1
ENDMDL
MODEL       38
REMARK 921   NORMALIZED FREE ENERGY PREDICTED BY IDOCK:   -5.48 KCAL/MOL
REMARK 922        TOTAL FREE ENERGY PREDICTED BY IDOCK:   -4.52 KCAL/MOL
REMARK 923 INTER-LIGAND FREE ENERGY PREDICTED BY IDOCK:   -5.83 KCAL/MOL
REMARK 924 INTRA-LIGAND FREE ENERGY PREDICTED BY IDOCK:    1.31 KCAL/MOL
REMARK 927      BINDING AFFINITY PREDICTED BY RF-SCORE:    0.00 PKD
ROOT
HETATM    1  C   UNL     1      -9.211   7.738  67.317  1.00  0.00    -0.162 C  
HETATM    2  C   UNL     1     -10.576   7.917  66.999  1.00  0.00    -0.381 C  
HETATM    3  C   UNL     1      -9.967   9.190  67.563  1.00  0.00    -0.258 C  
HETATM    4  C   UNL     1     -11.125  10.258  66.922  1.00  0.00    -0.038 C  
HETATM    5  C   UNL     1      -7.919   9.174  67.808  1.00  0.00    -0.101 C  
HETATM    6  O   UNL     1      -7.068   8.083  67.254  1.00  0.00    -0.079 OA 
HETATM    7  C   UNL     1     -11.629   8.792  71.789  1.00  0.00    -0.416 C  
HETATM    8  C   UNL     1      -8.793   9.579  66.853  1.00  0.00    -0.140 C  
HETATM    9  C   UNL     1      -8.881  10.812  68.352  1.00  0.00    -0.146 C  
HETATM   10  C   UNL     1      -8.603   9.784  65.352  1.00  0.00    -0.163 C  
HETATM   11  C   UNL     1     -10.343   7.903  71.500  1.00  0.00    -0.243 C  
HETATM   12  C   UNL     1      -9.560   7.992  72.800  1.00  0.00    -0.345 C  
HETATM   13  H   UNL     1      -6.125   8.075  67.367  1.00  0.00     0.000 HD 
HETATM   14  C   UNL     1      -9.125   9.950  69.939  1.00  0.00    -0.210 C  
HETATM   15  O   UNL     1     -10.847   5.062  74.480  1.00  0.00    -0.331 OA 
HETATM   16  O   UNL     1      -7.862   9.990  70.619  1.00  0.00    -0.412 OA 
HETATM   17  C   UNL     1      -9.845   8.359  70.059  1.00  0.00    -0.182 C  
HETATM   18  C   UNL     1      -9.096   7.321  69.054  1.00  0.00    -0.133 C  
HETATM   19  F   UNL     1     -11.155   8.375  69.520  1.00  0.00    -0.211 F  
HETATM   20  H   UNL     1      -7.989   9.541  71.447  1.00  0.00     0.000 HD 
HETATM   21  C   UNL     1      -9.613   5.881  69.229  1.00  0.00    -0.172 C  
HETATM   22  C   UNL     1      -9.747   5.517  70.701  1.00  0.00    -0.233 C  
HETATM   23  C   UNL     1     -10.762   6.415  71.380  1.00  0.00    -0.290 C  
HETATM   24  C   UNL     1     -11.532   5.885  72.352  1.00  0.00    -0.358 C  
HETATM   25  C   UNL     1     -10.714   5.923  73.622  1.00  0.00    -0.235 C  
HETATM   26  C   UNL     1      -9.779   7.094  73.793  1.00  0.00    -0.331 C  
ENDROOT
BRANCH   5  27
HETATM   27  C   UNL     1      -6.654  10.263  67.392  1.00  0.00    -0.068 C  
HETATM   28  C   UNL     1      -5.536  10.487  68.404  1.00  0.00    -0.037 C  
HETATM   29  O   UNL     1      -6.580  10.966  66.378  1.00  0.00    -0.117 OA 
HETATM   30 CL   UNL     1      -5.205   9.089  69.430  1.00  0.00    -0.035 Cl 
ENDBRANCH   5  27
TORSDOF 1
ENDMDL
MODEL       39
REMARK 921   NORMALIZED FREE ENERGY PREDICTED BY IDOCK:   -5.41 KCAL/MOL
REMARK 922        TOTAL FREE ENERGY PREDICTED BY IDOCK:   -4.45 KCAL/MOL
REMARK 923 INTER-LIGAND FREE ENERGY PREDICTED BY IDOCK:   -5.70 KCAL/MOL
REMARK 924 INTRA-LIGAND FREE ENERGY PREDICTED BY IDOCK:    1.25 KCAL/MOL
REMARK 927      BINDING AFFINITY PREDICTED BY RF-SCORE:    0.00 PKD
ROOT
HETATM    1  C   UNL     1      -7.523   9.688  67.687  1.00  0.00    -0.091 C  
HETATM    2  C   UNL     1      -7.107   8.404  67.268  1.00  0.00    -0.079 C  
HETATM    3  C   UNL     1      -8.482   8.749  66.718  1.00  0.00    -0.113 C  
HETATM    4  C   UNL     1      -8.458   7.637  65.431  1.00  0.00    -0.110 C  
HETATM    5  C   UNL     1      -9.102  10.694  67.006  1.00  0.00    -0.144 C  
HETATM    6  O   UNL     1      -8.177  11.750  67.505  1.00  0.00    -0.137 OA 
HETATM    7  C   UNL     1     -10.914   6.318  69.710  1.00  0.00    -0.444 C  
HETATM    8  C   UNL     1      -8.481   9.994  66.024  1.00  0.00    -0.137 C  
HETATM    9  C   UNL     1     -10.352   9.474  66.082  1.00  0.00    -0.188 C  
HETATM   10  C   UNL     1      -7.570  10.460  64.891  1.00  0.00    -0.074 C  
HETATM   11  C   UNL     1     -10.410   7.723  70.258  1.00  0.00    -0.215 C  
HETATM   12  C   UNL     1     -11.583   8.213  71.091  1.00  0.00    -0.306 C  
HETATM   13  H   UNL     1      -8.463  12.647  67.637  1.00  0.00     0.000 HD 
HETATM   14  C   UNL     1     -10.885   9.007  67.761  1.00  0.00    -0.057 C  
HETATM   15  O   UNL     1     -10.602   6.931  74.326  1.00  0.00    -0.232 OA 
HETATM   16  O   UNL     1     -11.684  10.094  68.249  1.00  0.00    -0.673 OA 
HETATM   17  C   UNL     1      -9.774   8.451  68.994  1.00  0.00    -0.171 C  
HETATM   18  C   UNL     1      -8.534   9.493  69.151  1.00  0.00    -0.131 C  
HETATM   19  F   UNL     1      -9.104   7.283  68.555  1.00  0.00    -0.136 F  
HETATM   20  H   UNL     1     -11.962   9.851  69.125  1.00  0.00     0.000 HD 
HETATM   21  C   UNL     1      -7.606   9.108  70.318  1.00  0.00    -0.108 C  
HETATM   22  C   UNL     1      -8.405   8.717  71.554  1.00  0.00    -0.212 C  
HETATM   23  C   UNL     1      -9.259   7.497  71.272  1.00  0.00    -0.155 C  
HETATM   24  C   UNL     1      -9.447   6.607  72.268  1.00  0.00    -0.149 C  
HETATM   25  C   UNL     1     -10.572   7.142  73.121  1.00  0.00    -0.336 C  
HETATM   26  C   UNL     1     -11.667   7.894  72.407  1.00  0.00    -0.423 C  
ENDROOT
BRANCH   5  27
HETATM   27  C   UNL     1      -9.792  11.894  65.984  1.00  0.00    -0.235 C  
HETATM   28  C   UNL     1     -10.862  12.809  66.569  1.00  0.00    -0.256 C  
HETATM   29  O   UNL     1      -9.577  12.059  64.778  1.00  0.00    -0.138 OA 
HETATM   30 CL   UNL     1     -10.682  13.109  68.300  1.00  0.00    -0.251 Cl 
ENDBRANCH   5  27
TORSDOF 1
ENDMDL
MODEL       40
REMARK 921   NORMALIZED FREE ENERGY PREDICTED BY IDOCK:   -5.38 KCAL/MOL
REMARK 922        TOTAL FREE ENERGY PREDICTED BY IDOCK:   -4.42 KCAL/MOL
REMARK 923 INTER-LIGAND FREE ENERGY PREDICTED BY IDOCK:   -5.65 KCAL/MOL
REMARK 924 INTRA-LIGAND FREE ENERGY PREDICTED BY IDOCK:    1.24 KCAL/MOL
REMARK 927      BINDING AFFINITY PREDICTED BY RF-SCORE:    0.00 PKD
ROOT
HETATM    1  C   UNL     1     -10.259   8.582  72.172  1.00  0.00    -0.403 C  
HETATM    2  C   UNL     1     -11.591   8.132  72.030  1.00  0.00    -0.389 C  
HETATM    3  C   UNL     1     -10.597   7.007  71.793  1.00  0.00    -0.234 C  
HETATM    4  C   UNL     1     -11.680   5.728  72.087  1.00  0.00    -0.226 C  
HETATM    5  C   UNL     1      -8.630   7.436  72.242  1.00  0.00    -0.116 C  
HETATM    6  O   UNL     1      -8.241   8.678  72.969  1.00  0.00    -0.402 OA 
HETATM    7  C   UNL     1     -10.766   7.049  67.238  1.00  0.00    -0.412 C  
HETATM    8  C   UNL     1      -9.683   6.866  72.879  1.00  0.00    -0.183 C  
HETATM    9  C   UNL     1      -9.022   5.636  71.528  1.00  0.00    -0.148 C  
HETATM   10  C   UNL     1      -9.980   6.707  74.368  1.00  0.00    -0.359 C  
HETATM   11  C   UNL     1      -9.848   8.181  67.874  1.00  0.00    -0.206 C  
HETATM   12  C   UNL     1      -8.668   8.248  66.918  1.00  0.00    -0.141 C  
HETATM   13  H   UNL     1      -7.335   8.876  73.176  1.00  0.00     0.000 HD 
HETATM   14  C   UNL     1      -8.869   6.426  69.893  1.00  0.00    -0.142 C  
HETATM   15  O   UNL     1      -9.836  10.853  64.701  1.00  0.00    -0.244 OA 
HETATM   16  O   UNL     1      -7.468   6.640  69.675  1.00  0.00    -0.091 OA 
HETATM   17  C   UNL     1      -9.793   7.838  69.427  1.00  0.00    -0.176 C  
HETATM   18  C   UNL     1      -9.641   9.009  70.547  1.00  0.00    -0.264 C  
HETATM   19  F   UNL     1     -11.180   7.560  69.499  1.00  0.00    -0.210 F  
HETATM   20  H   UNL     1      -7.388   7.052  68.823  1.00  0.00     0.000 HD 
HETATM   21  C   UNL     1     -10.330  10.315  70.108  1.00  0.00    -0.210 C  
HETATM   22  C   UNL     1     -10.022  10.640  68.653  1.00  0.00    -0.188 C  
HETATM   23  C   UNL     1     -10.556   9.554  67.741  1.00  0.00    -0.318 C  
HETATM   24  C   UNL     1     -11.036   9.914  66.533  1.00  0.00     0.148 C  
HETATM   25  C   UNL     1      -9.843  10.039  65.614  1.00  0.00    -0.295 C  
HETATM   26  C   UNL     1      -8.703   9.081  65.847  1.00  0.00    -0.193 C  
ENDROOT
BRANCH   5  27
HETATM   27  C   UNL     1      -7.401   6.626  73.132  1.00  0.00    -0.084 C  
HETATM   28  C   UNL     1      -5.960   6.758  72.651  1.00  0.00    -0.042 C  
HETATM   29  O   UNL     1      -7.555   5.864  74.093  1.00  0.00    -0.091 OA 
HETATM   30 CL   UNL     1      -5.611   8.286  71.838  1.00  0.00    -0.036 Cl 
ENDBRANCH   5  27
TORSDOF 1
ENDMDL
MODEL       41
REMARK 921   NORMALIZED FREE ENERGY PREDICTED BY IDOCK:   -5.36 KCAL/MOL
REMARK 922        TOTAL FREE ENERGY PREDICTED BY IDOCK:   -4.39 KCAL/MOL
REMARK 923 INTER-LIGAND FREE ENERGY PREDICTED BY IDOCK:   -5.63 KCAL/MOL
REMARK 924 INTRA-LIGAND FREE ENERGY PREDICTED BY IDOCK:    1.24 KCAL/MOL
REMARK 927      BINDING AFFINITY PREDICTED BY RF-SCORE:    0.00 PKD
ROOT
HETATM    1  C   UNL     1     -11.546  14.253  66.500  1.00  0.00    -0.390 C  
HETATM    2  C   UNL     1     -12.395  13.284  67.079  1.00  0.00    -0.190 C  
HETATM    3  C   UNL     1     -11.206  13.586  67.976  1.00  0.00    -0.300 C  
HETATM    4  C   UNL     1     -11.908  13.024  69.420  1.00  0.00    -0.380 C  
HETATM    5  C   UNL     1     -10.031  15.181  67.404  1.00  0.00    -0.226 C  
HETATM    6  O   UNL     1     -10.448  16.118  66.323  1.00  0.00    -0.310 OA 
HETATM    7  C   UNL     1      -8.740   9.905  66.906  1.00  0.00    -0.135 C  
HETATM    8  C   UNL     1     -11.080  14.981  68.241  1.00  0.00    -0.292 C  
HETATM    9  C   UNL     1      -9.487  14.193  69.026  1.00  0.00     0.062 C  
HETATM   10  C   UNL     1     -12.126  15.955  68.777  1.00  0.00    -0.016 C  
HETATM   11  C   UNL     1      -8.663  11.082  65.840  1.00  0.00    -0.182 C  
HETATM   12  C   UNL     1      -7.209  11.055  65.397  1.00  0.00     0.293 C  
HETATM   13  H   UNL     1      -9.907  16.853  66.059  1.00  0.00     0.000 HD 
HETATM   14  C   UNL     1      -8.624  13.082  67.867  1.00  0.00    -0.189 C  
HETATM   15  O   UNL     1      -7.492   8.872  62.530  1.00  0.00    -0.100 OA 
HETATM   16  O   UNL     1      -7.456  13.787  67.424  1.00  0.00    -0.224 OA 
HETATM   17  C   UNL     1      -9.426  12.301  66.521  1.00  0.00    -0.236 C  
HETATM   18  C   UNL     1     -10.236  13.396  65.631  1.00  0.00    -0.300 C  
HETATM   19  F   UNL     1     -10.484  11.484  66.991  1.00  0.00    -0.226 F  
HETATM   20  H   UNL     1      -7.006  13.208  66.819  1.00  0.00     0.000 HD 
HETATM   21  C   UNL     1     -10.844  12.768  64.363  1.00  0.00    -0.395 C  
HETATM   22  C   UNL     1      -9.850  11.845  63.673  1.00  0.00    -0.339 C  
HETATM   23  C   UNL     1      -9.478  10.689  64.580  1.00  0.00    -0.308 C  
HETATM   24  C   UNL     1      -9.249   9.485  64.018  1.00  0.00    -0.116 C  
HETATM   25  C   UNL     1      -7.820   9.501  63.527  1.00  0.00    -0.134 C  
HETATM   26  C   UNL     1      -6.827  10.279  64.352  1.00  0.00    -0.059 C  
ENDROOT
BRANCH   5  27
HETATM   27  C   UNL     1      -9.381  16.545  68.226  1.00  0.00    -0.217 C  
HETATM   28  C   UNL     1      -8.010  17.057  67.796  1.00  0.00    -0.185 C  
HETATM   29  O   UNL     1      -9.866  17.127  69.202  1.00  0.00    -0.258 OA 
HETATM   30 CL   UNL     1      -7.646  16.789  66.090  1.00  0.00    -0.274 Cl 
ENDBRANCH   5  27
TORSDOF 1
ENDMDL
MODEL       42
REMARK 921   NORMALIZED FREE ENERGY PREDICTED BY IDOCK:   -5.34 KCAL/MOL
REMARK 922        TOTAL FREE ENERGY PREDICTED BY IDOCK:   -4.37 KCAL/MOL
REMARK 923 INTER-LIGAND FREE ENERGY PREDICTED BY IDOCK:   -5.63 KCAL/MOL
REMARK 924 INTRA-LIGAND FREE ENERGY PREDICTED BY IDOCK:    1.26 KCAL/MOL
REMARK 927      BINDING AFFINITY PREDICTED BY RF-SCORE:    0.00 PKD
ROOT
HETATM    1  C   UNL     1     -11.546  12.023  67.746  1.00  0.00    -0.400 C  
HETATM    2  C   UNL     1     -10.779  12.335  68.891  1.00  0.00    -0.210 C  
HETATM    3  C   UNL     1     -10.175  12.944  67.636  1.00  0.00    -0.220 C  
HETATM    4  C   UNL     1      -9.263  14.144  68.425  1.00  0.00    -0.203 C  
HETATM    5  C   UNL     1     -11.329  12.819  65.932  1.00  0.00    -0.324 C  
HETATM    6  O   UNL     1     -12.752  12.376  65.975  1.00  0.00    -0.230 OA 
HETATM    7  C   UNL     1      -6.890   9.845  67.023  1.00  0.00    -0.083 C  
HETATM    8  C   UNL     1     -11.123  13.730  66.916  1.00  0.00    -0.311 C  
HETATM    9  C   UNL     1      -9.560  13.682  65.764  1.00  0.00    -0.086 C  
HETATM   10  C   UNL     1     -12.005  14.869  67.420  1.00  0.00    -0.144 C  
HETATM   11  C   UNL     1      -8.327   9.390  66.518  1.00  0.00    -0.119 C  
HETATM   12  C   UNL     1      -8.021   8.627  65.239  1.00  0.00    -0.114 C  
HETATM   13  H   UNL     1     -13.284  12.318  65.189  1.00  0.00     0.000 HD 
HETATM   14  C   UNL     1      -8.935  11.988  65.520  1.00  0.00     0.248 C  
HETATM   15  O   UNL     1      -7.759   5.281  66.583  1.00  0.00    -0.094 OA 
HETATM   16  O   UNL     1      -9.314  11.603  64.191  1.00  0.00    -0.425 OA 
HETATM   17  C   UNL     1      -9.238  10.688  66.653  1.00  0.00    -0.164 C  
HETATM   18  C   UNL     1     -10.829  10.576  66.974  1.00  0.00    -0.288 C  
HETATM   19  F   UNL     1      -8.718  11.021  67.928  1.00  0.00    -0.124 F  
HETATM   20  H   UNL     1      -8.988  10.719  64.064  1.00  0.00     0.000 HD 
HETATM   21  C   UNL     1     -11.151   9.360  67.862  1.00  0.00     0.011 C  
HETATM   22  C   UNL     1     -10.403   8.120  67.393  1.00  0.00    -0.351 C  
HETATM   23  C   UNL     1      -8.905   8.332  67.493  1.00  0.00    -0.138 C  
HETATM   24  C   UNL     1      -8.133   7.278  67.827  1.00  0.00    -0.115 C  
HETATM   25  C   UNL     1      -7.892   6.497  66.557  1.00  0.00    -0.104 C  
HETATM   26  C   UNL     1      -7.774   7.293  65.282  1.00  0.00    -0.114 C  
ENDROOT
BRANCH   5  27
HETATM   27  C   UNL     1     -11.801  13.946  64.719  1.00  0.00    -0.397 C  
HETATM   28  C   UNL     1     -12.019  13.427  63.302  1.00  0.00    -0.227 C  
HETATM   29  O   UNL     1     -11.910  15.171  64.842  1.00  0.00    -0.328 OA 
HETATM   30 CL   UNL     1     -12.576  11.753  63.228  1.00  0.00    -0.578 Cl 
ENDBRANCH   5  27
TORSDOF 1
ENDMDL
MODEL       43
REMARK 921   NORMALIZED FREE ENERGY PREDICTED BY IDOCK:   -5.34 KCAL/MOL
REMARK 922        TOTAL FREE ENERGY PREDICTED BY IDOCK:   -4.37 KCAL/MOL
REMARK 923 INTER-LIGAND FREE ENERGY PREDICTED BY IDOCK:   -5.63 KCAL/MOL
REMARK 924 INTRA-LIGAND FREE ENERGY PREDICTED BY IDOCK:    1.26 KCAL/MOL
REMARK 927      BINDING AFFINITY PREDICTED BY RF-SCORE:    0.00 PKD
ROOT
HETATM    1  C   UNL     1     -10.476  15.284  66.394  1.00  0.00    -0.307 C  
HETATM    2  C   UNL     1     -11.817  15.061  66.781  1.00  0.00    -0.093 C  
HETATM    3  C   UNL     1     -10.921  15.286  67.989  1.00  0.00    -0.299 C  
HETATM    4  C   UNL     1     -12.160  15.734  69.065  1.00  0.00    -0.190 C  
HETATM    5  C   UNL     1      -8.998  15.906  67.578  1.00  0.00    -0.194 C  
HETATM    6  O   UNL     1      -8.582  16.331  66.211  1.00  0.00    -0.299 OA 
HETATM    7  C   UNL     1     -10.482  10.912  69.193  1.00  0.00    -0.248 C  
HETATM    8  C   UNL     1     -10.179  16.499  67.882  1.00  0.00    -0.273 C  
HETATM    9  C   UNL     1      -9.475  15.640  69.476  1.00  0.00    -0.275 C  
HETATM   10  C   UNL     1     -10.685  17.912  67.605  1.00  0.00    -0.343 C  
HETATM   11  C   UNL     1      -9.544  11.362  67.991  1.00  0.00    -0.184 C  
HETATM   12  C   UNL     1      -8.247  10.617  68.265  1.00  0.00    -0.120 C  
HETATM   13  H   UNL     1      -7.696  16.617  66.021  1.00  0.00     0.000 HD 
HETATM   14  C   UNL     1      -9.027  13.898  69.179  1.00  0.00     0.373 C  
HETATM   15  O   UNL     1      -8.836   7.639  66.304  1.00  0.00    -0.144 OA 
HETATM   16  O   UNL     1      -7.594  13.853  69.123  1.00  0.00    -0.293 OA 
HETATM   17  C   UNL     1      -9.730  12.939  67.895  1.00  0.00    -0.218 C  
HETATM   18  C   UNL     1      -9.608  13.721  66.472  1.00  0.00    -0.295 C  
HETATM   19  F   UNL     1     -11.136  12.866  68.054  1.00  0.00    -0.235 F  
HETATM   20  H   UNL     1      -7.360  12.945  68.967  1.00  0.00     0.000 HD 
HETATM   21  C   UNL     1     -10.094  12.852  65.297  1.00  0.00    -0.254 C  
HETATM   22  C   UNL     1      -9.565  11.429  65.406  1.00  0.00    -0.255 C  
HETATM   23  C   UNL     1     -10.082  10.764  66.666  1.00  0.00    -0.265 C  
HETATM   24  C   UNL     1     -10.358   9.444  66.623  1.00  0.00    -0.284 C  
HETATM   25  C   UNL     1      -9.048   8.721  66.833  1.00  0.00    -0.139 C  
HETATM   26  C   UNL     1      -8.053   9.373  67.759  1.00  0.00    -0.107 C  
ENDROOT
BRANCH   5  27
HETATM   27  C   UNL     1      -7.987  17.158  68.187  1.00  0.00    -0.216 C  
HETATM   28  C   UNL     1      -6.502  16.860  68.367  1.00  0.00    -0.149 C  
HETATM   29  O   UNL     1      -8.340  18.274  68.583  1.00  0.00    -0.318 OA 
HETATM   30 CL   UNL     1      -5.863  15.677  67.222  1.00  0.00    -0.012 Cl 
ENDBRANCH   5  27
TORSDOF 1
ENDMDL
MODEL       44
REMARK 921   NORMALIZED FREE ENERGY PREDICTED BY IDOCK:   -5.33 KCAL/MOL
REMARK 922        TOTAL FREE ENERGY PREDICTED BY IDOCK:   -4.36 KCAL/MOL
REMARK 923 INTER-LIGAND FREE ENERGY PREDICTED BY IDOCK:   -6.29 KCAL/MOL
REMARK 924 INTRA-LIGAND FREE ENERGY PREDICTED BY IDOCK:    1.93 KCAL/MOL
REMARK 927      BINDING AFFINITY PREDICTED BY RF-SCORE:    0.00 PKD
ROOT
HETATM    1  C   UNL     1      -8.550  14.260  68.012  1.00  0.00    -0.169 C  
HETATM    2  C   UNL     1      -8.353  14.499  69.390  1.00  0.00     0.164 C  
HETATM    3  C   UNL     1      -9.743  14.925  68.947  1.00  0.00    -0.223 C  
HETATM    4  C   UNL     1     -10.458  14.883  70.490  1.00  0.00     0.151 C  
HETATM    5  C   UNL     1     -10.282  14.382  67.032  1.00  0.00    -0.263 C  
HETATM    6  O   UNL     1      -9.463  13.435  66.222  1.00  0.00    -0.363 OA 
HETATM    7  C   UNL     1      -8.904  19.397  68.674  1.00  0.00    -0.417 C  
HETATM    8  C   UNL     1     -10.436  13.873  68.280  1.00  0.00    -0.252 C  
HETATM    9  C   UNL     1     -11.597  15.417  68.081  1.00  0.00    -0.331 C  
HETATM   10  C   UNL     1     -10.687  12.441  68.747  1.00  0.00    -0.242 C  
HETATM   11  C   UNL     1      -8.397  18.554  67.425  1.00  0.00    -0.264 C  
HETATM   12  C   UNL     1      -8.693  19.468  66.247  1.00  0.00    -0.383 C  
HETATM   13  H   UNL     1      -9.711  13.185  65.340  1.00  0.00     0.000 HD 
HETATM   14  C   UNL     1     -10.700  16.879  67.464  1.00  0.00    -0.270 C  
HETATM   15  O   UNL     1      -5.522  21.185  66.003  1.00  0.00    -0.209 OA 
HETATM   16  O   UNL     1     -11.079  17.036  66.089  1.00  0.00     0.097 OA 
HETATM   17  C   UNL     1      -8.973  17.090  67.659  1.00  0.00    -0.221 C  
HETATM   18  C   UNL     1      -8.178  15.772  67.128  1.00  0.00    -0.237 C  
HETATM   19  F   UNL     1      -8.634  17.086  69.034  1.00  0.00    -0.258 F  
HETATM   20  H   UNL     1     -10.611  17.798  65.767  1.00  0.00     0.000 HD 
HETATM   21  C   UNL     1      -6.651  15.973  67.160  1.00  0.00    -0.177 C  
HETATM   22  C   UNL     1      -6.263  17.340  66.615  1.00  0.00    -0.248 C  
HETATM   23  C   UNL     1      -6.851  18.442  67.473  1.00  0.00    -0.205 C  
HETATM   24  C   UNL     1      -6.132  19.570  67.645  1.00  0.00    -0.215 C  
HETATM   25  C   UNL     1      -6.388  20.436  66.435  1.00  0.00    -0.208 C  
HETATM   26  C   UNL     1      -7.768  20.368  65.831  1.00  0.00    -0.084 C  
ENDROOT
BRANCH   5  27
HETATM   27  C   UNL     1     -11.674  13.640  66.344  1.00  0.00    -0.373 C  
HETATM   28  C   UNL     1     -12.389  14.367  65.211  1.00  0.00    -0.371 C  
HETATM   29  O   UNL     1     -12.226  12.600  66.719  1.00  0.00    -0.506 OA 
HETATM   30 CL   UNL     1     -11.328  15.365  64.214  1.00  0.00    -0.214 Cl 
ENDBRANCH   5  27
TORSDOF 1
ENDMDL
MODEL       45
REMARK 921   NORMALIZED FREE ENERGY PREDICTED BY IDOCK:   -5.20 KCAL/MOL
REMARK 922        TOTAL FREE ENERGY PREDICTED BY IDOCK:   -4.22 KCAL/MOL
REMARK 923 INTER-LIGAND FREE ENERGY PREDICTED BY IDOCK:   -5.46 KCAL/MOL
REMARK 924 INTRA-LIGAND FREE ENERGY PREDICTED BY IDOCK:    1.24 KCAL/MOL
REMARK 927      BINDING AFFINITY PREDICTED BY RF-SCORE:    0.00 PKD
ROOT
HETATM    1  C   UNL     1     -10.029  11.324  66.076  1.00  0.00    -0.273 C  
HETATM    2  C   UNL     1     -11.422  11.479  66.249  1.00  0.00    -0.124 C  
HETATM    3  C   UNL     1     -10.648  12.119  67.389  1.00  0.00    -0.253 C  
HETATM    4  C   UNL     1     -11.885  13.170  67.897  1.00  0.00    -0.390 C  
HETATM    5  C   UNL     1      -8.603  12.225  67.139  1.00  0.00    -0.187 C  
HETATM    6  O   UNL     1      -7.953  11.913  65.834  1.00  0.00    -0.251 OA 
HETATM    7  C   UNL     1     -11.256   8.781  70.433  1.00  0.00    -0.247 C  
HETATM    8  C   UNL     1      -9.666  13.039  66.916  1.00  0.00    -0.238 C  
HETATM    9  C   UNL     1      -9.344  12.930  68.829  1.00  0.00     0.130 C  
HETATM   10  C   UNL     1      -9.835  14.216  65.959  1.00  0.00    -0.329 C  
HETATM   11  C   UNL     1     -10.112   8.499  69.366  1.00  0.00    -0.205 C  
HETATM   12  C   UNL     1      -9.036   7.805  70.185  1.00  0.00    -0.146 C  
HETATM   13  H   UNL     1      -7.011  11.962  65.719  1.00  0.00     0.000 HD 
HETATM   14  C   UNL     1      -9.230  11.207  69.411  1.00  0.00     0.310 C  
HETATM   15  O   UNL     1      -9.989   4.362  69.637  1.00  0.00    -0.222 OA 
HETATM   16  O   UNL     1      -7.841  10.956  69.664  1.00  0.00    -0.360 OA 
HETATM   17  C   UNL     1      -9.959   9.863  68.560  1.00  0.00    -0.159 C  
HETATM   18  C   UNL     1      -9.514   9.876  66.994  1.00  0.00    -0.196 C  
HETATM   19  F   UNL     1     -11.359  10.054  68.454  1.00  0.00    -0.278 F  
HETATM   20  H   UNL     1      -7.781  10.058  69.968  1.00  0.00     0.000 HD 
HETATM   21  C   UNL     1     -10.027   8.633  66.242  1.00  0.00    -0.287 C  
HETATM   22  C   UNL     1      -9.816   7.367  67.060  1.00  0.00    -0.273 C  
HETATM   23  C   UNL     1     -10.603   7.432  68.354  1.00  0.00    -0.192 C  
HETATM   24  C   UNL     1     -11.135   6.290  68.835  1.00  0.00    -0.434 C  
HETATM   25  C   UNL     1     -10.035   5.583  69.591  1.00  0.00    -0.214 C  
HETATM   26  C   UNL     1      -9.043   6.455  70.319  1.00  0.00    -0.155 C  
ENDROOT
BRANCH   5  27
HETATM   27  C   UNL     1      -7.436  13.475  67.331  1.00  0.00    -0.122 C  
HETATM   28  C   UNL     1      -6.050  13.092  67.838  1.00  0.00    -0.131 C  
HETATM   29  O   UNL     1      -7.613  14.689  67.180  1.00  0.00    -0.181 OA 
HETATM   30 CL   UNL     1      -5.544  11.462  67.384  1.00  0.00    -0.051 Cl 
ENDBRANCH   5  27
TORSDOF 1
ENDMDL
MODEL       46
REMARK 921   NORMALIZED FREE ENERGY PREDICTED BY IDOCK:   -5.19 KCAL/MOL
REMARK 922        TOTAL FREE ENERGY PREDICTED BY IDOCK:   -4.21 KCAL/MOL
REMARK 923 INTER-LIGAND FREE ENERGY PREDICTED BY IDOCK:   -5.45 KCAL/MOL
REMARK 924 INTRA-LIGAND FREE ENERGY PREDICTED BY IDOCK:    1.24 KCAL/MOL
REMARK 927      BINDING AFFINITY PREDICTED BY RF-SCORE:    0.00 PKD
ROOT
HETATM    1  C   UNL     1      -9.751   8.678  66.679  1.00  0.00    -0.315 C  
HETATM    2  C   UNL     1     -10.907   9.489  66.719  1.00  0.00    -0.031 C  
HETATM    3  C   UNL     1      -9.736  10.158  67.421  1.00  0.00    -0.192 C  
HETATM    4  C   UNL     1     -10.334  11.747  67.320  1.00  0.00    -0.231 C  
HETATM    5  C   UNL     1      -7.908   9.228  67.202  1.00  0.00    -0.099 C  
HETATM    6  O   UNL     1      -7.702   8.115  66.233  1.00  0.00    -0.090 OA 
HETATM    7  C   UNL     1     -11.008   9.191  71.690  1.00  0.00    -0.445 C  
HETATM    8  C   UNL     1      -8.584  10.229  66.584  1.00  0.00    -0.130 C  
HETATM    9  C   UNL     1      -7.965  10.861  68.314  1.00  0.00    -0.121 C  
HETATM   10  C   UNL     1      -8.458  10.791  65.170  1.00  0.00    -0.102 C  
HETATM   11  C   UNL     1     -10.300   7.990  70.925  1.00  0.00    -0.221 C  
HETATM   12  C   UNL     1      -9.449   7.344  72.007  1.00  0.00    -0.162 C  
HETATM   13  H   UNL     1      -6.859   7.687  66.132  1.00  0.00     0.000 HD 
HETATM   14  C   UNL     1      -8.430   9.730  69.666  1.00  0.00    -0.185 C  
HETATM   15  O   UNL     1     -11.772   4.838  73.185  1.00  0.00    -0.298 OA 
HETATM   16  O   UNL     1      -7.232   9.037  70.044  1.00  0.00    -0.049 OA 
HETATM   17  C   UNL     1      -9.781   8.623  69.561  1.00  0.00    -0.179 C  
HETATM   18  C   UNL     1      -9.682   7.736  68.200  1.00  0.00    -0.171 C  
HETATM   19  F   UNL     1     -10.983   9.340  69.340  1.00  0.00    -0.235 F  
HETATM   20  H   UNL     1      -7.475   8.448  70.749  1.00  0.00     0.000 HD 
HETATM   21  C   UNL     1     -10.780   6.657  68.137  1.00  0.00    -0.320 C  
HETATM   22  C   UNL     1     -10.932   5.945  69.474  1.00  0.00    -0.438 C  
HETATM   23  C   UNL     1     -11.360   6.922  70.551  1.00  0.00    -0.374 C  
HETATM   24  C   UNL     1     -12.196   6.483  71.515  1.00  0.00    -0.328 C  
HETATM   25  C   UNL     1     -11.339   5.788  72.547  1.00  0.00    -0.307 C  
HETATM   26  C   UNL     1      -9.963   6.356  72.782  1.00  0.00    -0.185 C  
ENDROOT
BRANCH   5  27
HETATM   27  C   UNL     1      -6.330   9.773  66.789  1.00  0.00    -0.065 C  
HETATM   28  C   UNL     1      -5.138   9.105  67.467  1.00  0.00    -0.037 C  
HETATM   29  O   UNL     1      -6.038  10.720  66.051  1.00  0.00    -0.115 OA 
HETATM   30 CL   UNL     1      -5.412   7.415  67.898  1.00  0.00    -0.025 Cl 
ENDBRANCH   5  27
TORSDOF 1
ENDMDL
MODEL       47
REMARK 921   NORMALIZED FREE ENERGY PREDICTED BY IDOCK:   -5.17 KCAL/MOL
REMARK 922        TOTAL FREE ENERGY PREDICTED BY IDOCK:   -4.19 KCAL/MOL
REMARK 923 INTER-LIGAND FREE ENERGY PREDICTED BY IDOCK:   -5.43 KCAL/MOL
REMARK 924 INTRA-LIGAND FREE ENERGY PREDICTED BY IDOCK:    1.24 KCAL/MOL
REMARK 927      BINDING AFFINITY PREDICTED BY RF-SCORE:    0.00 PKD
ROOT
HETATM    1  C   UNL     1     -10.923  12.930  68.644  1.00  0.00    -0.295 C  
HETATM    2  C   UNL     1     -12.121  13.086  67.912  1.00  0.00    -0.234 C  
HETATM    3  C   UNL     1     -10.945  12.790  66.995  1.00  0.00    -0.295 C  
HETATM    4  C   UNL     1     -11.865  12.225  65.680  1.00  0.00    -0.423 C  
HETATM    5  C   UNL     1      -9.187  12.257  67.931  1.00  0.00    -0.190 C  
HETATM    6  O   UNL     1      -9.132  11.953  69.389  1.00  0.00    -0.051 OA 
HETATM    7  C   UNL     1     -10.239  17.066  65.582  1.00  0.00    -0.196 C  
HETATM    8  C   UNL     1     -10.248  11.610  67.387  1.00  0.00    -0.226 C  
HETATM    9  C   UNL     1      -9.165  12.360  65.958  1.00  0.00    -0.055 C  
HETATM   10  C   UNL     1     -10.799  10.210  67.643  1.00  0.00    -0.346 C  
HETATM   11  C   UNL     1      -9.636  16.738  67.016  1.00  0.00    -0.244 C  
HETATM   12  C   UNL     1      -8.317  17.494  67.020  1.00  0.00    -0.239 C  
HETATM   13  H   UNL     1      -8.322  11.707  69.821  1.00  0.00     0.000 HD 
HETATM   14  C   UNL     1      -8.818  14.131  66.214  1.00  0.00     0.190 C  
HETATM   15  O   UNL     1      -9.406  20.601  68.512  1.00  0.00     0.273 OA 
HETATM   16  O   UNL     1      -7.448  14.219  66.628  1.00  0.00    -0.160 OA 
HETATM   17  C   UNL     1      -9.832  15.169  67.193  1.00  0.00    -0.228 C  
HETATM   18  C   UNL     1     -10.072  14.506  68.660  1.00  0.00    -0.244 C  
HETATM   19  F   UNL     1     -11.150  15.191  66.676  1.00  0.00    -0.318 F  
HETATM   20  H   UNL     1      -7.267  15.143  66.762  1.00  0.00     0.000 HD 
HETATM   21  C   UNL     1     -10.848  15.451  69.596  1.00  0.00    -0.288 C  
HETATM   22  C   UNL     1     -10.317  16.875  69.507  1.00  0.00    -0.189 C  
HETATM   23  C   UNL     1     -10.499  17.424  68.106  1.00  0.00    -0.389 C  
HETATM   24  C   UNL     1     -10.784  18.735  67.967  1.00  0.00    -0.273 C  
HETATM   25  C   UNL     1      -9.469  19.474  68.038  1.00  0.00    -0.340 C  
HETATM   26  C   UNL     1      -8.266  18.778  67.452  1.00  0.00    -0.278 C  
ENDROOT
BRANCH   5  27
HETATM   27  C   UNL     1      -8.047  10.989  67.705  1.00  0.00    -0.116 C  
HETATM   28  C   UNL     1      -6.577  11.287  67.978  1.00  0.00    -0.058 C  
HETATM   29  O   UNL     1      -8.269   9.858  67.260  1.00  0.00    -0.119 OA 
HETATM   30 CL   UNL     1      -6.311  12.513  69.221  1.00  0.00    -0.103 Cl 
ENDBRANCH   5  27
TORSDOF 1
ENDMDL
MODEL       48
REMARK 921   NORMALIZED FREE ENERGY PREDICTED BY IDOCK:   -5.15 KCAL/MOL
REMARK 922        TOTAL FREE ENERGY PREDICTED BY IDOCK:   -4.17 KCAL/MOL
REMARK 923 INTER-LIGAND FREE ENERGY PREDICTED BY IDOCK:   -5.41 KCAL/MOL
REMARK 924 INTRA-LIGAND FREE ENERGY PREDICTED BY IDOCK:    1.24 KCAL/MOL
REMARK 927      BINDING AFFINITY PREDICTED BY RF-SCORE:    0.00 PKD
ROOT
HETATM    1  C   UNL     1     -10.543   6.706  69.985  1.00  0.00    -0.266 C  
HETATM    2  C   UNL     1     -11.517   6.414  69.004  1.00  0.00    -0.203 C  
HETATM    3  C   UNL     1     -10.114   6.380  68.419  1.00  0.00    -0.173 C  
HETATM    4  C   UNL     1     -10.493   5.421  67.066  1.00  0.00    -0.319 C  
HETATM    5  C   UNL     1      -8.571   6.505  69.781  1.00  0.00    -0.136 C  
HETATM    6  O   UNL     1      -8.805   6.398  71.249  1.00  0.00    -0.138 OA 
HETATM    7  C   UNL     1     -10.228  10.483  66.437  1.00  0.00    -0.296 C  
HETATM    8  C   UNL     1      -9.252   5.514  69.154  1.00  0.00    -0.142 C  
HETATM    9  C   UNL     1      -8.083   6.385  67.870  1.00  0.00    -0.115 C  
HETATM   10  C   UNL     1      -9.461   4.052  69.539  1.00  0.00    -0.257 C  
HETATM   11  C   UNL     1      -9.940  10.514  68.000  1.00  0.00    -0.177 C  
HETATM   12  C   UNL     1      -8.910  11.624  68.141  1.00  0.00    -0.164 C  
HETATM   13  H   UNL     1      -8.093   6.456  71.876  1.00  0.00     0.000 HD 
HETATM   14  C   UNL     1      -8.290   8.196  67.868  1.00  0.00    -0.129 C  
HETATM   15  O   UNL     1     -11.116  14.413  68.790  1.00  0.00    -0.236 OA 
HETATM   16  O   UNL     1      -7.140   8.736  68.536  1.00  0.00    -0.070 OA 
HETATM   17  C   UNL     1      -9.753   8.989  68.412  1.00  0.00    -0.156 C  
HETATM   18  C   UNL     1     -10.170   8.455  69.892  1.00  0.00    -0.201 C  
HETATM   19  F   UNL     1     -10.858   8.558  67.638  1.00  0.00    -0.296 F  
HETATM   20  H   UNL     1      -7.248   9.680  68.535  1.00  0.00     0.000 HD 
HETATM   21  C   UNL     1     -11.376   9.225  70.461  1.00  0.00    -0.306 C  
HETATM   22  C   UNL     1     -11.233  10.723  70.229  1.00  0.00    -0.326 C  
HETATM   23  C   UNL     1     -11.197  11.031  68.745  1.00  0.00    -0.327 C  
HETATM   24  C   UNL     1     -11.773  12.172  68.316  1.00  0.00    -0.401 C  
HETATM   25  C   UNL     1     -10.760  13.273  68.524  1.00  0.00    -0.262 C  
HETATM   26  C   UNL     1      -9.310  12.906  68.336  1.00  0.00    -0.147 C  
ENDROOT
BRANCH   5  27
HETATM   27  C   UNL     1      -7.118   5.618  70.029  1.00  0.00    -0.067 C  
HETATM   28  C   UNL     1      -5.886   6.376  70.512  1.00  0.00    -0.023 C  
HETATM   29  O   UNL     1      -6.923   4.423  69.780  1.00  0.00    -0.041 OA 
HETATM   30 CL   UNL     1      -6.254   7.780  71.517  1.00  0.00    -0.035 Cl 
ENDBRANCH   5  27
TORSDOF 1
ENDMDL
MODEL       49
REMARK 921   NORMALIZED FREE ENERGY PREDICTED BY IDOCK:   -5.10 KCAL/MOL
REMARK 922        TOTAL FREE ENERGY PREDICTED BY IDOCK:   -4.11 KCAL/MOL
REMARK 923 INTER-LIGAND FREE ENERGY PREDICTED BY IDOCK:   -5.38 KCAL/MOL
REMARK 924 INTRA-LIGAND FREE ENERGY PREDICTED BY IDOCK:    1.27 KCAL/MOL
REMARK 927      BINDING AFFINITY PREDICTED BY RF-SCORE:    0.00 PKD
ROOT
HETATM    1  C   UNL     1      -9.350  16.455  65.966  1.00  0.00    -0.335 C  
HETATM    2  C   UNL     1     -10.710  16.834  66.024  1.00  0.00    -0.139 C  
HETATM    3  C   UNL     1     -10.016  17.053  67.358  1.00  0.00    -0.278 C  
HETATM    4  C   UNL     1     -11.126  18.187  67.969  1.00  0.00     0.169 C  
HETATM    5  C   UNL     1      -7.967  16.816  67.355  1.00  0.00    -0.170 C  
HETATM    6  O   UNL     1      -7.193  16.672  66.089  1.00  0.00    -0.127 OA 
HETATM    7  C   UNL     1     -11.596  13.319  69.441  1.00  0.00    -0.364 C  
HETATM    8  C   UNL     1      -8.839  17.847  67.222  1.00  0.00    -0.243 C  
HETATM    9  C   UNL     1      -8.821  17.270  69.077  1.00  0.00    -0.081 C  
HETATM   10  C   UNL     1      -8.674  19.212  66.560  1.00  0.00    -0.348 C  
HETATM   11  C   UNL     1     -10.370  13.059  68.462  1.00  0.00    -0.247 C  
HETATM   12  C   UNL     1      -9.552  12.011  69.201  1.00  0.00     0.392 C  
HETATM   13  H   UNL     1      -6.249  16.563  66.087  1.00  0.00     0.000 HD 
HETATM   14  C   UNL     1      -9.075  15.473  69.242  1.00  0.00    -0.266 C  
HETATM   15  O   UNL     1     -10.964   9.015  67.754  1.00  0.00    -0.141 OA 
HETATM   16  O   UNL     1      -7.797  14.911  69.572  1.00  0.00    -0.303 OA 
HETATM   17  C   UNL     1      -9.882  14.508  68.024  1.00  0.00    -0.222 C  
HETATM   18  C   UNL     1      -9.217  14.772  66.562  1.00  0.00    -0.304 C  
HETATM   19  F   UNL     1     -11.201  14.982  67.822  1.00  0.00    -0.276 F  
HETATM   20  H   UNL     1      -7.929  13.974  69.658  1.00  0.00     0.000 HD 
HETATM   21  C   UNL     1      -9.811  13.842  65.487  1.00  0.00    -0.213 C  
HETATM   22  C   UNL     1      -9.931  12.413  65.998  1.00  0.00    -0.270 C  
HETATM   23  C   UNL     1     -10.876  12.348  67.181  1.00  0.00    -0.280 C  
HETATM   24  C   UNL     1     -11.652  11.254  67.318  1.00  0.00    -0.171 C  
HETATM   25  C   UNL     1     -10.803  10.203  67.995  1.00  0.00    -0.270 C  
HETATM   26  C   UNL     1      -9.799  10.691  69.009  1.00  0.00    -0.218 C  
ENDROOT
BRANCH   5  27
HETATM   27  C   UNL     1      -6.653  17.747  67.959  1.00  0.00    -0.192 C  
HETATM   28  C   UNL     1      -5.474  17.007  68.583  1.00  0.00    -0.133 C  
HETATM   29  O   UNL     1      -6.580  18.979  68.023  1.00  0.00    -0.220 OA 
HETATM   30 CL   UNL     1      -5.191  15.403  67.901  1.00  0.00    -0.131 Cl 
ENDBRANCH   5  27
TORSDOF 1
ENDMDL
MODEL       50
REMARK 921   NORMALIZED FREE ENERGY PREDICTED BY IDOCK:   -5.09 KCAL/MOL
REMARK 922        TOTAL FREE ENERGY PREDICTED BY IDOCK:   -4.10 KCAL/MOL
REMARK 923 INTER-LIGAND FREE ENERGY PREDICTED BY IDOCK:   -5.54 KCAL/MOL
REMARK 924 INTRA-LIGAND FREE ENERGY PREDICTED BY IDOCK:    1.43 KCAL/MOL
REMARK 927      BINDING AFFINITY PREDICTED BY RF-SCORE:    0.00 PKD
ROOT
HETATM    1  C   UNL     1      -9.012   9.700  66.953  1.00  0.00    -0.151 C  
HETATM    2  C   UNL     1      -8.161  10.556  67.688  1.00  0.00    -0.107 C  
HETATM    3  C   UNL     1      -7.778   9.097  67.877  1.00  0.00    -0.093 C  
HETATM    4  C   UNL     1      -6.179   9.382  68.384  1.00  0.00    -0.052 C  
HETATM    5  C   UNL     1      -8.742   7.749  66.650  1.00  0.00    -0.140 C  
HETATM    6  O   UNL     1      -9.579   8.191  65.499  1.00  0.00    -0.394 OA 
HETATM    7  C   UNL     1      -9.724   8.524  71.959  1.00  0.00    -0.377 C  
HETATM    8  C   UNL     1      -7.572   8.435  66.632  1.00  0.00    -0.089 C  
HETATM    9  C   UNL     1      -7.452   7.019  67.957  1.00  0.00    -0.099 C  
HETATM   10  C   UNL     1      -6.674   8.841  65.466  1.00  0.00    -0.071 C  
HETATM   11  C   UNL     1     -10.733   8.451  70.732  1.00  0.00    -0.244 C  
HETATM   12  C   UNL     1     -11.693   7.344  71.138  1.00  0.00    -0.322 C  
HETATM   13  H   UNL     1     -10.024   7.569  64.933  1.00  0.00     0.000 HD 
HETATM   14  C   UNL     1      -8.859   7.041  69.116  1.00  0.00    -0.135 C  
HETATM   15  O   UNL     1     -14.253   9.326  72.745  1.00  0.00    -0.502 OA 
HETATM   16  O   UNL     1      -9.706   5.944  68.745  1.00  0.00    -0.124 OA 
HETATM   17  C   UNL     1      -9.806   8.477  69.439  1.00  0.00    -0.185 C  
HETATM   18  C   UNL     1     -10.317   9.144  68.045  1.00  0.00    -0.272 C  
HETATM   19  F   UNL     1      -8.976   9.503  69.953  1.00  0.00    -0.149 F  
HETATM   20  H   UNL     1     -10.440   5.955  69.349  1.00  0.00     0.000 HD 
HETATM   21  C   UNL     1     -11.265  10.332  68.292  1.00  0.00    -0.295 C  
HETATM   22  C   UNL     1     -12.285  10.009  69.374  1.00  0.00     0.380 C  
HETATM   23  C   UNL     1     -11.593   9.740  70.695  1.00  0.00    -0.389 C  
HETATM   24  C   UNL     1     -12.208  10.134  71.829  1.00  0.00    -0.338 C  
HETATM   25  C   UNL     1     -13.202   9.053  72.180  1.00  0.00    -0.446 C  
HETATM   26  C   UNL     1     -12.809   7.635  71.851  1.00  0.00    -0.308 C  
ENDROOT
BRANCH   5  27
HETATM   27  C   UNL     1      -8.218   6.440  65.664  1.00  0.00    -0.140 C  
HETATM   28  C   UNL     1      -8.997   5.131  65.733  1.00  0.00    -0.152 C  
HETATM   29  O   UNL     1      -7.213   6.404  64.946  1.00  0.00    -0.061 OA 
HETATM   30 CL   UNL     1     -10.711   5.334  66.108  1.00  0.00    -0.282 Cl 
ENDBRANCH   5  27
TORSDOF 1
ENDMDL
MODEL       51
REMARK 921   NORMALIZED FREE ENERGY PREDICTED BY IDOCK:   -5.05 KCAL/MOL
REMARK 922        TOTAL FREE ENERGY PREDICTED BY IDOCK:   -4.06 KCAL/MOL
REMARK 923 INTER-LIGAND FREE ENERGY PREDICTED BY IDOCK:   -5.38 KCAL/MOL
REMARK 924 INTRA-LIGAND FREE ENERGY PREDICTED BY IDOCK:    1.33 KCAL/MOL
REMARK 927      BINDING AFFINITY PREDICTED BY RF-SCORE:    0.00 PKD
ROOT
HETATM    1  C   UNL     1      -9.973   9.244  66.244  1.00  0.00    -0.357 C  
HETATM    2  C   UNL     1      -8.848   9.341  65.395  1.00  0.00    -0.230 C  
HETATM    3  C   UNL     1      -8.433   9.141  66.843  1.00  0.00    -0.124 C  
HETATM    4  C   UNL     1      -6.872   8.549  66.516  1.00  0.00    -0.071 C  
HETATM    5  C   UNL     1      -9.956   8.698  68.161  1.00  0.00    -0.178 C  
HETATM    6  O   UNL     1     -11.331   8.365  67.692  1.00  0.00    -0.114 OA 
HETATM    7  C   UNL     1      -7.374  13.484  67.734  1.00  0.00    -0.166 C  
HETATM    8  C   UNL     1      -9.058   7.998  67.423  1.00  0.00    -0.147 C  
HETATM    9  C   UNL     1      -8.132   8.847  68.905  1.00  0.00    -0.112 C  
HETATM   10  C   UNL     1      -9.095   6.561  66.911  1.00  0.00    -0.144 C  
HETATM   11  C   UNL     1      -8.930  13.162  67.783  1.00  0.00    -0.194 C  
HETATM   12  C   UNL     1      -9.421  13.999  68.953  1.00  0.00     0.007 C  
HETATM   13  H   UNL     1     -12.033   8.161  68.300  1.00  0.00     0.000 HD 
HETATM   14  C   UNL     1      -8.494  10.630  69.013  1.00  0.00    -0.145 C  
HETATM   15  O   UNL     1     -10.396  16.996  67.183  1.00  0.00    -0.301 OA 
HETATM   16  O   UNL     1      -9.387  10.795  70.123  1.00  0.00    -0.019 OA 
HETATM   17  C   UNL     1      -9.025  11.580  67.642  1.00  0.00    -0.160 C  
HETATM   18  C   UNL     1     -10.299  10.869  66.920  1.00  0.00    -0.285 C  
HETATM   19  F   UNL     1      -8.056  11.530  66.610  1.00  0.00    -0.148 F  
HETATM   20  H   UNL     1      -9.576  11.725  70.180  1.00  0.00     0.000 HD 
HETATM   21  C   UNL     1     -10.879  11.742  65.791  1.00  0.00    -0.341 C  
HETATM   22  C   UNL     1     -10.990  13.198  66.221  1.00  0.00    -0.295 C  
HETATM   23  C   UNL     1      -9.620  13.767  66.534  1.00  0.00    -0.295 C  
HETATM   24  C   UNL     1      -9.383  15.060  66.233  1.00  0.00    -0.341 C  
HETATM   25  C   UNL     1      -9.935  15.879  67.376  1.00  0.00    -0.239 C  
HETATM   26  C   UNL     1      -9.839  15.274  68.753  1.00  0.00    -0.217 C  
ENDROOT
BRANCH   5  27
HETATM   27  C   UNL     1     -10.172   7.510  69.387  1.00  0.00    -0.204 C  
HETATM   28  C   UNL     1     -10.812   7.942  70.701  1.00  0.00    -0.237 C  
HETATM   29  O   UNL     1      -9.788   6.335  69.361  1.00  0.00    -0.148 OA 
HETATM   30 CL   UNL     1     -11.962   9.272  70.538  1.00  0.00    -0.179 Cl 
ENDBRANCH   5  27
TORSDOF 1
ENDMDL
MODEL       52
REMARK 921   NORMALIZED FREE ENERGY PREDICTED BY IDOCK:   -5.01 KCAL/MOL
REMARK 922        TOTAL FREE ENERGY PREDICTED BY IDOCK:   -4.02 KCAL/MOL
REMARK 923 INTER-LIGAND FREE ENERGY PREDICTED BY IDOCK:   -5.28 KCAL/MOL
REMARK 924 INTRA-LIGAND FREE ENERGY PREDICTED BY IDOCK:    1.26 KCAL/MOL
REMARK 927      BINDING AFFINITY PREDICTED BY RF-SCORE:    0.00 PKD
ROOT
HETATM    1  C   UNL     1      -9.983   5.559  69.117  1.00  0.00    -0.256 C  
HETATM    2  C   UNL     1      -8.972   5.004  68.300  1.00  0.00    -0.120 C  
HETATM    3  C   UNL     1      -8.389   5.630  69.557  1.00  0.00    -0.103 C  
HETATM    4  C   UNL     1      -6.923   4.767  69.538  1.00  0.00    -0.053 C  
HETATM    5  C   UNL     1      -9.755   6.228  70.980  1.00  0.00    -0.176 C  
HETATM    6  O   UNL     1     -11.197   5.860  70.892  1.00  0.00    -0.280 OA 
HETATM    7  C   UNL     1      -6.955   9.511  67.644  1.00  0.00    -0.080 C  
HETATM    8  C   UNL     1      -9.005   5.124  70.739  1.00  0.00    -0.162 C  
HETATM    9  C   UNL     1      -7.845   6.549  71.370  1.00  0.00    -0.100 C  
HETATM   10  C   UNL     1      -9.196   3.674  71.176  1.00  0.00    -0.196 C  
HETATM   11  C   UNL     1      -8.510   9.475  67.977  1.00  0.00    -0.119 C  
HETATM   12  C   UNL     1      -8.794  10.889  68.459  1.00  0.00    -0.153 C  
HETATM   13  H   UNL     1     -11.827   6.136  71.548  1.00  0.00     0.000 HD 
HETATM   14  C   UNL     1      -8.079   8.094  70.430  1.00  0.00    -0.108 C  
HETATM   15  O   UNL     1      -9.798  12.401  65.333  1.00  0.00    -0.252 OA 
HETATM   16  O   UNL     1      -8.811   8.982  71.287  1.00  0.00    -0.215 OA 
HETATM   17  C   UNL     1      -8.720   8.131  68.802  1.00  0.00    -0.138 C  
HETATM   18  C   UNL     1     -10.118   7.301  68.725  1.00  0.00    -0.179 C  
HETATM   19  F   UNL     1      -7.896   7.372  67.936  1.00  0.00    -0.107 F  
HETATM   20  H   UNL     1      -8.932   9.787  70.797  1.00  0.00     0.000 HD 
HETATM   21  C   UNL     1     -10.782   7.423  67.341  1.00  0.00    -0.348 C  
HETATM   22  C   UNL     1     -10.746   8.859  66.836  1.00  0.00    -0.153 C  
HETATM   23  C   UNL     1      -9.315   9.326  66.661  1.00  0.00    -0.219 C  
HETATM   24  C   UNL     1      -9.038  10.164  65.641  1.00  0.00    -0.216 C  
HETATM   25  C   UNL     1      -9.387  11.555  66.116  1.00  0.00    -0.215 C  
HETATM   26  C   UNL     1      -9.153  11.853  67.575  1.00  0.00    -0.178 C  
ENDROOT
BRANCH   5  27
HETATM   27  C   UNL     1      -9.886   6.008  72.682  1.00  0.00    -0.167 C  
HETATM   28  C   UNL     1     -10.418   7.167  73.518  1.00  0.00    -0.380 C  
HETATM   29  O   UNL     1      -9.518   5.026  73.337  1.00  0.00    -0.135 OA 
HETATM   30 CL   UNL     1     -11.563   8.204  72.664  1.00  0.00    -0.467 Cl 
ENDBRANCH   5  27
TORSDOF 1
ENDMDL
MODEL       53
REMARK 921   NORMALIZED FREE ENERGY PREDICTED BY IDOCK:   -4.98 KCAL/MOL
REMARK 922        TOTAL FREE ENERGY PREDICTED BY IDOCK:   -3.99 KCAL/MOL
REMARK 923 INTER-LIGAND FREE ENERGY PREDICTED BY IDOCK:   -5.24 KCAL/MOL
REMARK 924 INTRA-LIGAND FREE ENERGY PREDICTED BY IDOCK:    1.25 KCAL/MOL
REMARK 927      BINDING AFFINITY PREDICTED BY RF-SCORE:    0.00 PKD
ROOT
HETATM    1  C   UNL     1     -10.529   8.182  67.329  1.00  0.00    -0.379 C  
HETATM    2  C   UNL     1     -10.734   9.495  67.808  1.00  0.00    -0.302 C  
HETATM    3  C   UNL     1      -9.254   9.186  67.654  1.00  0.00    -0.143 C  
HETATM    4  C   UNL     1      -8.727  10.801  67.577  1.00  0.00    -0.125 C  
HETATM    5  C   UNL     1      -8.801   7.415  66.698  1.00  0.00    -0.143 C  
HETATM    6  O   UNL     1      -9.841   6.610  65.998  1.00  0.00    -0.402 OA 
HETATM    7  C   UNL     1      -8.386   8.365  72.053  1.00  0.00    -0.231 C  
HETATM    8  C   UNL     1      -8.941   8.718  66.344  1.00  0.00    -0.194 C  
HETATM    9  C   UNL     1      -7.286   8.509  67.340  1.00  0.00    -0.084 C  
HETATM   10  C   UNL     1      -9.265   9.354  64.995  1.00  0.00    -0.280 C  
HETATM   11  C   UNL     1      -9.065   7.154  71.279  1.00  0.00    -0.151 C  
HETATM   12  C   UNL     1      -8.365   5.935  71.858  1.00  0.00    -0.119 C  
HETATM   13  H   UNL     1      -9.632   5.794  65.557  1.00  0.00     0.000 HD 
HETATM   14  C   UNL     1      -7.539   7.643  68.924  1.00  0.00    -0.101 C  
HETATM   15  O   UNL     1     -10.665   5.132  74.528  1.00  0.00    -0.343 OA 
HETATM   16  O   UNL     1      -7.021   6.317  68.747  1.00  0.00    -0.070 OA 
HETATM   17  C   UNL     1      -9.081   7.602  69.752  1.00  0.00    -0.147 C  
HETATM   18  C   UNL     1     -10.256   7.113  68.738  1.00  0.00    -0.184 C  
HETATM   19  F   UNL     1      -9.505   8.919  70.057  1.00  0.00    -0.157 F  
HETATM   20  H   UNL     1      -7.153   5.865  69.573  1.00  0.00     0.000 HD 
HETATM   21  C   UNL     1     -11.602   6.936  69.464  1.00  0.00    -0.097 C  
HETATM   22  C   UNL     1     -11.423   6.213  70.792  1.00  0.00    -0.321 C  
HETATM   23  C   UNL     1     -10.544   7.022  71.724  1.00  0.00    -0.234 C  
HETATM   24  C   UNL     1     -10.816   6.991  73.045  1.00  0.00    -0.342 C  
HETATM   25  C   UNL     1     -10.167   5.740  73.590  1.00  0.00    -0.222 C  
HETATM   26  C   UNL     1      -8.864   5.320  72.960  1.00  0.00    -0.116 C  
ENDROOT
BRANCH   5  27
HETATM   27  C   UNL     1      -7.724   6.982  65.428  1.00  0.00    -0.111 C  
HETATM   28  C   UNL     1      -7.109   5.587  65.452  1.00  0.00    -0.066 C  
HETATM   29  O   UNL     1      -7.315   7.710  64.517  1.00  0.00    -0.075 OA 
HETATM   30 CL   UNL     1      -8.133   4.363  66.208  1.00  0.00    -0.102 Cl 
ENDBRANCH   5  27
TORSDOF 1
ENDMDL
MODEL       54
REMARK 921   NORMALIZED FREE ENERGY PREDICTED BY IDOCK:   -4.97 KCAL/MOL
REMARK 922        TOTAL FREE ENERGY PREDICTED BY IDOCK:   -3.98 KCAL/MOL
REMARK 923 INTER-LIGAND FREE ENERGY PREDICTED BY IDOCK:   -5.22 KCAL/MOL
REMARK 924 INTRA-LIGAND FREE ENERGY PREDICTED BY IDOCK:    1.24 KCAL/MOL
REMARK 927      BINDING AFFINITY PREDICTED BY RF-SCORE:    0.00 PKD
ROOT
HETATM    1  C   UNL     1      -8.819  13.108  66.866  1.00  0.00    -0.184 C  
HETATM    2  C   UNL     1      -8.312  12.090  67.703  1.00  0.00    -0.160 C  
HETATM    3  C   UNL     1      -9.654  11.699  67.106  1.00  0.00    -0.185 C  
HETATM    4  C   UNL     1      -9.477  10.021  67.318  1.00  0.00    -0.179 C  
HETATM    5  C   UNL     1     -10.387  12.955  65.644  1.00  0.00    -0.282 C  
HETATM    6  O   UNL     1      -9.554  14.037  65.045  1.00  0.00    -0.529 OA 
HETATM    7  C   UNL     1     -12.194  12.614  70.779  1.00  0.00    -0.331 C  
HETATM    8  C   UNL     1      -9.658  11.812  65.685  1.00  0.00    -0.240 C  
HETATM    9  C   UNL     1     -11.501  11.402  66.143  1.00  0.00    -0.002 C  
HETATM   10  C   UNL     1      -8.684  11.214  64.672  1.00  0.00     0.140 C  
HETATM   11  C   UNL     1     -11.801  13.890  69.915  1.00  0.00    -0.394 C  
HETATM   12  C   UNL     1     -13.058  14.743  69.965  1.00  0.00     0.158 C  
HETATM   13  H   UNL     1      -9.892  14.616  64.371  1.00  0.00     0.000 HD 
HETATM   14  C   UNL     1     -12.141  12.487  67.460  1.00  0.00    -0.055 C  
HETATM   15  O   UNL     1     -12.273  16.805  72.829  1.00  0.00    -0.248 OA 
HETATM   16  O   UNL     1     -13.026  13.418  66.823  1.00  0.00     0.041 OA 
HETATM   17  C   UNL     1     -11.105  13.302  68.611  1.00  0.00    -0.268 C  
HETATM   18  C   UNL     1      -9.932  14.122  67.835  1.00  0.00    -0.231 C  
HETATM   19  F   UNL     1     -10.347  12.354  69.342  1.00  0.00    -0.022 F  
HETATM   20  H   UNL     1     -13.360  13.984  67.510  1.00  0.00     0.000 HD 
HETATM   21  C   UNL     1      -9.080  14.960  68.807  1.00  0.00    -0.189 C  
HETATM   22  C   UNL     1      -9.954  15.696  69.813  1.00  0.00    -0.281 C  
HETATM   23  C   UNL     1     -10.724  14.710  70.670  1.00  0.00     0.291 C  
HETATM   24  C   UNL     1     -10.946  15.026  71.962  1.00  0.00     0.322 C  
HETATM   25  C   UNL     1     -12.159  15.926  71.985  1.00  0.00    -0.506 C  
HETATM   26  C   UNL     1     -13.230  15.650  70.960  1.00  0.00    -0.435 C  
ENDROOT
BRANCH   5  27
HETATM   27  C   UNL     1     -11.051  12.708  64.076  1.00  0.00    -0.405 C  
HETATM   28  C   UNL     1     -12.187  13.620  63.625  1.00  0.00    -0.317 C  
HETATM   29  O   UNL     1     -10.766  11.807  63.280  1.00  0.00    -0.382 OA 
HETATM   30 CL   UNL     1     -12.128  15.241  64.322  1.00  0.00    -0.351 Cl 
ENDBRANCH   5  27
TORSDOF 1
ENDMDL
MODEL       55
REMARK 921   NORMALIZED FREE ENERGY PREDICTED BY IDOCK:   -4.95 KCAL/MOL
REMARK 922        TOTAL FREE ENERGY PREDICTED BY IDOCK:   -3.96 KCAL/MOL
REMARK 923 INTER-LIGAND FREE ENERGY PREDICTED BY IDOCK:   -5.20 KCAL/MOL
REMARK 924 INTRA-LIGAND FREE ENERGY PREDICTED BY IDOCK:    1.24 KCAL/MOL
REMARK 927      BINDING AFFINITY PREDICTED BY RF-SCORE:    0.00 PKD
ROOT
HETATM    1  C   UNL     1      -9.820   8.520  68.192  1.00  0.00    -0.192 C  
HETATM    2  C   UNL     1     -10.485   8.450  66.947  1.00  0.00    -0.359 C  
HETATM    3  C   UNL     1      -9.039   8.886  66.779  1.00  0.00    -0.177 C  
HETATM    4  C   UNL     1      -8.898   8.453  65.140  1.00  0.00    -0.075 C  
HETATM    5  C   UNL     1      -7.861   8.762  68.467  1.00  0.00    -0.104 C  
HETATM    6  O   UNL     1      -8.327   8.073  69.704  1.00  0.00    -0.122 OA 
HETATM    7  C   UNL     1      -9.845  13.343  66.271  1.00  0.00    -0.295 C  
HETATM    8  C   UNL     1      -8.133   7.974  67.396  1.00  0.00    -0.122 C  
HETATM    9  C   UNL     1      -7.013   9.455  66.822  1.00  0.00    -0.081 C  
HETATM   10  C   UNL     1      -8.022   6.462  67.218  1.00  0.00    -0.112 C  
HETATM   11  C   UNL     1      -9.870  12.837  67.778  1.00  0.00    -0.220 C  
HETATM   12  C   UNL     1      -9.209  13.975  68.538  1.00  0.00    -0.170 C  
HETATM   13  H   UNL     1      -7.783   8.016  70.481  1.00  0.00     0.000 HD 
HETATM   14  C   UNL     1      -7.680  11.067  67.349  1.00  0.00    -0.114 C  
HETATM   15  O   UNL     1     -12.145  15.882  69.439  1.00  0.00    -0.330 OA 
HETATM   16  O   UNL     1      -6.854  11.511  68.435  1.00  0.00    -0.063 OA 
HETATM   17  C   UNL     1      -9.373  11.327  67.710  1.00  0.00    -0.163 C  
HETATM   18  C   UNL     1      -9.903  10.212  68.771  1.00  0.00    -0.180 C  
HETATM   19  F   UNL     1     -10.165  11.030  66.573  1.00  0.00    -0.236 F  
HETATM   20  H   UNL     1      -7.202  12.352  68.710  1.00  0.00     0.000 HD 
HETATM   21  C   UNL     1     -11.352  10.488  69.215  1.00  0.00    -0.325 C  
HETATM   22  C   UNL     1     -11.563  11.963  69.526  1.00  0.00    -0.394 C  
HETATM   23  C   UNL     1     -11.334  12.806  68.287  1.00  0.00    -0.335 C  
HETATM   24  C   UNL     1     -12.097  13.904  68.112  1.00  0.00    -0.317 C  
HETATM   25  C   UNL     1     -11.462  15.007  68.925  1.00  0.00    -0.314 C  
HETATM   26  C   UNL     1      -9.957  14.999  69.022  1.00  0.00    -0.246 C  
ENDROOT
BRANCH   5  27
HETATM   27  C   UNL     1      -6.299   8.117  68.792  1.00  0.00    -0.045 C  
HETATM   28  C   UNL     1      -5.436   8.817  69.836  1.00  0.00    -0.029 C  
HETATM   29  O   UNL     1      -5.744   7.179  68.210  1.00  0.00    -0.020 OA 
HETATM   30 CL   UNL     1      -6.358   9.607  71.118  1.00  0.00    -0.061 Cl 
ENDBRANCH   5  27
TORSDOF 1
ENDMDL
MODEL       56
REMARK 921   NORMALIZED FREE ENERGY PREDICTED BY IDOCK:   -4.90 KCAL/MOL
REMARK 922        TOTAL FREE ENERGY PREDICTED BY IDOCK:   -3.90 KCAL/MOL
REMARK 923 INTER-LIGAND FREE ENERGY PREDICTED BY IDOCK:   -5.16 KCAL/MOL
REMARK 924 INTRA-LIGAND FREE ENERGY PREDICTED BY IDOCK:    1.25 KCAL/MOL
REMARK 927      BINDING AFFINITY PREDICTED BY RF-SCORE:    0.00 PKD
ROOT
HETATM    1  C   UNL     1      -7.644   9.226  68.522  1.00  0.00    -0.085 C  
HETATM    2  C   UNL     1      -6.942   8.353  67.661  1.00  0.00    -0.075 C  
HETATM    3  C   UNL     1      -8.438   8.312  67.393  1.00  0.00    -0.125 C  
HETATM    4  C   UNL     1      -8.334   7.690  65.813  1.00  0.00    -0.144 C  
HETATM    5  C   UNL     1      -9.565   9.736  68.370  1.00  0.00    -0.148 C  
HETATM    6  O   UNL     1      -8.936  10.873  69.101  1.00  0.00    -0.313 OA 
HETATM    7  C   UNL     1      -9.307   4.435  69.626  1.00  0.00    -0.228 C  
HETATM    8  C   UNL     1      -8.972   9.612  67.156  1.00  0.00    -0.148 C  
HETATM    9  C   UNL     1     -10.530   8.453  67.219  1.00  0.00    -0.373 C  
HETATM   10  C   UNL     1      -8.510  10.673  66.161  1.00  0.00    -0.159 C  
HETATM   11  C   UNL     1      -9.167   5.715  70.559  1.00  0.00    -0.175 C  
HETATM   12  C   UNL     1     -10.236   5.492  71.617  1.00  0.00    -0.265 C  
HETATM   13  H   UNL     1      -9.455  11.529  69.551  1.00  0.00     0.000 HD 
HETATM   14  C   UNL     1     -10.530   7.377  68.690  1.00  0.00    -0.189 C  
HETATM   15  O   UNL     1      -8.253   3.810  74.129  1.00  0.00    -0.081 OA 
HETATM   16  O   UNL     1     -11.510   7.918  69.587  1.00  0.00    -0.443 OA 
HETATM   17  C   UNL     1      -9.070   6.944  69.553  1.00  0.00    -0.142 C  
HETATM   18  C   UNL     1      -8.216   8.278  69.928  1.00  0.00    -0.123 C  
HETATM   19  F   UNL     1      -8.173   6.272  68.688  1.00  0.00    -0.107 F  
HETATM   20  H   UNL     1     -11.510   7.357  70.355  1.00  0.00     0.000 HD 
HETATM   21  C   UNL     1      -6.993   7.949  70.804  1.00  0.00    -0.045 C  
HETATM   22  C   UNL     1      -7.354   6.968  71.911  1.00  0.00    -0.086 C  
HETATM   23  C   UNL     1      -7.820   5.651  71.323  1.00  0.00    -0.111 C  
HETATM   24  C   UNL     1      -7.508   4.514  71.979  1.00  0.00    -0.082 C  
HETATM   25  C   UNL     1      -8.542   4.344  73.066  1.00  0.00    -0.101 C  
HETATM   26  C   UNL     1      -9.940   4.811  72.753  1.00  0.00    -0.207 C  
ENDROOT
BRANCH   5  27
HETATM   27  C   UNL     1     -10.793  10.836  67.878  1.00  0.00    -0.264 C  
HETATM   28  C   UNL     1     -11.950  11.098  68.837  1.00  0.00    -0.298 C  
HETATM   29  O   UNL     1     -10.896  11.395  66.781  1.00  0.00    -0.262 OA 
HETATM   30 CL   UNL     1     -11.517  10.950  70.542  1.00  0.00    -0.378 Cl 
ENDBRANCH   5  27
TORSDOF 1
ENDMDL
MODEL       57
REMARK 921   NORMALIZED FREE ENERGY PREDICTED BY IDOCK:   -4.89 KCAL/MOL
REMARK 922        TOTAL FREE ENERGY PREDICTED BY IDOCK:   -3.89 KCAL/MOL
REMARK 923 INTER-LIGAND FREE ENERGY PREDICTED BY IDOCK:   -5.18 KCAL/MOL
REMARK 924 INTRA-LIGAND FREE ENERGY PREDICTED BY IDOCK:    1.29 KCAL/MOL
REMARK 927      BINDING AFFINITY PREDICTED BY RF-SCORE:    0.00 PKD
ROOT
HETATM    1  C   UNL     1      -8.105   8.391  66.963  1.00  0.00    -0.104 C  
HETATM    2  C   UNL     1      -7.135   8.989  67.798  1.00  0.00    -0.079 C  
HETATM    3  C   UNL     1      -7.154   7.478  67.963  1.00  0.00    -0.084 C  
HETATM    4  C   UNL     1      -5.588   7.335  68.612  1.00  0.00    -0.022 C  
HETATM    5  C   UNL     1      -8.313   6.441  66.609  1.00  0.00    -0.113 C  
HETATM    6  O   UNL     1      -8.903   7.101  65.409  1.00  0.00    -0.360 OA 
HETATM    7  C   UNL     1      -9.543   7.359  71.843  1.00  0.00    -0.174 C  
HETATM    8  C   UNL     1      -7.010   6.804  66.714  1.00  0.00    -0.067 C  
HETATM    9  C   UNL     1      -7.375   5.385  67.990  1.00  0.00    -0.073 C  
HETATM   10  C   UNL     1      -5.937   6.985  65.644  1.00  0.00    -0.036 C  
HETATM   11  C   UNL     1     -10.422   7.566  70.534  1.00  0.00    -0.224 C  
HETATM   12  C   UNL     1     -11.664   6.736  70.815  1.00  0.00    -0.439 C  
HETATM   13  H   UNL     1      -9.437   6.623  64.785  1.00  0.00     0.000 HD 
HETATM   14  C   UNL     1      -8.829   5.748  69.028  1.00  0.00    -0.111 C  
HETATM   15  O   UNL     1     -13.772   9.282  72.277  1.00  0.00    -0.447 OA 
HETATM   16  O   UNL     1      -9.890   4.912  68.545  1.00  0.00    -0.152 OA 
HETATM   17  C   UNL     1      -9.406   7.374  69.325  1.00  0.00    -0.154 C  
HETATM   18  C   UNL     1      -9.602   8.171  67.919  1.00  0.00    -0.179 C  
HETATM   19  F   UNL     1      -8.392   8.145  69.945  1.00  0.00    -0.114 F  
HETATM   20  H   UNL     1     -10.648   5.101  69.086  1.00  0.00     0.000 HD 
HETATM   21  C   UNL     1     -10.235   9.559  68.131  1.00  0.00    -0.231 C  
HETATM   22  C   UNL     1     -11.398   9.491  69.111  1.00  0.00     0.092 C  
HETATM   23  C   UNL     1     -10.919   9.033  70.474  1.00  0.00    -0.295 C  
HETATM   24  C   UNL     1     -11.514   9.554  71.567  1.00  0.00    -0.466 C  
HETATM   25  C   UNL     1     -12.778   8.758  71.793  1.00  0.00    -0.359 C  
HETATM   26  C   UNL     1     -12.730   7.292  71.443  1.00  0.00    -0.427 C  
ENDROOT
BRANCH   5  27
HETATM   27  C   UNL     1      -8.052   5.057  65.620  1.00  0.00    -0.113 C  
HETATM   28  C   UNL     1      -9.190   4.053  65.473  1.00  0.00    -0.150 C  
HETATM   29  O   UNL     1      -6.999   4.728  65.064  1.00  0.00    -0.058 OA 
HETATM   30 CL   UNL     1     -10.799   4.769  65.596  1.00  0.00    -0.243 Cl 
ENDBRANCH   5  27
TORSDOF 1
ENDMDL
MODEL       58
REMARK 921   NORMALIZED FREE ENERGY PREDICTED BY IDOCK:   -4.89 KCAL/MOL
REMARK 922        TOTAL FREE ENERGY PREDICTED BY IDOCK:   -3.89 KCAL/MOL
REMARK 923 INTER-LIGAND FREE ENERGY PREDICTED BY IDOCK:   -5.17 KCAL/MOL
REMARK 924 INTRA-LIGAND FREE ENERGY PREDICTED BY IDOCK:    1.28 KCAL/MOL
REMARK 927      BINDING AFFINITY PREDICTED BY RF-SCORE:    0.00 PKD
ROOT
HETATM    1  C   UNL     1     -10.279   8.466  70.843  1.00  0.00    -0.234 C  
HETATM    2  C   UNL     1      -9.476   8.923  71.912  1.00  0.00    -0.301 C  
HETATM    3  C   UNL     1      -8.634   8.280  70.822  1.00  0.00    -0.147 C  
HETATM    4  C   UNL     1      -7.165   9.023  71.250  1.00  0.00    -0.093 C  
HETATM    5  C   UNL     1      -9.626   7.822  69.073  1.00  0.00    -0.155 C  
HETATM    6  O   UNL     1     -11.013   8.300  68.806  1.00  0.00    -0.428 OA 
HETATM    7  C   UNL     1      -8.020   4.258  72.877  1.00  0.00    -0.086 C  
HETATM    8  C   UNL     1      -8.887   8.858  69.544  1.00  0.00    -0.144 C  
HETATM    9  C   UNL     1      -7.708   7.359  69.172  1.00  0.00    -0.111 C  
HETATM   10  C   UNL     1      -8.857  10.327  69.131  1.00  0.00    -0.182 C  
HETATM   11  C   UNL     1      -9.430   4.423  72.160  1.00  0.00    -0.186 C  
HETATM   12  C   UNL     1      -9.679   3.047  71.563  1.00  0.00    -0.223 C  
HETATM   13  H   UNL     1     -11.470   8.089  68.000  1.00  0.00     0.000 HD 
HETATM   14  C   UNL     1      -8.284   5.818  69.957  1.00  0.00    -0.115 C  
HETATM   15  O   UNL     1     -11.559   1.552  74.265  1.00  0.00    -0.073 OA 
HETATM   16  O   UNL     1      -8.832   5.009  68.906  1.00  0.00    -0.092 OA 
HETATM   17  C   UNL     1      -9.325   5.797  71.364  1.00  0.00    -0.146 C  
HETATM   18  C   UNL     1     -10.633   6.733  71.115  1.00  0.00    -0.252 C  
HETATM   19  F   UNL     1      -8.700   6.470  72.443  1.00  0.00    -0.126 F  
HETATM   20  H   UNL     1      -9.132   4.206  69.315  1.00  0.00     0.000 HD 
HETATM   21  C   UNL     1     -11.638   6.634  72.278  1.00  0.00    -0.313 C  
HETATM   22  C   UNL     1     -11.835   5.189  72.716  1.00  0.00    -0.116 C  
HETATM   23  C   UNL     1     -10.534   4.607  73.231  1.00  0.00    -0.260 C  
HETATM   24  C   UNL     1     -10.589   3.729  74.253  1.00  0.00    -0.262 C  
HETATM   25  C   UNL     1     -10.902   2.380  73.649  1.00  0.00    -0.187 C  
HETATM   26  C   UNL     1     -10.322   2.095  72.287  1.00  0.00    -0.183 C  
ENDROOT
BRANCH   5  27
HETATM   27  C   UNL     1      -9.299   8.088  67.406  1.00  0.00    -0.145 C  
HETATM   28  C   UNL     1      -9.641   6.977  66.419  1.00  0.00    -0.099 C  
HETATM   29  O   UNL     1      -8.731   9.065  66.905  1.00  0.00    -0.121 OA 
HETATM   30 CL   UNL     1     -11.014   5.980  66.909  1.00  0.00    -0.388 Cl 
ENDBRANCH   5  27
TORSDOF 1
ENDMDL
MODEL       59
REMARK 921   NORMALIZED FREE ENERGY PREDICTED BY IDOCK:   -4.82 KCAL/MOL
REMARK 922        TOTAL FREE ENERGY PREDICTED BY IDOCK:   -3.83 KCAL/MOL
REMARK 923 INTER-LIGAND FREE ENERGY PREDICTED BY IDOCK:   -5.62 KCAL/MOL
REMARK 924 INTRA-LIGAND FREE ENERGY PREDICTED BY IDOCK:    1.80 KCAL/MOL
REMARK 927      BINDING AFFINITY PREDICTED BY RF-SCORE:    0.00 PKD
ROOT
HETATM    1  C   UNL     1      -8.568  12.836  66.811  1.00  0.00    -0.084 C  
HETATM    2  C   UNL     1      -8.297  12.598  68.178  1.00  0.00    -0.175 C  
HETATM    3  C   UNL     1      -9.785  12.497  67.882  1.00  0.00    -0.205 C  
HETATM    4  C   UNL     1     -10.189  11.566  69.247  1.00  0.00     0.049 C  
HETATM    5  C   UNL     1     -10.309  12.537  65.888  1.00  0.00    -0.263 C  
HETATM    6  O   UNL     1      -9.291  12.434  64.803  1.00  0.00    -0.401 OA 
HETATM    7  C   UNL     1     -10.956  16.611  69.455  1.00  0.00    -0.228 C  
HETATM    8  C   UNL     1     -10.056  11.585  66.820  1.00  0.00    -0.245 C  
HETATM    9  C   UNL     1     -11.775  12.403  67.205  1.00  0.00    -0.415 C  
HETATM   10  C   UNL     1      -9.611  10.133  66.665  1.00  0.00    -0.230 C  
HETATM   11  C   UNL     1     -10.323  16.620  67.997  1.00  0.00    -0.303 C  
HETATM   12  C   UNL     1     -11.141  17.675  67.269  1.00  0.00     0.139 C  
HETATM   13  H   UNL     1      -9.532  12.452  63.885  1.00  0.00     0.000 HD 
HETATM   14  C   UNL     1     -11.674  14.222  67.262  1.00  0.00    -0.395 C  
HETATM   15  O   UNL     1      -9.058  20.568  67.870  1.00  0.00    -0.194 OA 
HETATM   16  O   UNL     1     -12.275  14.699  66.050  1.00  0.00    -0.286 OA 
HETATM   17  C   UNL     1     -10.189  15.084  67.601  1.00  0.00    -0.236 C  
HETATM   18  C   UNL     1      -8.997  14.564  66.623  1.00  0.00    -0.247 C  
HETATM   19  F   UNL     1      -9.689  14.714  68.873  1.00  0.00    -0.204 F  
HETATM   20  H   UNL     1     -12.223  15.648  66.080  1.00  0.00     0.000 HD 
HETATM   21  C   UNL     1      -7.709  15.391  66.798  1.00  0.00    -0.045 C  
HETATM   22  C   UNL     1      -8.015  16.881  66.862  1.00  0.00    -0.248 C  
HETATM   23  C   UNL     1      -8.885  17.194  68.063  1.00  0.00    -0.229 C  
HETATM   24  C   UNL     1      -8.691  18.366  68.702  1.00  0.00    -0.306 C  
HETATM   25  C   UNL     1      -9.457  19.413  67.929  1.00  0.00    -0.330 C  
HETATM   26  C   UNL     1     -10.750  18.975  67.289  1.00  0.00    -0.556 C  
ENDROOT
BRANCH   5  27
HETATM   27  C   UNL     1     -11.340  11.576  64.901  1.00  0.00    -0.119 C  
HETATM   28  C   UNL     1     -12.416  12.283  64.084  1.00  0.00    -0.434 C  
HETATM   29  O   UNL     1     -11.368  10.342  64.833  1.00  0.00     0.889 OA 
HETATM   30 CL   UNL     1     -11.982  13.921  63.588  1.00  0.00    -0.323 Cl 
ENDBRANCH   5  27
TORSDOF 1
ENDMDL
MODEL       60
REMARK 921   NORMALIZED FREE ENERGY PREDICTED BY IDOCK:   -4.78 KCAL/MOL
REMARK 922        TOTAL FREE ENERGY PREDICTED BY IDOCK:   -3.78 KCAL/MOL
REMARK 923 INTER-LIGAND FREE ENERGY PREDICTED BY IDOCK:   -5.03 KCAL/MOL
REMARK 924 INTRA-LIGAND FREE ENERGY PREDICTED BY IDOCK:    1.25 KCAL/MOL
REMARK 927      BINDING AFFINITY PREDICTED BY RF-SCORE:    0.00 PKD
ROOT
HETATM    1  C   UNL     1     -10.430   9.009  67.075  1.00  0.00    -0.316 C  
HETATM    2  C   UNL     1     -11.144  10.014  67.767  1.00  0.00    -0.246 C  
HETATM    3  C   UNL     1      -9.643  10.228  67.872  1.00  0.00    -0.161 C  
HETATM    4  C   UNL     1      -9.712  11.884  68.254  1.00  0.00    -0.200 C  
HETATM    5  C   UNL     1      -8.476   9.013  66.683  1.00  0.00    -0.122 C  
HETATM    6  O   UNL     1      -9.066   8.149  65.621  1.00  0.00    -0.348 OA 
HETATM    7  C   UNL     1      -9.125   8.551  72.079  1.00  0.00    -0.317 C  
HETATM    8  C   UNL     1      -9.017  10.254  66.591  1.00  0.00    -0.156 C  
HETATM    9  C   UNL     1      -7.540  10.302  67.852  1.00  0.00    -0.089 C  
HETATM   10  C   UNL     1      -9.365  11.101  65.370  1.00  0.00    -0.243 C  
HETATM   11  C   UNL     1      -9.227   7.448  70.938  1.00  0.00    -0.154 C  
HETATM   12  C   UNL     1      -8.225   6.395  71.383  1.00  0.00    -0.121 C  
HETATM   13  H   UNL     1      -8.528   7.590  65.073  1.00  0.00     0.000 HD 
HETATM   14  C   UNL     1      -7.677   9.004  69.124  1.00  0.00    -0.092 C  
HETATM   15  O   UNL     1     -10.425   4.229  73.264  1.00  0.00    -0.160 OA 
HETATM   16  O   UNL     1      -6.708   8.002  68.786  1.00  0.00    -0.054 OA 
HETATM   17  C   UNL     1      -9.200   8.268  69.574  1.00  0.00    -0.158 C  
HETATM   18  C   UNL     1      -9.985   7.735  68.251  1.00  0.00    -0.201 C  
HETATM   19  F   UNL     1     -10.096   9.255  70.053  1.00  0.00    -0.181 F  
HETATM   20  H   UNL     1      -6.779   7.324  69.449  1.00  0.00     0.000 HD 
HETATM   21  C   UNL     1     -11.266   6.962  68.617  1.00  0.00    -0.082 C  
HETATM   22  C   UNL     1     -11.019   5.997  69.768  1.00  0.00    -0.471 C  
HETATM   23  C   UNL     1     -10.610   6.752  71.017  1.00  0.00    -0.252 C  
HETATM   24  C   UNL     1     -11.024   6.281  72.211  1.00  0.00    -0.297 C  
HETATM   25  C   UNL     1     -10.054   5.192  72.606  1.00  0.00    -0.177 C  
HETATM   26  C   UNL     1      -8.616   5.381  72.196  1.00  0.00    -0.126 C  
ENDROOT
BRANCH   5  27
HETATM   27  C   UNL     1      -7.160   9.294  65.611  1.00  0.00    -0.082 C  
HETATM   28  C   UNL     1      -6.041   8.260  65.561  1.00  0.00    -0.045 C  
HETATM   29  O   UNL     1      -6.965  10.298  64.917  1.00  0.00    -0.136 OA 
HETATM   30 CL   UNL     1      -6.569   6.611  65.909  1.00  0.00    -0.043 Cl 
ENDBRANCH   5  27
TORSDOF 1
ENDMDL
MODEL       61
REMARK 921   NORMALIZED FREE ENERGY PREDICTED BY IDOCK:   -4.77 KCAL/MOL
REMARK 922        TOTAL FREE ENERGY PREDICTED BY IDOCK:   -3.77 KCAL/MOL
REMARK 923 INTER-LIGAND FREE ENERGY PREDICTED BY IDOCK:   -6.32 KCAL/MOL
REMARK 924 INTRA-LIGAND FREE ENERGY PREDICTED BY IDOCK:    2.55 KCAL/MOL
REMARK 927      BINDING AFFINITY PREDICTED BY RF-SCORE:    0.00 PKD
ROOT
HETATM    1  C   UNL     1     -11.173   7.775  71.211  1.00  0.00    -0.280 C  
HETATM    2  C   UNL     1     -11.911   7.181  70.162  1.00  0.00    -0.110 C  
HETATM    3  C   UNL     1     -10.414   7.047  69.933  1.00  0.00    -0.234 C  
HETATM    4  C   UNL     1     -10.502   5.736  68.852  1.00  0.00    -0.326 C  
HETATM    5  C   UNL     1      -9.210   7.610  71.509  1.00  0.00    -0.135 C  
HETATM    6  O   UNL     1      -9.766   7.903  72.860  1.00  0.00    -0.221 OA 
HETATM    7  C   UNL     1      -9.999  10.432  66.909  1.00  0.00    -0.254 C  
HETATM    8  C   UNL     1      -9.755   6.456  71.050  1.00  0.00    -0.192 C  
HETATM    9  C   UNL     1      -8.312   6.987  69.863  1.00  0.00    -0.139 C  
HETATM   10  C   UNL     1     -10.075   5.149  71.772  1.00  0.00    -0.260 C  
HETATM   11  C   UNL     1     -10.065  10.908  68.425  1.00  0.00    -0.196 C  
HETATM   12  C   UNL     1      -9.070  12.056  68.473  1.00  0.00    -0.107 C  
HETATM   13  H   UNL     1      -9.211   8.163  73.587  1.00  0.00     0.000 HD 
HETATM   14  C   UNL     1      -8.476   8.716  69.311  1.00  0.00    -0.123 C  
HETATM   15  O   UNL     1     -11.308  14.818  67.817  1.00  0.00    -0.303 OA 
HETATM   16  O   UNL     1      -7.493   9.468  70.036  1.00  0.00    -0.091 OA 
HETATM   17  C   UNL     1     -10.006   9.565  69.277  1.00  0.00    -0.187 C  
HETATM   18  C   UNL     1     -10.753   9.444  70.718  1.00  0.00    -0.373 C  
HETATM   19  F   UNL     1     -10.920   8.890  68.431  1.00  0.00    -0.196 F  
HETATM   20  H   UNL     1      -7.578  10.370  69.748  1.00  0.00     0.000 HD 
HETATM   21  C   UNL     1     -12.039  10.289  70.771  1.00  0.00    -0.451 C  
HETATM   22  C   UNL     1     -11.818  11.669  70.167  1.00  0.00    -0.428 C  
HETATM   23  C   UNL     1     -11.446  11.556  68.702  1.00  0.00    -0.354 C  
HETATM   24  C   UNL     1     -11.889  12.508  67.856  1.00  0.00    -0.383 C  
HETATM   25  C   UNL     1     -10.925  13.666  67.965  1.00  0.00    -0.250 C  
HETATM   26  C   UNL     1      -9.477  13.323  68.210  1.00  0.00    -0.209 C  
ENDROOT
BRANCH   5  27
HETATM   27  C   UNL     1      -7.867   6.889  72.307  1.00  0.00    -0.093 C  
HETATM   28  C   UNL     1      -7.880   6.834  73.831  1.00  0.00    -0.098 C  
HETATM   29  O   UNL     1      -6.827   6.470  71.786  1.00  0.00    -0.062 OA 
HETATM   30 CL   UNL     1      -9.498   6.723  74.531  1.00  0.00    -0.263 Cl 
ENDBRANCH   5  27
TORSDOF 1
ENDMDL
MODEL       62
REMARK 921   NORMALIZED FREE ENERGY PREDICTED BY IDOCK:   -4.77 KCAL/MOL
REMARK 922        TOTAL FREE ENERGY PREDICTED BY IDOCK:   -3.77 KCAL/MOL
REMARK 923 INTER-LIGAND FREE ENERGY PREDICTED BY IDOCK:   -5.07 KCAL/MOL
REMARK 924 INTRA-LIGAND FREE ENERGY PREDICTED BY IDOCK:    1.30 KCAL/MOL
REMARK 927      BINDING AFFINITY PREDICTED BY RF-SCORE:    0.00 PKD
ROOT
HETATM    1  C   UNL     1      -8.993   7.962  71.548  1.00  0.00    -0.167 C  
HETATM    2  C   UNL     1      -9.852   9.065  71.754  1.00  0.00    -0.330 C  
HETATM    3  C   UNL     1     -10.602   7.880  71.169  1.00  0.00    -0.238 C  
HETATM    4  C   UNL     1     -12.154   8.371  71.663  1.00  0.00    -0.359 C  
HETATM    5  C   UNL     1      -9.552   6.107  71.077  1.00  0.00    -0.175 C  
HETATM    6  O   UNL     1      -8.233   5.938  71.751  1.00  0.00    -0.117 OA 
HETATM    7  C   UNL     1     -10.728   9.361  66.860  1.00  0.00    -0.174 C  
HETATM    8  C   UNL     1     -10.415   6.696  71.942  1.00  0.00    -0.224 C  
HETATM    9  C   UNL     1     -11.399   6.100  70.376  1.00  0.00    -0.399 C  
HETATM   10  C   UNL     1     -10.624   6.485  73.439  1.00  0.00    -0.309 C  
HETATM   11  C   UNL     1      -9.346   8.704  67.290  1.00  0.00    -0.186 C  
HETATM   12  C   UNL     1      -8.925   7.933  66.049  1.00  0.00    -0.195 C  
HETATM   13  H   UNL     1      -7.749   5.121  71.709  1.00  0.00     0.000 HD 
HETATM   14  C   UNL     1     -10.642   6.683  68.824  1.00  0.00    -0.236 C  
HETATM   15  O   UNL     1      -6.891  10.451  64.439  1.00  0.00    -0.099 OA 
HETATM   16  O   UNL     1      -9.993   5.546  68.237  1.00  0.00    -0.137 OA 
HETATM   17  C   UNL     1      -9.614   8.098  68.737  1.00  0.00    -0.149 C  
HETATM   18  C   UNL     1      -8.430   8.006  69.850  1.00  0.00    -0.126 C  
HETATM   19  F   UNL     1     -10.323   9.243  69.176  1.00  0.00    -0.187 F  
HETATM   20  H   UNL     1      -9.598   5.850  67.428  1.00  0.00     0.000 HD 
HETATM   21  C   UNL     1      -7.427   9.167  69.716  1.00  0.00    -0.069 C  
HETATM   22  C   UNL     1      -7.056   9.411  68.260  1.00  0.00    -0.076 C  
HETATM   23  C   UNL     1      -8.278   9.815  67.459  1.00  0.00    -0.114 C  
HETATM   24  C   UNL     1      -8.121  10.710  66.463  1.00  0.00    -0.140 C  
HETATM   25  C   UNL     1      -7.641   9.937  65.257  1.00  0.00    -0.130 C  
HETATM   26  C   UNL     1      -8.175   8.536  65.093  1.00  0.00    -0.153 C  
ENDROOT
BRANCH   5  27
HETATM   27  C   UNL     1      -9.901   4.484  71.526  1.00  0.00    -0.190 C  
HETATM   28  C   UNL     1      -9.449   3.366  70.592  1.00  0.00    -0.173 C  
HETATM   29  O   UNL     1     -10.561   4.105  72.500  1.00  0.00    -0.166 OA 
HETATM   30 CL   UNL     1      -7.986   3.743  69.676  1.00  0.00    -0.052 Cl 
ENDBRANCH   5  27
TORSDOF 1
ENDMDL
MODEL       63
REMARK 921   NORMALIZED FREE ENERGY PREDICTED BY IDOCK:   -4.73 KCAL/MOL
REMARK 922        TOTAL FREE ENERGY PREDICTED BY IDOCK:   -3.72 KCAL/MOL
REMARK 923 INTER-LIGAND FREE ENERGY PREDICTED BY IDOCK:   -4.96 KCAL/MOL
REMARK 924 INTRA-LIGAND FREE ENERGY PREDICTED BY IDOCK:    1.24 KCAL/MOL
REMARK 927      BINDING AFFINITY PREDICTED BY RF-SCORE:    0.00 PKD
ROOT
HETATM    1  C   UNL     1     -11.590  12.523  66.938  1.00  0.00    -0.436 C  
HETATM    2  C   UNL     1     -11.978  11.372  67.659  1.00  0.00     0.002 C  
HETATM    3  C   UNL     1     -10.823  12.088  68.339  1.00  0.00    -0.266 C  
HETATM    4  C   UNL     1     -11.066  11.422  69.885  1.00  0.00    -0.134 C  
HETATM    5  C   UNL     1     -10.331  13.936  67.565  1.00  0.00    -0.245 C  
HETATM    6  O   UNL     1     -11.195  14.626  66.565  1.00  0.00    -0.334 OA 
HETATM    7  C   UNL     1      -7.505   9.321  66.886  1.00  0.00    -0.091 C  
HETATM    8  C   UNL     1     -11.112  13.465  68.570  1.00  0.00    -0.299 C  
HETATM    9  C   UNL     1      -9.246  13.272  69.077  1.00  0.00     0.423 C  
HETATM   10  C   UNL     1     -12.317  14.088  69.270  1.00  0.00    -0.210 C  
HETATM   11  C   UNL     1      -7.983  10.394  65.815  1.00  0.00    -0.152 C  
HETATM   12  C   UNL     1      -6.688  10.803  65.132  1.00  0.00     0.149 C  
HETATM   13  H   UNL     1     -10.969  15.477  66.209  1.00  0.00     0.000 HD 
HETATM   14  C   UNL     1      -8.269  12.423  67.794  1.00  0.00    -0.163 C  
HETATM   15  O   UNL     1      -6.705   8.473  62.368  1.00  0.00    -0.095 OA 
HETATM   16  O   UNL     1      -7.477  13.433  67.154  1.00  0.00    -0.355 OA 
HETATM   17  C   UNL     1      -8.979  11.348  66.610  1.00  0.00    -0.181 C  
HETATM   18  C   UNL     1     -10.231  12.074  65.864  1.00  0.00    -0.263 C  
HETATM   19  F   UNL     1      -9.628  10.269  67.258  1.00  0.00    -0.165 F  
HETATM   20  H   UNL     1      -6.967  12.991  66.485  1.00  0.00     0.000 HD 
HETATM   21  C   UNL     1     -10.797  11.210  64.722  1.00  0.00    -0.277 C  
HETATM   22  C   UNL     1      -9.682  10.610  63.878  1.00  0.00    -0.378 C  
HETATM   23  C   UNL     1      -8.817   9.689  64.716  1.00  0.00    -0.242 C  
HETATM   24  C   UNL     1      -8.305   8.587  64.130  1.00  0.00    -0.102 C  
HETATM   25  C   UNL     1      -7.056   9.025  63.402  1.00  0.00    -0.088 C  
HETATM   26  C   UNL     1      -6.248  10.126  64.041  1.00  0.00    -0.132 C  
ENDROOT
BRANCH   5  27
HETATM   27  C   UNL     1     -10.033  15.483  68.256  1.00  0.00    -0.213 C  
HETATM   28  C   UNL     1      -8.989  16.376  67.596  1.00  0.00    -0.196 C  
HETATM   29  O   UNL     1     -10.517  15.939  69.298  1.00  0.00    -0.218 OA 
HETATM   30 CL   UNL     1      -8.835  16.135  65.853  1.00  0.00    -0.301 Cl 
ENDBRANCH   5  27
TORSDOF 1
ENDMDL
MODEL       64
REMARK 921   NORMALIZED FREE ENERGY PREDICTED BY IDOCK:   -4.72 KCAL/MOL
REMARK 922        TOTAL FREE ENERGY PREDICTED BY IDOCK:   -3.71 KCAL/MOL
REMARK 923 INTER-LIGAND FREE ENERGY PREDICTED BY IDOCK:   -4.97 KCAL/MOL
REMARK 924 INTRA-LIGAND FREE ENERGY PREDICTED BY IDOCK:    1.26 KCAL/MOL
REMARK 927      BINDING AFFINITY PREDICTED BY RF-SCORE:    0.00 PKD
ROOT
HETATM    1  C   UNL     1      -7.871   9.755  68.295  1.00  0.00    -0.089 C  
HETATM    2  C   UNL     1      -7.450   9.913  66.956  1.00  0.00    -0.091 C  
HETATM    3  C   UNL     1      -8.963   9.803  67.052  1.00  0.00    -0.152 C  
HETATM    4  C   UNL     1      -9.304  10.537  65.556  1.00  0.00    -0.245 C  
HETATM    5  C   UNL     1      -9.748   9.855  68.958  1.00  0.00    -0.193 C  
HETATM    6  O   UNL     1      -8.916  10.210  70.143  1.00  0.00    -0.366 OA 
HETATM    7  C   UNL     1      -9.297   5.435  65.793  1.00  0.00    -0.132 C  
HETATM    8  C   UNL     1      -9.508  10.750  67.968  1.00  0.00    -0.166 C  
HETATM    9  C   UNL     1     -11.020   9.641  67.462  1.00  0.00    -0.166 C  
HETATM   10  C   UNL     1      -9.303  12.262  68.021  1.00  0.00    -0.195 C  
HETATM   11  C   UNL     1      -8.879   5.653  67.312  1.00  0.00    -0.106 C  
HETATM   12  C   UNL     1      -9.628   4.549  68.040  1.00  0.00    -0.209 C  
HETATM   13  H   UNL     1      -9.278  10.234  71.022  1.00  0.00     0.000 HD 
HETATM   14  C   UNL     1     -10.651   7.863  67.612  1.00  0.00    -0.206 C  
HETATM   15  O   UNL     1      -7.086   1.979  68.015  1.00  0.00    -0.045 OA 
HETATM   16  O   UNL     1     -11.339   7.404  68.784  1.00  0.00    -0.406 OA 
HETATM   17  C   UNL     1      -9.024   7.219  67.555  1.00  0.00    -0.122 C  
HETATM   18  C   UNL     1      -8.067   8.004  68.612  1.00  0.00    -0.125 C  
HETATM   19  F   UNL     1      -8.411   7.552  66.322  1.00  0.00    -0.113 F  
HETATM   20  H   UNL     1     -11.147   6.476  68.863  1.00  0.00     0.000 HD 
HETATM   21  C   UNL     1      -6.662   7.377  68.688  1.00  0.00    -0.057 C  
HETATM   22  C   UNL     1      -6.737   5.858  68.746  1.00  0.00    -0.064 C  
HETATM   23  C   UNL     1      -7.378   5.308  67.487  1.00  0.00    -0.079 C  
HETATM   24  C   UNL     1      -6.930   4.131  67.005  1.00  0.00    -0.063 C  
HETATM   25  C   UNL     1      -7.636   3.047  67.785  1.00  0.00    -0.057 C  
HETATM   26  C   UNL     1      -9.055   3.331  68.209  1.00  0.00    -0.211 C  
ENDROOT
BRANCH   5  27
HETATM   27  C   UNL     1     -11.034  10.723  69.701  1.00  0.00    -0.264 C  
HETATM   28  C   UNL     1     -11.790  10.052  70.842  1.00  0.00    -0.368 C  
HETATM   29  O   UNL     1     -11.485  11.822  69.360  1.00  0.00    -0.267 OA 
HETATM   30 CL   UNL     1     -10.811   8.928  71.789  1.00  0.00    -0.414 Cl 
ENDBRANCH   5  27
TORSDOF 1
ENDMDL
MODEL       65
REMARK 921   NORMALIZED FREE ENERGY PREDICTED BY IDOCK:   -4.66 KCAL/MOL
REMARK 922        TOTAL FREE ENERGY PREDICTED BY IDOCK:   -3.65 KCAL/MOL
REMARK 923 INTER-LIGAND FREE ENERGY PREDICTED BY IDOCK:   -4.89 KCAL/MOL
REMARK 924 INTRA-LIGAND FREE ENERGY PREDICTED BY IDOCK:    1.24 KCAL/MOL
REMARK 927      BINDING AFFINITY PREDICTED BY RF-SCORE:    0.00 PKD
ROOT
HETATM    1  C   UNL     1     -11.138   8.527  68.867  1.00  0.00     0.236 C  
HETATM    2  C   UNL     1     -10.789   7.905  70.086  1.00  0.00    -0.243 C  
HETATM    3  C   UNL     1      -9.761   8.949  69.683  1.00  0.00    -0.175 C  
HETATM    4  C   UNL     1      -9.105   9.182  71.234  1.00  0.00    -0.232 C  
HETATM    5  C   UNL     1     -10.272  10.140  68.078  1.00  0.00    -0.173 C  
HETATM    6  O   UNL     1     -11.647  10.139  67.503  1.00  0.00    -0.503 OA 
HETATM    7  C   UNL     1      -6.647   6.065  68.021  1.00  0.00    -0.055 C  
HETATM    8  C   UNL     1     -10.361  10.217  69.430  1.00  0.00    -0.256 C  
HETATM    9  C   UNL     1      -8.504  10.447  68.906  1.00  0.00    -0.144 C  
HETATM   10  C   UNL     1     -11.294  11.032  70.321  1.00  0.00    -0.291 C  
HETATM   11  C   UNL     1      -7.850   6.377  67.030  1.00  0.00    -0.104 C  
HETATM   12  C   UNL     1      -7.171   6.452  65.671  1.00  0.00    -0.074 C  
HETATM   13  H   UNL     1     -11.882  10.688  66.764  1.00  0.00     0.000 HD 
HETATM   14  C   UNL     1      -7.932   9.119  67.797  1.00  0.00    -0.101 C  
HETATM   15  O   UNL     1      -7.575   3.021  64.608  1.00  0.00    -0.074 OA 
HETATM   16  O   UNL     1      -7.858   9.692  66.484  1.00  0.00    -0.106 OA 
HETATM   17  C   UNL     1      -8.676   7.536  67.742  1.00  0.00    -0.123 C  
HETATM   18  C   UNL     1     -10.286   7.674  67.544  1.00  0.00    -0.294 C  
HETATM   19  F   UNL     1      -8.603   6.919  69.015  1.00  0.00    -0.125 F  
HETATM   20  H   UNL     1      -7.559   9.000  65.905  1.00  0.00     0.000 HD 
HETATM   21  C   UNL     1     -10.960   6.301  67.357  1.00  0.00    -0.447 C  
HETATM   22  C   UNL     1     -10.169   5.424  66.397  1.00  0.00    -0.268 C  
HETATM   23  C   UNL     1      -8.785   5.144  66.948  1.00  0.00    -0.107 C  
HETATM   24  C   UNL     1      -8.235   3.937  66.706  1.00  0.00    -0.100 C  
HETATM   25  C   UNL     1      -7.622   4.009  65.327  1.00  0.00    -0.081 C  
HETATM   26  C   UNL     1      -7.031   5.334  64.916  1.00  0.00    -0.053 C  
ENDROOT
BRANCH   5  27
HETATM   27  C   UNL     1     -10.237  11.835  67.787  1.00  0.00    -0.191 C  
HETATM   28  C   UNL     1      -9.902  12.316  66.379  1.00  0.00    -0.230 C  
HETATM   29  O   UNL     1     -10.376  12.738  68.620  1.00  0.00    -0.232 OA 
HETATM   30 CL   UNL     1     -10.400  11.202  65.102  1.00  0.00    -0.339 Cl 
ENDBRANCH   5  27
TORSDOF 1
ENDMDL
MODEL       66
REMARK 921   NORMALIZED FREE ENERGY PREDICTED BY IDOCK:   -4.55 KCAL/MOL
REMARK 922        TOTAL FREE ENERGY PREDICTED BY IDOCK:   -3.53 KCAL/MOL
REMARK 923 INTER-LIGAND FREE ENERGY PREDICTED BY IDOCK:   -4.83 KCAL/MOL
REMARK 924 INTRA-LIGAND FREE ENERGY PREDICTED BY IDOCK:    1.30 KCAL/MOL
REMARK 927      BINDING AFFINITY PREDICTED BY RF-SCORE:    0.00 PKD
ROOT
HETATM    1  C   UNL     1      -7.532   8.535  68.690  1.00  0.00    -0.093 C  
HETATM    2  C   UNL     1      -6.783   8.922  69.824  1.00  0.00    -0.045 C  
HETATM    3  C   UNL     1      -6.917   7.410  69.738  1.00  0.00    -0.056 C  
HETATM    4  C   UNL     1      -5.582   7.042  70.724  1.00  0.00    -0.027 C  
HETATM    5  C   UNL     1      -7.736   6.679  67.991  1.00  0.00    -0.108 C  
HETATM    6  O   UNL     1      -7.962   7.550  66.803  1.00  0.00    -0.110 OA 
HETATM    7  C   UNL     1     -10.233   6.956  72.833  1.00  0.00    -0.226 C  
HETATM    8  C   UNL     1      -6.489   6.909  68.473  1.00  0.00    -0.036 C  
HETATM    9  C   UNL     1      -7.239   5.362  69.378  1.00  0.00    -0.065 C  
HETATM   10  C   UNL     1      -5.167   7.144  67.746  1.00  0.00    -0.019 C  
HETATM   11  C   UNL     1     -10.732   7.421  71.396  1.00  0.00    -0.239 C  
HETATM   12  C   UNL     1     -12.043   6.671  71.225  1.00  0.00    -0.395 C  
HETATM   13  H   UNL     1      -8.339   7.213  65.998  1.00  0.00     0.000 HD 
HETATM   14  C   UNL     1      -8.893   5.701  70.065  1.00  0.00    -0.130 C  
HETATM   15  O   UNL     1     -14.332   9.161  72.501  1.00  0.00    -0.529 OA 
HETATM   16  O   UNL     1      -9.832   5.036  69.207  1.00  0.00    -0.163 OA 
HETATM   17  C   UNL     1      -9.448   7.312  70.463  1.00  0.00    -0.165 C  
HETATM   18  C   UNL     1      -9.234   8.313  69.197  1.00  0.00    -0.151 C  
HETATM   19  F   UNL     1      -8.593   7.898  71.429  1.00  0.00    -0.111 F  
HETATM   20  H   UNL     1     -10.694   5.213  69.566  1.00  0.00     0.000 HD 
HETATM   21  C   UNL     1      -9.833   9.708  69.462  1.00  0.00    -0.219 C  
HETATM   22  C   UNL     1     -11.212   9.605  70.098  1.00  0.00    -0.302 C  
HETATM   23  C   UNL     1     -11.125   8.919  71.447  1.00  0.00    -0.376 C  
HETATM   24  C   UNL     1     -11.956   9.331  72.426  1.00  0.00    -0.062 C  
HETATM   25  C   UNL     1     -13.273   8.625  72.202  1.00  0.00    -0.383 C  
HETATM   26  C   UNL     1     -13.207   7.224  71.648  1.00  0.00    -0.421 C  
ENDROOT
BRANCH   5  27
HETATM   27  C   UNL     1      -7.294   5.431  66.893  1.00  0.00    -0.083 C  
HETATM   28  C   UNL     1      -8.401   4.551  66.323  1.00  0.00    -0.110 C  
HETATM   29  O   UNL     1      -6.151   5.100  66.561  1.00  0.00    -0.028 OA 
HETATM   30 CL   UNL     1      -9.959   5.367  66.164  1.00  0.00    -0.180 Cl 
ENDBRANCH   5  27
TORSDOF 1
ENDMDL
MODEL       67
REMARK 921   NORMALIZED FREE ENERGY PREDICTED BY IDOCK:   -4.48 KCAL/MOL
REMARK 922        TOTAL FREE ENERGY PREDICTED BY IDOCK:   -3.46 KCAL/MOL
REMARK 923 INTER-LIGAND FREE ENERGY PREDICTED BY IDOCK:   -4.96 KCAL/MOL
REMARK 924 INTRA-LIGAND FREE ENERGY PREDICTED BY IDOCK:    1.50 KCAL/MOL
REMARK 927      BINDING AFFINITY PREDICTED BY RF-SCORE:    0.00 PKD
ROOT
HETATM    1  C   UNL     1      -7.977  10.893  67.285  1.00  0.00    -0.123 C  
HETATM    2  C   UNL     1      -7.473   9.769  66.593  1.00  0.00    -0.095 C  
HETATM    3  C   UNL     1      -8.970   9.648  66.831  1.00  0.00    -0.151 C  
HETATM    4  C   UNL     1      -9.269   8.514  65.600  1.00  0.00    -0.161 C  
HETATM    5  C   UNL     1      -9.900  11.333  67.574  1.00  0.00    -0.178 C  
HETATM    6  O   UNL     1      -9.203  12.648  67.650  1.00  0.00    -0.177 OA 
HETATM    7  C   UNL     1      -8.752   6.801  70.384  1.00  0.00    -0.151 C  
HETATM    8  C   UNL     1      -9.679  10.788  66.351  1.00  0.00    -0.241 C  
HETATM    9  C   UNL     1     -11.025   9.736  67.276  1.00  0.00    -0.142 C  
HETATM   10  C   UNL     1      -9.637  11.432  64.967  1.00  0.00    -0.250 C  
HETATM   11  C   UNL     1      -8.476   8.325  70.744  1.00  0.00    -0.139 C  
HETATM   12  C   UNL     1      -9.160   8.494  72.091  1.00  0.00    -0.319 C  
HETATM   13  H   UNL     1      -9.631  13.424  67.992  1.00  0.00     0.000 HD 
HETATM   14  C   UNL     1     -10.485   9.242  68.945  1.00  0.00    -0.215 C  
HETATM   15  O   UNL     1      -6.371   7.780  74.276  1.00  0.00    -0.086 OA 
HETATM   16  O   UNL     1     -11.210  10.069  69.866  1.00  0.00    -0.250 OA 
HETATM   17  C   UNL     1      -8.801   9.126  69.407  1.00  0.00    -0.146 C  
HETATM   18  C   UNL     1      -8.015  10.500  69.031  1.00  0.00    -0.136 C  
HETATM   19  F   UNL     1      -8.133   8.187  68.584  1.00  0.00    -0.114 F  
HETATM   20  H   UNL     1     -10.929   9.811  70.737  1.00  0.00     0.000 HD 
HETATM   21  C   UNL     1      -6.562  10.488  69.543  1.00  0.00    -0.080 C  
HETATM   22  C   UNL     1      -6.483   9.958  70.968  1.00  0.00     0.021 C  
HETATM   23  C   UNL     1      -6.965   8.522  71.029  1.00  0.00    -0.062 C  
HETATM   24  C   UNL     1      -6.361   7.683  71.896  1.00  0.00    -0.039 C  
HETATM   25  C   UNL     1      -7.009   7.911  73.241  1.00  0.00    -0.097 C  
HETATM   26  C   UNL     1      -8.478   8.251  73.238  1.00  0.00    -0.267 C  
ENDROOT
BRANCH   5  27
HETATM   27  C   UNL     1     -11.322  12.201  67.148  1.00  0.00    -0.331 C  
HETATM   28  C   UNL     1     -11.954  13.107  68.200  1.00  0.00    -0.294 C  
HETATM   29  O   UNL     1     -11.958  12.118  66.091  1.00  0.00    -0.593 OA 
HETATM   30 CL   UNL     1     -10.798  13.797  69.342  1.00  0.00    -0.146 Cl 
ENDBRANCH   5  27
TORSDOF 1
ENDMDL
MODEL       68
REMARK 921   NORMALIZED FREE ENERGY PREDICTED BY IDOCK:   -4.48 KCAL/MOL
REMARK 922        TOTAL FREE ENERGY PREDICTED BY IDOCK:   -3.46 KCAL/MOL
REMARK 923 INTER-LIGAND FREE ENERGY PREDICTED BY IDOCK:   -4.70 KCAL/MOL
REMARK 924 INTRA-LIGAND FREE ENERGY PREDICTED BY IDOCK:    1.25 KCAL/MOL
REMARK 927      BINDING AFFINITY PREDICTED BY RF-SCORE:    0.00 PKD
ROOT
HETATM    1  C   UNL     1     -11.406   6.235  70.914  1.00  0.00    -0.389 C  
HETATM    2  C   UNL     1     -11.286   5.592  72.166  1.00  0.00    -0.247 C  
HETATM    3  C   UNL     1     -10.473   6.876  72.122  1.00  0.00    -0.230 C  
HETATM    4  C   UNL     1     -10.375   7.098  73.806  1.00  0.00    -0.390 C  
HETATM    5  C   UNL     1     -10.770   8.071  70.468  1.00  0.00    -0.229 C  
HETATM    6  O   UNL     1     -11.874   7.815  69.500  1.00  0.00    -0.061 OA 
HETATM    7  C   UNL     1      -6.403   4.946  71.424  1.00  0.00    -0.026 C  
HETATM    8  C   UNL     1     -11.265   7.994  71.729  1.00  0.00    -0.317 C  
HETATM    9  C   UNL     1      -9.452   8.688  71.804  1.00  0.00    -0.354 C  
HETATM   10  C   UNL     1     -12.587   8.486  72.311  1.00  0.00    -0.438 C  
HETATM   11  C   UNL     1      -7.304   5.074  70.120  1.00  0.00    -0.059 C  
HETATM   12  C   UNL     1      -6.298   5.432  69.037  1.00  0.00    -0.034 C  
HETATM   13  H   UNL     1     -12.011   8.367  68.738  1.00  0.00     0.000 HD 
HETATM   14  C   UNL     1      -8.274   7.638  70.891  1.00  0.00    -0.108 C  
HETATM   15  O   UNL     1      -5.521   2.119  67.817  1.00  0.00    -0.016 OA 
HETATM   16  O   UNL     1      -7.963   8.338  69.679  1.00  0.00    -0.106 OA 
HETATM   17  C   UNL     1      -8.559   5.941  70.573  1.00  0.00    -0.136 C  
HETATM   18  C   UNL     1     -10.023   5.729  69.895  1.00  0.00    -0.254 C  
HETATM   19  F   UNL     1      -8.710   5.235  71.792  1.00  0.00    -0.127 F  
HETATM   20  H   UNL     1      -7.349   7.791  69.202  1.00  0.00     0.000 HD 
HETATM   21  C   UNL     1     -10.255   4.265  69.478  1.00  0.00     0.238 C  
HETATM   22  C   UNL     1      -9.030   3.687  68.784  1.00  0.00    -0.181 C  
HETATM   23  C   UNL     1      -7.842   3.675  69.726  1.00  0.00    -0.052 C  
HETATM   24  C   UNL     1      -6.966   2.653  69.635  1.00  0.00    -0.033 C  
HETATM   25  C   UNL     1      -6.016   2.997  68.512  1.00  0.00    -0.024 C  
HETATM   26  C   UNL     1      -5.674   4.454  68.333  1.00  0.00    -0.021 C  
ENDROOT
BRANCH   5  27
HETATM   27  C   UNL     1     -11.068   9.750  70.243  1.00  0.00    -0.292 C  
HETATM   28  C   UNL     1     -10.434  10.438  69.038  1.00  0.00    -0.219 C  
HETATM   29  O   UNL     1     -11.685  10.506  71.001  1.00  0.00    -0.338 OA 
HETATM   30 CL   UNL     1     -10.206   9.378  67.644  1.00  0.00    -0.262 Cl 
ENDBRANCH   5  27
TORSDOF 1
ENDMDL
MODEL       69
REMARK 921   NORMALIZED FREE ENERGY PREDICTED BY IDOCK:   -4.43 KCAL/MOL
REMARK 922        TOTAL FREE ENERGY PREDICTED BY IDOCK:   -3.41 KCAL/MOL
REMARK 923 INTER-LIGAND FREE ENERGY PREDICTED BY IDOCK:   -4.66 KCAL/MOL
REMARK 924 INTRA-LIGAND FREE ENERGY PREDICTED BY IDOCK:    1.25 KCAL/MOL
REMARK 927      BINDING AFFINITY PREDICTED BY RF-SCORE:    0.00 PKD
ROOT
HETATM    1  C   UNL     1     -10.593   5.424  69.652  1.00  0.00    -0.328 C  
HETATM    2  C   UNL     1      -9.785   4.338  70.057  1.00  0.00    -0.287 C  
HETATM    3  C   UNL     1      -9.116   5.669  70.358  1.00  0.00    -0.164 C  
HETATM    4  C   UNL     1      -8.053   5.085  71.551  1.00  0.00    -0.113 C  
HETATM    5  C   UNL     1     -10.288   7.345  70.088  1.00  0.00    -0.214 C  
HETATM    6  O   UNL     1     -11.755   7.249  69.844  1.00  0.00    -0.516 OA 
HETATM    7  C   UNL     1      -6.259   5.686  66.807  1.00  0.00    -0.034 C  
HETATM    8  C   UNL     1      -9.960   6.529  71.121  1.00  0.00    -0.202 C  
HETATM    9  C   UNL     1      -8.423   7.631  70.677  1.00  0.00    -0.127 C  
HETATM   10  C   UNL     1     -10.685   6.243  72.434  1.00  0.00    -0.257 C  
HETATM   11  C   UNL     1      -7.746   6.128  66.458  1.00  0.00    -0.103 C  
HETATM   12  C   UNL     1      -7.548   7.251  65.452  1.00  0.00    -0.100 C  
HETATM   13  H   UNL     1     -12.295   8.021  69.720  1.00  0.00     0.000 HD 
HETATM   14  C   UNL     1      -8.022   7.569  68.900  1.00  0.00    -0.126 C  
HETATM   15  O   UNL     1      -7.709   5.347  62.384  1.00  0.00    -0.058 OA 
HETATM   16  O   UNL     1      -8.456   8.817  68.343  1.00  0.00    -0.128 OA 
HETATM   17  C   UNL     1      -8.482   6.234  67.865  1.00  0.00    -0.117 C  
HETATM   18  C   UNL     1     -10.073   5.924  68.014  1.00  0.00    -0.194 C  
HETATM   19  F   UNL     1      -7.916   5.027  68.345  1.00  0.00    -0.083 F  
HETATM   20  H   UNL     1      -8.247   8.785  67.416  1.00  0.00     0.000 HD 
HETATM   21  C   UNL     1     -10.542   4.844  67.021  1.00  0.00    -0.080 C  
HETATM   22  C   UNL     1      -9.962   5.081  65.633  1.00  0.00    -0.098 C  
HETATM   23  C   UNL     1      -8.449   4.995  65.667  1.00  0.00    -0.127 C  
HETATM   24  C   UNL     1      -7.816   4.472  64.598  1.00  0.00    -0.086 C  
HETATM   25  C   UNL     1      -7.686   5.584  63.584  1.00  0.00    -0.089 C  
HETATM   26  C   UNL     1      -7.474   6.975  64.126  1.00  0.00    -0.098 C  
ENDROOT
BRANCH   5  27
HETATM   27  C   UNL     1     -10.619   8.740  71.039  1.00  0.00    -0.230 C  
HETATM   28  C   UNL     1     -10.793  10.074  70.321  1.00  0.00    -0.313 C  
HETATM   29  O   UNL     1     -10.655   8.811  72.272  1.00  0.00    -0.337 OA 
HETATM   30 CL   UNL     1     -11.452   9.931  68.689  1.00  0.00    -0.045 Cl 
ENDBRANCH   5  27
TORSDOF 1
ENDMDL
MODEL       70
REMARK 921   NORMALIZED FREE ENERGY PREDICTED BY IDOCK:   -4.28 KCAL/MOL
REMARK 922        TOTAL FREE ENERGY PREDICTED BY IDOCK:   -3.24 KCAL/MOL
REMARK 923 INTER-LIGAND FREE ENERGY PREDICTED BY IDOCK:   -4.52 KCAL/MOL
REMARK 924 INTRA-LIGAND FREE ENERGY PREDICTED BY IDOCK:    1.28 KCAL/MOL
REMARK 927      BINDING AFFINITY PREDICTED BY RF-SCORE:    0.00 PKD
ROOT
HETATM    1  C   UNL     1      -8.093   6.361  67.844  1.00  0.00    -0.115 C  
HETATM    2  C   UNL     1      -6.789   6.768  67.483  1.00  0.00    -0.077 C  
HETATM    3  C   UNL     1      -7.097   7.116  68.930  1.00  0.00    -0.084 C  
HETATM    4  C   UNL     1      -5.481   7.251  69.444  1.00  0.00    -0.015 C  
HETATM    5  C   UNL     1      -8.849   6.336  69.688  1.00  0.00    -0.136 C  
HETATM    6  O   UNL     1      -9.639   5.311  68.948  1.00  0.00    -0.121 OA 
HETATM    7  C   UNL     1      -8.004  11.534  68.271  1.00  0.00    -0.142 C  
HETATM    8  C   UNL     1      -7.540   5.980  69.668  1.00  0.00    -0.089 C  
HETATM    9  C   UNL     1      -7.770   7.471  70.893  1.00  0.00    -0.090 C  
HETATM   10  C   UNL     1      -6.878   4.612  69.814  1.00  0.00    -0.044 C  
HETATM   11  C   UNL     1      -9.199  10.554  67.899  1.00  0.00    -0.143 C  
HETATM   12  C   UNL     1     -10.430  11.312  68.369  1.00  0.00    -0.219 C  
HETATM   13  H   UNL     1     -10.447   4.951  69.298  1.00  0.00     0.000 HD 
HETATM   14  C   UNL     1      -8.667   8.860  70.126  1.00  0.00    -0.161 C  
HETATM   15  O   UNL     1     -11.281  13.036  65.308  1.00  0.00    -0.285 OA 
HETATM   16  O   UNL     1      -9.990   8.843  70.680  1.00  0.00    -0.189 OA 
HETATM   17  C   UNL     1      -8.721   9.120  68.396  1.00  0.00    -0.129 C  
HETATM   18  C   UNL     1      -9.190   7.760  67.633  1.00  0.00    -0.146 C  
HETATM   19  F   UNL     1      -7.410   9.289  67.886  1.00  0.00    -0.077 F  
HETATM   20  H   UNL     1     -10.458   9.567  70.280  1.00  0.00     0.000 HD 
HETATM   21  C   UNL     1      -9.379   7.987  66.121  1.00  0.00    -0.212 C  
HETATM   22  C   UNL     1     -10.127   9.284  65.847  1.00  0.00    -0.188 C  
HETATM   23  C   UNL     1      -9.338  10.473  66.357  1.00  0.00    -0.197 C  
HETATM   24  C   UNL     1      -9.394  11.624  65.656  1.00  0.00    -0.195 C  
HETATM   25  C   UNL     1     -10.656  12.332  66.090  1.00  0.00    -0.249 C  
HETATM   26  C   UNL     1     -11.065  12.170  67.532  1.00  0.00    -0.328 C  
ENDROOT
BRANCH   5  27
HETATM   27  C   UNL     1      -9.260   5.494  71.132  1.00  0.00    -0.149 C  
HETATM   28  C   UNL     1     -10.584   5.831  71.809  1.00  0.00    -0.238 C  
HETATM   29  O   UNL     1      -8.558   4.685  71.747  1.00  0.00    -0.117 OA 
HETATM   30 CL   UNL     1     -11.848   6.356  70.693  1.00  0.00    -0.391 Cl 
ENDBRANCH   5  27
TORSDOF 1
ENDMDL
MODEL       71
REMARK 921   NORMALIZED FREE ENERGY PREDICTED BY IDOCK:   -4.22 KCAL/MOL
REMARK 922        TOTAL FREE ENERGY PREDICTED BY IDOCK:   -3.19 KCAL/MOL
REMARK 923 INTER-LIGAND FREE ENERGY PREDICTED BY IDOCK:   -4.48 KCAL/MOL
REMARK 924 INTRA-LIGAND FREE ENERGY PREDICTED BY IDOCK:    1.30 KCAL/MOL
REMARK 927      BINDING AFFINITY PREDICTED BY RF-SCORE:    0.00 PKD
ROOT
HETATM    1  C   UNL     1     -10.001   9.819  66.945  1.00  0.00    -0.270 C  
HETATM    2  C   UNL     1     -11.161  10.478  67.410  1.00  0.00    -0.322 C  
HETATM    3  C   UNL     1      -9.914  10.988  68.114  1.00  0.00    -0.190 C  
HETATM    4  C   UNL     1     -10.572  12.474  68.617  1.00  0.00    -0.240 C  
HETATM    5  C   UNL     1      -8.117  10.330  67.347  1.00  0.00    -0.110 C  
HETATM    6  O   UNL     1      -8.034   9.597  66.051  1.00  0.00    -0.106 OA 
HETATM    7  C   UNL     1     -10.440   8.632  71.980  1.00  0.00    -0.422 C  
HETATM    8  C   UNL     1      -8.917  11.414  67.188  1.00  0.00    -0.162 C  
HETATM    9  C   UNL     1      -8.045  11.521  68.921  1.00  0.00    -0.035 C  
HETATM   10  C   UNL     1      -9.041  12.398  66.028  1.00  0.00     0.023 C  
HETATM   11  C   UNL     1      -9.828   7.794  70.776  1.00  0.00    -0.183 C  
HETATM   12  C   UNL     1      -8.790   6.915  71.457  1.00  0.00    -0.132 C  
HETATM   13  H   UNL     1      -7.206   9.293  65.698  1.00  0.00     0.000 HD 
HETATM   14  C   UNL     1      -8.246   9.990  69.889  1.00  0.00    -0.159 C  
HETATM   15  O   UNL     1     -10.806   3.981  72.086  1.00  0.00     0.079 OA 
HETATM   16  O   UNL     1      -6.980   9.316  69.847  1.00  0.00    -0.052 OA 
HETATM   17  C   UNL     1      -9.559   8.863  69.628  1.00  0.00    -0.169 C  
HETATM   18  C   UNL     1      -9.654   8.457  68.054  1.00  0.00    -0.168 C  
HETATM   19  F   UNL     1     -10.804   9.510  69.825  1.00  0.00    -0.219 F  
HETATM   20  H   UNL     1      -7.085   8.517  70.352  1.00  0.00     0.000 HD 
HETATM   21  C   UNL     1     -10.711   7.365  67.807  1.00  0.00    -0.249 C  
HETATM   22  C   UNL     1     -10.620   6.261  68.850  1.00  0.00    -0.321 C  
HETATM   23  C   UNL     1     -10.898   6.812  70.234  1.00  0.00    -0.314 C  
HETATM   24  C   UNL     1     -11.551   6.025  71.114  1.00  0.00    -0.167 C  
HETATM   25  C   UNL     1     -10.515   5.116  71.733  1.00  0.00    -0.200 C  
HETATM   26  C   UNL     1      -9.138   5.695  71.938  1.00  0.00    -0.147 C  
ENDROOT
BRANCH   5  27
HETATM   27  C   UNL     1      -6.645  11.106  66.909  1.00  0.00    -0.124 C  
HETATM   28  C   UNL     1      -5.352  10.304  67.007  1.00  0.00    -0.041 C  
HETATM   29  O   UNL     1      -6.493  12.291  66.592  1.00  0.00    -0.048 OA 
HETATM   30 CL   UNL     1      -5.559   8.571  66.737  1.00  0.00    -0.036 Cl 
ENDBRANCH   5  27
TORSDOF 1
ENDMDL
MODEL       72
REMARK 921   NORMALIZED FREE ENERGY PREDICTED BY IDOCK:   -4.20 KCAL/MOL
REMARK 922        TOTAL FREE ENERGY PREDICTED BY IDOCK:   -3.16 KCAL/MOL
REMARK 923 INTER-LIGAND FREE ENERGY PREDICTED BY IDOCK:   -4.42 KCAL/MOL
REMARK 924 INTRA-LIGAND FREE ENERGY PREDICTED BY IDOCK:    1.26 KCAL/MOL
REMARK 927      BINDING AFFINITY PREDICTED BY RF-SCORE:    0.00 PKD
ROOT
HETATM    1  C   UNL     1      -9.735   7.489  66.652  1.00  0.00    -0.273 C  
HETATM    2  C   UNL     1      -9.372   8.772  67.120  1.00  0.00    -0.188 C  
HETATM    3  C   UNL     1      -8.158   7.868  66.984  1.00  0.00    -0.116 C  
HETATM    4  C   UNL     1      -7.001   9.112  66.901  1.00  0.00    -0.081 C  
HETATM    5  C   UNL     1      -8.484   6.061  66.045  1.00  0.00    -0.139 C  
HETATM    6  O   UNL     1      -9.762   5.759  65.340  1.00  0.00    -0.354 OA 
HETATM    7  C   UNL     1      -7.743   6.806  71.397  1.00  0.00    -0.093 C  
HETATM    8  C   UNL     1      -8.062   7.297  65.681  1.00  0.00    -0.133 C  
HETATM    9  C   UNL     1      -6.654   6.425  66.695  1.00  0.00    -0.048 C  
HETATM   10  C   UNL     1      -8.081   7.996  64.324  1.00  0.00    -0.117 C  
HETATM   11  C   UNL     1      -8.863   5.983  70.624  1.00  0.00    -0.142 C  
HETATM   12  C   UNL     1      -8.743   4.590  71.220  1.00  0.00    -0.137 C  
HETATM   13  H   UNL     1      -9.912   4.926  64.907  1.00  0.00     0.000 HD 
HETATM   14  C   UNL     1      -7.258   5.762  68.282  1.00  0.00    -0.076 C  
HETATM   15  O   UNL     1     -11.185   4.855  73.871  1.00  0.00    -0.263 OA 
HETATM   16  O   UNL     1      -7.343   4.339  68.120  1.00  0.00    -0.063 OA 
HETATM   17  C   UNL     1      -8.679   6.381  69.094  1.00  0.00    -0.127 C  
HETATM   18  C   UNL     1      -9.945   6.418  68.072  1.00  0.00    -0.144 C  
HETATM   19  F   UNL     1      -8.514   7.757  69.386  1.00  0.00    -0.126 F  
HETATM   20  H   UNL     1      -7.658   3.993  68.947  1.00  0.00     0.000 HD 
HETATM   21  C   UNL     1     -11.246   6.831  68.785  1.00  0.00    -0.178 C  
HETATM   22  C   UNL     1     -11.395   6.114  70.120  1.00  0.00    -0.433 C  
HETATM   23  C   UNL     1     -10.263   6.489  71.055  1.00  0.00    -0.218 C  
HETATM   24  C   UNL     1     -10.532   6.589  72.373  1.00  0.00    -0.229 C  
HETATM   25  C   UNL     1     -10.472   5.188  72.935  1.00  0.00    -0.211 C  
HETATM   26  C   UNL     1      -9.461   4.253  72.321  1.00  0.00    -0.183 C  
ENDROOT
BRANCH   5  27
HETATM   27  C   UNL     1      -7.680   5.202  64.789  1.00  0.00    -0.086 C  
HETATM   28  C   UNL     1      -7.579   3.685  64.907  1.00  0.00    -0.077 C  
HETATM   29  O   UNL     1      -7.090   5.684  63.817  1.00  0.00    -0.048 OA 
HETATM   30 CL   UNL     1      -8.923   2.940  65.777  1.00  0.00    -0.141 Cl 
ENDBRANCH   5  27
TORSDOF 1
ENDMDL
MODEL       73
REMARK 921   NORMALIZED FREE ENERGY PREDICTED BY IDOCK:   -4.17 KCAL/MOL
REMARK 922        TOTAL FREE ENERGY PREDICTED BY IDOCK:   -3.13 KCAL/MOL
REMARK 923 INTER-LIGAND FREE ENERGY PREDICTED BY IDOCK:   -4.37 KCAL/MOL
REMARK 924 INTRA-LIGAND FREE ENERGY PREDICTED BY IDOCK:    1.24 KCAL/MOL
REMARK 927      BINDING AFFINITY PREDICTED BY RF-SCORE:    0.00 PKD
ROOT
HETATM    1  C   UNL     1     -10.325  10.134  67.402  1.00  0.00    -0.289 C  
HETATM    2  C   UNL     1     -10.363  11.365  68.096  1.00  0.00    -0.206 C  
HETATM    3  C   UNL     1      -9.026  11.161  67.402  1.00  0.00    -0.139 C  
HETATM    4  C   UNL     1      -8.575  12.801  67.366  1.00  0.00    -0.194 C  
HETATM    5  C   UNL     1      -8.917   9.550  66.118  1.00  0.00    -0.158 C  
HETATM    6  O   UNL     1     -10.128   8.779  65.717  1.00  0.00    -0.420 OA 
HETATM    7  C   UNL     1      -6.670   9.856  71.079  1.00  0.00     0.086 C  
HETATM    8  C   UNL     1      -9.185  10.876  66.014  1.00  0.00    -0.210 C  
HETATM    9  C   UNL     1      -7.284  10.641  66.341  1.00  0.00    -0.134 C  
HETATM   10  C   UNL     1      -9.966  11.654  64.957  1.00  0.00    -0.297 C  
HETATM   11  C   UNL     1      -7.564   8.712  70.430  1.00  0.00    -0.075 C  
HETATM   12  C   UNL     1      -6.694   7.473  70.563  1.00  0.00    -0.047 C  
HETATM   13  H   UNL     1     -10.078   8.037  65.125  1.00  0.00     0.000 HD 
HETATM   14  C   UNL     1      -6.961   9.573  67.782  1.00  0.00    -0.080 C  
HETATM   15  O   UNL     1      -7.911   6.219  73.727  1.00  0.00    -0.094 OA 
HETATM   16  O   UNL     1      -6.523   8.310  67.261  1.00  0.00    -0.055 OA 
HETATM   17  C   UNL     1      -8.116   9.344  69.077  1.00  0.00    -0.106 C  
HETATM   18  C   UNL     1      -9.566   8.917  68.473  1.00  0.00    -0.165 C  
HETATM   19  F   UNL     1      -8.421  10.587  69.684  1.00  0.00    -0.162 F  
HETATM   20  H   UNL     1      -6.355   7.753  68.012  1.00  0.00     0.000 HD 
HETATM   21  C   UNL     1     -10.573   8.576  69.588  1.00  0.00    -0.221 C  
HETATM   22  C   UNL     1      -9.935   7.706  70.662  1.00  0.00    -0.183 C  
HETATM   23  C   UNL     1      -8.794   8.443  71.335  1.00  0.00    -0.230 C  
HETATM   24  C   UNL     1      -8.588   8.234  72.651  1.00  0.00    -0.264 C  
HETATM   25  C   UNL     1      -7.777   6.965  72.766  1.00  0.00    -0.093 C  
HETATM   26  C   UNL     1      -6.771   6.700  71.675  1.00  0.00    -0.062 C  
ENDROOT
BRANCH   5  27
HETATM   27  C   UNL     1      -8.346   9.338  64.509  1.00  0.00    -0.164 C  
HETATM   28  C   UNL     1      -7.675   8.016  64.153  1.00  0.00    -0.129 C  
HETATM   29  O   UNL     1      -8.342  10.178  63.603  1.00  0.00    -0.155 OA 
HETATM   30 CL   UNL     1      -8.275   6.634  65.075  1.00  0.00    -0.129 Cl 
ENDBRANCH   5  27
TORSDOF 1
ENDMDL
MODEL       74
REMARK 921   NORMALIZED FREE ENERGY PREDICTED BY IDOCK:   -4.10 KCAL/MOL
REMARK 922        TOTAL FREE ENERGY PREDICTED BY IDOCK:   -3.06 KCAL/MOL
REMARK 923 INTER-LIGAND FREE ENERGY PREDICTED BY IDOCK:   -4.30 KCAL/MOL
REMARK 924 INTRA-LIGAND FREE ENERGY PREDICTED BY IDOCK:    1.24 KCAL/MOL
REMARK 927      BINDING AFFINITY PREDICTED BY RF-SCORE:    0.00 PKD
ROOT
HETATM    1  C   UNL     1      -6.546   8.101  68.352  1.00  0.00    -0.059 C  
HETATM    2  C   UNL     1      -5.792   6.910  68.247  1.00  0.00    -0.021 C  
HETATM    3  C   UNL     1      -6.998   6.886  67.322  1.00  0.00    -0.078 C  
HETATM    4  C   UNL     1      -6.403   5.695  66.263  1.00  0.00    -0.039 C  
HETATM    5  C   UNL     1      -8.034   8.661  67.150  1.00  0.00    -0.100 C  
HETATM    6  O   UNL     1      -7.504   9.939  67.705  1.00  0.00    -0.089 OA 
HETATM    7  C   UNL     1      -9.658   4.256  69.927  1.00  0.00    -0.279 C  
HETATM    8  C   UNL     1      -7.041   8.031  66.473  1.00  0.00    -0.075 C  
HETATM    9  C   UNL     1      -8.718   7.112  66.132  1.00  0.00    -0.164 C  
HETATM   10  C   UNL     1      -5.956   8.584  65.553  1.00  0.00    -0.045 C  
HETATM   11  C   UNL     1      -9.605   5.782  70.369  1.00  0.00    -0.210 C  
HETATM   12  C   UNL     1     -11.036   6.071  70.795  1.00  0.00    -0.364 C  
HETATM   13  H   UNL     1      -7.982  10.757  67.625  1.00  0.00     0.000 HD 
HETATM   14  C   UNL     1      -9.600   6.693  67.671  1.00  0.00    -0.124 C  
HETATM   15  O   UNL     1     -10.771   5.343  74.326  1.00  0.00    -0.253 OA 
HETATM   16  O   UNL     1     -10.696   7.614  67.773  1.00  0.00    -0.392 OA 
HETATM   17  C   UNL     1      -8.793   6.515  69.214  1.00  0.00    -0.132 C  
HETATM   18  C   UNL     1      -7.869   7.819  69.524  1.00  0.00    -0.111 C  
HETATM   19  F   UNL     1      -7.816   5.492  69.137  1.00  0.00    -0.084 F  
HETATM   20  H   UNL     1     -11.156   7.395  68.576  1.00  0.00     0.000 HD 
HETATM   21  C   UNL     1      -7.248   7.760  70.932  1.00  0.00    -0.054 C  
HETATM   22  C   UNL     1      -8.271   7.315  71.968  1.00  0.00    -0.108 C  
HETATM   23  C   UNL     1      -8.762   5.914  71.664  1.00  0.00    -0.136 C  
HETATM   24  C   UNL     1      -9.047   5.099  72.700  1.00  0.00    -0.139 C  
HETATM   25  C   UNL     1     -10.446   5.444  73.151  1.00  0.00    -0.217 C  
HETATM   26  C   UNL     1     -11.421   5.863  72.079  1.00  0.00    -0.311 C  
ENDROOT
BRANCH   5  27
HETATM   27  C   UNL     1      -8.627   9.577  65.820  1.00  0.00    -0.138 C  
HETATM   28  C   UNL     1      -9.945  10.323  65.992  1.00  0.00    -0.245 C  
HETATM   29  O   UNL     1      -8.142   9.642  64.685  1.00  0.00    -0.126 OA 
HETATM   30 CL   UNL     1     -10.263  10.849  67.647  1.00  0.00    -0.205 Cl 
ENDBRANCH   5  27
TORSDOF 1
ENDMDL
MODEL       75
REMARK 921   NORMALIZED FREE ENERGY PREDICTED BY IDOCK:   -4.05 KCAL/MOL
REMARK 922        TOTAL FREE ENERGY PREDICTED BY IDOCK:   -3.01 KCAL/MOL
REMARK 923 INTER-LIGAND FREE ENERGY PREDICTED BY IDOCK:   -4.25 KCAL/MOL
REMARK 924 INTRA-LIGAND FREE ENERGY PREDICTED BY IDOCK:    1.25 KCAL/MOL
REMARK 927      BINDING AFFINITY PREDICTED BY RF-SCORE:    0.00 PKD
ROOT
HETATM    1  C   UNL     1      -8.089   4.144  67.358  1.00  0.00    -0.099 C  
HETATM    2  C   UNL     1      -9.309   3.506  67.037  1.00  0.00    -0.221 C  
HETATM    3  C   UNL     1      -9.316   4.964  66.608  1.00  0.00    -0.140 C  
HETATM    4  C   UNL     1     -10.558   4.818  65.454  1.00  0.00    -0.105 C  
HETATM    5  C   UNL     1      -7.511   5.951  66.748  1.00  0.00    -0.087 C  
HETATM    6  O   UNL     1      -6.238   5.228  67.025  1.00  0.00    -0.029 OA 
HETATM    7  C   UNL     1     -11.773   6.569  70.095  1.00  0.00    -0.419 C  
HETATM    8  C   UNL     1      -8.195   5.283  65.786  1.00  0.00    -0.119 C  
HETATM    9  C   UNL     1      -9.063   6.992  66.105  1.00  0.00    -0.149 C  
HETATM   10  C   UNL     1      -7.708   4.590  64.516  1.00  0.00    -0.081 C  
HETATM   11  C   UNL     1     -10.238   6.325  70.428  1.00  0.00    -0.248 C  
HETATM   12  C   UNL     1      -9.886   7.500  71.327  1.00  0.00    -0.188 C  
HETATM   13  H   UNL     1      -5.406   5.683  67.090  1.00  0.00     0.000 HD 
HETATM   14  C   UNL     1      -9.406   7.271  67.874  1.00  0.00    -0.129 C  
HETATM   15  O   UNL     1     -10.522   6.000  74.554  1.00  0.00    -0.258 OA 
HETATM   16  O   UNL     1      -8.444   8.235  68.325  1.00  0.00    -0.133 OA 
HETATM   17  C   UNL     1      -9.568   5.967  69.030  1.00  0.00    -0.129 C  
HETATM   18  C   UNL     1      -8.290   4.964  68.936  1.00  0.00    -0.082 C  
HETATM   19  F   UNL     1     -10.627   5.106  68.649  1.00  0.00    -0.241 F  
HETATM   20  H   UNL     1      -8.623   8.380  69.248  1.00  0.00     0.000 HD 
HETATM   21  C   UNL     1      -8.331   3.879  70.029  1.00  0.00    -0.079 C  
HETATM   22  C   UNL     1      -8.709   4.470  71.380  1.00  0.00    -0.140 C  
HETATM   23  C   UNL     1     -10.099   5.070  71.328  1.00  0.00    -0.276 C  
HETATM   24  C   UNL     1     -10.874   4.982  72.429  1.00  0.00    -0.234 C  
HETATM   25  C   UNL     1     -10.466   6.118  73.338  1.00  0.00    -0.253 C  
HETATM   26  C   UNL     1     -10.044   7.403  72.671  1.00  0.00    -0.255 C  
ENDROOT
BRANCH   5  27
HETATM   27  C   UNL     1      -6.613   6.961  65.684  1.00  0.00    -0.051 C  
HETATM   28  C   UNL     1      -5.764   8.072  66.293  1.00  0.00    -0.040 C  
HETATM   29  O   UNL     1      -6.634   6.948  64.448  1.00  0.00    -0.041 OA 
HETATM   30 CL   UNL     1      -5.144   7.701  67.904  1.00  0.00    -0.028 Cl 
ENDBRANCH   5  27
TORSDOF 1
ENDMDL
MODEL       76
REMARK 921   NORMALIZED FREE ENERGY PREDICTED BY IDOCK:   -4.00 KCAL/MOL
REMARK 922        TOTAL FREE ENERGY PREDICTED BY IDOCK:   -2.95 KCAL/MOL
REMARK 923 INTER-LIGAND FREE ENERGY PREDICTED BY IDOCK:   -4.74 KCAL/MOL
REMARK 924 INTRA-LIGAND FREE ENERGY PREDICTED BY IDOCK:    1.79 KCAL/MOL
REMARK 927      BINDING AFFINITY PREDICTED BY RF-SCORE:    0.00 PKD
ROOT
HETATM    1  C   UNL     1      -9.078  13.986  66.529  1.00  0.00    -0.173 C  
HETATM    2  C   UNL     1      -9.433  13.364  65.311  1.00  0.00     0.306 C  
HETATM    3  C   UNL     1     -10.663  13.720  66.130  1.00  0.00    -0.283 C  
HETATM    4  C   UNL     1     -11.766  13.707  64.836  1.00  0.00    -0.379 C  
HETATM    5  C   UNL     1     -10.325  14.885  67.798  1.00  0.00    -0.244 C  
HETATM    6  O   UNL     1      -9.005  15.530  68.054  1.00  0.00    -0.172 OA 
HETATM    7  C   UNL     1     -11.465   9.551  67.790  1.00  0.00     0.754 C  
HETATM    8  C   UNL     1     -10.673  15.096  66.504  1.00  0.00    -0.310 C  
HETATM    9  C   UNL     1     -12.187  14.326  67.448  1.00  0.00    -0.267 C  
HETATM   10  C   UNL     1     -10.523  16.332  65.621  1.00  0.00    -0.386 C  
HETATM   11  C   UNL     1     -10.316  10.350  68.544  1.00  0.00    -0.197 C  
HETATM   12  C   UNL     1     -10.530   9.975  70.001  1.00  0.00    -0.337 C  
HETATM   13  H   UNL     1      -8.850  16.067  68.822  1.00  0.00     0.000 HD 
HETATM   14  C   UNL     1     -11.735  12.813  68.357  1.00  0.00    -0.339 C  
HETATM   15  O   UNL     1      -8.300   7.139  70.227  1.00  0.00    -0.132 OA 
HETATM   16  O   UNL     1     -11.685  13.173  69.745  1.00  0.00    -0.338 OA 
HETATM   17  C   UNL     1     -10.363  11.816  67.925  1.00  0.00    -0.193 C  
HETATM   18  C   UNL     1      -9.019  12.725  67.799  1.00  0.00    -0.190 C  
HETATM   19  F   UNL     1     -10.504  11.340  66.598  1.00  0.00    -0.245 F  
HETATM   20  H   UNL     1     -11.450  12.384  70.219  1.00  0.00     0.000 HD 
HETATM   21  C   UNL     1      -7.766  11.865  67.552  1.00  0.00    -0.151 C  
HETATM   22  C   UNL     1      -7.748  10.642  68.458  1.00  0.00    -0.107 C  
HETATM   23  C   UNL     1      -8.937   9.748  68.168  1.00  0.00    -0.119 C  
HETATM   24  C   UNL     1      -8.772   8.413  68.270  1.00  0.00    -0.143 C  
HETATM   25  C   UNL     1      -8.924   8.068  69.732  1.00  0.00    -0.145 C  
HETATM   26  C   UNL     1      -9.914   8.885  70.523  1.00  0.00    -0.243 C  
ENDROOT
BRANCH   5  27
HETATM   27  C   UNL     1     -11.054  16.308  68.432  1.00  0.00    -0.362 C  
HETATM   28  C   UNL     1     -11.533  16.287  69.880  1.00  0.00    -0.196 C  
HETATM   29  O   UNL     1     -11.316  17.348  67.818  1.00  0.00     0.006 OA 
HETATM   30 CL   UNL     1     -10.596  15.222  70.931  1.00  0.00    -0.150 Cl 
ENDBRANCH   5  27
TORSDOF 1
ENDMDL
MODEL       77
REMARK 921   NORMALIZED FREE ENERGY PREDICTED BY IDOCK:   -3.98 KCAL/MOL
REMARK 922        TOTAL FREE ENERGY PREDICTED BY IDOCK:   -2.93 KCAL/MOL
REMARK 923 INTER-LIGAND FREE ENERGY PREDICTED BY IDOCK:   -4.23 KCAL/MOL
REMARK 924 INTRA-LIGAND FREE ENERGY PREDICTED BY IDOCK:    1.30 KCAL/MOL
REMARK 927      BINDING AFFINITY PREDICTED BY RF-SCORE:    0.00 PKD
ROOT
HETATM    1  C   UNL     1     -10.137   4.645  70.010  1.00  0.00    -0.267 C  
HETATM    2  C   UNL     1      -9.509   3.558  69.362  1.00  0.00    -0.234 C  
HETATM    3  C   UNL     1      -8.600   4.180  70.409  1.00  0.00    -0.107 C  
HETATM    4  C   UNL     1      -7.585   2.829  70.609  1.00  0.00    -0.039 C  
HETATM    5  C   UNL     1      -9.473   5.590  71.634  1.00  0.00    -0.147 C  
HETATM    6  O   UNL     1     -10.946   5.816  71.651  1.00  0.00    -0.258 OA 
HETATM    7  C   UNL     1      -6.007   6.598  67.545  1.00  0.00    -0.020 C  
HETATM    8  C   UNL     1      -9.231   4.257  71.685  1.00  0.00    -0.186 C  
HETATM    9  C   UNL     1      -7.555   5.210  71.917  1.00  0.00    -0.096 C  
HETATM   10  C   UNL     1      -9.914   3.151  72.486  1.00  0.00    -0.228 C  
HETATM   11  C   UNL     1      -7.412   7.262  67.882  1.00  0.00    -0.102 C  
HETATM   12  C   UNL     1      -7.081   8.743  67.981  1.00  0.00    -0.079 C  
HETATM   13  H   UNL     1     -11.348   6.466  72.215  1.00  0.00     0.000 HD 
HETATM   14  C   UNL     1      -7.280   6.449  70.609  1.00  0.00    -0.074 C  
HETATM   15  O   UNL     1      -7.761   9.739  64.573  1.00  0.00    -0.125 OA 
HETATM   16  O   UNL     1      -7.521   7.730  71.207  1.00  0.00    -0.074 OA 
HETATM   17  C   UNL     1      -8.030   6.350  69.030  1.00  0.00    -0.111 C  
HETATM   18  C   UNL     1      -9.638   6.150  69.179  1.00  0.00    -0.154 C  
HETATM   19  F   UNL     1      -7.656   5.144  68.388  1.00  0.00    -0.074 F  
HETATM   20  H   UNL     1      -7.378   8.376  70.525  1.00  0.00     0.000 HD 
HETATM   21  C   UNL     1     -10.350   6.193  67.813  1.00  0.00    -0.247 C  
HETATM   22  C   UNL     1      -9.823   7.332  66.951  1.00  0.00    -0.279 C  
HETATM   23  C   UNL     1      -8.349   7.137  66.654  1.00  0.00    -0.114 C  
HETATM   24  C   UNL     1      -7.885   7.527  65.450  1.00  0.00    -0.117 C  
HETATM   25  C   UNL     1      -7.623   9.012  65.547  1.00  0.00    -0.090 C  
HETATM   26  C   UNL     1      -7.137   9.530  66.877  1.00  0.00    -0.086 C  
ENDROOT
BRANCH   5  27
HETATM   27  C   UNL     1      -9.494   5.851  73.334  1.00  0.00    -0.138 C  
HETATM   28  C   UNL     1      -9.664   7.279  73.841  1.00  0.00    -0.277 C  
HETATM   29  O   UNL     1      -9.304   5.010  74.220  1.00  0.00    -0.120 OA 
HETATM   30 CL   UNL     1     -10.613   8.314  72.769  1.00  0.00    -0.387 Cl 
ENDBRANCH   5  27
TORSDOF 1
ENDMDL
MODEL       78
REMARK 921   NORMALIZED FREE ENERGY PREDICTED BY IDOCK:   -3.97 KCAL/MOL
REMARK 922        TOTAL FREE ENERGY PREDICTED BY IDOCK:   -2.92 KCAL/MOL
REMARK 923 INTER-LIGAND FREE ENERGY PREDICTED BY IDOCK:   -4.16 KCAL/MOL
REMARK 924 INTRA-LIGAND FREE ENERGY PREDICTED BY IDOCK:    1.24 KCAL/MOL
REMARK 927      BINDING AFFINITY PREDICTED BY RF-SCORE:    0.00 PKD
ROOT
HETATM    1  C   UNL     1      -9.594   8.307  70.763  1.00  0.00    -0.196 C  
HETATM    2  C   UNL     1     -10.878   8.625  70.267  1.00  0.00    -0.250 C  
HETATM    3  C   UNL     1     -10.790   7.166  70.682  1.00  0.00    -0.268 C  
HETATM    4  C   UNL     1     -12.463   6.918  70.868  1.00  0.00    -0.314 C  
HETATM    5  C   UNL     1      -9.074   6.619  71.687  1.00  0.00    -0.142 C  
HETATM    6  O   UNL     1      -8.096   7.629  72.181  1.00  0.00    -0.097 OA 
HETATM    7  C   UNL     1     -10.275   5.420  66.503  1.00  0.00    -0.287 C  
HETATM    8  C   UNL     1     -10.326   7.020  72.022  1.00  0.00    -0.220 C  
HETATM    9  C   UNL     1     -10.408   5.203  71.338  1.00  0.00    -0.273 C  
HETATM   10  C   UNL     1     -10.855   7.671  73.297  1.00  0.00    -0.379 C  
HETATM   11  C   UNL     1      -8.947   6.028  67.131  1.00  0.00    -0.114 C  
HETATM   12  C   UNL     1      -7.870   5.056  66.675  1.00  0.00    -0.100 C  
HETATM   13  H   UNL     1      -7.305   7.377  72.644  1.00  0.00     0.000 HD 
HETATM   14  C   UNL     1      -9.572   5.036  69.727  1.00  0.00    -0.170 C  
HETATM   15  O   UNL     1      -6.829   6.698  63.627  1.00  0.00    -0.049 OA 
HETATM   16  O   UNL     1      -8.334   4.358  69.981  1.00  0.00    -0.062 OA 
HETATM   17  C   UNL     1      -9.331   6.382  68.634  1.00  0.00    -0.124 C  
HETATM   18  C   UNL     1      -8.631   7.627  69.416  1.00  0.00    -0.136 C  
HETATM   19  F   UNL     1     -10.578   6.945  68.271  1.00  0.00    -0.185 F  
HETATM   20  H   UNL     1      -7.898   4.270  69.141  1.00  0.00     0.000 HD 
HETATM   21  C   UNL     1      -8.281   8.781  68.458  1.00  0.00    -0.117 C  
HETATM   22  C   UNL     1      -7.643   8.260  67.177  1.00  0.00    -0.093 C  
HETATM   23  C   UNL     1      -8.610   7.367  66.426  1.00  0.00    -0.138 C  
HETATM   24  C   UNL     1      -8.587   7.394  65.078  1.00  0.00     0.086 C  
HETATM   25  C   UNL     1      -7.470   6.473  64.645  1.00  0.00    -0.089 C  
HETATM   26  C   UNL     1      -7.229   5.252  65.496  1.00  0.00    -0.068 C  
ENDROOT
BRANCH   5  27
HETATM   27  C   UNL     1      -8.761   5.729  73.125  1.00  0.00    -0.122 C  
HETATM   28  C   UNL     1      -7.524   4.839  73.165  1.00  0.00    -0.087 C  
HETATM   29  O   UNL     1      -9.479   5.659  74.129  1.00  0.00    -0.133 OA 
HETATM   30 CL   UNL     1      -6.187   5.422  72.170  1.00  0.00    -0.033 Cl 
ENDBRANCH   5  27
TORSDOF 1
ENDMDL
MODEL       79
REMARK 921   NORMALIZED FREE ENERGY PREDICTED BY IDOCK:   -3.90 KCAL/MOL
REMARK 922        TOTAL FREE ENERGY PREDICTED BY IDOCK:   -2.85 KCAL/MOL
REMARK 923 INTER-LIGAND FREE ENERGY PREDICTED BY IDOCK:   -5.40 KCAL/MOL
REMARK 924 INTRA-LIGAND FREE ENERGY PREDICTED BY IDOCK:    2.55 KCAL/MOL
REMARK 927      BINDING AFFINITY PREDICTED BY RF-SCORE:    0.00 PKD
ROOT
HETATM    1  C   UNL     1      -8.316  16.338  67.038  1.00  0.00    -0.237 C  
HETATM    2  C   UNL     1      -8.792  16.063  65.737  1.00  0.00     0.008 C  
HETATM    3  C   UNL     1      -9.809  16.854  66.543  1.00  0.00    -0.307 C  
HETATM    4  C   UNL     1     -10.676  17.464  65.214  1.00  0.00     0.029 C  
HETATM    5  C   UNL     1      -9.150  17.576  68.359  1.00  0.00    -0.276 C  
HETATM    6  O   UNL     1      -7.712  17.530  68.750  1.00  0.00    -0.266 OA 
HETATM    7  C   UNL     1     -12.524  13.355  67.620  1.00  0.00     0.215 C  
HETATM    8  C   UNL     1      -9.245  18.045  67.090  1.00  0.00    -0.256 C  
HETATM    9  C   UNL     1     -11.025  17.952  67.864  1.00  0.00    -0.080 C  
HETATM   10  C   UNL     1      -8.481  19.159  66.379  1.00  0.00    -0.325 C  
HETATM   11  C   UNL     1     -11.217  13.475  68.517  1.00  0.00    -0.310 C  
HETATM   12  C   UNL     1     -11.712  13.098  69.904  1.00  0.00    -0.327 C  
HETATM   13  H   UNL     1      -7.408  17.863  69.587  1.00  0.00     0.000 HD 
HETATM   14  C   UNL     1     -11.377  16.318  68.589  1.00  0.00    -0.333 C  
HETATM   15  O   UNL     1     -10.999   9.555  69.856  1.00  0.00    -0.231 OA 
HETATM   16  O   UNL     1     -11.304  16.482  70.012  1.00  0.00    -0.407 OA 
HETATM   17  C   UNL     1     -10.553  14.856  68.090  1.00  0.00    -0.244 C  
HETATM   18  C   UNL     1      -8.940  15.071  68.138  1.00  0.00    -0.173 C  
HETATM   19  F   UNL     1     -10.764  14.625  66.708  1.00  0.00    -0.282 F  
HETATM   20  H   UNL     1     -11.488  15.630  70.391  1.00  0.00     0.000 HD 
HETATM   21  C   UNL     1      -8.179  13.766  67.834  1.00  0.00    -0.166 C  
HETATM   22  C   UNL     1      -8.790  12.585  68.575  1.00  0.00    -0.046 C  
HETATM   23  C   UNL     1     -10.219  12.356  68.125  1.00  0.00    -0.225 C  
HETATM   24  C   UNL     1     -10.671  11.087  68.061  1.00  0.00    -0.260 C  
HETATM   25  C   UNL     1     -11.098  10.708  69.460  1.00  0.00    -0.274 C  
HETATM   26  C   UNL     1     -11.695  11.803  70.307  1.00  0.00    -0.317 C  
ENDROOT
BRANCH   5  27
HETATM   27  C   UNL     1      -9.230  19.107  69.140  1.00  0.00    -0.157 C  
HETATM   28  C   UNL     1      -7.951  19.673  69.748  1.00  0.00     0.481 C  
HETATM   29  O   UNL     1     -10.242  19.787  69.344  1.00  0.00    -0.347 OA 
HETATM   30 CL   UNL     1      -6.478  19.176  68.911  1.00  0.00    -0.284 Cl 
ENDBRANCH   5  27
TORSDOF 1
ENDMDL
MODEL       80
REMARK 921   NORMALIZED FREE ENERGY PREDICTED BY IDOCK:   -3.69 KCAL/MOL
REMARK 922        TOTAL FREE ENERGY PREDICTED BY IDOCK:   -2.62 KCAL/MOL
REMARK 923 INTER-LIGAND FREE ENERGY PREDICTED BY IDOCK:   -3.98 KCAL/MOL
REMARK 924 INTRA-LIGAND FREE ENERGY PREDICTED BY IDOCK:    1.36 KCAL/MOL
REMARK 927      BINDING AFFINITY PREDICTED BY RF-SCORE:    0.00 PKD
ROOT
HETATM    1  C   UNL     1      -6.394  17.443  67.295  1.00  0.00    -0.172 C  
HETATM    2  C   UNL     1      -6.935  17.425  65.990  1.00  0.00    -0.246 C  
HETATM    3  C   UNL     1      -7.467  18.600  66.794  1.00  0.00    -0.240 C  
HETATM    4  C   UNL     1      -7.938  19.547  65.461  1.00  0.00     0.234 C  
HETATM    5  C   UNL     1      -6.559  18.927  68.616  1.00  0.00    -0.264 C  
HETATM    6  O   UNL     1      -5.313  18.211  69.014  1.00  0.00    -0.184 OA 
HETATM    7  C   UNL     1     -11.515  16.785  67.841  1.00  0.00     0.213 C  
HETATM    8  C   UNL     1      -6.415  19.386  67.348  1.00  0.00    -0.211 C  
HETATM    9  C   UNL     1      -8.034  20.140  68.111  1.00  0.00    -0.186 C  
HETATM   10  C   UNL     1      -5.212  20.012  66.646  1.00  0.00    -0.172 C  
HETATM   11  C   UNL     1     -10.310  16.276  68.746  1.00  0.00    -0.261 C  
HETATM   12  C   UNL     1     -10.934  16.175  70.129  1.00  0.00    -0.359 C  
HETATM   13  H   UNL     1      -4.895  18.362  69.854  1.00  0.00     0.000 HD 
HETATM   14  C   UNL     1      -9.117  18.861  68.828  1.00  0.00    -0.313 C  
HETATM   15  O   UNL     1     -11.966  12.711  70.071  1.00  0.00    -0.339 OA 
HETATM   16  O   UNL     1      -8.986  18.971  70.253  1.00  0.00     1.360 OA 
HETATM   17  C   UNL     1      -9.073  17.184  68.328  1.00  0.00    -0.259 C  
HETATM   18  C   UNL     1      -7.548  16.616  68.386  1.00  0.00    -0.197 C  
HETATM   19  F   UNL     1      -9.358  17.080  66.944  1.00  0.00    -0.226 F  
HETATM   20  H   UNL     1      -9.550  18.304  70.627  1.00  0.00     0.000 HD 
HETATM   21  C   UNL     1      -7.487  15.108  68.081  1.00  0.00    -0.118 C  
HETATM   22  C   UNL     1      -8.585  14.351  68.815  1.00  0.00    -0.125 C  
HETATM   23  C   UNL     1      -9.952  14.819  68.355  1.00  0.00    -0.223 C  
HETATM   24  C   UNL     1     -10.946  13.911  68.284  1.00  0.00    -0.274 C  
HETATM   25  C   UNL     1     -11.510  13.776  69.679  1.00  0.00    -0.237 C  
HETATM   26  C   UNL     1     -11.529  15.022  70.527  1.00  0.00    -0.333 C  
ENDROOT
BRANCH   5  27
HETATM   27  C   UNL     1      -5.917  20.316  69.402  1.00  0.00    -0.340 C  
HETATM   28  C   UNL     1      -5.868  20.321  70.926  1.00  0.00    -0.289 C  
HETATM   29  O   UNL     1      -5.553  21.371  68.871  1.00  0.00    -0.250 OA 
HETATM   30 CL   UNL     1      -5.671  18.720  71.644  1.00  0.00     0.032 Cl 
ENDBRANCH   5  27
TORSDOF 1
ENDMDL
MODEL       81
REMARK 921   NORMALIZED FREE ENERGY PREDICTED BY IDOCK:   -3.49 KCAL/MOL
REMARK 922        TOTAL FREE ENERGY PREDICTED BY IDOCK:   -2.41 KCAL/MOL
REMARK 923 INTER-LIGAND FREE ENERGY PREDICTED BY IDOCK:   -3.65 KCAL/MOL
REMARK 924 INTRA-LIGAND FREE ENERGY PREDICTED BY IDOCK:    1.24 KCAL/MOL
REMARK 927      BINDING AFFINITY PREDICTED BY RF-SCORE:    0.00 PKD
ROOT
HETATM    1  C   UNL     1      -6.957   4.486  67.586  1.00  0.00    -0.060 C  
HETATM    2  C   UNL     1      -7.436   3.277  68.140  1.00  0.00    -0.053 C  
HETATM    3  C   UNL     1      -8.520   3.993  67.351  1.00  0.00    -0.102 C  
HETATM    4  C   UNL     1      -9.503   2.629  67.092  1.00  0.00    -0.031 C  
HETATM    5  C   UNL     1      -7.901   5.623  66.249  1.00  0.00    -0.100 C  
HETATM    6  O   UNL     1      -6.457   5.936  66.050  1.00  0.00    -0.040 OA 
HETATM    7  C   UNL     1     -10.721   5.791  70.914  1.00  0.00    -0.333 C  
HETATM    8  C   UNL     1      -8.098   4.300  66.024  1.00  0.00    -0.102 C  
HETATM    9  C   UNL     1      -9.824   5.174  66.196  1.00  0.00    -0.204 C  
HETATM   10  C   UNL     1      -7.508   3.371  64.965  1.00  0.00    -0.073 C  
HETATM   11  C   UNL     1      -9.412   6.582  70.481  1.00  0.00    -0.173 C  
HETATM   12  C   UNL     1      -9.808   8.038  70.668  1.00  0.00    -0.192 C  
HETATM   13  H   UNL     1      -6.172   6.687  65.542  1.00  0.00     0.000 HD 
HETATM   14  C   UNL     1      -9.937   6.183  67.710  1.00  0.00    -0.127 C  
HETATM   15  O   UNL     1      -8.642   8.549  74.052  1.00  0.00    -0.245 OA 
HETATM   16  O   UNL     1      -9.840   7.552  67.293  1.00  0.00    -0.152 OA 
HETATM   17  C   UNL     1      -8.947   5.892  69.125  1.00  0.00    -0.119 C  
HETATM   18  C   UNL     1      -7.375   5.815  68.710  1.00  0.00    -0.084 C  
HETATM   19  F   UNL     1      -9.171   4.583  69.616  1.00  0.00    -0.132 F  
HETATM   20  H   UNL     1      -9.898   8.078  68.083  1.00  0.00     0.000 HD 
HETATM   21  C   UNL     1      -6.462   5.694  69.944  1.00  0.00    -0.038 C  
HETATM   22  C   UNL     1      -6.889   6.657  71.043  1.00  0.00    -0.062 C  
HETATM   23  C   UNL     1      -8.290   6.330  71.521  1.00  0.00    -0.126 C  
HETATM   24  C   UNL     1      -8.576   6.506  72.827  1.00  0.00    -0.124 C  
HETATM   25  C   UNL     1      -8.904   7.969  73.006  1.00  0.00    -0.239 C  
HETATM   26  C   UNL     1      -9.609   8.652  71.862  1.00  0.00    -0.377 C  
ENDROOT
BRANCH   5  27
HETATM   27  C   UNL     1      -8.154   6.138  64.627  1.00  0.00    -0.126 C  
HETATM   28  C   UNL     1      -8.239   7.635  64.353  1.00  0.00    -0.028 C  
HETATM   29  O   UNL     1      -8.361   5.421  63.641  1.00  0.00    -0.124 OA 
HETATM   30 CL   UNL     1      -7.285   8.624  65.462  1.00  0.00    -0.082 Cl 
ENDBRANCH   5  27
TORSDOF 1
ENDMDL
MODEL       82
REMARK 921   NORMALIZED FREE ENERGY PREDICTED BY IDOCK:   -3.48 KCAL/MOL
REMARK 922        TOTAL FREE ENERGY PREDICTED BY IDOCK:   -2.40 KCAL/MOL
REMARK 923 INTER-LIGAND FREE ENERGY PREDICTED BY IDOCK:   -5.16 KCAL/MOL
REMARK 924 INTRA-LIGAND FREE ENERGY PREDICTED BY IDOCK:    2.76 KCAL/MOL
REMARK 927      BINDING AFFINITY PREDICTED BY RF-SCORE:    0.00 PKD
ROOT
HETATM    1  C   UNL     1      -9.938  10.040  69.312  1.00  0.00    -0.226 C  
HETATM    2  C   UNL     1      -8.779  10.139  70.116  1.00  0.00     0.090 C  
HETATM    3  C   UNL     1      -8.435  10.202  68.637  1.00  0.00    -0.122 C  
HETATM    4  C   UNL     1      -6.923  10.958  68.824  1.00  0.00    -0.078 C  
HETATM    5  C   UNL     1     -10.037  10.358  67.347  1.00  0.00    -0.196 C  
HETATM    6  O   UNL     1     -11.419  10.627  67.837  1.00  0.00    -0.474 OA 
HETATM    7  C   UNL     1      -7.025   5.890  68.196  1.00  0.00    -0.069 C  
HETATM    8  C   UNL     1      -9.180  11.212  67.960  1.00  0.00    -0.159 C  
HETATM    9  C   UNL     1      -8.234  10.278  66.543  1.00  0.00    -0.127 C  
HETATM   10  C   UNL     1      -9.326  12.692  68.307  1.00  0.00    -0.195 C  
HETATM   11  C   UNL     1      -8.604   6.072  68.182  1.00  0.00    -0.114 C  
HETATM   12  C   UNL     1      -9.060   5.066  67.137  1.00  0.00    -0.115 C  
HETATM   13  H   UNL     1     -12.157  10.698  67.242  1.00  0.00     0.000 HD 
HETATM   14  C   UNL     1      -8.439   8.470  66.654  1.00  0.00    -0.113 C  
HETATM   15  O   UNL     1      -9.701   2.224  69.277  1.00  0.00    -0.037 OA 
HETATM   16  O   UNL     1      -9.353   8.102  65.611  1.00  0.00    -0.413 OA 
HETATM   17  C   UNL     1      -8.835   7.646  68.147  1.00  0.00    -0.125 C  
HETATM   18  C   UNL     1     -10.141   8.326  68.840  1.00  0.00    -0.208 C  
HETATM   19  F   UNL     1      -7.839   7.897  69.122  1.00  0.00    -0.099 F  
HETATM   20  H   UNL     1      -9.460   7.159  65.669  1.00  0.00     0.000 HD 
HETATM   21  C   UNL     1     -10.601   7.545  70.085  1.00  0.00    -0.241 C  
HETATM   22  C   UNL     1     -10.597   6.044  69.829  1.00  0.00    -0.356 C  
HETATM   23  C   UNL     1      -9.194   5.560  69.521  1.00  0.00    -0.151 C  
HETATM   24  C   UNL     1      -8.832   4.336  69.955  1.00  0.00    -0.126 C  
HETATM   25  C   UNL     1      -9.349   3.346  68.939  1.00  0.00    -0.168 C  
HETATM   26  C   UNL     1      -9.355   3.792  67.498  1.00  0.00    -0.238 C  
ENDROOT
BRANCH   5  27
HETATM   27  C   UNL     1     -10.400  11.372  66.006  1.00  0.00    -0.249 C  
HETATM   28  C   UNL     1     -11.677  12.205  66.060  1.00  0.00    -0.321 C  
HETATM   29  O   UNL     1      -9.778  11.451  64.941  1.00  0.00    -0.240 OA 
HETATM   30 CL   UNL     1     -12.157  12.679  67.691  1.00  0.00    -0.294 Cl 
ENDBRANCH   5  27
TORSDOF 1
ENDMDL
MODEL       83
REMARK 921   NORMALIZED FREE ENERGY PREDICTED BY IDOCK:   -3.40 KCAL/MOL
REMARK 922        TOTAL FREE ENERGY PREDICTED BY IDOCK:   -2.31 KCAL/MOL
REMARK 923 INTER-LIGAND FREE ENERGY PREDICTED BY IDOCK:   -3.57 KCAL/MOL
REMARK 924 INTRA-LIGAND FREE ENERGY PREDICTED BY IDOCK:    1.25 KCAL/MOL
REMARK 927      BINDING AFFINITY PREDICTED BY RF-SCORE:    0.00 PKD
ROOT
HETATM    1  C   UNL     1      -9.717   5.986  72.760  1.00  0.00    -0.164 C  
HETATM    2  C   UNL     1     -10.778   5.378  72.053  1.00  0.00    -0.281 C  
HETATM    3  C   UNL     1      -9.432   4.820  71.619  1.00  0.00    -0.206 C  
HETATM    4  C   UNL     1     -10.028   3.366  70.968  1.00  0.00    -0.013 C  
HETATM    5  C   UNL     1      -7.812   5.399  72.756  1.00  0.00    -0.099 C  
HETATM    6  O   UNL     1      -7.975   6.120  74.050  1.00  0.00    -0.100 OA 
HETATM    7  C   UNL     1      -9.039   7.219  67.763  1.00  0.00    -0.124 C  
HETATM    8  C   UNL     1      -8.670   4.348  72.727  1.00  0.00    -0.111 C  
HETATM    9  C   UNL     1      -7.458   4.214  71.215  1.00  0.00    -0.055 C  
HETATM   10  C   UNL     1      -9.075   3.363  73.821  1.00  0.00    -0.092 C  
HETATM   11  C   UNL     1      -8.661   8.024  69.081  1.00  0.00    -0.137 C  
HETATM   12  C   UNL     1      -7.470   8.862  68.646  1.00  0.00    -0.088 C  
HETATM   13  H   UNL     1      -7.228   6.386  74.574  1.00  0.00     0.000 HD 
HETATM   14  C   UNL     1      -7.390   5.758  70.248  1.00  0.00    -0.076 C  
HETATM   15  O   UNL     1      -9.190  11.881  67.650  1.00  0.00    -0.173 OA 
HETATM   16  O   UNL     1      -6.136   6.379  70.565  1.00  0.00    -0.029 OA 
HETATM   17  C   UNL     1      -8.683   6.938  70.244  1.00  0.00    -0.144 C  
HETATM   18  C   UNL     1      -9.090   7.338  71.768  1.00  0.00    -0.141 C  
HETATM   19  F   UNL     1      -9.883   6.344  69.780  1.00  0.00    -0.163 F  
HETATM   20  H   UNL     1      -6.100   7.184  70.061  1.00  0.00     0.000 HD 
HETATM   21  C   UNL     1     -10.132   8.472  71.804  1.00  0.00    -0.351 C  
HETATM   22  C   UNL     1      -9.779   9.577  70.819  1.00  0.00    -0.289 C  
HETATM   23  C   UNL     1      -9.782   9.046  69.400  1.00  0.00    -0.169 C  
HETATM   24  C   UNL     1     -10.203   9.865  68.414  1.00  0.00    -0.203 C  
HETATM   25  C   UNL     1      -9.025  10.733  68.039  1.00  0.00    -0.139 C  
HETATM   26  C   UNL     1      -7.660  10.098  68.120  1.00  0.00    -0.087 C  
ENDROOT
BRANCH   5  27
HETATM   27  C   UNL     1      -6.497   4.559  73.482  1.00  0.00    -0.051 C  
HETATM   28  C   UNL     1      -5.130   5.233  73.489  1.00  0.00    -0.013 C  
HETATM   29  O   UNL     1      -6.508   3.411  73.940  1.00  0.00    -0.027 OA 
HETATM   30 CL   UNL     1      -5.198   6.996  73.542  1.00  0.00    -0.041 Cl 
ENDBRANCH   5  27
TORSDOF 1
ENDMDL
MODEL       84
REMARK 921   NORMALIZED FREE ENERGY PREDICTED BY IDOCK:   -3.39 KCAL/MOL
REMARK 922        TOTAL FREE ENERGY PREDICTED BY IDOCK:   -2.31 KCAL/MOL
REMARK 923 INTER-LIGAND FREE ENERGY PREDICTED BY IDOCK:   -3.55 KCAL/MOL
REMARK 924 INTRA-LIGAND FREE ENERGY PREDICTED BY IDOCK:    1.24 KCAL/MOL
REMARK 927      BINDING AFFINITY PREDICTED BY RF-SCORE:    0.00 PKD
ROOT
HETATM    1  C   UNL     1     -10.056   8.517  70.588  1.00  0.00    -0.225 C  
HETATM    2  C   UNL     1     -11.171   7.996  69.894  1.00  0.00    -0.040 C  
HETATM    3  C   UNL     1     -10.179   6.901  70.250  1.00  0.00    -0.208 C  
HETATM    4  C   UNL     1     -11.274   5.605  70.134  1.00  0.00    -0.056 C  
HETATM    5  C   UNL     1      -8.643   7.455  71.509  1.00  0.00    -0.117 C  
HETATM    6  O   UNL     1      -8.635   8.771  72.211  1.00  0.00    -0.377 OA 
HETATM    7  C   UNL     1      -8.224   6.549  66.147  1.00  0.00    -0.123 C  
HETATM    8  C   UNL     1      -9.870   6.894  71.642  1.00  0.00    -0.173 C  
HETATM    9  C   UNL     1      -8.659   5.585  70.872  1.00  0.00    -0.129 C  
HETATM   10  C   UNL     1     -10.822   6.849  72.835  1.00  0.00    -0.318 C  
HETATM   11  C   UNL     1      -7.705   7.771  67.022  1.00  0.00    -0.104 C  
HETATM   12  C   UNL     1      -6.216   7.810  66.714  1.00  0.00    -0.049 C  
HETATM   13  H   UNL     1      -7.927   9.026  72.791  1.00  0.00     0.000 HD 
HETATM   14  C   UNL     1      -7.768   6.240  69.423  1.00  0.00    -0.100 C  
HETATM   15  O   UNL     1      -6.230  10.163  63.970  1.00  0.00    -0.127 OA 
HETATM   16  O   UNL     1      -6.425   6.498  69.855  1.00  0.00    -0.040 OA 
HETATM   17  C   UNL     1      -8.373   7.565  68.451  1.00  0.00    -0.125 C  
HETATM   18  C   UNL     1      -8.757   8.832  69.397  1.00  0.00    -0.142 C  
HETATM   19  F   UNL     1      -9.636   7.231  67.904  1.00  0.00    -0.137 F  
HETATM   20  H   UNL     1      -5.961   6.840  69.099  1.00  0.00     0.000 HD 
HETATM   21  C   UNL     1      -9.167  10.063  68.568  1.00  0.00    -0.141 C  
HETATM   22  C   UNL     1      -8.222  10.277  67.394  1.00  0.00    -0.114 C  
HETATM   23  C   UNL     1      -8.272   9.095  66.447  1.00  0.00    -0.114 C  
HETATM   24  C   UNL     1      -8.139   9.329  65.126  1.00  0.00    -0.124 C  
HETATM   25  C   UNL     1      -6.657   9.429  64.851  1.00  0.00    -0.082 C  
HETATM   26  C   UNL     1      -5.753   8.547  65.673  1.00  0.00    -0.043 C  
ENDROOT
BRANCH   5  27
HETATM   27  C   UNL     1      -7.963   6.780  72.938  1.00  0.00    -0.105 C  
HETATM   28  C   UNL     1      -6.461   6.924  73.157  1.00  0.00    -0.062 C  
HETATM   29  O   UNL     1      -8.546   6.105  73.794  1.00  0.00    -0.123 OA 
HETATM   30 CL   UNL     1      -5.767   8.383  72.445  1.00  0.00    -0.049 Cl 
ENDBRANCH   5  27
TORSDOF 1
ENDMDL
MODEL       85
REMARK 921   NORMALIZED FREE ENERGY PREDICTED BY IDOCK:   -3.35 KCAL/MOL
REMARK 922        TOTAL FREE ENERGY PREDICTED BY IDOCK:   -2.26 KCAL/MOL
REMARK 923 INTER-LIGAND FREE ENERGY PREDICTED BY IDOCK:   -4.78 KCAL/MOL
REMARK 924 INTRA-LIGAND FREE ENERGY PREDICTED BY IDOCK:    2.51 KCAL/MOL
REMARK 927      BINDING AFFINITY PREDICTED BY RF-SCORE:    0.00 PKD
ROOT
HETATM    1  C   UNL     1      -7.805   7.338  65.978  1.00  0.00    -0.106 C  
HETATM    2  C   UNL     1      -6.640   7.778  66.643  1.00  0.00    -0.054 C  
HETATM    3  C   UNL     1      -7.475   6.870  67.531  1.00  0.00    -0.097 C  
HETATM    4  C   UNL     1      -6.219   6.432  68.592  1.00  0.00    -0.033 C  
HETATM    5  C   UNL     1      -9.056   5.920  66.609  1.00  0.00    -0.134 C  
HETATM    6  O   UNL     1      -9.229   5.935  65.129  1.00  0.00    -0.365 OA 
HETATM    7  C   UNL     1      -9.411  10.149  70.036  1.00  0.00    -0.086 C  
HETATM    8  C   UNL     1      -7.764   5.626  66.898  1.00  0.00    -0.100 C  
HETATM    9  C   UNL     1      -8.801   5.585  68.540  1.00  0.00    -0.104 C  
HETATM   10  C   UNL     1      -6.802   4.630  66.254  1.00  0.00    -0.058 C  
HETATM   11  C   UNL     1     -10.078   9.929  68.609  1.00  0.00    -0.191 C  
HETATM   12  C   UNL     1     -11.562  10.108  68.888  1.00  0.00    -0.056 C  
HETATM   13  H   UNL     1      -9.958   5.497  64.704  1.00  0.00     0.000 HD 
HETATM   14  C   UNL     1      -9.786   7.101  68.770  1.00  0.00    -0.145 C  
HETATM   15  O   UNL     1     -11.889  13.636  68.171  1.00  0.00    -0.342 OA 
HETATM   16  O   UNL     1     -11.146   6.747  68.485  1.00  0.00    -0.446 OA 
HETATM   17  C   UNL     1      -9.372   8.629  68.024  1.00  0.00    -0.136 C  
HETATM   18  C   UNL     1      -9.148   8.435  66.423  1.00  0.00    -0.231 C  
HETATM   19  F   UNL     1      -8.082   9.041  68.439  1.00  0.00    -0.103 F  
HETATM   20  H   UNL     1     -11.660   7.537  68.605  1.00  0.00     0.000 HD 
HETATM   21  C   UNL     1      -8.914   9.780  65.710  1.00  0.00    -0.195 C  
HETATM   22  C   UNL     1      -9.892  10.841  66.197  1.00  0.00    -0.269 C  
HETATM   23  C   UNL     1      -9.696  11.107  67.676  1.00  0.00    -0.184 C  
HETATM   24  C   UNL     1      -9.873  12.366  68.126  1.00  0.00    -0.213 C  
HETATM   25  C   UNL     1     -11.359  12.545  68.335  1.00  0.00    -0.291 C  
HETATM   26  C   UNL     1     -12.130  11.337  68.803  1.00  0.00    -0.258 C  
ENDROOT
BRANCH   5  27
HETATM   27  C   UNL     1      -9.625   4.296  66.580  1.00  0.00    -0.200 C  
HETATM   28  C   UNL     1     -10.126   3.735  65.253  1.00  0.00    -0.059 C  
HETATM   29  O   UNL     1      -9.755   3.535  67.544  1.00  0.00    -0.178 OA 
HETATM   30 CL   UNL     1      -9.335   4.428  63.835  1.00  0.00    -0.141 Cl 
ENDBRANCH   5  27
TORSDOF 1
ENDMDL
MODEL       86
REMARK 921   NORMALIZED FREE ENERGY PREDICTED BY IDOCK:   -3.21 KCAL/MOL
REMARK 922        TOTAL FREE ENERGY PREDICTED BY IDOCK:   -2.12 KCAL/MOL
REMARK 923 INTER-LIGAND FREE ENERGY PREDICTED BY IDOCK:   -4.73 KCAL/MOL
REMARK 924 INTRA-LIGAND FREE ENERGY PREDICTED BY IDOCK:    2.61 KCAL/MOL
REMARK 927      BINDING AFFINITY PREDICTED BY RF-SCORE:    0.00 PKD
ROOT
HETATM    1  C   UNL     1     -10.120   9.449  66.753  1.00  0.00    -0.325 C  
HETATM    2  C   UNL     1      -9.931   9.848  68.095  1.00  0.00    -0.175 C  
HETATM    3  C   UNL     1      -8.624   9.875  67.320  1.00  0.00    -0.125 C  
HETATM    4  C   UNL     1      -7.806  10.944  68.360  1.00  0.00    -0.123 C  
HETATM    5  C   UNL     1      -8.782   9.595  65.283  1.00  0.00    -0.160 C  
HETATM    6  O   UNL     1     -10.100   9.601  64.587  1.00  0.00    -0.329 OA 
HETATM    7  C   UNL     1      -6.950   5.937  68.890  1.00  0.00    -0.068 C  
HETATM    8  C   UNL     1      -8.728  10.653  66.130  1.00  0.00    -0.178 C  
HETATM    9  C   UNL     1      -6.967   9.839  66.024  1.00  0.00    -0.099 C  
HETATM   10  C   UNL     1      -9.217  12.090  65.962  1.00  0.00    -0.152 C  
HETATM   11  C   UNL     1      -8.026   5.780  67.730  1.00  0.00    -0.098 C  
HETATM   12  C   UNL     1      -7.479   4.627  66.904  1.00  0.00    -0.086 C  
HETATM   13  H   UNL     1     -10.173   9.472  63.648  1.00  0.00     0.000 HD 
HETATM   14  C   UNL     1      -7.020   8.042  66.322  1.00  0.00    -0.063 C  
HETATM   15  O   UNL     1      -9.213   1.877  68.484  1.00  0.00    -0.137 OA 
HETATM   16  O   UNL     1      -6.844   7.414  65.044  1.00  0.00    -0.049 OA 
HETATM   17  C   UNL     1      -8.302   7.263  67.224  1.00  0.00    -0.119 C  
HETATM   18  C   UNL     1      -9.755   7.700  66.637  1.00  0.00    -0.283 C  
HETATM   19  F   UNL     1      -8.362   7.789  68.538  1.00  0.00    -0.122 F  
HETATM   20  H   UNL     1      -6.871   6.477  65.199  1.00  0.00     0.000 HD 
HETATM   21  C   UNL     1     -10.903   6.932  67.318  1.00  0.00    -0.426 C  
HETATM   22  C   UNL     1     -10.575   5.452  67.451  1.00  0.00    -0.228 C  
HETATM   23  C   UNL     1      -9.356   5.254  68.329  1.00  0.00    -0.143 C  
HETATM   24  C   UNL     1      -9.314   4.168  69.128  1.00  0.00    -0.235 C  
HETATM   25  C   UNL     1      -8.831   3.020  68.274  1.00  0.00    -0.123 C  
HETATM   26  C   UNL     1      -7.825   3.349  67.200  1.00  0.00    -0.079 C  
ENDROOT
BRANCH   5  27
HETATM   27  C   UNL     1      -8.143  10.410  63.909  1.00  0.00    -0.096 C  
HETATM   28  C   UNL     1      -9.113  10.847  62.817  1.00  0.00    -0.331 C  
HETATM   29  O   UNL     1      -6.952  10.620  63.654  1.00  0.00     0.034 OA 
HETATM   30 CL   UNL     1     -10.733  11.230  63.406  1.00  0.00    -0.407 Cl 
ENDBRANCH   5  27
TORSDOF 1
ENDMDL
MODEL       87
REMARK 921   NORMALIZED FREE ENERGY PREDICTED BY IDOCK:   -3.11 KCAL/MOL
REMARK 922        TOTAL FREE ENERGY PREDICTED BY IDOCK:   -2.01 KCAL/MOL
REMARK 923 INTER-LIGAND FREE ENERGY PREDICTED BY IDOCK:   -4.83 KCAL/MOL
REMARK 924 INTRA-LIGAND FREE ENERGY PREDICTED BY IDOCK:    2.83 KCAL/MOL
REMARK 927      BINDING AFFINITY PREDICTED BY RF-SCORE:    0.00 PKD
ROOT
HETATM    1  C   UNL     1     -10.071  10.048  67.845  1.00  0.00    -0.203 C  
HETATM    2  C   UNL     1      -8.945   9.983  68.697  1.00  0.00    -0.136 C  
HETATM    3  C   UNL     1      -8.557  10.435  67.299  1.00  0.00    -0.126 C  
HETATM    4  C   UNL     1      -7.089  11.175  67.737  1.00  0.00    -0.086 C  
HETATM    5  C   UNL     1     -10.122  10.853  66.023  1.00  0.00    -0.249 C  
HETATM    6  O   UNL     1     -11.530  10.935  66.504  1.00  0.00    -0.173 OA 
HETATM    7  C   UNL     1      -6.927   6.436  65.840  1.00  0.00    -0.061 C  
HETATM    8  C   UNL     1      -9.327  11.555  66.869  1.00  0.00    -0.189 C  
HETATM    9  C   UNL     1      -8.292  11.050  65.304  1.00  0.00     0.056 C  
HETATM   10  C   UNL     1      -9.556  12.890  67.573  1.00  0.00    -0.200 C  
HETATM   11  C   UNL     1      -8.513   6.554  65.803  1.00  0.00    -0.149 C  
HETATM   12  C   UNL     1      -8.885   5.832  64.519  1.00  0.00     0.195 C  
HETATM   13  H   UNL     1     -12.252  11.128  65.916  1.00  0.00     0.000 HD 
HETATM   14  C   UNL     1      -8.414   9.268  64.943  1.00  0.00    -0.168 C  
HETATM   15  O   UNL     1      -9.457   2.515  65.837  1.00  0.00    -0.027 OA 
HETATM   16  O   UNL     1      -9.274   9.143  63.802  1.00  0.00    -0.402 OA 
HETATM   17  C   UNL     1      -8.817   8.075  66.159  1.00  0.00    -0.166 C  
HETATM   18  C   UNL     1     -10.177   8.505  66.945  1.00  0.00    -0.375 C  
HETATM   19  F   UNL     1      -7.866   8.107  67.208  1.00  0.00    -0.098 F  
HETATM   20  H   UNL     1      -9.338   8.214  63.614  1.00  0.00     0.000 HD 
HETATM   21  C   UNL     1     -10.638   7.414  67.930  1.00  0.00    -0.255 C  
HETATM   22  C   UNL     1     -10.554   6.031  67.302  1.00  0.00    -0.367 C  
HETATM   23  C   UNL     1      -9.120   5.696  66.942  1.00  0.00    -0.116 C  
HETATM   24  C   UNL     1      -8.713   4.416  67.067  1.00  0.00    -0.108 C  
HETATM   25  C   UNL     1      -9.149   3.699  65.810  1.00  0.00    -0.152 C  
HETATM   26  C   UNL     1      -9.130   4.498  64.532  1.00  0.00    -0.148 C  
ENDROOT
BRANCH   5  27
HETATM   27  C   UNL     1     -10.491  12.162  64.968  1.00  0.00    -0.290 C  
HETATM   28  C   UNL     1     -11.789  12.928  65.200  1.00  0.00    -0.380 C  
HETATM   29  O   UNL     1      -9.854  12.517  63.971  1.00  0.00    -0.245 OA 
HETATM   30 CL   UNL     1     -12.308  12.970  66.887  1.00  0.00    -0.216 Cl 
ENDBRANCH   5  27
TORSDOF 1
ENDMDL
MODEL       88
REMARK 921   NORMALIZED FREE ENERGY PREDICTED BY IDOCK:   -3.01 KCAL/MOL
REMARK 922        TOTAL FREE ENERGY PREDICTED BY IDOCK:   -1.90 KCAL/MOL
REMARK 923 INTER-LIGAND FREE ENERGY PREDICTED BY IDOCK:   -3.27 KCAL/MOL
REMARK 924 INTRA-LIGAND FREE ENERGY PREDICTED BY IDOCK:    1.37 KCAL/MOL
REMARK 927      BINDING AFFINITY PREDICTED BY RF-SCORE:    0.00 PKD
ROOT
HETATM    1  C   UNL     1      -9.700  17.020  67.111  1.00  0.00    -0.259 C  
HETATM    2  C   UNL     1     -10.586  16.879  68.203  1.00  0.00    -0.360 C  
HETATM    3  C   UNL     1      -9.379  17.726  68.573  1.00  0.00    -0.295 C  
HETATM    4  C   UNL     1     -10.094  18.508  69.904  1.00  0.00     0.818 C  
HETATM    5  C   UNL     1      -8.141  18.259  67.012  1.00  0.00    -0.230 C  
HETATM    6  O   UNL     1      -8.526  18.031  65.590  1.00  0.00    -0.375 OA 
HETATM    7  C   UNL     1      -7.076  14.487  70.806  1.00  0.00     0.813 C  
HETATM    8  C   UNL     1      -9.192  18.812  67.668  1.00  0.00    -0.310 C  
HETATM    9  C   UNL     1      -7.629  18.868  68.820  1.00  0.00    -0.368 C  
HETATM   10  C   UNL     1     -10.193  19.877  67.227  1.00  0.00    -0.572 C  
HETATM   11  C   UNL     1      -6.958  14.407  69.222  1.00  0.00    -0.129 C  
HETATM   12  C   UNL     1      -5.509  14.003  69.002  1.00  0.00    -0.083 C  
HETATM   13  H   UNL     1      -7.955  18.277  64.870  1.00  0.00     0.000 HD 
HETATM   14  C   UNL     1      -6.821  17.241  68.966  1.00  0.00    -0.245 C  
HETATM   15  O   UNL     1      -5.901  10.412  68.859  1.00  0.00    -0.041 OA 
HETATM   16  O   UNL     1      -5.627  17.308  68.173  1.00  0.00    -0.119 OA 
HETATM   17  C   UNL     1      -7.664  15.731  68.692  1.00  0.00    -0.153 C  
HETATM   18  C   UNL     1      -8.433  15.764  67.258  1.00  0.00    -0.212 C  
HETATM   19  F   UNL     1      -8.752  15.610  69.590  1.00  0.00    -0.247 F  
HETATM   20  H   UNL     1      -5.206  16.460  68.249  1.00  0.00     0.000 HD 
HETATM   21  C   UNL     1      -9.075  14.405  66.921  1.00  0.00    -0.269 C  
HETATM   22  C   UNL     1      -8.125  13.255  67.223  1.00  0.00    -0.150 C  
HETATM   23  C   UNL     1      -7.796  13.211  68.702  1.00  0.00    -0.056 C  
HETATM   24  C   UNL     1      -7.621  12.006  69.281  1.00  0.00     0.251 C  
HETATM   25  C   UNL     1      -6.197  11.591  68.998  1.00  0.00    -0.060 C  
HETATM   26  C   UNL     1      -5.166  12.691  68.949  1.00  0.00    -0.062 C  
ENDROOT
BRANCH   5  27
HETATM   27  C   UNL     1      -7.429  19.738  66.500  1.00  0.00    -0.267 C  
HETATM   28  C   UNL     1      -6.139  19.673  65.689  1.00  0.00    -0.195 C  
HETATM   29  O   UNL     1      -7.801  20.882  66.784  1.00  0.00    -0.131 OA 
HETATM   30 CL   UNL     1      -5.988  18.221  64.695  1.00  0.00     0.038 Cl 
ENDBRANCH   5  27
TORSDOF 1
ENDMDL
MODEL       89
REMARK 921   NORMALIZED FREE ENERGY PREDICTED BY IDOCK:   -2.99 KCAL/MOL
REMARK 922        TOTAL FREE ENERGY PREDICTED BY IDOCK:   -1.89 KCAL/MOL
REMARK 923 INTER-LIGAND FREE ENERGY PREDICTED BY IDOCK:   -4.43 KCAL/MOL
REMARK 924 INTRA-LIGAND FREE ENERGY PREDICTED BY IDOCK:    2.55 KCAL/MOL
REMARK 927      BINDING AFFINITY PREDICTED BY RF-SCORE:    0.00 PKD
ROOT
HETATM    1  C   UNL     1      -6.735   6.009  66.741  1.00  0.00    -0.057 C  
HETATM    2  C   UNL     1      -6.003   5.157  67.598  1.00  0.00    -0.022 C  
HETATM    3  C   UNL     1      -7.142   4.414  66.919  1.00  0.00    -0.068 C  
HETATM    4  C   UNL     1      -6.503   2.852  67.125  1.00  0.00    -0.036 C  
HETATM    5  C   UNL     1      -8.124   5.445  65.427  1.00  0.00    -0.120 C  
HETATM    6  O   UNL     1      -7.606   6.735  64.889  1.00  0.00    -0.087 OA 
HETATM    7  C   UNL     1     -10.035   4.468  70.441  1.00  0.00    -0.284 C  
HETATM    8  C   UNL     1      -7.101   4.557  65.501  1.00  0.00    -0.067 C  
HETATM    9  C   UNL     1      -8.771   3.626  65.844  1.00  0.00    -0.119 C  
HETATM   10  C   UNL     1      -5.943   4.290  64.543  1.00  0.00    -0.018 C  
HETATM   11  C   UNL     1      -9.978   5.825  69.614  1.00  0.00    -0.249 C  
HETATM   12  C   UNL     1     -11.428   6.282  69.597  1.00  0.00    -0.425 C  
HETATM   13  H   UNL     1      -8.058   7.210  64.201  1.00  0.00     0.000 HD 
HETATM   14  C   UNL     1      -9.766   4.448  67.131  1.00  0.00    -0.197 C  
HETATM   15  O   UNL     1     -11.425   8.407  72.521  1.00  0.00    -0.380 OA 
HETATM   16  O   UNL     1     -10.845   5.103  66.450  1.00  0.00    -0.477 OA 
HETATM   17  C   UNL     1      -9.072   5.495  68.349  1.00  0.00    -0.111 C  
HETATM   18  C   UNL     1      -8.143   6.636  67.652  1.00  0.00    -0.119 C  
HETATM   19  F   UNL     1      -8.115   4.785  69.115  1.00  0.00    -0.073 F  
HETATM   20  H   UNL     1     -11.365   5.532  67.121  1.00  0.00     0.000 HD 
HETATM   21  C   UNL     1      -7.623   7.658  68.680  1.00  0.00    -0.109 C  
HETATM   22  C   UNL     1      -8.724   8.086  69.639  1.00  0.00    -0.133 C  
HETATM   23  C   UNL     1      -9.224   6.900  70.439  1.00  0.00    -0.156 C  
HETATM   24  C   UNL     1      -9.598   7.106  71.719  1.00  0.00    -0.161 C  
HETATM   25  C   UNL     1     -11.018   7.620  71.677  1.00  0.00    -0.233 C  
HETATM   26  C   UNL     1     -11.906   7.076  70.588  1.00  0.00    -0.377 C  
ENDROOT
BRANCH   5  27
HETATM   27  C   UNL     1      -8.602   5.059  63.820  1.00  0.00    -0.110 C  
HETATM   28  C   UNL     1      -8.277   6.057  62.714  1.00  0.00    -0.070 C  
HETATM   29  O   UNL     1      -9.266   4.083  63.454  1.00  0.00    -0.121 OA 
HETATM   30 CL   UNL     1      -6.813   7.000  63.005  1.00  0.00    -0.054 Cl 
ENDBRANCH   5  27
TORSDOF 1
ENDMDL
MODEL       90
REMARK 921   NORMALIZED FREE ENERGY PREDICTED BY IDOCK:   -2.90 KCAL/MOL
REMARK 922        TOTAL FREE ENERGY PREDICTED BY IDOCK:   -1.78 KCAL/MOL
REMARK 923 INTER-LIGAND FREE ENERGY PREDICTED BY IDOCK:   -3.03 KCAL/MOL
REMARK 924 INTRA-LIGAND FREE ENERGY PREDICTED BY IDOCK:    1.25 KCAL/MOL
REMARK 927      BINDING AFFINITY PREDICTED BY RF-SCORE:    0.00 PKD
ROOT
HETATM    1  C   UNL     1      -9.634  16.586  66.698  1.00  0.00    -0.275 C  
HETATM    2  C   UNL     1     -10.236  17.862  66.781  1.00  0.00    -0.360 C  
HETATM    3  C   UNL     1      -9.038  17.752  67.711  1.00  0.00    -0.249 C  
HETATM    4  C   UNL     1      -8.759  19.423  67.862  1.00  0.00    -0.359 C  
HETATM    5  C   UNL     1      -7.887  16.055  67.495  1.00  0.00    -0.148 C  
HETATM    6  O   UNL     1      -8.074  15.116  66.353  1.00  0.00    -0.317 OA 
HETATM    7  C   UNL     1     -11.372  17.069  71.566  1.00  0.00     0.810 C  
HETATM    8  C   UNL     1      -7.866  17.325  67.020  1.00  0.00    -0.243 C  
HETATM    9  C   UNL     1      -7.345  17.343  68.892  1.00  0.00    -0.244 C  
HETATM   10  C   UNL     1      -7.228  17.908  65.762  1.00  0.00    -0.180 C  
HETATM   11  C   UNL     1     -11.211  15.776  70.656  1.00  0.00    -0.395 C  
HETATM   12  C   UNL     1     -10.993  14.663  71.669  1.00  0.00     0.776 C  
HETATM   13  H   UNL     1      -7.543  14.334  66.254  1.00  0.00     0.000 HD 
HETATM   14  C   UNL     1      -8.537  16.456  69.947  1.00  0.00     0.928 C  
HETATM   15  O   UNL     1     -14.411  13.570  72.106  1.00  0.00    -0.417 OA 
HETATM   16  O   UNL     1      -7.919  15.210  70.298  1.00  0.00    -0.149 OA 
HETATM   17  C   UNL     1     -10.211  16.213  69.497  1.00  0.00    -0.261 C  
HETATM   18  C   UNL     1     -10.309  15.567  68.006  1.00  0.00    -0.247 C  
HETATM   19  F   UNL     1     -10.851  17.462  69.304  1.00  0.00    -0.278 F  
HETATM   20  H   UNL     1      -8.540  14.748  70.848  1.00  0.00     0.000 HD 
HETATM   21  C   UNL     1     -11.760  15.215  67.629  1.00  0.00    -0.233 C  
HETATM   22  C   UNL     1     -12.479  14.527  68.781  1.00  0.00     0.103 C  
HETATM   23  C   UNL     1     -12.567  15.449  69.980  1.00  0.00    -0.269 C  
HETATM   24  C   UNL     1     -13.670  15.386  70.753  1.00  0.00    -0.186 C  
HETATM   25  C   UNL     1     -13.463  14.235  71.710  1.00  0.00    -0.381 C  
HETATM   26  C   UNL     1     -12.053  13.991  72.184  1.00  0.00     0.172 C  
ENDROOT
BRANCH   5  27
HETATM   27  C   UNL     1      -6.197  15.765  67.352  1.00  0.00    -0.109 C  
HETATM   28  C   UNL     1      -5.638  14.469  67.930  1.00  0.00    -0.096 C  
HETATM   29  O   UNL     1      -5.344  16.535  66.896  1.00  0.00    -0.303 OA 
HETATM   30 CL   UNL     1      -6.779  13.121  67.906  1.00  0.00    -0.120 Cl 
ENDBRANCH   5  27
TORSDOF 1
ENDMDL
MODEL       91
REMARK 921   NORMALIZED FREE ENERGY PREDICTED BY IDOCK:   -2.83 KCAL/MOL
REMARK 922        TOTAL FREE ENERGY PREDICTED BY IDOCK:   -1.72 KCAL/MOL
REMARK 923 INTER-LIGAND FREE ENERGY PREDICTED BY IDOCK:   -4.27 KCAL/MOL
REMARK 924 INTRA-LIGAND FREE ENERGY PREDICTED BY IDOCK:    2.55 KCAL/MOL
REMARK 927      BINDING AFFINITY PREDICTED BY RF-SCORE:    0.00 PKD
ROOT
HETATM    1  C   UNL     1      -8.473  10.061  66.663  1.00  0.00    -0.126 C  
HETATM    2  C   UNL     1      -9.860  10.281  66.506  1.00  0.00    -0.265 C  
HETATM    3  C   UNL     1      -9.487  10.117  67.970  1.00  0.00    -0.156 C  
HETATM    4  C   UNL     1     -10.862  10.892  68.606  1.00  0.00    -0.258 C  
HETATM    5  C   UNL     1      -7.467  10.073  68.384  1.00  0.00    -0.082 C  
HETATM    6  O   UNL     1      -6.445  10.415  67.354  1.00  0.00    -0.064 OA 
HETATM    7  C   UNL     1     -10.841   5.788  68.419  1.00  0.00    -0.251 C  
HETATM    8  C   UNL     1      -8.447  11.012  68.358  1.00  0.00    -0.144 C  
HETATM    9  C   UNL     1      -8.707   9.870  69.909  1.00  0.00    -0.225 C  
HETATM   10  C   UNL     1      -8.371  12.527  68.188  1.00  0.00    -0.175 C  
HETATM   11  C   UNL     1      -9.420   5.965  67.729  1.00  0.00    -0.114 C  
HETATM   12  C   UNL     1      -8.611   4.811  68.298  1.00  0.00    -0.107 C  
HETATM   13  H   UNL     1      -5.514  10.395  67.545  1.00  0.00     0.000 HD 
HETATM   14  C   UNL     1      -8.702   8.101  69.471  1.00  0.00    -0.142 C  
HETATM   15  O   UNL     1      -9.217   2.331  65.739  1.00  0.00    -0.108 OA 
HETATM   16  O   UNL     1      -7.442   7.577  69.914  1.00  0.00    -0.080 OA 
HETATM   17  C   UNL     1      -9.089   7.516  67.867  1.00  0.00    -0.130 C  
HETATM   18  C   UNL     1      -8.198   8.294  66.750  1.00  0.00    -0.103 C  
HETATM   19  F   UNL     1     -10.400   7.913  67.506  1.00  0.00    -0.235 F  
HETATM   20  H   UNL     1      -7.440   6.655  69.686  1.00  0.00     0.000 HD 
HETATM   21  C   UNL     1      -8.412   7.714  65.340  1.00  0.00    -0.110 C  
HETATM   22  C   UNL     1      -8.404   6.191  65.362  1.00  0.00    -0.150 C  
HETATM   23  C   UNL     1      -9.543   5.666  66.213  1.00  0.00    -0.166 C  
HETATM   24  C   UNL     1     -10.149   4.522  65.832  1.00  0.00    -0.279 C  
HETATM   25  C   UNL     1      -9.296   3.388  66.350  1.00  0.00    -0.149 C  
HETATM   26  C   UNL     1      -8.603   3.608  67.671  1.00  0.00    -0.113 C  
ENDROOT
BRANCH   5  27
HETATM   27  C   UNL     1      -6.462  10.870  69.531  1.00  0.00    -0.095 C  
HETATM   28  C   UNL     1      -5.182  11.529  69.029  1.00  0.00    -0.043 C  
HETATM   29  O   UNL     1      -6.614  10.907  70.757  1.00  0.00    -0.296 OA 
HETATM   30 CL   UNL     1      -5.281  12.121  67.368  1.00  0.00    -0.100 Cl 
ENDBRANCH   5  27
TORSDOF 1
ENDMDL
MODEL       92
REMARK 921   NORMALIZED FREE ENERGY PREDICTED BY IDOCK:   -2.38 KCAL/MOL
REMARK 922        TOTAL FREE ENERGY PREDICTED BY IDOCK:   -1.23 KCAL/MOL
REMARK 923 INTER-LIGAND FREE ENERGY PREDICTED BY IDOCK:   -2.74 KCAL/MOL
REMARK 924 INTRA-LIGAND FREE ENERGY PREDICTED BY IDOCK:    1.50 KCAL/MOL
REMARK 927      BINDING AFFINITY PREDICTED BY RF-SCORE:    0.00 PKD
ROOT
HETATM    1  C   UNL     1      -8.661   4.769  68.080  1.00  0.00    -0.106 C  
HETATM    2  C   UNL     1      -9.962   4.882  68.618  1.00  0.00    -0.195 C  
HETATM    3  C   UNL     1      -9.727   5.901  67.515  1.00  0.00    -0.123 C  
HETATM    4  C   UNL     1     -11.367   6.183  67.162  1.00  0.00     0.024 C  
HETATM    5  C   UNL     1      -7.982   5.676  66.441  1.00  0.00    -0.101 C  
HETATM    6  O   UNL     1      -7.124   4.464  66.576  1.00  0.00    -0.067 OA 
HETATM    7  C   UNL     1      -8.955   9.492  70.214  1.00  0.00    -0.288 C  
HETATM    8  C   UNL     1      -9.275   5.287  66.310  1.00  0.00    -0.152 C  
HETATM    9  C   UNL     1      -9.151   7.194  65.957  1.00  0.00    -0.108 C  
HETATM   10  C   UNL     1      -9.893   4.127  65.533  1.00  0.00    -0.210 C  
HETATM   11  C   UNL     1      -7.711   8.517  70.042  1.00  0.00    -0.086 C  
HETATM   12  C   UNL     1      -6.529   9.472  69.974  1.00  0.00    -0.061 C  
HETATM   13  H   UNL     1      -6.320   4.360  66.081  1.00  0.00     0.000 HD 
HETATM   14  C   UNL     1      -8.274   8.084  67.284  1.00  0.00    -0.122 C  
HETATM   15  O   UNL     1      -5.614   9.545  73.471  1.00  0.00    -0.285 OA 
HETATM   16  O   UNL     1      -6.976   8.406  66.766  1.00  0.00    -0.071 OA 
HETATM   17  C   UNL     1      -8.157   7.479  68.922  1.00  0.00    -0.127 C  
HETATM   18  C   UNL     1      -7.607   5.946  68.922  1.00  0.00    -0.090 C  
HETATM   19  F   UNL     1      -9.450   7.312  69.474  1.00  0.00    -0.154 F  
HETATM   20  H   UNL     1      -6.518   8.870  67.458  1.00  0.00     0.000 HD 
HETATM   21  C   UNL     1      -7.363   5.425  70.350  1.00  0.00    -0.070 C  
HETATM   22  C   UNL     1      -6.651   6.465  71.204  1.00  0.00    -0.051 C  
HETATM   23  C   UNL     1      -7.505   7.709  71.349  1.00  0.00    -0.079 C  
HETATM   24  C   UNL     1      -7.461   8.380  72.518  1.00  0.00    -0.122 C  
HETATM   25  C   UNL     1      -6.245   9.275  72.458  1.00  0.00     0.224 C  
HETATM   26  C   UNL     1      -5.891   9.850  71.110  1.00  0.00    -0.058 C  
ENDROOT
BRANCH   5  27
HETATM   27  C   UNL     1      -7.602   5.659  64.763  1.00  0.00    -0.084 C  
HETATM   28  C   UNL     1      -6.423   6.500  64.284  1.00  0.00    -0.037 C  
HETATM   29  O   UNL     1      -8.233   5.096  63.861  1.00  0.00    -0.119 OA 
HETATM   30 CL   UNL     1      -5.143   6.693  65.485  1.00  0.00    -0.017 Cl 
ENDBRANCH   5  27
TORSDOF 1
ENDMDL
MODEL       93
REMARK 921   NORMALIZED FREE ENERGY PREDICTED BY IDOCK:   -2.34 KCAL/MOL
REMARK 922        TOTAL FREE ENERGY PREDICTED BY IDOCK:   -1.20 KCAL/MOL
REMARK 923 INTER-LIGAND FREE ENERGY PREDICTED BY IDOCK:   -3.72 KCAL/MOL
REMARK 924 INTRA-LIGAND FREE ENERGY PREDICTED BY IDOCK:    2.52 KCAL/MOL
REMARK 927      BINDING AFFINITY PREDICTED BY RF-SCORE:    0.00 PKD
ROOT
HETATM    1  C   UNL     1      -9.078   7.187  69.988  1.00  0.00    -0.145 C  
HETATM    2  C   UNL     1     -10.366   7.611  69.590  1.00  0.00    -0.213 C  
HETATM    3  C   UNL     1      -9.686   6.802  68.497  1.00  0.00    -0.133 C  
HETATM    4  C   UNL     1     -11.106   6.371  67.666  1.00  0.00    -0.388 C  
HETATM    5  C   UNL     1      -7.923   5.875  69.031  1.00  0.00    -0.099 C  
HETATM    6  O   UNL     1      -7.467   5.805  70.449  1.00  0.00    -0.083 OA 
HETATM    7  C   UNL     1      -8.389  10.322  65.908  1.00  0.00    -0.145 C  
HETATM    8  C   UNL     1      -9.235   5.536  68.974  1.00  0.00    -0.143 C  
HETATM    9  C   UNL     1      -8.535   5.649  67.166  1.00  0.00    -0.110 C  
HETATM   10  C   UNL     1     -10.019   4.456  69.717  1.00  0.00    -0.224 C  
HETATM   11  C   UNL     1      -7.452  10.046  67.163  1.00  0.00    -0.091 C  
HETATM   12  C   UNL     1      -6.057  10.314  66.620  1.00  0.00    -0.064 C  
HETATM   13  H   UNL     1      -6.655   5.378  70.695  1.00  0.00     0.000 HD 
HETATM   14  C   UNL     1      -7.668   7.223  66.860  1.00  0.00    -0.110 C  
HETATM   15  O   UNL     1      -5.725  13.802  67.509  1.00  0.00    -0.334 OA 
HETATM   16  O   UNL     1      -6.266   6.918  66.855  1.00  0.00    -0.037 OA 
HETATM   17  C   UNL     1      -7.984   8.679  67.778  1.00  0.00    -0.107 C  
HETATM   18  C   UNL     1      -7.888   8.375  69.374  1.00  0.00    -0.103 C  
HETATM   19  F   UNL     1      -9.344   9.053  67.646  1.00  0.00    -0.138 F  
HETATM   20  H   UNL     1      -5.814   7.739  66.696  1.00  0.00     0.000 HD 
HETATM   21  C   UNL     1      -8.028   9.659  70.212  1.00  0.00    -0.198 C  
HETATM   22  C   UNL     1      -7.201  10.795  69.625  1.00  0.00    -0.127 C  
HETATM   23  C   UNL     1      -7.688  11.143  68.233  1.00  0.00    -0.116 C  
HETATM   24  C   UNL     1      -7.646  12.435  67.847  1.00  0.00    -0.130 C  
HETATM   25  C   UNL     1      -6.237  12.700  67.372  1.00  0.00    -0.148 C  
HETATM   26  C   UNL     1      -5.528  11.562  66.682  1.00  0.00    -0.133 C  
ENDROOT
BRANCH   5  27
HETATM   27  C   UNL     1      -7.301   4.282  68.837  1.00  0.00    -0.055 C  
HETATM   28  C   UNL     1      -6.625   3.624  70.035  1.00  0.00    -0.033 C  
HETATM   29  O   UNL     1      -7.264   3.618  67.795  1.00  0.00    -0.057 OA 
HETATM   30 CL   UNL     1      -7.260   4.148  71.597  1.00  0.00    -0.052 Cl 
ENDBRANCH   5  27
TORSDOF 1
ENDMDL
MODEL       94
REMARK 921   NORMALIZED FREE ENERGY PREDICTED BY IDOCK:   -2.03 KCAL/MOL
REMARK 922        TOTAL FREE ENERGY PREDICTED BY IDOCK:   -0.87 KCAL/MOL
REMARK 923 INTER-LIGAND FREE ENERGY PREDICTED BY IDOCK:   -3.57 KCAL/MOL
REMARK 924 INTRA-LIGAND FREE ENERGY PREDICTED BY IDOCK:    2.71 KCAL/MOL
REMARK 927      BINDING AFFINITY PREDICTED BY RF-SCORE:    0.00 PKD
ROOT
HETATM    1  C   UNL     1      -8.546  13.378  69.120  1.00  0.00     0.563 C  
HETATM    2  C   UNL     1      -7.258  13.720  68.651  1.00  0.00    -0.109 C  
HETATM    3  C   UNL     1      -8.329  14.058  67.627  1.00  0.00    -0.191 C  
HETATM    4  C   UNL     1      -7.413  15.201  66.762  1.00  0.00     0.295 C  
HETATM    5  C   UNL     1     -10.279  13.882  68.274  1.00  0.00    -0.247 C  
HETATM    6  O   UNL     1     -10.616  13.668  69.710  1.00  0.00    -0.352 OA 
HETATM    7  C   UNL     1      -7.689  10.443  64.925  1.00  0.00    -0.084 C  
HETATM    8  C   UNL     1      -9.358  14.874  68.182  1.00  0.00    -0.193 C  
HETATM    9  C   UNL     1      -9.995  14.437  66.399  1.00  0.00    -0.305 C  
HETATM   10  C   UNL     1      -9.233  16.191  68.943  1.00  0.00    -0.234 C  
HETATM   11  C   UNL     1      -8.552  10.147  66.227  1.00  0.00    -0.138 C  
HETATM   12  C   UNL     1      -9.615   9.183  65.728  1.00  0.00    -0.323 C  
HETATM   13  H   UNL     1     -11.514  13.587  70.009  1.00  0.00     0.000 HD 
HETATM   14  C   UNL     1      -9.901  12.650  66.053  1.00  0.00    -0.254 C  
HETATM   15  O   UNL     1      -7.974   6.046  66.461  1.00  0.00    -0.103 OA 
HETATM   16  O   UNL     1     -11.245  12.153  66.118  1.00  0.00    -0.308 OA 
HETATM   17  C   UNL     1      -8.800  11.575  66.886  1.00  0.00    -0.182 C  
HETATM   18  C   UNL     1      -8.949  11.749  68.498  1.00  0.00    -0.132 C  
HETATM   19  F   UNL     1      -7.462  11.993  66.683  1.00  0.00    -0.119 F  
HETATM   20  H   UNL     1     -11.195  11.221  65.937  1.00  0.00     0.000 HD 
HETATM   21  C   UNL     1      -8.093  10.725  69.266  1.00  0.00    -0.102 C  
HETATM   22  C   UNL     1      -8.216   9.334  68.659  1.00  0.00    -0.113 C  
HETATM   23  C   UNL     1      -7.702   9.329  67.233  1.00  0.00    -0.095 C  
HETATM   24  C   UNL     1      -7.068   8.225  66.788  1.00  0.00    -0.077 C  
HETATM   25  C   UNL     1      -8.141   7.254  66.357  1.00  0.00    -0.119 C  
HETATM   26  C   UNL     1      -9.389   7.845  65.751  1.00  0.00     0.027 C  
ENDROOT
BRANCH   5  27
HETATM   27  C   UNL     1     -11.667  14.894  68.182  1.00  0.00    -0.318 C  
HETATM   28  C   UNL     1     -12.374  15.264  69.481  1.00  0.00    -0.175 C  
HETATM   29  O   UNL     1     -12.223  15.304  67.157  1.00  0.00     0.180 OA 
HETATM   30 CL   UNL     1     -11.305  15.345  70.884  1.00  0.00    -0.361 Cl 
ENDBRANCH   5  27
TORSDOF 1
ENDMDL
MODEL       95
REMARK 921   NORMALIZED FREE ENERGY PREDICTED BY IDOCK:   -1.19 KCAL/MOL
REMARK 922        TOTAL FREE ENERGY PREDICTED BY IDOCK:    0.02 KCAL/MOL
REMARK 923 INTER-LIGAND FREE ENERGY PREDICTED BY IDOCK:   -2.76 KCAL/MOL
REMARK 924 INTRA-LIGAND FREE ENERGY PREDICTED BY IDOCK:    2.78 KCAL/MOL
REMARK 927      BINDING AFFINITY PREDICTED BY RF-SCORE:    0.00 PKD
ROOT
HETATM    1  C   UNL     1      -8.804   6.139  67.413  1.00  0.00    -0.106 C  
HETATM    2  C   UNL     1      -8.498   6.156  66.033  1.00  0.00    -0.141 C  
HETATM    3  C   UNL     1      -7.237   6.136  66.880  1.00  0.00    -0.074 C  
HETATM    4  C   UNL     1      -6.202   5.540  65.669  1.00  0.00    -0.034 C  
HETATM    5  C   UNL     1      -7.515   5.824  68.900  1.00  0.00    -0.085 C  
HETATM    6  O   UNL     1      -8.834   5.411  69.458  1.00  0.00    -0.104 OA 
HETATM    7  C   UNL     1      -6.252  10.573  66.533  1.00  0.00    -0.085 C  
HETATM    8  C   UNL     1      -7.239   5.059  67.814  1.00  0.00    -0.070 C  
HETATM    9  C   UNL     1      -5.660   6.094  68.274  1.00  0.00    -0.012 C  
HETATM   10  C   UNL     1      -7.464   3.570  67.561  1.00  0.00    -0.066 C  
HETATM   11  C   UNL     1      -7.379  10.230  67.601  1.00  0.00    -0.088 C  
HETATM   12  C   UNL     1      -7.081  11.190  68.742  1.00  0.00    -0.093 C  
HETATM   13  H   UNL     1      -8.962   5.267  70.389  1.00  0.00     0.000 HD 
HETATM   14  C   UNL     1      -6.029   7.870  68.451  1.00  0.00    -0.036 C  
HETATM   15  O   UNL     1      -9.230  13.938  67.794  1.00  0.00    -0.183 OA 
HETATM   16  O   UNL     1      -6.015   8.149  69.858  1.00  0.00    -0.023 OA 
HETATM   17  C   UNL     1      -7.398   8.641  67.679  1.00  0.00    -0.089 C  
HETATM   18  C   UNL     1      -8.768   7.826  68.010  1.00  0.00    -0.125 C  
HETATM   19  F   UNL     1      -7.315   8.488  66.273  1.00  0.00    -0.074 F  
HETATM   20  H   UNL     1      -6.208   9.075  69.950  1.00  0.00     0.000 HD 
HETATM   21  C   UNL     1     -10.012   8.548  67.459  1.00  0.00    -0.258 C  
HETATM   22  C   UNL     1      -9.954  10.042  67.744  1.00  0.00    -0.203 C  
HETATM   23  C   UNL     1      -8.761  10.670  67.052  1.00  0.00    -0.128 C  
HETATM   24  C   UNL     1      -8.890  11.923  66.569  1.00  0.00    -0.178 C  
HETATM   25  C   UNL     1      -8.654  12.860  67.730  1.00  0.00    -0.185 C  
HETATM   26  C   UNL     1      -7.643  12.425  68.760  1.00  0.00    -0.033 C  
ENDROOT
BRANCH   5  27
HETATM   27  C   UNL     1      -6.787   4.785  70.062  1.00  0.00    -0.044 C  
HETATM   28  C   UNL     1      -7.687   3.820  70.826  1.00  0.00    -0.047 C  
HETATM   29  O   UNL     1      -5.604   4.781  70.420  1.00  0.00    -0.014 OA 
HETATM   30 CL   UNL     1      -9.104   3.286  69.918  1.00  0.00    -0.180 Cl 
ENDBRANCH   5  27
TORSDOF 1
ENDMDL
MODEL       96
REMARK 921   NORMALIZED FREE ENERGY PREDICTED BY IDOCK:    0.88 KCAL/MOL
REMARK 922        TOTAL FREE ENERGY PREDICTED BY IDOCK:    2.21 KCAL/MOL
REMARK 923 INTER-LIGAND FREE ENERGY PREDICTED BY IDOCK:   -3.83 KCAL/MOL
REMARK 924 INTRA-LIGAND FREE ENERGY PREDICTED BY IDOCK:    6.04 KCAL/MOL
REMARK 927      BINDING AFFINITY PREDICTED BY RF-SCORE:    0.00 PKD
ROOT
HETATM    1  C   UNL     1      -7.652  15.024  68.495  1.00  0.00    -0.118 C  
HETATM    2  C   UNL     1      -7.288  15.198  67.141  1.00  0.00    -0.145 C  
HETATM    3  C   UNL     1      -8.739  14.766  67.274  1.00  0.00    -0.226 C  
HETATM    4  C   UNL     1      -9.246  15.325  65.749  1.00  0.00    -0.133 C  
HETATM    5  C   UNL     1      -9.500  14.747  69.190  1.00  0.00    -0.113 C  
HETATM    6  O   UNL     1      -8.756  15.339  70.339  1.00  0.00     0.017 OA 
HETATM    7  C   UNL     1      -8.118  10.369  66.245  1.00  0.00    -0.136 C  
HETATM    8  C   UNL     1      -9.471  15.618  68.152  1.00  0.00    -0.195 C  
HETATM    9  C   UNL     1     -10.708  14.180  67.733  1.00  0.00    -0.251 C  
HETATM   10  C   UNL     1      -9.603  17.139  68.123  1.00  0.00    -0.270 C  
HETATM   11  C   UNL     1      -7.745  10.754  67.741  1.00  0.00    -0.104 C  
HETATM   12  C   UNL     1      -8.227   9.554  68.540  1.00  0.00    -0.113 C  
HETATM   13  H   UNL     1      -9.107  15.330  71.222  1.00  0.00     0.000 HD 
HETATM   14  C   UNL     1      -9.956  12.536  67.966  1.00  0.00    -0.219 C  
HETATM   15  O   UNL     1      -5.183   7.604  68.594  1.00  0.00    -0.024 OA 
HETATM   16  O   UNL     1     -10.516  12.001  69.173  1.00  0.00    -0.406 OA 
HETATM   17  C   UNL     1      -8.228  12.261  67.908  1.00  0.00    -0.161 C  
HETATM   18  C   UNL     1      -7.457  13.292  68.905  1.00  0.00     0.002 C  
HETATM   19  F   UNL     1      -7.713  12.653  66.648  1.00  0.00    -0.039 F  
HETATM   20  H   UNL     1     -10.124  11.144  69.295  1.00  0.00     0.000 HD 
HETATM   21  C   UNL     1      -5.948  12.993  68.983  1.00  0.00    -0.084 C  
HETATM   22  C   UNL     1      -5.688  11.500  69.119  1.00  0.00    -0.049 C  
HETATM   23  C   UNL     1      -6.203  10.756  67.903  1.00  0.00    -0.054 C  
HETATM   24  C   UNL     1      -5.511   9.681  67.473  1.00  0.00    -0.036 C  
HETATM   25  C   UNL     1      -5.956   8.513  68.320  1.00  0.00    -0.046 C  
HETATM   26  C   UNL     1      -7.399   8.501  68.758  1.00  0.00    -0.090 C  
ENDROOT
BRANCH   5  27
HETATM   27  C   UNL     1     -10.939  15.351  69.914  1.00  0.00    -0.294 C  
HETATM   28  C   UNL     1     -12.034  15.886  68.998  1.00  0.00    -0.230 C  
HETATM   29  O   UNL     1     -11.168  15.482  71.121  1.00  0.00    -0.344 OA 
HETATM   30 CL   UNL     1     -12.093  15.104  67.416  1.00  0.00     0.030 Cl 
ENDBRANCH   5  27
TORSDOF 1
ENDMDL
MODEL       97
REMARK 921   NORMALIZED FREE ENERGY PREDICTED BY IDOCK:    1.08 KCAL/MOL
REMARK 922        TOTAL FREE ENERGY PREDICTED BY IDOCK:    2.42 KCAL/MOL
REMARK 923 INTER-LIGAND FREE ENERGY PREDICTED BY IDOCK:   -0.22 KCAL/MOL
REMARK 924 INTRA-LIGAND FREE ENERGY PREDICTED BY IDOCK:    2.64 KCAL/MOL
REMARK 927      BINDING AFFINITY PREDICTED BY RF-SCORE:    0.00 PKD
ROOT
HETATM    1  C   UNL     1      -8.602  15.743  67.267  1.00  0.00    -0.209 C  
HETATM    2  C   UNL     1      -9.471  15.358  66.222  1.00  0.00    -0.342 C  
HETATM    3  C   UNL     1      -9.711  16.800  66.640  1.00  0.00    -0.281 C  
HETATM    4  C   UNL     1     -10.473  17.293  65.202  1.00  0.00     0.203 C  
HETATM    5  C   UNL     1      -8.335  17.595  67.954  1.00  0.00    -0.235 C  
HETATM    6  O   UNL     1      -7.065  16.889  68.288  1.00  0.00    -0.168 OA 
HETATM    7  C   UNL     1     -13.417  16.043  69.183  1.00  0.00     3.260 C  
HETATM    8  C   UNL     1      -8.511  17.570  66.610  1.00  0.00    -0.288 C  
HETATM    9  C   UNL     1      -9.830  18.760  67.397  1.00  0.00    -0.357 C  
HETATM   10  C   UNL     1      -7.510  17.742  65.470  1.00  0.00     0.408 C  
HETATM   11  C   UNL     1     -12.042  15.707  69.907  1.00  0.00    -0.360 C  
HETATM   12  C   UNL     1     -12.278  16.172  71.335  1.00  0.00    -0.309 C  
HETATM   13  H   UNL     1      -6.431  17.255  68.893  1.00  0.00     0.000 HD 
HETATM   14  C   UNL     1     -10.744  17.969  68.761  1.00  0.00     0.147 C  
HETATM   15  O   UNL     1     -13.459  13.080  72.787  1.00  0.00    -0.512 OA 
HETATM   16  O   UNL     1     -10.233  18.537  69.974  1.00  0.00     0.131 OA 
HETATM   17  C   UNL     1     -10.917  16.234  68.912  1.00  0.00    -0.334 C  
HETATM   18  C   UNL     1      -9.462  15.509  68.819  1.00  0.00    -0.210 C  
HETATM   19  F   UNL     1     -11.565  15.707  67.768  1.00  0.00    -0.328 F  
HETATM   20  H   UNL     1     -10.709  18.125  70.686  1.00  0.00     0.000 HD 
HETATM   21  C   UNL     1      -9.559  13.995  69.082  1.00  0.00     0.188 C  
HETATM   22  C   UNL     1     -10.458  13.697  70.274  1.00  0.00     1.569 C  
HETATM   23  C   UNL     1     -11.873  14.170  70.004  1.00  0.00    -0.388 C  
HETATM   24  C   UNL     1     -12.894  13.442  70.501  1.00  0.00    -0.094 C  
HETATM   25  C   UNL     1     -13.072  13.871  71.939  1.00  0.00    -0.385 C  
HETATM   26  C   UNL     1     -12.802  15.321  72.253  1.00  0.00    -0.447 C  
ENDROOT
BRANCH   5  27
HETATM   27  C   UNL     1      -7.439  19.063  68.007  1.00  0.00    -0.260 C  
HETATM   28  C   UNL     1      -5.925  18.975  68.166  1.00  0.00    -0.209 C  
HETATM   29  O   UNL     1      -7.892  20.213  68.012  1.00  0.00    -0.281 OA 
HETATM   30 CL   UNL     1      -5.211  17.521  67.463  1.00  0.00    -0.124 Cl 
ENDBRANCH   5  27
TORSDOF 1
ENDMDL
MODEL       98
REMARK 921   NORMALIZED FREE ENERGY PREDICTED BY IDOCK:    1.90 KCAL/MOL
REMARK 922        TOTAL FREE ENERGY PREDICTED BY IDOCK:    3.30 KCAL/MOL
REMARK 923 INTER-LIGAND FREE ENERGY PREDICTED BY IDOCK:    1.85 KCAL/MOL
REMARK 924 INTRA-LIGAND FREE ENERGY PREDICTED BY IDOCK:    1.44 KCAL/MOL
REMARK 927      BINDING AFFINITY PREDICTED BY RF-SCORE:    0.00 PKD
ROOT
HETATM    1  C   UNL     1     -11.984  10.385  69.619  1.00  0.00    -0.207 C  
HETATM    2  C   UNL     1     -11.857  11.323  70.668  1.00  0.00    -0.368 C  
HETATM    3  C   UNL     1     -10.783  11.524  69.611  1.00  0.00     0.035 C  
HETATM    4  C   UNL     1     -10.421  13.138  70.008  1.00  0.00     1.431 C  
HETATM    5  C   UNL     1     -11.005  10.420  67.883  1.00  0.00    -0.297 C  
HETATM    6  O   UNL     1     -12.252   9.659  67.590  1.00  0.00     1.839 OA 
HETATM    7  C   UNL     1      -7.391   9.465  71.855  1.00  0.00     0.580 C  
HETATM    8  C   UNL     1     -11.339  11.665  68.306  1.00  0.00    -0.348 C  
HETATM    9  C   UNL     1      -9.420  11.594  68.009  1.00  0.00    -0.185 C  
HETATM   10  C   UNL     1     -12.427  12.622  67.825  1.00  0.00     0.727 C  
HETATM   11  C   UNL     1      -8.397   8.472  71.127  1.00  0.00    -0.182 C  
HETATM   12  C   UNL     1      -7.483   7.379  70.595  1.00  0.00    -0.078 C  
HETATM   13  H   UNL     1     -12.355   9.151  66.793  1.00  0.00     0.000 HD 
HETATM   14  C   UNL     1      -8.643  10.184  68.864  1.00  0.00    -0.141 C  
HETATM   15  O   UNL     1      -7.653   5.055  73.359  1.00  0.00    -0.087 OA 
HETATM   16  O   UNL     1      -8.337   9.215  67.851  1.00  0.00    -0.116 OA 
HETATM   17  C   UNL     1      -9.350   9.413  70.268  1.00  0.00    -0.252 C  
HETATM   18  C   UNL     1     -10.898   9.007  69.971  1.00  0.00    -0.247 C  
HETATM   19  F   UNL     1      -9.503  10.354  71.315  1.00  0.00     1.034 F  
HETATM   20  H   UNL     1      -7.932   8.480  68.297  1.00  0.00     0.000 HD 
HETATM   21  C   UNL     1     -11.513   8.207  71.135  1.00  0.00    -0.304 C  
HETATM   22  C   UNL     1     -10.552   7.139  71.640  1.00  0.00    -0.229 C  
HETATM   23  C   UNL     1      -9.289   7.775  72.186  1.00  0.00    -0.204 C  
HETATM   24  C   UNL     1      -8.692   7.197  73.248  1.00  0.00    -0.162 C  
HETATM   25  C   UNL     1      -7.839   6.073  72.706  1.00  0.00    -0.107 C  
HETATM   26  C   UNL     1      -7.197   6.296  71.361  1.00  0.00    -0.079 C  
ENDROOT
BRANCH   5  27
HETATM   27  C   UNL     1     -10.934  10.796  66.206  1.00  0.00    -0.003 C  
HETATM   28  C   UNL     1     -10.139   9.867  65.294  1.00  0.00    -0.156 C  
HETATM   29  O   UNL     1     -11.395  11.796  65.646  1.00  0.00    -0.307 OA 
HETATM   30 CL   UNL     1     -10.106   8.186  65.833  1.00  0.00     0.266 Cl 
ENDBRANCH   5  27
TORSDOF 1
ENDMDL
MODEL       99
REMARK 921   NORMALIZED FREE ENERGY PREDICTED BY IDOCK:    3.90 KCAL/MOL
REMARK 922        TOTAL FREE ENERGY PREDICTED BY IDOCK:    5.41 KCAL/MOL
REMARK 923 INTER-LIGAND FREE ENERGY PREDICTED BY IDOCK:    2.79 KCAL/MOL
REMARK 924 INTRA-LIGAND FREE ENERGY PREDICTED BY IDOCK:    2.62 KCAL/MOL
REMARK 927      BINDING AFFINITY PREDICTED BY RF-SCORE:    0.00 PKD
ROOT
HETATM    1  C   UNL     1      -6.942  18.120  69.276  1.00  0.00    -0.161 C  
HETATM    2  C   UNL     1      -5.847  17.916  68.407  1.00  0.00    -0.172 C  
HETATM    3  C   UNL     1      -7.139  18.118  67.633  1.00  0.00    -0.202 C  
HETATM    4  C   UNL     1      -6.413  18.579  66.165  1.00  0.00    -0.256 C  
HETATM    5  C   UNL     1      -8.771  18.708  68.747  1.00  0.00    -0.258 C  
HETATM    6  O   UNL     1      -8.641  19.136  70.169  1.00  0.00     1.028 OA 
HETATM    7  C   UNL     1      -7.925  13.729  66.687  1.00  0.00     0.618 C  
HETATM    8  C   UNL     1      -7.806  19.319  68.014  1.00  0.00    -0.333 C  
HETATM    9  C   UNL     1      -9.049  18.437  66.809  1.00  0.00    -0.293 C  
HETATM   10  C   UNL     1      -7.259  20.742  68.078  1.00  0.00    -0.144 C  
HETATM   11  C   UNL     1      -8.342  14.171  68.157  1.00  0.00    -0.161 C  
HETATM   12  C   UNL     1      -9.631  13.403  68.398  1.00  0.00    -0.188 C  
HETATM   13  H   UNL     1      -9.393  19.408  70.682  1.00  0.00     0.000 HD 
HETATM   14  C   UNL     1      -9.318  16.690  67.255  1.00  0.00    -0.230 C  
HETATM   15  O   UNL     1      -8.284  10.448  69.986  1.00  0.00    -0.054 OA 
HETATM   16  O   UNL     1     -10.620  16.621  67.854  1.00  0.00    -0.319 OA 
HETATM   17  C   UNL     1      -8.161  15.752  68.174  1.00  0.00    -0.141 C  
HETATM   18  C   UNL     1      -7.746  16.541  69.536  1.00  0.00     0.119 C  
HETATM   19  F   UNL     1      -6.922  15.701  67.491  1.00  0.00    -0.140 F  
HETATM   20  H   UNL     1     -10.761  15.710  68.087  1.00  0.00     0.000 HD 
HETATM   21  C   UNL     1      -6.832  15.689  70.436  1.00  0.00     0.422 C  
HETATM   22  C   UNL     1      -7.337  14.256  70.538  1.00  0.00     0.997 C  
HETATM   23  C   UNL     1      -7.327  13.591  69.176  1.00  0.00     0.074 C  
HETATM   24  C   UNL     1      -7.032  12.277  69.110  1.00  0.00    -0.041 C  
HETATM   25  C   UNL     1      -8.310  11.531  69.416  1.00  0.00     0.520 C  
HETATM   26  C   UNL     1      -9.594  12.159  68.939  1.00  0.00     0.133 C  
ENDROOT
BRANCH   5  27
HETATM   27  C   UNL     1      -9.961  19.938  68.569  1.00  0.00    -0.395 C  
HETATM   28  C   UNL     1     -10.732  20.377  69.809  1.00  0.00     0.971 C  
HETATM   29  O   UNL     1     -10.333  20.469  67.516  1.00  0.00    -0.285 OA 
HETATM   30 CL   UNL     1      -9.817  20.233  71.312  1.00  0.00     1.680 Cl 
ENDBRANCH   5  27
TORSDOF 1
ENDMDL
MODEL      100
REMARK 921   NORMALIZED FREE ENERGY PREDICTED BY IDOCK:    3.97 KCAL/MOL
REMARK 922        TOTAL FREE ENERGY PREDICTED BY IDOCK:    5.48 KCAL/MOL
REMARK 923 INTER-LIGAND FREE ENERGY PREDICTED BY IDOCK:    3.72 KCAL/MOL
REMARK 924 INTRA-LIGAND FREE ENERGY PREDICTED BY IDOCK:    1.77 KCAL/MOL
REMARK 927      BINDING AFFINITY PREDICTED BY RF-SCORE:    0.00 PKD
ROOT
HETATM    1  C   UNL     1     -12.691   9.642  72.272  1.00  0.00    -0.362 C  
HETATM    2  C   UNL     1     -14.012   9.675  71.774  1.00  0.00    -0.162 C  
HETATM    3  C   UNL     1     -13.083   8.930  70.829  1.00  0.00     0.271 C  
HETATM    4  C   UNL     1     -14.295   8.054  70.018  1.00  0.00     3.490 C  
HETATM    5  C   UNL     1     -11.188   8.551  71.548  1.00  0.00    -0.279 C  
HETATM    6  O   UNL     1     -10.827   8.779  72.976  1.00  0.00     0.349 OA 
HETATM    7  C   UNL     1     -12.511  12.305  67.819  1.00  0.00     1.023 C  
HETATM    8  C   UNL     1     -12.371   7.889  71.494  1.00  0.00    -0.340 C  
HETATM    9  C   UNL     1     -11.597   7.944  69.713  1.00  0.00     0.339 C  
HETATM   10  C   UNL     1     -12.915   6.751  72.353  1.00  0.00     0.235 C  
HETATM   11  C   UNL     1     -11.623  12.435  69.132  1.00  0.00    -0.369 C  
HETATM   12  C   UNL     1     -10.302  12.973  68.605  1.00  0.00    -0.203 C  
HETATM   13  H   UNL     1      -9.953   8.603  73.307  1.00  0.00     0.000 HD 
HETATM   14  C   UNL     1     -11.122   9.633  69.220  1.00  0.00    -0.118 C  
HETATM   15  O   UNL     1     -10.892  16.517  69.008  1.00  0.00    -0.302 OA 
HETATM   16  O   UNL     1      -9.691   9.692  69.306  1.00  0.00    -0.168 OA 
HETATM   17  C   UNL     1     -11.846  11.067  69.914  1.00  0.00    -0.353 C  
HETATM   18  C   UNL     1     -11.787  11.002  71.539  1.00  0.00     0.388 C  
HETATM   19  F   UNL     1     -13.243  11.068  69.684  1.00  0.00    -0.019 F  
HETATM   20  H   UNL     1      -9.443  10.573  69.049  1.00  0.00     0.000 HD 
HETATM   21  C   UNL     1     -12.293  12.306  72.183  1.00  0.00     0.884 C  
HETATM   22  C   UNL     1     -11.730  13.529  71.472  1.00  0.00     1.045 C  
HETATM   23  C   UNL     1     -12.192  13.564  70.029  1.00  0.00    -0.381 C  
HETATM   24  C   UNL     1     -12.440  14.765  69.468  1.00  0.00    -0.135 C  
HETATM   25  C   UNL     1     -11.109  15.313  69.009  1.00  0.00    -0.260 C  
HETATM   26  C   UNL     1     -10.099  14.311  68.510  1.00  0.00    -0.246 C  
ENDROOT
BRANCH   5  27
HETATM   27  C   UNL     1     -10.184   7.154  71.600  1.00  0.00    -0.193 C  
HETATM   28  C   UNL     1      -8.713   7.338  71.958  1.00  0.00    -0.117 C  
HETATM   29  O   UNL     1     -10.500   5.998  71.298  1.00  0.00    -0.214 OA 
HETATM   30 CL   UNL     1      -8.402   8.700  73.038  1.00  0.00    -0.085 Cl 
ENDBRANCH   5  27
TORSDOF 1
ENDMDL
MODEL      101
REMARK 921   NORMALIZED FREE ENERGY PREDICTED BY IDOCK:    5.11 KCAL/MOL
REMARK 922        TOTAL FREE ENERGY PREDICTED BY IDOCK:    6.69 KCAL/MOL
REMARK 923 INTER-LIGAND FREE ENERGY PREDICTED BY IDOCK:    5.42 KCAL/MOL
REMARK 924 INTRA-LIGAND FREE ENERGY PREDICTED BY IDOCK:    1.27 KCAL/MOL
REMARK 927      BINDING AFFINITY PREDICTED BY RF-SCORE:    0.00 PKD
ROOT
HETATM    1  C   UNL     1      -6.500  18.218  66.034  1.00  0.00    -0.278 C  
HETATM    2  C   UNL     1      -7.082  18.988  65.002  1.00  0.00     0.451 C  
HETATM    3  C   UNL     1      -7.556  19.448  66.371  1.00  0.00    -0.283 C  
HETATM    4  C   UNL     1      -8.042  21.006  65.892  1.00  0.00     1.028 C  
HETATM    5  C   UNL     1      -6.583  18.614  67.986  1.00  0.00    -0.219 C  
HETATM    6  O   UNL     1      -5.346  17.798  67.825  1.00  0.00    -0.133 OA 
HETATM    7  C   UNL     1     -11.617  17.380  66.288  1.00  0.00     1.816 C  
HETATM    8  C   UNL     1      -6.466  19.742  67.242  1.00  0.00    -0.216 C  
HETATM    9  C   UNL     1      -8.040  19.892  68.370  1.00  0.00    -0.239 C  
HETATM   10  C   UNL     1      -5.269  20.659  67.005  1.00  0.00    -0.205 C  
HETATM   11  C   UNL     1     -10.400  16.427  66.657  1.00  0.00    -0.292 C  
HETATM   12  C   UNL     1     -10.983  15.518  67.727  1.00  0.00    -0.317 C  
HETATM   13  H   UNL     1      -4.898  17.414  68.570  1.00  0.00     0.000 HD 
HETATM   14  C   UNL     1      -9.135  18.442  68.222  1.00  0.00    -0.312 C  
HETATM   15  O   UNL     1     -12.111  12.784  65.649  1.00  0.00    -0.429 OA 
HETATM   16  O   UNL     1      -8.956  17.676  69.421  1.00  0.00     0.164 OA 
HETATM   17  C   UNL     1      -9.151  17.400  66.816  1.00  0.00    -0.260 C  
HETATM   18  C   UNL     1      -7.642  16.906  66.459  1.00  0.00    -0.328 C  
HETATM   19  F   UNL     1      -9.482  18.148  65.659  1.00  0.00    -0.061 F  
HETATM   20  H   UNL     1      -9.527  16.919  69.344  1.00  0.00     0.000 HD 
HETATM   21  C   UNL     1      -7.631  15.882  65.309  1.00  0.00     5.153 C  
HETATM   22  C   UNL     1      -8.727  14.840  65.487  1.00  0.00     1.668 C  
HETATM   23  C   UNL     1     -10.093  15.494  65.457  1.00  0.00    -0.406 C  
HETATM   24  C   UNL     1     -11.114  14.814  64.896  1.00  0.00    -0.416 C  
HETATM   25  C   UNL     1     -11.638  13.871  65.954  1.00  0.00    -0.340 C  
HETATM   26  C   UNL     1     -11.596  14.359  67.380  1.00  0.00    -0.398 C  
ENDROOT
BRANCH   5  27
HETATM   27  C   UNL     1      -5.880  19.252  69.421  1.00  0.00    -0.250 C  
HETATM   28  C   UNL     1      -6.045  18.463  70.715  1.00  0.00     0.455 C  
HETATM   29  O   UNL     1      -5.309  20.341  69.550  1.00  0.00    -0.223 OA 
HETATM   30 CL   UNL     1      -6.163  16.716  70.482  1.00  0.00     0.296 Cl 
ENDBRANCH   5  27
TORSDOF 1
ENDMDL
MODEL      102
REMARK 921   NORMALIZED FREE ENERGY PREDICTED BY IDOCK:    7.18 KCAL/MOL
REMARK 922        TOTAL FREE ENERGY PREDICTED BY IDOCK:    8.88 KCAL/MOL
REMARK 923 INTER-LIGAND FREE ENERGY PREDICTED BY IDOCK:    2.56 KCAL/MOL
REMARK 924 INTRA-LIGAND FREE ENERGY PREDICTED BY IDOCK:    6.32 KCAL/MOL
REMARK 927      BINDING AFFINITY PREDICTED BY RF-SCORE:    0.00 PKD
ROOT
HETATM    1  C   UNL     1     -10.539  15.864  66.764  1.00  0.00    -0.309 C  
HETATM    2  C   UNL     1      -9.817  16.344  65.648  1.00  0.00    -0.222 C  
HETATM    3  C   UNL     1      -9.414  14.921  65.999  1.00  0.00    -0.316 C  
HETATM    4  C   UNL     1      -8.764  14.525  64.478  1.00  0.00     6.083 C  
HETATM    5  C   UNL     1     -10.576  13.982  67.421  1.00  0.00    -0.278 C  
HETATM    6  O   UNL     1     -11.860  14.568  67.900  1.00  0.00    -0.371 OA 
HETATM    7  C   UNL     1      -5.545  15.949  68.179  1.00  0.00    -0.119 C  
HETATM    8  C   UNL     1     -10.541  14.050  66.066  1.00  0.00    -0.297 C  
HETATM    9  C   UNL     1      -9.052  12.964  66.683  1.00  0.00    -0.181 C  
HETATM   10  C   UNL     1     -11.635  13.814  65.028  1.00  0.00    -0.350 C  
HETATM   11  C   UNL     1      -6.863  16.148  69.046  1.00  0.00    -0.176 C  
HETATM   12  C   UNL     1      -6.443  15.677  70.429  1.00  0.00     0.172 C  
HETATM   13  H   UNL     1     -12.396  14.135  68.555  1.00  0.00     0.000 HD 
HETATM   14  C   UNL     1      -8.074  13.805  67.971  1.00  0.00    -0.163 C  
HETATM   15  O   UNL     1      -5.388  18.831  71.845  1.00  0.00    -0.566 OA 
HETATM   16  O   UNL     1      -8.408  13.169  69.213  1.00  0.00    -0.123 OA 
HETATM   17  C   UNL     1      -8.034  15.545  68.154  1.00  0.00    -0.131 C  
HETATM   18  C   UNL     1      -9.547  16.141  68.228  1.00  0.00    -0.216 C  
HETATM   19  F   UNL     1      -7.554  16.150  66.967  1.00  0.00    -0.170 F  
HETATM   20  H   UNL     1      -7.898  13.608  69.884  1.00  0.00     0.000 HD 
HETATM   21  C   UNL     1      -9.554  17.652  68.524  1.00  0.00    -0.315 C  
HETATM   22  C   UNL     1      -8.566  18.004  69.627  1.00  0.00     0.978 C  
HETATM   23  C   UNL     1      -7.152  17.663  69.204  1.00  0.00    -0.189 C  
HETATM   24  C   UNL     1      -6.151  18.467  69.617  1.00  0.00    -0.255 C  
HETATM   25  C   UNL     1      -5.791  18.026  71.016  1.00  0.00     0.458 C  
HETATM   26  C   UNL     1      -5.903  16.552  71.314  1.00  0.00     0.817 C  
ENDROOT
BRANCH   5  27
HETATM   27  C   UNL     1     -11.333  12.441  67.521  1.00  0.00    -0.315 C  
HETATM   28  C   UNL     1     -11.210  11.500  66.327  1.00  0.00    -0.222 C  
HETATM   29  O   UNL     1     -12.052  12.022  68.435  1.00  0.00    -0.412 OA 
HETATM   30 CL   UNL     1      -9.717  11.701  65.406  1.00  0.00    -0.254 Cl 
ENDBRANCH   5  27
TORSDOF 1
ENDMDL
MODEL      103
REMARK 921   NORMALIZED FREE ENERGY PREDICTED BY IDOCK:    7.55 KCAL/MOL
REMARK 922        TOTAL FREE ENERGY PREDICTED BY IDOCK:    9.27 KCAL/MOL
REMARK 923 INTER-LIGAND FREE ENERGY PREDICTED BY IDOCK:    6.55 KCAL/MOL
REMARK 924 INTRA-LIGAND FREE ENERGY PREDICTED BY IDOCK:    2.72 KCAL/MOL
REMARK 927      BINDING AFFINITY PREDICTED BY RF-SCORE:    0.00 PKD
ROOT
HETATM    1  C   UNL     1      -8.450  12.977  68.176  1.00  0.00    -0.176 C  
HETATM    2  C   UNL     1      -8.176  12.733  69.541  1.00  0.00     1.324 C  
HETATM    3  C   UNL     1      -9.574  13.297  69.348  1.00  0.00     0.933 C  
HETATM    4  C   UNL     1     -10.210  12.742  70.825  1.00  0.00     5.430 C  
HETATM    5  C   UNL     1     -10.225  13.438  67.397  1.00  0.00    -0.237 C  
HETATM    6  O   UNL     1      -9.476  12.814  66.269  1.00  0.00    -0.277 OA 
HETATM    7  C   UNL     1      -8.625  17.590  70.551  1.00  0.00     4.307 C  
HETATM    8  C   UNL     1     -10.329  12.538  68.407  1.00  0.00    -0.237 C  
HETATM    9  C   UNL     1     -11.456  14.070  68.808  1.00  0.00    -0.327 C  
HETATM   10  C   UNL     1     -10.596  11.035  68.378  1.00  0.00    -0.224 C  
HETATM   11  C   UNL     1      -8.207  17.214  69.064  1.00  0.00    -0.107 C  
HETATM   12  C   UNL     1      -8.538  18.475  68.281  1.00  0.00    -0.341 C  
HETATM   13  H   UNL     1      -9.776  12.879  65.370  1.00  0.00     0.000 HD 
HETATM   14  C   UNL     1     -10.551  15.645  68.668  1.00  0.00    -0.243 C  
HETATM   15  O   UNL     1      -5.336  20.145  68.448  1.00  0.00    -0.197 OA 
HETATM   16  O   UNL     1     -10.996  16.262  67.452  1.00  0.00    -0.281 OA 
HETATM   17  C   UNL     1      -8.811  15.762  68.823  1.00  0.00    -0.207 C  
HETATM   18  C   UNL     1      -8.081  14.695  67.835  1.00  0.00    -0.149 C  
HETATM   19  F   UNL     1      -8.402  15.291  70.095  1.00  0.00    -0.122 F  
HETATM   20  H   UNL     1     -10.524  17.084  67.379  1.00  0.00     0.000 HD 
HETATM   21  C   UNL     1      -6.550  14.860  67.844  1.00  0.00    -0.173 C  
HETATM   22  C   UNL     1      -6.152  16.327  67.770  1.00  0.00    -0.153 C  
HETATM   23  C   UNL     1      -6.664  17.079  68.982  1.00  0.00    -0.221 C  
HETATM   24  C   UNL     1      -5.906  18.075  69.482  1.00  0.00    -0.236 C  
HETATM   25  C   UNL     1      -6.199  19.302  68.652  1.00  0.00    -0.240 C  
HETATM   26  C   UNL     1      -7.610  19.455  68.141  1.00  0.00    -0.332 C  
ENDROOT
BRANCH   5  27
HETATM   27  C   UNL     1     -11.671  12.985  66.581  1.00  0.00    -0.381 C  
HETATM   28  C   UNL     1     -11.556  12.057  65.376  1.00  0.00    -0.286 C  
HETATM   29  O   UNL     1     -12.815  13.394  66.809  1.00  0.00     0.025 OA 
HETATM   30 CL   UNL     1     -10.192  10.939  65.458  1.00  0.00    -0.322 Cl 
ENDBRANCH   5  27
TORSDOF 1
ENDMDL
MODEL      104
REMARK 921   NORMALIZED FREE ENERGY PREDICTED BY IDOCK:    8.32 KCAL/MOL
REMARK 922        TOTAL FREE ENERGY PREDICTED BY IDOCK:   10.09 KCAL/MOL
REMARK 923 INTER-LIGAND FREE ENERGY PREDICTED BY IDOCK:    2.63 KCAL/MOL
REMARK 924 INTRA-LIGAND FREE ENERGY PREDICTED BY IDOCK:    7.46 KCAL/MOL
REMARK 927      BINDING AFFINITY PREDICTED BY RF-SCORE:    0.00 PKD
ROOT
HETATM    1  C   UNL     1      -9.728   6.275  64.262  1.00  0.00     2.515 C  
HETATM    2  C   UNL     1      -8.869   6.593  63.186  1.00  0.00     0.783 C  
HETATM    3  C   UNL     1      -8.173   5.708  64.208  1.00  0.00    -0.117 C  
HETATM    4  C   UNL     1      -6.963   5.124  63.164  1.00  0.00    -0.042 C  
HETATM    5  C   UNL     1      -9.378   4.928  65.689  1.00  0.00    -0.161 C  
HETATM    6  O   UNL     1     -10.864   5.029  65.630  1.00  0.00    -0.617 OA 
HETATM    7  C   UNL     1      -5.795   8.999  66.280  1.00  0.00    -0.058 C  
HETATM    8  C   UNL     1      -8.917   4.522  64.480  1.00  0.00    -0.152 C  
HETATM    9  C   UNL     1      -7.454   4.480  65.758  1.00  0.00    -0.081 C  
HETATM   10  C   UNL     1      -9.466   3.489  63.500  1.00  0.00    -0.121 C  
HETATM   11  C   UNL     1      -7.317   8.901  66.732  1.00  0.00    -0.082 C  
HETATM   12  C   UNL     1      -7.254   9.179  68.225  1.00  0.00    -0.078 C  
HETATM   13  H   UNL     1     -11.419   4.669  66.313  1.00  0.00     0.000 HD 
HETATM   14  C   UNL     1      -7.284   6.054  66.662  1.00  0.00    -0.074 C  
HETATM   15  O   UNL     1      -7.798  12.752  68.197  1.00  0.00    -0.127 OA 
HETATM   16  O   UNL     1      -7.791   5.820  67.983  1.00  0.00    -0.098 OA 
HETATM   17  C   UNL     1      -7.866   7.581  66.034  1.00  0.00    -0.101 C  
HETATM   18  C   UNL     1      -9.424   7.449  65.579  1.00  0.00     0.550 C  
HETATM   19  F   UNL     1      -7.238   7.872  64.799  1.00  0.00    -0.065 F  
HETATM   20  H   UNL     1      -7.703   6.640  68.454  1.00  0.00     0.000 HD 
HETATM   21  C   UNL     1     -10.011   8.806  65.147  1.00  0.00     1.071 C  
HETATM   22  C   UNL     1      -9.615   9.913  66.114  1.00  0.00    -0.275 C  
HETATM   23  C   UNL     1      -8.110  10.090  66.131  1.00  0.00    -0.122 C  
HETATM   24  C   UNL     1      -7.616  11.336  66.290  1.00  0.00    -0.032 C  
HETATM   25  C   UNL     1      -7.622  11.618  67.774  1.00  0.00    -0.121 C  
HETATM   26  C   UNL     1      -7.350  10.450  68.688  1.00  0.00    -0.085 C  
ENDROOT
BRANCH   5  27
HETATM   27  C   UNL     1      -9.590   3.356  66.356  1.00  0.00    -0.051 C  
HETATM   28  C   UNL     1      -9.253   2.153  65.481  1.00  0.00    -0.033 C  
HETATM   29  O   UNL     1     -10.071   3.074  67.458  1.00  0.00     0.480 OA 
HETATM   30 CL   UNL     1      -7.972   2.456  64.305  1.00  0.00    -0.076 Cl 
ENDBRANCH   5  27
TORSDOF 1
ENDMDL
MODEL      105
REMARK 921   NORMALIZED FREE ENERGY PREDICTED BY IDOCK:    8.51 KCAL/MOL
REMARK 922        TOTAL FREE ENERGY PREDICTED BY IDOCK:   10.29 KCAL/MOL
REMARK 923 INTER-LIGAND FREE ENERGY PREDICTED BY IDOCK:    7.77 KCAL/MOL
REMARK 924 INTRA-LIGAND FREE ENERGY PREDICTED BY IDOCK:    2.52 KCAL/MOL
REMARK 927      BINDING AFFINITY PREDICTED BY RF-SCORE:    0.00 PKD
ROOT
HETATM    1  C   UNL     1     -13.127  10.736  69.653  1.00  0.00     0.681 C  
HETATM    2  C   UNL     1     -13.614  11.109  70.926  1.00  0.00     0.799 C  
HETATM    3  C   UNL     1     -12.250  11.723  70.652  1.00  0.00    -0.443 C  
HETATM    4  C   UNL     1     -12.376  12.983  71.787  1.00  0.00     0.198 C  
HETATM    5  C   UNL     1     -11.537  11.506  68.729  1.00  0.00    -0.316 C  
HETATM    6  O   UNL     1     -12.396  10.992  67.624  1.00  0.00    -0.097 OA 
HETATM    7  C   UNL     1      -9.796   8.782  73.122  1.00  0.00     0.712 C  
HETATM    8  C   UNL     1     -12.229  12.445  69.422  1.00  0.00    -0.121 C  
HETATM    9  C   UNL     1     -10.381  12.454  70.020  1.00  0.00     1.784 C  
HETATM   10  C   UNL     1     -13.167  13.548  68.940  1.00  0.00     2.729 C  
HETATM   11  C   UNL     1     -10.218   8.245  71.686  1.00  0.00    -0.286 C  
HETATM   12  C   UNL     1      -8.990   7.473  71.229  1.00  0.00    -0.142 C  
HETATM   13  H   UNL     1     -12.067  10.892  66.738  1.00  0.00     0.000 HD 
HETATM   14  C   UNL     1      -9.796  10.788  70.475  1.00  0.00     1.590 C  
HETATM   15  O   UNL     1      -9.884   4.173  72.401  1.00  0.00    -0.146 OA 
HETATM   16  O   UNL     1      -8.932  10.359  69.413  1.00  0.00    -0.250 OA 
HETATM   17  C   UNL     1     -10.875   9.498  70.958  1.00  0.00    -0.353 C  
HETATM   18  C   UNL     1     -12.063   9.312  69.860  1.00  0.00     0.506 C  
HETATM   19  F   UNL     1     -11.612   9.882  72.105  1.00  0.00    -0.276 F  
HETATM   20  H   UNL     1      -8.627   9.490  69.650  1.00  0.00     0.000 HD 
HETATM   21  C   UNL     1     -12.955   8.099  70.182  1.00  0.00     1.622 C  
HETATM   22  C   UNL     1     -12.121   6.889  70.580  1.00  0.00    -0.315 C  
HETATM   23  C   UNL     1     -11.332   7.179  71.841  1.00  0.00    -0.294 C  
HETATM   24  C   UNL     1     -11.140   6.173  72.718  1.00  0.00    -0.294 C  
HETATM   25  C   UNL     1      -9.957   5.380  72.214  1.00  0.00    -0.177 C  
HETATM   26  C   UNL     1      -8.863   6.155  71.525  1.00  0.00    -0.135 C  
ENDROOT
BRANCH   5  27
HETATM   27  C   UNL     1     -10.842  12.582  67.581  1.00  0.00    -0.225 C  
HETATM   28  C   UNL     1     -10.696  12.101  66.141  1.00  0.00    -0.272 C  
HETATM   29  O   UNL     1     -10.362  13.699  67.802  1.00  0.00    -0.235 OA 
HETATM   30 CL   UNL     1     -11.930  10.942  65.642  1.00  0.00     1.525 Cl 
ENDBRANCH   5  27
TORSDOF 1
ENDMDL
MODEL      106
REMARK 921   NORMALIZED FREE ENERGY PREDICTED BY IDOCK:    9.90 KCAL/MOL
REMARK 922        TOTAL FREE ENERGY PREDICTED BY IDOCK:   11.76 KCAL/MOL
REMARK 923 INTER-LIGAND FREE ENERGY PREDICTED BY IDOCK:    2.98 KCAL/MOL
REMARK 924 INTRA-LIGAND FREE ENERGY PREDICTED BY IDOCK:    8.78 KCAL/MOL
REMARK 927      BINDING AFFINITY PREDICTED BY RF-SCORE:    0.00 PKD
ROOT
HETATM    1  C   UNL     1      -8.792  16.425  68.015  1.00  0.00    -0.184 C  
HETATM    2  C   UNL     1      -8.593  17.243  66.881  1.00  0.00    -0.263 C  
HETATM    3  C   UNL     1     -10.021  17.342  67.391  1.00  0.00    -0.278 C  
HETATM    4  C   UNL     1     -10.382  18.836  66.663  1.00  0.00    -0.472 C  
HETATM    5  C   UNL     1     -10.392  16.430  69.203  1.00  0.00    -0.289 C  
HETATM    6  O   UNL     1      -9.291  15.915  70.066  1.00  0.00     0.020 OA 
HETATM    7  C   UNL     1     -11.919  14.573  64.308  1.00  0.00    -0.419 C  
HETATM    8  C   UNL     1     -10.069  17.677  68.776  1.00  0.00    -0.377 C  
HETATM    9  C   UNL     1     -11.917  17.307  68.303  1.00  0.00     1.670 C  
HETATM   10  C   UNL     1      -9.399  18.838  69.507  1.00  0.00     0.337 C  
HETATM   11  C   UNL     1     -11.185  13.824  65.503  1.00  0.00    -0.303 C  
HETATM   12  C   UNL     1     -12.096  12.638  65.780  1.00  0.00    -0.484 C  
HETATM   13  H   UNL     1      -9.463  15.496  70.901  1.00  0.00     0.000 HD 
HETATM   14  C   UNL     1     -12.098  15.724  67.418  1.00  0.00     0.807 C  
HETATM   15  O   UNL     1     -10.527  10.166  63.659  1.00  0.00     0.448 OA 
HETATM   16  O   UNL     1     -12.671  14.800  68.354  1.00  0.00    -0.256 OA 
HETATM   17  C   UNL     1     -10.791  14.976  66.527  1.00  0.00    -0.320 C  
HETATM   18  C   UNL     1      -9.462  14.860  67.460  1.00  0.00    -0.200 C  
HETATM   19  F   UNL     1     -10.338  15.844  65.503  1.00  0.00    -0.323 F  
HETATM   20  H   UNL     1     -12.765  13.975  67.892  1.00  0.00     0.000 HD 
HETATM   21  C   UNL     1      -8.332  14.086  66.756  1.00  0.00     0.075 C  
HETATM   22  C   UNL     1      -8.864  12.836  66.069  1.00  0.00     0.353 C  
HETATM   23  C   UNL     1      -9.860  13.206  64.988  1.00  0.00    -0.064 C  
HETATM   24  C   UNL     1      -9.895  12.454  63.869  1.00  0.00    -0.150 C  
HETATM   25  C   UNL     1     -10.750  11.249  64.183  1.00  0.00    -0.369 C  
HETATM   26  C   UNL     1     -11.909  11.465  65.123  1.00  0.00     0.385 C  
ENDROOT
BRANCH   5  27
HETATM   27  C   UNL     1     -11.189  16.919  70.648  1.00  0.00     0.490 C  
HETATM   28  C   UNL     1     -10.700  18.184  71.346  1.00  0.00     2.923 C  
HETATM   29  O   UNL     1     -12.080  16.310  71.250  1.00  0.00    -0.372 OA 
HETATM   30 CL   UNL     1     -10.021  19.391  70.251  1.00  0.00     0.589 Cl 
ENDBRANCH   5  27
TORSDOF 1
ENDMDL
MODEL      107
REMARK 921   NORMALIZED FREE ENERGY PREDICTED BY IDOCK:   11.72 KCAL/MOL
REMARK 922        TOTAL FREE ENERGY PREDICTED BY IDOCK:   13.69 KCAL/MOL
REMARK 923 INTER-LIGAND FREE ENERGY PREDICTED BY IDOCK:   12.03 KCAL/MOL
REMARK 924 INTRA-LIGAND FREE ENERGY PREDICTED BY IDOCK:    1.66 KCAL/MOL
REMARK 927      BINDING AFFINITY PREDICTED BY RF-SCORE:    0.00 PKD
ROOT
HETATM    1  C   UNL     1      -9.240  18.348  68.561  1.00  0.00    -0.348 C  
HETATM    2  C   UNL     1      -9.370  18.519  69.958  1.00  0.00     1.434 C  
HETATM    3  C   UNL     1      -7.960  18.096  69.581  1.00  0.00     0.767 C  
HETATM    4  C   UNL     1      -7.205  18.657  70.998  1.00  0.00     3.210 C  
HETATM    5  C   UNL     1      -7.535  18.082  67.563  1.00  0.00    -0.211 C  
HETATM    6  O   UNL     1      -8.466  18.671  66.558  1.00  0.00    -0.278 OA 
HETATM    7  C   UNL     1      -8.373  13.695  70.693  1.00  0.00     4.614 C  
HETATM    8  C   UNL     1      -7.392  18.953  68.593  1.00  0.00    -0.343 C  
HETATM    9  C   UNL     1      -6.095  17.521  68.794  1.00  0.00    -0.183 C  
HETATM   10  C   UNL     1      -7.266  20.474  68.601  1.00  0.00     0.059 C  
HETATM   11  C   UNL     1      -8.997  14.079  69.282  1.00  0.00     0.438 C  
HETATM   12  C   UNL     1      -8.650  12.882  68.411  1.00  0.00    -0.120 C  
HETATM   13  H   UNL     1      -8.270  18.665  65.628  1.00  0.00     0.000 HD 
HETATM   14  C   UNL     1      -6.866  15.873  68.689  1.00  0.00    -0.125 C  
HETATM   15  O   UNL     1     -11.648  10.915  68.871  1.00  0.00    -0.272 OA 
HETATM   16  O   UNL     1      -6.515  15.342  67.403  1.00  0.00    -0.234 OA 
HETATM   17  C   UNL     1      -8.557  15.589  69.038  1.00  0.00    -0.234 C  
HETATM   18  C   UNL     1      -9.492  16.615  68.188  1.00  0.00    -0.228 C  
HETATM   19  F   UNL     1      -8.853  15.977  70.368  1.00  0.00     0.533 F  
HETATM   20  H   UNL     1      -6.917  14.483  67.349  1.00  0.00     0.000 HD 
HETATM   21  C   UNL     1     -10.990  16.308  68.366  1.00  0.00    -0.351 C  
HETATM   22  C   UNL     1     -11.262  14.813  68.273  1.00  0.00    -0.299 C  
HETATM   23  C   UNL     1     -10.544  14.072  69.384  1.00  0.00    -0.021 C  
HETATM   24  C   UNL     1     -11.146  12.993  69.923  1.00  0.00     0.230 C  
HETATM   25  C   UNL     1     -10.845  11.827  69.011  1.00  0.00    -0.195 C  
HETATM   26  C   UNL     1      -9.497  11.824  68.335  1.00  0.00    -0.188 C  
ENDROOT
BRANCH   5  27
HETATM   27  C   UNL     1      -6.243  18.695  66.607  1.00  0.00    -0.174 C  
HETATM   28  C   UNL     1      -5.567  17.750  65.620  1.00  0.00    -0.096 C  
HETATM   29  O   UNL     1      -5.728  19.817  66.681  1.00  0.00    -0.170 OA 
HETATM   30 CL   UNL     1      -6.635  16.500  64.976  1.00  0.00     4.814 Cl 
ENDBRANCH   5  27
TORSDOF 1
ENDMDL
MODEL      108
REMARK 921   NORMALIZED FREE ENERGY PREDICTED BY IDOCK:   12.77 KCAL/MOL
REMARK 922        TOTAL FREE ENERGY PREDICTED BY IDOCK:   14.80 KCAL/MOL
REMARK 923 INTER-LIGAND FREE ENERGY PREDICTED BY IDOCK:    8.22 KCAL/MOL
REMARK 924 INTRA-LIGAND FREE ENERGY PREDICTED BY IDOCK:    6.59 KCAL/MOL
REMARK 927      BINDING AFFINITY PREDICTED BY RF-SCORE:    0.00 PKD
ROOT
HETATM    1  C   UNL     1      -9.869  15.405  65.817  1.00  0.00    -0.399 C  
HETATM    2  C   UNL     1      -8.595  14.902  66.164  1.00  0.00     0.311 C  
HETATM    3  C   UNL     1      -9.582  13.777  65.899  1.00  0.00    -0.152 C  
HETATM    4  C   UNL     1      -8.421  12.572  65.588  1.00  0.00     1.180 C  
HETATM    5  C   UNL     1     -11.399  14.344  65.107  1.00  0.00    -0.359 C  
HETATM    6  O   UNL     1     -11.644  15.727  64.609  1.00  0.00    -0.379 OA 
HETATM    7  C   UNL     1     -10.490  12.781  70.253  1.00  0.00     2.374 C  
HETATM    8  C   UNL     1     -10.209  13.907  64.625  1.00  0.00    -0.278 C  
HETATM    9  C   UNL     1     -11.132  12.420  65.468  1.00  0.00    -0.338 C  
HETATM   10  C   UNL     1      -9.566  14.084  63.252  1.00  0.00     7.249 C  
HETATM   11  C   UNL     1     -11.267  14.050  69.691  1.00  0.00    -0.218 C  
HETATM   12  C   UNL     1     -12.641  13.927  70.332  1.00  0.00    -0.350 C  
HETATM   13  H   UNL     1     -12.482  15.989  64.244  1.00  0.00     0.000 HD 
HETATM   14  C   UNL     1     -11.689  12.822  67.156  1.00  0.00    -0.380 C  
HETATM   15  O   UNL     1     -12.107  15.933  73.291  1.00  0.00    -0.446 OA 
HETATM   16  O   UNL     1     -13.108  13.015  67.079  1.00  0.00     0.865 OA 
HETATM   17  C   UNL     1     -10.945  14.069  68.133  1.00  0.00    -0.252 C  
HETATM   18  C   UNL     1     -10.864  15.467  67.303  1.00  0.00    -0.313 C  
HETATM   19  F   UNL     1      -9.572  13.781  68.329  1.00  0.00    -0.196 F  
HETATM   20  H   UNL     1     -13.399  13.225  67.959  1.00  0.00     0.000 HD 
HETATM   21  C   UNL     1     -10.338  16.622  68.175  1.00  0.00    -0.303 C  
HETATM   22  C   UNL     1     -10.990  16.617  69.551  1.00  0.00    -0.228 C  
HETATM   23  C   UNL     1     -10.653  15.339  70.294  1.00  0.00    -0.257 C  
HETATM   24  C   UNL     1     -10.482  15.405  71.630  1.00  0.00     0.852 C  
HETATM   25  C   UNL     1     -11.861  15.346  72.246  1.00  0.00    -0.458 C  
HETATM   26  C   UNL     1     -12.884  14.494  71.540  1.00  0.00    -0.407 C  
ENDROOT
BRANCH   5  27
HETATM   27  C   UNL     1     -12.360  13.787  63.793  1.00  0.00    -0.256 C  
HETATM   28  C   UNL     1     -11.751  12.761  62.843  1.00  0.00     0.438 C  
HETATM   29  O   UNL     1     -13.484  14.185  63.470  1.00  0.00     1.359 OA 
HETATM   30 CL   UNL     1     -10.572  11.688  63.602  1.00  0.00    -0.444 Cl 
ENDBRANCH   5  27
TORSDOF 1
ENDMDL
MODEL      109
REMARK 921   NORMALIZED FREE ENERGY PREDICTED BY IDOCK:   18.69 KCAL/MOL
REMARK 922        TOTAL FREE ENERGY PREDICTED BY IDOCK:   21.06 KCAL/MOL
REMARK 923 INTER-LIGAND FREE ENERGY PREDICTED BY IDOCK:   15.01 KCAL/MOL
REMARK 924 INTRA-LIGAND FREE ENERGY PREDICTED BY IDOCK:    6.05 KCAL/MOL
REMARK 927      BINDING AFFINITY PREDICTED BY RF-SCORE:    0.00 PKD
ROOT
HETATM    1  C   UNL     1     -12.789  10.101  71.924  1.00  0.00    -0.526 C  
HETATM    2  C   UNL     1     -14.114  10.341  71.494  1.00  0.00     0.518 C  
HETATM    3  C   UNL     1     -13.167  10.193  70.315  1.00  0.00     0.158 C  
HETATM    4  C   UNL     1     -14.356   9.804  69.162  1.00  0.00     6.818 C  
HETATM    5  C   UNL     1     -11.258   9.559  70.769  1.00  0.00    -0.317 C  
HETATM    6  O   UNL     1     -10.897   9.055  72.125  1.00  0.00    -0.337 OA 
HETATM    7  C   UNL     1     -12.710  14.633  69.393  1.00  0.00     0.186 C  
HETATM    8  C   UNL     1     -12.421   8.980  70.380  1.00  0.00     0.399 C  
HETATM    9  C   UNL     1     -11.657   9.937  68.871  1.00  0.00     0.120 C  
HETATM   10  C   UNL     1     -12.927   7.550  70.551  1.00  0.00     0.404 C  
HETATM   11  C   UNL     1     -11.820  14.117  70.605  1.00  0.00    -0.333 C  
HETATM   12  C   UNL     1     -10.518  14.883  70.432  1.00  0.00     0.088 C  
HETATM   13  H   UNL     1     -10.018   8.763  72.334  1.00  0.00     0.000 HD 
HETATM   14  C   UNL     1     -11.235  11.659  69.291  1.00  0.00    -0.265 C  
HETATM   15  O   UNL     1     -11.213  17.736  72.540  1.00  0.00     1.117 OA 
HETATM   16  O   UNL     1      -9.806  11.708  69.411  1.00  0.00    -0.385 OA 
HETATM   17  C   UNL     1     -11.998  12.536  70.599  1.00  0.00    -0.104 C  
HETATM   18  C   UNL     1     -11.930  11.671  71.976  1.00  0.00     1.907 C  
HETATM   19  F   UNL     1     -13.397  12.611  70.385  1.00  0.00     0.253 F  
HETATM   20  H   UNL     1      -9.586  12.607  69.629  1.00  0.00     0.000 HD 
HETATM   21  C   UNL     1     -12.472  12.465  73.179  1.00  0.00     4.495 C  
HETATM   22  C   UNL     1     -11.949  13.895  73.178  1.00  0.00     1.113 C  
HETATM   23  C   UNL     1     -12.419  14.632  71.940  1.00  0.00    -0.412 C  
HETATM   24  C   UNL     1     -12.706  15.945  72.049  1.00  0.00    -0.495 C  
HETATM   25  C   UNL     1     -11.394  16.686  71.939  1.00  0.00     0.294 C  
HETATM   26  C   UNL     1     -10.356  16.096  71.018  1.00  0.00     1.064 C  
ENDROOT
BRANCH   5  27
HETATM   27  C   UNL     1     -10.213   8.351  70.129  1.00  0.00    -0.195 C  
HETATM   28  C   UNL     1     -10.366   7.973  68.660  1.00  0.00    -0.200 C  
HETATM   29  O   UNL     1      -9.384   7.678  70.751  1.00  0.00    -0.161 OA 
HETATM   30 CL   UNL     1     -10.936   9.292  67.634  1.00  0.00    -0.188 Cl 
ENDBRANCH   5  27
TORSDOF 1
ENDMDL
MODEL      110
REMARK 921   NORMALIZED FREE ENERGY PREDICTED BY IDOCK:   25.47 KCAL/MOL
REMARK 922        TOTAL FREE ENERGY PREDICTED BY IDOCK:   28.24 KCAL/MOL
REMARK 923 INTER-LIGAND FREE ENERGY PREDICTED BY IDOCK:   25.65 KCAL/MOL
REMARK 924 INTRA-LIGAND FREE ENERGY PREDICTED BY IDOCK:    2.58 KCAL/MOL
REMARK 927      BINDING AFFINITY PREDICTED BY RF-SCORE:    0.00 PKD
ROOT
HETATM    1  C   UNL     1     -12.040  15.424  71.694  1.00  0.00    -0.449 C  
HETATM    2  C   UNL     1     -11.467  15.177  72.962  1.00  0.00    -0.135 C  
HETATM    3  C   UNL     1     -10.443  15.019  71.850  1.00  0.00     1.419 C  
HETATM    4  C   UNL     1      -9.065  15.226  72.827  1.00  0.00     8.428 C  
HETATM    5  C   UNL     1     -11.052  15.622  69.974  1.00  0.00    -0.324 C  
HETATM    6  O   UNL     1     -12.319  16.378  69.763  1.00  0.00    -0.231 OA 
HETATM    7  C   UNL     1     -10.504  10.466  71.664  1.00  0.00     2.612 C  
HETATM    8  C   UNL     1     -10.380  16.174  71.016  1.00  0.00     1.064 C  
HETATM    9  C   UNL     1      -9.229  14.879  70.137  1.00  0.00     0.631 C  
HETATM   10  C   UNL     1     -10.183  17.635  71.412  1.00  0.00     3.964 C  
HETATM   11  C   UNL     1     -11.713  11.172  70.910  1.00  0.00    -0.093 C  
HETATM   12  C   UNL     1     -11.898  10.312  69.670  1.00  0.00    -0.181 C  
HETATM   13  H   UNL     1     -12.600  16.656  68.899  1.00  0.00     0.000 HD 
HETATM   14  C   UNL     1     -10.042  13.261  69.932  1.00  0.00     1.707 C  
HETATM   15  O   UNL     1     -14.399   8.011  70.902  1.00  0.00    -0.109 OA 
HETATM   16  O   UNL     1     -10.389  13.156  68.544  1.00  0.00    -0.247 OA 
HETATM   17  C   UNL     1     -11.365  12.724  70.945  1.00  0.00     1.723 C  
HETATM   18  C   UNL     1     -12.536  13.854  70.993  1.00  0.00    -0.444 C  
HETATM   19  F   UNL     1     -10.956  12.687  72.301  1.00  0.00     4.929 F  
HETATM   20  H   UNL     1     -10.814  12.312  68.437  1.00  0.00     0.000 HD 
HETATM   21  C   UNL     1     -13.774  13.362  71.766  1.00  0.00    -0.335 C  
HETATM   22  C   UNL     1     -14.138  11.936  71.377  1.00  0.00     1.949 C  
HETATM   23  C   UNL     1     -13.014  10.984  71.732  1.00  0.00    -0.544 C  
HETATM   24  C   UNL     1     -13.336   9.742  72.147  1.00  0.00    -0.527 C  
HETATM   25  C   UNL     1     -13.580   8.920  70.903  1.00  0.00     0.214 C  
HETATM   26  C   UNL     1     -12.732   9.242  69.699  1.00  0.00     1.845 C  
ENDROOT
BRANCH   5  27
HETATM   27  C   UNL     1     -10.354  16.606  68.747  1.00  0.00    -0.301 C  
HETATM   28  C   UNL     1     -10.024  15.958  67.407  1.00  0.00    -0.239 C  
HETATM   29  O   UNL     1     -10.005  17.788  68.848  1.00  0.00    -0.351 OA 
HETATM   30 CL   UNL     1     -11.089  14.618  66.976  1.00  0.00    -0.324 Cl 
ENDBRANCH   5  27
TORSDOF 1
ENDMDL
MODEL      111
REMARK 921   NORMALIZED FREE ENERGY PREDICTED BY IDOCK:   26.92 KCAL/MOL
REMARK 922        TOTAL FREE ENERGY PREDICTED BY IDOCK:   29.78 KCAL/MOL
REMARK 923 INTER-LIGAND FREE ENERGY PREDICTED BY IDOCK:   28.27 KCAL/MOL
REMARK 924 INTRA-LIGAND FREE ENERGY PREDICTED BY IDOCK:    1.52 KCAL/MOL
REMARK 927      BINDING AFFINITY PREDICTED BY RF-SCORE:    0.00 PKD
ROOT
HETATM    1  C   UNL     1     -10.679  15.543  67.136  1.00  0.00    -0.315 C  
HETATM    2  C   UNL     1      -9.687  14.940  66.330  1.00  0.00    -0.320 C  
HETATM    3  C   UNL     1     -10.184  13.986  67.404  1.00  0.00    -0.248 C  
HETATM    4  C   UNL     1      -9.689  12.553  66.632  1.00  0.00    -0.244 C  
HETATM    5  C   UNL     1     -11.827  14.618  68.477  1.00  0.00    -0.311 C  
HETATM    6  O   UNL     1     -12.618  15.816  68.074  1.00  0.00     0.253 OA 
HETATM    7  C   UNL     1      -6.679  14.492  70.274  1.00  0.00    -0.035 C  
HETATM    8  C   UNL     1     -11.603  13.850  67.381  1.00  0.00    -0.398 C  
HETATM    9  C   UNL     1     -11.048  12.869  68.964  1.00  0.00    -0.284 C  
HETATM   10  C   UNL     1     -12.515  13.497  66.209  1.00  0.00    -0.384 C  
HETATM   11  C   UNL     1      -7.756  15.659  70.338  1.00  0.00     1.083 C  
HETATM   12  C   UNL     1      -7.832  15.982  71.822  1.00  0.00     7.184 C  
HETATM   13  H   UNL     1     -13.376  16.107  68.568  1.00  0.00     0.000 HD 
HETATM   14  C   UNL     1      -9.926  13.842  70.020  1.00  0.00     1.468 C  
HETATM   15  O   UNL     1      -5.381  18.633  71.988  1.00  0.00    -0.664 OA 
HETATM   16  O   UNL     1     -10.699  14.259  71.155  1.00  0.00     0.370 OA 
HETATM   17  C   UNL     1      -8.952  15.163  69.413  1.00  0.00    -0.176 C  
HETATM   18  C   UNL     1      -9.878  16.218  68.588  1.00  0.00    -0.230 C  
HETATM   19  F   UNL     1      -8.082  14.700  68.395  1.00  0.00    -0.122 F  
HETATM   20  H   UNL     1     -10.114  14.767  71.706  1.00  0.00     0.000 HD 
HETATM   21  C   UNL     1      -9.081  17.462  68.152  1.00  0.00    -0.267 C  
HETATM   22  C   UNL     1      -8.201  17.977  69.282  1.00  0.00     0.244 C  
HETATM   23  C   UNL     1      -7.174  16.934  69.675  1.00  0.00     0.221 C  
HETATM   24  C   UNL     1      -5.952  17.356  70.059  1.00  0.00    -0.185 C  
HETATM   25  C   UNL     1      -6.063  17.732  71.518  1.00  0.00     1.779 C  
HETATM   26  C   UNL     1      -7.005  16.912  72.362  1.00  0.00     8.149 C  
ENDROOT
BRANCH   5  27
HETATM   27  C   UNL     1     -13.317  13.885  68.928  1.00  0.00     3.303 C  
HETATM   28  C   UNL     1     -13.768  14.007  70.380  1.00  0.00     0.936 C  
HETATM   29  O   UNL     1     -14.048  13.185  68.219  1.00  0.00     8.026 OA 
HETATM   30 CL   UNL     1     -13.224  15.484  71.179  1.00  0.00    -0.568 Cl 
ENDBRANCH   5  27
TORSDOF 1
ENDMDL
MODEL      112
REMARK 921   NORMALIZED FREE ENERGY PREDICTED BY IDOCK:   31.98 KCAL/MOL
REMARK 922        TOTAL FREE ENERGY PREDICTED BY IDOCK:   35.13 KCAL/MOL
REMARK 923 INTER-LIGAND FREE ENERGY PREDICTED BY IDOCK:   29.92 KCAL/MOL
REMARK 924 INTRA-LIGAND FREE ENERGY PREDICTED BY IDOCK:    5.21 KCAL/MOL
REMARK 927      BINDING AFFINITY PREDICTED BY RF-SCORE:    0.00 PKD
ROOT
HETATM    1  C   UNL     1     -12.335  13.799  70.423  1.00  0.00    -0.423 C  
HETATM    2  C   UNL     1     -11.191  13.005  70.661  1.00  0.00     1.272 C  
HETATM    3  C   UNL     1     -10.938  14.462  71.016  1.00  0.00     0.647 C  
HETATM    4  C   UNL     1      -9.623  14.181  72.057  1.00  0.00     7.606 C  
HETATM    5  C   UNL     1     -12.593  15.692  70.992  1.00  0.00    -0.459 C  
HETATM    6  O   UNL     1     -13.976  15.149  70.869  1.00  0.00    -0.694 OA 
HETATM    7  C   UNL     1      -8.634  15.572  67.243  1.00  0.00    -0.215 C  
HETATM    8  C   UNL     1     -11.918  14.967  71.920  1.00  0.00    -0.454 C  
HETATM    9  C   UNL     1     -10.857  16.522  71.438  1.00  0.00     0.828 C  
HETATM   10  C   UNL     1     -12.371  14.397  73.261  1.00  0.00    -0.189 C  
HETATM   11  C   UNL     1     -10.214  15.538  67.064  1.00  0.00    -0.271 C  
HETATM   12  C   UNL     1     -10.485  16.718  66.144  1.00  0.00    -0.282 C  
HETATM   13  H   UNL     1     -14.739  15.716  70.859  1.00  0.00     0.000 HD 
HETATM   14  C   UNL     1     -10.653  16.685  69.634  1.00  0.00    -0.274 C  
HETATM   15  O   UNL     1     -10.383  15.028  62.951  1.00  0.00     6.450 OA 
HETATM   16  O   UNL     1     -11.511  17.760  69.225  1.00  0.00     0.816 OA 
HETATM   17  C   UNL     1     -10.787  15.330  68.534  1.00  0.00    -0.253 C  
HETATM   18  C   UNL     1     -12.178  14.525  68.794  1.00  0.00    -0.173 C  
HETATM   19  F   UNL     1      -9.826  14.341  68.858  1.00  0.00    -0.219 F  
HETATM   20  H   UNL     1     -11.405  17.845  68.285  1.00  0.00     0.000 HD 
HETATM   21  C   UNL     1     -12.395  13.407  67.757  1.00  0.00     0.009 C  
HETATM   22  C   UNL     1     -12.072  13.889  66.349  1.00  0.00    -0.489 C  
HETATM   23  C   UNL     1     -10.613  14.285  66.244  1.00  0.00    -0.291 C  
HETATM   24  C   UNL     1      -9.970  14.047  65.082  1.00  0.00    -0.257 C  
HETATM   25  C   UNL     1     -10.303  15.196  64.160  1.00  0.00     1.647 C  
HETATM   26  C   UNL     1     -10.475  16.551  64.798  1.00  0.00     0.315 C  
ENDROOT
BRANCH   5  27
HETATM   27  C   UNL     1     -13.234  16.858  72.083  1.00  0.00     3.566 C  
HETATM   28  C   UNL     1     -14.262  16.394  73.110  1.00  0.00     0.864 C  
HETATM   29  O   UNL     1     -13.017  18.074  72.086  1.00  0.00     8.508 OA 
HETATM   30 CL   UNL     1     -14.063  14.714  73.617  1.00  0.00     2.335 Cl 
ENDBRANCH   5  27
TORSDOF 1
ENDMDL
MODEL      113
REMARK 921   NORMALIZED FREE ENERGY PREDICTED BY IDOCK:   40.10 KCAL/MOL
REMARK 922        TOTAL FREE ENERGY PREDICTED BY IDOCK:   43.73 KCAL/MOL
REMARK 923 INTER-LIGAND FREE ENERGY PREDICTED BY IDOCK:   37.73 KCAL/MOL
REMARK 924 INTRA-LIGAND FREE ENERGY PREDICTED BY IDOCK:    6.00 KCAL/MOL
REMARK 927      BINDING AFFINITY PREDICTED BY RF-SCORE:    0.00 PKD
ROOT
HETATM    1  C   UNL     1     -12.863  14.516  65.641  1.00  0.00    -0.109 C  
HETATM    2  C   UNL     1     -12.053  15.135  64.662  1.00  0.00    -0.262 C  
HETATM    3  C   UNL     1     -11.335  13.966  65.317  1.00  0.00    -0.316 C  
HETATM    4  C   UNL     1     -10.206  13.712  64.071  1.00  0.00     0.637 C  
HETATM    5  C   UNL     1     -12.485  12.788  66.560  1.00  0.00     0.313 C  
HETATM    6  O   UNL     1     -13.967  12.929  66.628  1.00  0.00     4.809 OA 
HETATM    7  C   UNL     1      -8.731  16.413  68.147  1.00  0.00    -0.191 C  
HETATM    8  C   UNL     1     -12.105  12.768  65.258  1.00  0.00    -0.505 C  
HETATM    9  C   UNL     1     -10.578  12.307  66.367  1.00  0.00    -0.272 C  
HETATM   10  C   UNL     1     -12.744  12.097  64.044  1.00  0.00    -0.452 C  
HETATM   11  C   UNL     1     -10.228  16.208  68.641  1.00  0.00    -0.244 C  
HETATM   12  C   UNL     1     -10.075  16.010  70.141  1.00  0.00     0.076 C  
HETATM   13  H   UNL     1     -14.497  12.386  67.201  1.00  0.00     0.000 HD 
HETATM   14  C   UNL     1     -10.302  13.522  67.698  1.00  0.00    -0.239 C  
HETATM   15  O   UNL     1     -10.490  19.426  71.246  1.00  0.00     1.711 OA 
HETATM   16  O   UNL     1     -10.746  12.900  68.912  1.00  0.00    -0.315 OA 
HETATM   17  C   UNL     1     -10.862  15.178  67.608  1.00  0.00    -0.295 C  
HETATM   18  C   UNL     1     -12.446  15.220  67.233  1.00  0.00     1.052 C  
HETATM   19  F   UNL     1     -10.292  15.825  66.485  1.00  0.00    -0.263 F  
HETATM   20  H   UNL     1     -10.602  13.533  69.606  1.00  0.00     0.000 HD 
HETATM   21  C   UNL     1     -13.006  16.654  67.276  1.00  0.00     5.068 C  
HETATM   22  C   UNL     1     -12.518  17.401  68.510  1.00  0.00     3.909 C  
HETATM   23  C   UNL     1     -11.009  17.538  68.486  1.00  0.00     0.001 C  
HETATM   24  C   UNL     1     -10.463  18.665  68.989  1.00  0.00     0.134 C  
HETATM   25  C   UNL     1     -10.379  18.475  70.485  1.00  0.00     1.971 C  
HETATM   26  C   UNL     1     -10.099  17.078  70.977  1.00  0.00     2.905 C  
ENDROOT
BRANCH   5  27
HETATM   27  C   UNL     1     -12.718  11.092  66.723  1.00  0.00     5.374 C  
HETATM   28  C   UNL     1     -11.739  10.160  66.016  1.00  0.00     2.841 C  
HETATM   29  O   UNL     1     -13.653  10.519  67.293  1.00  0.00    10.691 OA 
HETATM   30 CL   UNL     1     -10.112  10.824  65.845  1.00  0.00    -0.301 Cl 
ENDBRANCH   5  27
TORSDOF 1
ENDMDL
MODEL      114
REMARK 921   NORMALIZED FREE ENERGY PREDICTED BY IDOCK:   53.56 KCAL/MOL
REMARK 922        TOTAL FREE ENERGY PREDICTED BY IDOCK:   57.97 KCAL/MOL
REMARK 923 INTER-LIGAND FREE ENERGY PREDICTED BY IDOCK:   50.29 KCAL/MOL
REMARK 924 INTRA-LIGAND FREE ENERGY PREDICTED BY IDOCK:    7.68 KCAL/MOL
REMARK 927      BINDING AFFINITY PREDICTED BY RF-SCORE:    0.00 PKD
ROOT
HETATM    1  C   UNL     1     -10.566   6.331  63.330  1.00  0.00     6.996 C  
HETATM    2  C   UNL     1      -9.273   6.530  62.798  1.00  0.00     1.300 C  
HETATM    3  C   UNL     1      -9.221   5.762  64.109  1.00  0.00     0.759 C  
HETATM    4  C   UNL     1      -7.687   5.069  63.865  1.00  0.00    -0.079 C  
HETATM    5  C   UNL     1     -11.039   5.146  64.862  1.00  0.00     1.222 C  
HETATM    6  O   UNL     1     -12.294   5.239  64.064  1.00  0.00     2.384 OA 
HETATM    7  C   UNL     1      -8.006   9.259  66.768  1.00  0.00    -0.108 C  
HETATM    8  C   UNL     1     -10.063   4.612  64.086  1.00  0.00     0.294 C  
HETATM    9  C   UNL     1      -9.428   4.710  65.919  1.00  0.00    -0.174 C  
HETATM   10  C   UNL     1     -10.112   3.478  63.065  1.00  0.00    -0.164 C  
HETATM   11  C   UNL     1      -9.554   9.210  66.411  1.00  0.00    -0.309 C  
HETATM   12  C   UNL     1     -10.223   9.647  67.705  1.00  0.00    -0.267 C  
HETATM   13  H   UNL     1     -13.132   4.955  64.411  1.00  0.00     0.000 HD 
HETATM   14  C   UNL     1      -9.643   6.372  66.635  1.00  0.00    -0.157 C  
HETATM   15  O   UNL     1     -10.491  13.197  67.073  1.00  0.00    -0.246 OA 
HETATM   16  O   UNL     1     -10.748   6.282  67.545  1.00  0.00    -0.243 OA 
HETATM   17  C   UNL     1      -9.757   7.822  65.661  1.00  0.00     0.669 C  
HETATM   18  C   UNL     1     -10.891   7.641  64.507  1.00  0.00    10.365 C  
HETATM   19  F   UNL     1      -8.586   7.978  64.880  1.00  0.00    -0.157 F  
HETATM   20  H   UNL     1     -10.860   7.149  67.918  1.00  0.00     0.000 HD 
HETATM   21  C   UNL     1     -11.115   8.942  63.714  1.00  0.00    10.816 C  
HETATM   22  C   UNL     1     -11.190  10.147  64.641  1.00  0.00     2.539 C  
HETATM   23  C   UNL     1      -9.882  10.327  65.387  1.00  0.00    -0.362 C  
HETATM   24  C   UNL     1      -9.466  11.582  65.652  1.00  0.00    -0.244 C  
HETATM   25  C   UNL     1     -10.190  12.023  66.903  1.00  0.00    -0.208 C  
HETATM   26  C   UNL     1     -10.467  10.962  67.937  1.00  0.00    -0.227 C  
ENDROOT
BRANCH   5  27
HETATM   27  C   UNL     1     -11.637   3.656  65.479  1.00  0.00     3.703 C  
HETATM   28  C   UNL     1     -11.034   2.362  64.942  1.00  0.00     1.960 C  
HETATM   29  O   UNL     1     -12.575   3.498  66.268  1.00  0.00    10.360 OA 
HETATM   30 CL   UNL     1      -9.346   2.508  64.446  1.00  0.00    -0.132 Cl 
ENDBRANCH   5  27
TORSDOF 1
ENDMDL
