MODEL        1
REMARK 921   NORMALIZED FREE ENERGY PREDICTED BY IDOCK:   -7.68 KCAL/MOL
REMARK 922        TOTAL FREE ENERGY PREDICTED BY IDOCK:   -7.90 KCAL/MOL
REMARK 923 INTER-LIGAND FREE ENERGY PREDICTED BY IDOCK:   -8.57 KCAL/MOL
REMARK 924 INTRA-LIGAND FREE ENERGY PREDICTED BY IDOCK:    0.68 KCAL/MOL
REMARK 927      BINDING AFFINITY PREDICTED BY RF-SCORE:    0.00 PKD
ROOT
HETATM    1  C   UNL     1      -8.957  13.411  67.018  1.00  0.00    -0.228 C  
HETATM    2  C   UNL     1      -9.287  13.132  68.362  1.00  0.00    -0.154 C  
HETATM    3  C   UNL     1     -10.452  13.776  67.645  1.00  0.00    -0.242 C  
HETATM    4  C   UNL     1     -11.732  13.373  68.643  1.00  0.00    -0.384 C  
HETATM    5  C   UNL     1     -10.211  13.908  65.610  1.00  0.00    -0.344 C  
HETATM    6  C   UNL     1     -10.728  12.970  66.437  1.00  0.00    -0.295 C  
HETATM    7  O   UNL     1      -6.488  20.995  67.859  1.00  0.00    -0.332 OA 
HETATM    8  C   UNL     1     -10.359  18.731  68.132  1.00  0.00    -0.419 C  
HETATM    9  C   UNL     1      -8.032  19.878  66.405  1.00  0.00    -0.345 C  
HETATM   10  C   UNL     1     -11.954  14.464  66.275  1.00  0.00    -0.391 C  
HETATM   11  C   UNL     1     -11.024  11.483  66.336  1.00  0.00    -0.336 C  
HETATM   12  C   UNL     1     -11.141  16.075  66.427  1.00  0.00     0.037 C  
HETATM   13  C   UNL     1      -9.211  17.912  67.391  1.00  0.00    -0.253 C  
HETATM   14  C   UNL     1      -9.690  16.368  67.326  1.00  0.00    -0.239 C  
HETATM   15  O   UNL     1     -10.917  16.533  65.073  1.00  0.00    -0.544 OA 
HETATM   16  C   UNL     1      -8.910  18.857  66.223  1.00  0.00    -0.260 C  
HETATM   17  H   UNL     1     -10.490  17.378  65.152  1.00  0.00     0.000 HD 
HETATM   18  C   UNL     1      -8.521  15.208  66.919  1.00  0.00    -0.278 C  
HETATM   19 CL   UNL     1      -9.983  16.187  69.355  1.00  0.00    -0.248 Cl 
HETATM   20  C   UNL     1      -7.194  15.481  67.640  1.00  0.00    -0.203 C  
HETATM   21  C   UNL     1      -6.802  16.954  67.570  1.00  0.00    -0.147 C  
HETATM   22  C   UNL     1      -7.857  17.883  68.157  1.00  0.00    -0.266 C  
HETATM   23  F   UNL     1      -5.618  17.090  68.231  1.00  0.00    -0.116 F  
HETATM   24  C   UNL     1      -7.454  19.015  68.768  1.00  0.00    -0.369 C  
HETATM   25  C   UNL     1      -7.234  20.043  67.682  1.00  0.00    -0.281 C  
ENDROOT
BRANCH   5  26
HETATM   26  C   UNL     1     -10.928  13.291  64.225  1.00  0.00    -0.395 C  
HETATM   27  O   UNL     1     -12.051  13.548  63.780  1.00  0.00    -0.507 OA 
BRANCH  26  28
HETATM   28  C   UNL     1     -10.070  12.328  63.396  1.00  0.00    -0.255 C  
HETATM   29  O   UNL     1     -10.873  11.292  62.832  1.00  0.00    -0.781 OA 
HETATM   30  H   UNL     1     -10.341  10.695  62.318  1.00  0.00     0.000 HD 
ENDBRANCH  26  28
ENDBRANCH   5  26
TORSDOF 2
ENDMDL
MODEL        2
REMARK 921   NORMALIZED FREE ENERGY PREDICTED BY IDOCK:   -7.28 KCAL/MOL
REMARK 922        TOTAL FREE ENERGY PREDICTED BY IDOCK:   -7.45 KCAL/MOL
REMARK 923 INTER-LIGAND FREE ENERGY PREDICTED BY IDOCK:   -8.00 KCAL/MOL
REMARK 924 INTRA-LIGAND FREE ENERGY PREDICTED BY IDOCK:    0.54 KCAL/MOL
REMARK 927      BINDING AFFINITY PREDICTED BY RF-SCORE:    0.00 PKD
ROOT
HETATM    1  C   UNL     1      -8.845   8.637  66.801  1.00  0.00    -0.152 C  
HETATM    2  C   UNL     1      -7.512   9.095  66.731  1.00  0.00    -0.087 C  
HETATM    3  C   UNL     1      -8.163   9.530  68.024  1.00  0.00    -0.114 C  
HETATM    4  C   UNL     1      -6.833   9.897  68.969  1.00  0.00    -0.054 C  
HETATM    5  C   UNL     1      -9.975   8.636  68.390  1.00  0.00    -0.204 C  
HETATM    6  C   UNL     1      -8.692   8.317  68.683  1.00  0.00    -0.133 C  
HETATM    7  O   UNL     1     -12.568  15.094  63.839  1.00  0.00    -0.794 OA 
HETATM    8  C   UNL     1     -10.293  14.007  67.558  1.00  0.00    -0.245 C  
HETATM    9  C   UNL     1     -12.849  13.737  65.795  1.00  0.00    -0.430 C  
HETATM   10  C   UNL     1      -9.299   9.759  69.830  1.00  0.00    -0.262 C  
HETATM   11  C   UNL     1      -7.953   7.046  69.065  1.00  0.00    -0.116 C  
HETATM   12  C   UNL     1     -10.179  11.063  68.934  1.00  0.00    -0.203 C  
HETATM   13  C   UNL     1     -10.760  12.734  66.721  1.00  0.00    -0.278 C  
HETATM   14  C   UNL     1      -9.920  11.466  67.270  1.00  0.00    -0.217 C  
HETATM   15  O   UNL     1     -11.588  10.774  69.099  1.00  0.00    -0.277 OA 
HETATM   16  C   UNL     1     -12.278  12.938  66.735  1.00  0.00    -0.204 C  
HETATM   17  H   UNL     1     -12.050  11.458  68.629  1.00  0.00     0.000 HD 
HETATM   18  C   UNL     1      -9.940  10.053  66.329  1.00  0.00    -0.310 C  
HETATM   19 CL   UNL     1      -8.075  12.325  66.957  1.00  0.00    -0.168 Cl 
HETATM   20  C   UNL     1      -9.790  10.379  64.837  1.00  0.00    -0.400 C  
HETATM   21  C   UNL     1     -10.686  11.539  64.415  1.00  0.00    -0.344 C  
HETATM   22  C   UNL     1     -10.424  12.816  65.204  1.00  0.00    -0.320 C  
HETATM   23  F   UNL     1     -10.481  11.745  63.083  1.00  0.00    -0.382 F  
HETATM   24  C   UNL     1     -10.585  14.003  64.585  1.00  0.00    -0.416 C  
HETATM   25  C   UNL     1     -12.059  14.332  64.648  1.00  0.00    -0.463 C  
ENDROOT
BRANCH   5  26
HETATM   26  C   UNL     1     -10.645   7.585  69.513  1.00  0.00    -0.236 C  
HETATM   27  O   UNL     1     -10.717   7.737  70.736  1.00  0.00    -0.219 OA 
BRANCH  26  28
HETATM   28  C   UNL     1     -11.275   6.308  68.946  1.00  0.00    -0.309 C  
HETATM   29  O   UNL     1     -11.568   6.460  67.558  1.00  0.00    -0.663 OA 
HETATM   30  H   UNL     1     -11.958   5.668  67.206  1.00  0.00     0.000 HD 
ENDBRANCH  26  28
ENDBRANCH   5  26
TORSDOF 2
ENDMDL
MODEL        3
REMARK 921   NORMALIZED FREE ENERGY PREDICTED BY IDOCK:   -7.26 KCAL/MOL
REMARK 922        TOTAL FREE ENERGY PREDICTED BY IDOCK:   -7.43 KCAL/MOL
REMARK 923 INTER-LIGAND FREE ENERGY PREDICTED BY IDOCK:   -8.08 KCAL/MOL
REMARK 924 INTRA-LIGAND FREE ENERGY PREDICTED BY IDOCK:    0.65 KCAL/MOL
REMARK 927      BINDING AFFINITY PREDICTED BY RF-SCORE:    0.00 PKD
ROOT
HETATM    1  C   UNL     1     -11.067  12.724  67.695  1.00  0.00    -0.294 C  
HETATM    2  C   UNL     1     -10.042  13.357  68.431  1.00  0.00    -0.244 C  
HETATM    3  C   UNL     1      -9.461  12.469  67.354  1.00  0.00    -0.184 C  
HETATM    4  C   UNL     1      -7.904  13.066  67.221  1.00  0.00    -0.132 C  
HETATM    5  C   UNL     1     -10.846  11.773  66.007  1.00  0.00    -0.343 C  
HETATM    6  C   UNL     1     -10.066  12.878  66.069  1.00  0.00    -0.290 C  
HETATM    7  O   UNL     1     -11.535   5.854  71.806  1.00  0.00    -0.269 OA 
HETATM    8  C   UNL     1      -8.598   7.875  69.072  1.00  0.00    -0.135 C  
HETATM    9  C   UNL     1     -11.321   6.417  69.486  1.00  0.00    -0.460 C  
HETATM   10  C   UNL     1      -8.995  11.332  65.594  1.00  0.00    -0.173 C  
HETATM   11  C   UNL     1     -10.085  14.254  65.425  1.00  0.00    -0.379 C  
HETATM   12  C   UNL     1      -9.339   9.882  66.622  1.00  0.00    -0.157 C  
HETATM   13  C   UNL     1     -10.056   8.512  68.996  1.00  0.00    -0.207 C  
HETATM   14  C   UNL     1      -9.917   9.942  68.254  1.00  0.00    -0.172 C  
HETATM   15  O   UNL     1     -10.263   9.068  65.862  1.00  0.00    -0.381 OA 
HETATM   16  C   UNL     1     -10.866   7.291  68.549  1.00  0.00    -0.106 C  
HETATM   17  H   UNL     1     -10.444   8.307  66.401  1.00  0.00     0.000 HD 
HETATM   18  C   UNL     1     -11.237  11.003  68.354  1.00  0.00    -0.337 C  
HETATM   19 CL   UNL     1      -8.500  10.680  69.553  1.00  0.00    -0.066 Cl 
HETATM   20  C   UNL     1     -11.825  11.023  69.772  1.00  0.00    -0.421 C  
HETATM   21  C   UNL     1     -11.985   9.618  70.342  1.00  0.00    -0.106 C  
HETATM   22  C   UNL     1     -10.678   8.837  70.386  1.00  0.00    -0.254 C  
HETATM   23  F   UNL     1     -12.513   9.745  71.593  1.00  0.00    -0.383 F  
HETATM   24  C   UNL     1     -10.486   7.952  71.385  1.00  0.00    -0.242 C  
HETATM   25  C   UNL     1     -11.172   6.671  70.972  1.00  0.00    -0.300 C  
ENDROOT
BRANCH   5  26
HETATM   26  C   UNL     1     -11.182  11.925  64.371  1.00  0.00    -0.336 C  
HETATM   27  O   UNL     1     -10.473  11.579  63.421  1.00  0.00    -0.373 OA 
BRANCH  26  28
HETATM   28  C   UNL     1     -12.548  12.527  64.018  1.00  0.00    -0.387 C  
HETATM   29  O   UNL     1     -12.415  13.532  63.014  1.00  0.00    -0.950 OA 
HETATM   30  H   UNL     1     -13.261  13.905  62.795  1.00  0.00     0.000 HD 
ENDBRANCH  26  28
ENDBRANCH   5  26
TORSDOF 2
ENDMDL
MODEL        4
REMARK 921   NORMALIZED FREE ENERGY PREDICTED BY IDOCK:   -7.16 KCAL/MOL
REMARK 922        TOTAL FREE ENERGY PREDICTED BY IDOCK:   -7.32 KCAL/MOL
REMARK 923 INTER-LIGAND FREE ENERGY PREDICTED BY IDOCK:   -7.96 KCAL/MOL
REMARK 924 INTRA-LIGAND FREE ENERGY PREDICTED BY IDOCK:    0.64 KCAL/MOL
REMARK 927      BINDING AFFINITY PREDICTED BY RF-SCORE:    0.00 PKD
ROOT
HETATM    1  C   UNL     1      -8.811  12.479  66.917  1.00  0.00    -0.203 C  
HETATM    2  C   UNL     1      -8.886  12.122  68.281  1.00  0.00    -0.182 C  
HETATM    3  C   UNL     1     -10.235  12.575  67.768  1.00  0.00    -0.217 C  
HETATM    4  C   UNL     1     -11.268  11.944  68.922  1.00  0.00    -0.310 C  
HETATM    5  C   UNL     1     -10.325  12.785  65.727  1.00  0.00    -0.297 C  
HETATM    6  C   UNL     1     -10.552  11.757  66.579  1.00  0.00    -0.289 C  
HETATM    7  O   UNL     1      -7.514  20.352  67.724  1.00  0.00    -0.296 OA 
HETATM    8  C   UNL     1     -10.879  17.465  68.453  1.00  0.00    -0.234 C  
HETATM    9  C   UNL     1      -9.055  19.019  66.460  1.00  0.00    -0.348 C  
HETATM   10  C   UNL     1     -12.016  13.028  66.661  1.00  0.00    -0.453 C  
HETATM   11  C   UNL     1     -10.614  10.244  66.457  1.00  0.00    -0.202 C  
HETATM   12  C   UNL     1     -11.464  14.749  66.764  1.00  0.00    -0.338 C  
HETATM   13  C   UNL     1      -9.737  16.865  67.518  1.00  0.00    -0.249 C  
HETATM   14  C   UNL     1      -9.962  15.264  67.456  1.00  0.00    -0.226 C  
HETATM   15  O   UNL     1     -11.522  15.264  65.413  1.00  0.00    -0.293 OA 
HETATM   16  C   UNL     1      -9.772  17.869  66.362  1.00  0.00    -0.321 C  
HETATM   17  H   UNL     1     -11.232  16.167  65.467  1.00  0.00     0.000 HD 
HETATM   18  C   UNL     1      -8.693  14.324  66.835  1.00  0.00    -0.202 C  
HETATM   19 CL   UNL     1      -9.915  14.998  69.497  1.00  0.00    -0.188 Cl 
HETATM   20  C   UNL     1      -7.336  14.803  67.368  1.00  0.00    -0.214 C  
HETATM   21  C   UNL     1      -7.204  16.322  67.307  1.00  0.00    -0.188 C  
HETATM   22  C   UNL     1      -8.297  17.049  68.080  1.00  0.00    -0.211 C  
HETATM   23  F   UNL     1      -5.973  16.642  67.796  1.00  0.00    -0.111 F  
HETATM   24  C   UNL     1      -7.998  18.221  68.675  1.00  0.00    -0.306 C  
HETATM   25  C   UNL     1      -8.113  19.292  67.615  1.00  0.00    -0.277 C  
ENDROOT
BRANCH   5  26
HETATM   26  C   UNL     1     -11.130  12.083  64.434  1.00  0.00    -0.342 C  
HETATM   27  O   UNL     1     -12.334  12.158  64.167  1.00  0.00    -0.421 OA 
BRANCH  26  28
HETATM   28  C   UNL     1     -10.261  11.291  63.451  1.00  0.00    -0.403 C  
HETATM   29  O   UNL     1      -9.116  12.048  63.062  1.00  0.00    -0.639 OA 
HETATM   30  H   UNL     1      -8.577  11.557  62.453  1.00  0.00     0.000 HD 
ENDBRANCH  26  28
ENDBRANCH   5  26
TORSDOF 2
ENDMDL
MODEL        5
REMARK 921   NORMALIZED FREE ENERGY PREDICTED BY IDOCK:   -7.04 KCAL/MOL
REMARK 922        TOTAL FREE ENERGY PREDICTED BY IDOCK:   -7.18 KCAL/MOL
REMARK 923 INTER-LIGAND FREE ENERGY PREDICTED BY IDOCK:   -8.29 KCAL/MOL
REMARK 924 INTRA-LIGAND FREE ENERGY PREDICTED BY IDOCK:    1.11 KCAL/MOL
REMARK 927      BINDING AFFINITY PREDICTED BY RF-SCORE:    0.00 PKD
ROOT
HETATM    1  C   UNL     1     -11.678  14.032  67.565  1.00  0.00    -0.421 C  
HETATM    2  C   UNL     1     -10.665  14.815  68.159  1.00  0.00    -0.247 C  
HETATM    3  C   UNL     1     -10.139  14.088  66.942  1.00  0.00    -0.259 C  
HETATM    4  C   UNL     1      -8.759  14.964  66.591  1.00  0.00    -0.262 C  
HETATM    5  C   UNL     1     -11.600  13.201  65.803  1.00  0.00    -0.383 C  
HETATM    6  C   UNL     1     -11.025  14.426  65.808  1.00  0.00    -0.314 C  
HETATM    7  O   UNL     1     -10.208   7.045  71.218  1.00  0.00    -0.192 OA 
HETATM    8  C   UNL     1      -8.201   9.669  68.172  1.00  0.00    -0.106 C  
HETATM    9  C   UNL     1     -10.512   7.723  68.938  1.00  0.00    -0.208 C  
HETATM   10  C   UNL     1      -9.804  13.121  65.055  1.00  0.00    -0.064 C  
HETATM   11  C   UNL     1     -11.397  15.798  65.272  1.00  0.00    -0.093 C  
HETATM   12  C   UNL     1      -9.702  11.595  66.025  1.00  0.00    -0.232 C  
HETATM   13  C   UNL     1      -9.737  10.030  68.387  1.00  0.00    -0.157 C  
HETATM   14  C   UNL     1      -9.982  11.489  67.731  1.00  0.00    -0.195 C  
HETATM   15  O   UNL     1     -10.592  10.655  65.377  1.00  0.00    -0.220 OA 
HETATM   16  C   UNL     1     -10.390   8.699  68.001  1.00  0.00    -0.277 C  
HETATM   17  H   UNL     1     -10.539   9.855  65.886  1.00  0.00     0.000 HD 
HETATM   18  C   UNL     1     -11.428  12.286  68.125  1.00  0.00    -0.371 C  
HETATM   19 CL   UNL     1      -8.507  12.424  68.820  1.00  0.00     0.049 Cl 
HETATM   20  C   UNL     1     -11.748  12.146  69.619  1.00  0.00    -0.396 C  
HETATM   21  C   UNL     1     -11.558  10.715  70.111  1.00  0.00    -0.330 C  
HETATM   22  C   UNL     1     -10.148  10.185  69.881  1.00  0.00    -0.268 C  
HETATM   23  F   UNL     1     -11.869  10.697  71.438  1.00  0.00    -0.408 F  
HETATM   24  C   UNL     1      -9.632   9.314  70.770  1.00  0.00    -0.341 C  
HETATM   25  C   UNL     1     -10.148   7.945  70.392  1.00  0.00    -0.194 C  
ENDROOT
BRANCH   5  26
HETATM   26  C   UNL     1     -12.243  13.349  64.261  1.00  0.00    -0.392 C  
HETATM   27  O   UNL     1     -12.337  14.375  63.580  1.00  0.00    -0.722 OA 
BRANCH  26  28
HETATM   28  C   UNL     1     -12.734  12.051  63.610  1.00  0.00    -0.431 C  
HETATM   29  O   UNL     1     -11.694  11.441  62.846  1.00  0.00    -0.856 OA 
HETATM   30  H   UNL     1     -11.998  10.637  62.443  1.00  0.00     0.000 HD 
ENDBRANCH  26  28
ENDBRANCH   5  26
TORSDOF 2
ENDMDL
MODEL        6
REMARK 921   NORMALIZED FREE ENERGY PREDICTED BY IDOCK:   -6.98 KCAL/MOL
REMARK 922        TOTAL FREE ENERGY PREDICTED BY IDOCK:   -7.12 KCAL/MOL
REMARK 923 INTER-LIGAND FREE ENERGY PREDICTED BY IDOCK:   -7.67 KCAL/MOL
REMARK 924 INTRA-LIGAND FREE ENERGY PREDICTED BY IDOCK:    0.55 KCAL/MOL
REMARK 927      BINDING AFFINITY PREDICTED BY RF-SCORE:    0.00 PKD
ROOT
HETATM    1  C   UNL     1      -9.459  18.888  66.093  1.00  0.00    -0.235 C  
HETATM    2  C   UNL     1     -10.552  19.419  66.812  1.00  0.00    -0.574 C  
HETATM    3  C   UNL     1      -9.524  18.832  67.752  1.00  0.00    -0.333 C  
HETATM    4  C   UNL     1      -9.934  19.556  69.203  1.00  0.00    -0.429 C  
HETATM    5  C   UNL     1      -7.745  18.346  66.848  1.00  0.00    -0.240 C  
HETATM    6  C   UNL     1      -8.226  19.465  67.439  1.00  0.00    -0.319 C  
HETATM    7  O   UNL     1     -11.902  11.272  65.499  1.00  0.00     0.073 OA 
HETATM    8  C   UNL     1     -10.502  14.050  68.740  1.00  0.00    -0.238 C  
HETATM    9  C   UNL     1      -9.877  12.341  66.210  1.00  0.00    -0.254 C  
HETATM   10  C   UNL     1      -7.773  18.143  68.784  1.00  0.00    -0.277 C  
HETATM   11  C   UNL     1      -7.875  20.943  67.405  1.00  0.00    -0.223 C  
HETATM   12  C   UNL     1      -8.373  16.482  68.383  1.00  0.00    -0.200 C  
HETATM   13  C   UNL     1     -10.158  14.579  67.278  1.00  0.00    -0.247 C  
HETATM   14  C   UNL     1      -9.768  16.143  67.414  1.00  0.00    -0.233 C  
HETATM   15  O   UNL     1      -7.250  15.788  67.790  1.00  0.00    -0.128 OA 
HETATM   16  C   UNL     1      -9.284  13.429  66.768  1.00  0.00    -0.242 C  
HETATM   17  H   UNL     1      -7.564  14.917  67.580  1.00  0.00     0.000 HD 
HETATM   18  C   UNL     1      -9.707  17.057  65.985  1.00  0.00    -0.243 C  
HETATM   19 CL   UNL     1     -11.517  16.682  68.355  1.00  0.00    -0.157 Cl 
HETATM   20  C   UNL     1     -10.889  16.725  65.065  1.00  0.00    -0.131 C  
HETATM   21  C   UNL     1     -11.116  15.221  64.949  1.00  0.00    -0.424 C  
HETATM   22  C   UNL     1     -11.363  14.548  66.293  1.00  0.00    -0.352 C  
HETATM   23  F   UNL     1     -12.178  15.034  64.114  1.00  0.00    -0.488 F  
HETATM   24  C   UNL     1     -12.188  13.483  66.341  1.00  0.00    -0.454 C  
HETATM   25  C   UNL     1     -11.368  12.276  65.950  1.00  0.00    -0.360 C  
ENDROOT
BRANCH   5  26
HETATM   26  C   UNL     1      -6.139  18.826  66.914  1.00  0.00    -0.162 C  
HETATM   27  O   UNL     1      -5.433  18.955  67.918  1.00  0.00    -0.175 OA 
BRANCH  26  28
HETATM   28  C   UNL     1      -5.463  19.096  65.565  1.00  0.00    -0.161 C  
HETATM   29  O   UNL     1      -6.360  18.838  64.486  1.00  0.00    -0.462 OA 
HETATM   30  H   UNL     1      -5.941  19.006  63.650  1.00  0.00     0.000 HD 
ENDBRANCH  26  28
ENDBRANCH   5  26
TORSDOF 2
ENDMDL
MODEL        7
REMARK 921   NORMALIZED FREE ENERGY PREDICTED BY IDOCK:   -6.84 KCAL/MOL
REMARK 922        TOTAL FREE ENERGY PREDICTED BY IDOCK:   -6.96 KCAL/MOL
REMARK 923 INTER-LIGAND FREE ENERGY PREDICTED BY IDOCK:   -7.62 KCAL/MOL
REMARK 924 INTRA-LIGAND FREE ENERGY PREDICTED BY IDOCK:    0.65 KCAL/MOL
REMARK 927      BINDING AFFINITY PREDICTED BY RF-SCORE:    0.00 PKD
ROOT
HETATM    1  C   UNL     1      -8.867   8.304  67.077  1.00  0.00    -0.146 C  
HETATM    2  C   UNL     1      -7.522   8.653  66.830  1.00  0.00    -0.086 C  
HETATM    3  C   UNL     1      -8.013   9.280  68.115  1.00  0.00    -0.099 C  
HETATM    4  C   UNL     1      -6.575   9.655  68.882  1.00  0.00    -0.046 C  
HETATM    5  C   UNL     1      -9.831   8.566  68.752  1.00  0.00    -0.180 C  
HETATM    6  C   UNL     1      -8.547   8.192  68.962  1.00  0.00    -0.133 C  
HETATM    7  O   UNL     1     -12.467  14.631  63.710  1.00  0.00    -0.799 OA 
HETATM    8  C   UNL     1      -9.903  13.815  67.308  1.00  0.00    -0.241 C  
HETATM    9  C   UNL     1     -12.634  13.531  65.833  1.00  0.00    -0.454 C  
HETATM   10  C   UNL     1      -8.948   9.795  69.977  1.00  0.00    -0.255 C  
HETATM   11  C   UNL     1      -7.852   6.923  69.426  1.00  0.00    -0.113 C  
HETATM   12  C   UNL     1      -9.831  11.048  69.014  1.00  0.00    -0.149 C  
HETATM   13  C   UNL     1     -10.527  12.493  66.678  1.00  0.00    -0.252 C  
HETATM   14  C   UNL     1      -9.715  11.238  67.297  1.00  0.00    -0.192 C  
HETATM   15  O   UNL     1     -11.232  10.883  69.341  1.00  0.00    -0.230 OA 
HETATM   16  C   UNL     1     -12.021  12.806  66.807  1.00  0.00    -0.389 C  
HETATM   17  H   UNL     1     -11.696  11.540  68.837  1.00  0.00     0.000 HD 
HETATM   18  C   UNL     1      -9.916   9.732  66.540  1.00  0.00    -0.304 C  
HETATM   19 CL   UNL     1      -7.862  11.920  66.714  1.00  0.00    -0.116 Cl 
HETATM   20  C   UNL     1      -9.895   9.873  65.012  1.00  0.00    -0.323 C  
HETATM   21  C   UNL     1     -10.756  11.038  64.536  1.00  0.00    -0.264 C  
HETATM   22  C   UNL     1     -10.340  12.375  65.137  1.00  0.00    -0.313 C  
HETATM   23  F   UNL     1     -10.673  11.075  63.176  1.00  0.00    -0.387 F  
HETATM   24  C   UNL     1     -10.490  13.492  64.397  1.00  0.00    -0.366 C  
HETATM   25  C   UNL     1     -11.926  13.931  64.555  1.00  0.00    -0.437 C  
ENDROOT
BRANCH   5  26
HETATM   26  C   UNL     1     -10.448   7.703  70.050  1.00  0.00    -0.229 C  
HETATM   27  O   UNL     1     -10.242   7.900  71.252  1.00  0.00    -0.186 OA 
BRANCH  26  28
HETATM   28  C   UNL     1     -11.411   6.561  69.702  1.00  0.00    -0.380 C  
HETATM   29  O   UNL     1     -12.657   6.726  70.376  1.00  0.00    -0.545 OA 
HETATM   30  H   UNL     1     -13.254   6.018  70.160  1.00  0.00     0.000 HD 
ENDBRANCH  26  28
ENDBRANCH   5  26
TORSDOF 2
ENDMDL
MODEL        8
REMARK 921   NORMALIZED FREE ENERGY PREDICTED BY IDOCK:   -6.70 KCAL/MOL
REMARK 922        TOTAL FREE ENERGY PREDICTED BY IDOCK:   -6.80 KCAL/MOL
REMARK 923 INTER-LIGAND FREE ENERGY PREDICTED BY IDOCK:   -8.05 KCAL/MOL
REMARK 924 INTRA-LIGAND FREE ENERGY PREDICTED BY IDOCK:    1.25 KCAL/MOL
REMARK 927      BINDING AFFINITY PREDICTED BY RF-SCORE:    0.00 PKD
ROOT
HETATM    1  C   UNL     1     -11.441  12.990  68.370  1.00  0.00    -0.345 C  
HETATM    2  C   UNL     1     -10.316  13.496  69.055  1.00  0.00    -0.025 C  
HETATM    3  C   UNL     1      -9.945  13.069  67.653  1.00  0.00    -0.215 C  
HETATM    4  C   UNL     1      -8.501  13.881  67.420  1.00  0.00    -0.208 C  
HETATM    5  C   UNL     1     -11.558  12.645  66.454  1.00  0.00    -0.441 C  
HETATM    6  C   UNL     1     -10.855  13.771  66.723  1.00  0.00    -0.284 C  
HETATM    7  O   UNL     1     -10.520   5.187  69.983  1.00  0.00    -0.293 OA 
HETATM    8  C   UNL     1      -8.425   8.328  67.546  1.00  0.00    -0.130 C  
HETATM    9  C   UNL     1     -10.883   6.463  67.986  1.00  0.00    -0.396 C  
HETATM   10  C   UNL     1      -9.828  12.605  65.561  1.00  0.00    -0.177 C  
HETATM   11  C   UNL     1     -11.107  15.263  66.588  1.00  0.00    -0.276 C  
HETATM   12  C   UNL     1      -9.835  10.876  66.098  1.00  0.00    -0.222 C  
HETATM   13  C   UNL     1      -9.898   8.756  67.977  1.00  0.00    -0.201 C  
HETATM   14  C   UNL     1     -10.023  10.351  67.737  1.00  0.00    -0.203 C  
HETATM   15  O   UNL     1     -10.857  10.221  65.310  1.00  0.00     0.101 OA 
HETATM   16  C   UNL     1     -10.712   7.636  67.321  1.00  0.00    -0.344 C  
HETATM   17  H   UNL     1     -10.861   9.314  65.591  1.00  0.00     0.000 HD 
HETATM   18  C   UNL     1     -11.348  11.142  68.443  1.00  0.00    -0.357 C  
HETATM   19 CL   UNL     1      -8.393  10.834  68.899  1.00  0.00    -0.146 Cl 
HETATM   20  C   UNL     1     -11.592  10.645  69.874  1.00  0.00    -0.396 C  
HETATM   21  C   UNL     1     -11.529   9.124  69.967  1.00  0.00    -0.013 C  
HETATM   22  C   UNL     1     -10.201   8.550  69.490  1.00  0.00    -0.206 C  
HETATM   23  F   UNL     1     -11.761   8.787  71.267  1.00  0.00    -0.289 F  
HETATM   24  C   UNL     1      -9.729   7.434  70.080  1.00  0.00    -0.175 C  
HETATM   25  C   UNL     1     -10.411   6.263  69.411  1.00  0.00    -0.243 C  
ENDROOT
BRANCH   5  26
HETATM   26  C   UNL     1     -12.271  13.249  65.062  1.00  0.00    -0.432 C  
HETATM   27  O   UNL     1     -13.237  14.015  64.982  1.00  0.00    -0.720 OA 
BRANCH  26  28
HETATM   28  C   UNL     1     -11.621  12.831  63.738  1.00  0.00    -0.481 C  
HETATM   29  O   UNL     1     -12.292  11.703  63.177  1.00  0.00    -0.937 OA 
HETATM   30  H   UNL     1     -11.890  11.444  62.356  1.00  0.00     0.000 HD 
ENDBRANCH  26  28
ENDBRANCH   5  26
TORSDOF 2
ENDMDL
MODEL        9
REMARK 921   NORMALIZED FREE ENERGY PREDICTED BY IDOCK:   -6.69 KCAL/MOL
REMARK 922        TOTAL FREE ENERGY PREDICTED BY IDOCK:   -6.79 KCAL/MOL
REMARK 923 INTER-LIGAND FREE ENERGY PREDICTED BY IDOCK:   -7.44 KCAL/MOL
REMARK 924 INTRA-LIGAND FREE ENERGY PREDICTED BY IDOCK:    0.64 KCAL/MOL
REMARK 927      BINDING AFFINITY PREDICTED BY RF-SCORE:    0.00 PKD
ROOT
HETATM    1  C   UNL     1     -10.166  10.788  68.232  1.00  0.00    -0.187 C  
HETATM    2  C   UNL     1     -11.133  10.719  67.205  1.00  0.00    -0.339 C  
HETATM    3  C   UNL     1     -10.197  11.887  66.987  1.00  0.00    -0.233 C  
HETATM    4  C   UNL     1     -10.440  12.219  65.366  1.00  0.00    -0.302 C  
HETATM    5  C   UNL     1      -8.551  11.880  68.216  1.00  0.00    -0.162 C  
HETATM    6  C   UNL     1      -8.818  11.355  66.996  1.00  0.00    -0.168 C  
HETATM    7  O   UNL     1     -13.893  15.903  73.159  1.00  0.00    -0.548 OA 
HETATM    8  C   UNL     1     -11.955  16.035  69.108  1.00  0.00    -0.187 C  
HETATM    9  C   UNL     1     -11.697  15.781  72.203  1.00  0.00    -0.573 C  
HETATM   10  C   UNL     1      -8.564  13.273  66.855  1.00  0.00    -0.116 C  
HETATM   11  C   UNL     1      -8.220  10.253  66.139  1.00  0.00    -0.138 C  
HETATM   12  C   UNL     1      -9.450  14.207  68.128  1.00  0.00    -0.213 C  
HETATM   13  C   UNL     1     -11.563  14.736  69.941  1.00  0.00    -0.330 C  
HETATM   14  C   UNL     1     -10.907  13.681  68.904  1.00  0.00    -0.264 C  
HETATM   15  O   UNL     1      -8.478  14.482  69.164  1.00  0.00    -0.322 OA 
HETATM   16  C   UNL     1     -10.912  15.383  71.168  1.00  0.00    -0.277 C  
HETATM   17  H   UNL     1      -8.943  14.972  69.833  1.00  0.00     0.000 HD 
HETATM   18  C   UNL     1     -10.727  12.079  69.434  1.00  0.00     0.022 C  
HETATM   19 CL   UNL     1     -12.514  13.674  67.617  1.00  0.00    -0.025 Cl 
HETATM   20  C   UNL     1     -11.972  11.604  70.195  1.00  0.00    -0.441 C  
HETATM   21  C   UNL     1     -12.456  12.645  71.200  1.00  0.00    -0.228 C  
HETATM   22  C   UNL     1     -12.780  13.989  70.561  1.00  0.00    -0.347 C  
HETATM   23  F   UNL     1     -13.555  12.129  71.821  1.00  0.00    -0.440 F  
HETATM   24  C   UNL     1     -13.774  14.733  71.086  1.00  0.00    -0.413 C  
HETATM   25  C   UNL     1     -13.184  15.492  72.251  1.00  0.00    -0.448 C  
ENDROOT
BRANCH   5  26
HETATM   26  C   UNL     1      -6.886  11.744  68.071  1.00  0.00    -0.074 C  
HETATM   27  O   UNL     1      -6.168  12.204  67.178  1.00  0.00    -0.145 OA 
BRANCH  26  28
HETATM   28  C   UNL     1      -6.172  10.995  69.203  1.00  0.00    -0.049 C  
HETATM   29  O   UNL     1      -6.815  11.234  70.454  1.00  0.00    -0.486 OA 
HETATM   30  H   UNL     1      -6.373  10.769  71.155  1.00  0.00     0.000 HD 
ENDBRANCH  26  28
ENDBRANCH   5  26
TORSDOF 2
ENDMDL
MODEL       10
REMARK 921   NORMALIZED FREE ENERGY PREDICTED BY IDOCK:   -6.59 KCAL/MOL
REMARK 922        TOTAL FREE ENERGY PREDICTED BY IDOCK:   -6.69 KCAL/MOL
REMARK 923 INTER-LIGAND FREE ENERGY PREDICTED BY IDOCK:   -7.26 KCAL/MOL
REMARK 924 INTRA-LIGAND FREE ENERGY PREDICTED BY IDOCK:    0.58 KCAL/MOL
REMARK 927      BINDING AFFINITY PREDICTED BY RF-SCORE:    0.00 PKD
ROOT
HETATM    1  C   UNL     1      -7.963  10.647  67.150  1.00  0.00    -0.121 C  
HETATM    2  C   UNL     1      -8.840   9.995  68.045  1.00  0.00    -0.125 C  
HETATM    3  C   UNL     1      -9.445  10.077  66.661  1.00  0.00    -0.215 C  
HETATM    4  C   UNL     1     -10.633   8.903  66.739  1.00  0.00    -0.212 C  
HETATM    5  C   UNL     1      -8.129  10.689  65.208  1.00  0.00    -0.086 C  
HETATM    6  C   UNL     1      -8.475   9.483  65.718  1.00  0.00    -0.143 C  
HETATM    7  O   UNL     1     -10.785  18.125  67.816  1.00  0.00    -0.412 OA 
HETATM    8  C   UNL     1     -12.185  14.202  66.131  1.00  0.00    -0.465 C  
HETATM    9  C   UNL     1     -10.287  16.669  65.977  1.00  0.00    -0.352 C  
HETATM   10  C   UNL     1      -9.885  10.147  64.562  1.00  0.00    -0.334 C  
HETATM   11  C   UNL     1      -7.845   8.101  65.750  1.00  0.00    -0.096 C  
HETATM   12  C   UNL     1     -10.290  11.886  64.857  1.00  0.00    -0.286 C  
HETATM   13  C   UNL     1     -10.617  14.234  66.409  1.00  0.00    -0.286 C  
HETATM   14  C   UNL     1     -10.092  12.704  66.370  1.00  0.00    -0.263 C  
HETATM   15  O   UNL     1      -9.562  12.637  63.856  1.00  0.00    -0.653 OA 
HETATM   16  C   UNL     1     -10.201  15.398  65.505  1.00  0.00    -0.411 C  
HETATM   17  H   UNL     1      -9.775  13.550  64.010  1.00  0.00     0.000 HD 
HETATM   18  C   UNL     1      -8.541  12.398  66.988  1.00  0.00    -0.191 C  
HETATM   19 CL   UNL     1     -11.412  12.027  67.798  1.00  0.00    -0.370 Cl 
HETATM   20  C   UNL     1      -8.302  13.169  68.292  1.00  0.00    -0.152 C  
HETATM   21  C   UNL     1      -8.762  14.620  68.189  1.00  0.00    -0.168 C  
HETATM   22  C   UNL     1     -10.235  14.756  67.825  1.00  0.00    -0.232 C  
HETATM   23  F   UNL     1      -8.505  15.214  69.388  1.00  0.00    -0.199 F  
HETATM   24  C   UNL     1     -10.930  15.800  68.320  1.00  0.00    -0.325 C  
HETATM   25  C   UNL     1     -10.655  16.977  67.414  1.00  0.00    -0.289 C  
ENDROOT
BRANCH   5  26
HETATM   26  C   UNL     1      -7.418  10.062  63.824  1.00  0.00    -0.141 C  
HETATM   27  O   UNL     1      -7.983   9.673  62.798  1.00  0.00    -0.117 OA 
BRANCH  26  28
HETATM   28  C   UNL     1      -5.886  10.005  63.823  1.00  0.00    -0.129 C  
HETATM   29  O   UNL     1      -5.335  11.153  64.468  1.00  0.00    -0.489 OA 
HETATM   30  H   UNL     1      -4.385  11.117  64.467  1.00  0.00     0.000 HD 
ENDBRANCH  26  28
ENDBRANCH   5  26
TORSDOF 2
ENDMDL
MODEL       11
REMARK 921   NORMALIZED FREE ENERGY PREDICTED BY IDOCK:   -6.51 KCAL/MOL
REMARK 922        TOTAL FREE ENERGY PREDICTED BY IDOCK:   -6.60 KCAL/MOL
REMARK 923 INTER-LIGAND FREE ENERGY PREDICTED BY IDOCK:   -8.23 KCAL/MOL
REMARK 924 INTRA-LIGAND FREE ENERGY PREDICTED BY IDOCK:    1.63 KCAL/MOL
REMARK 927      BINDING AFFINITY PREDICTED BY RF-SCORE:    0.00 PKD
ROOT
HETATM    1  C   UNL     1     -10.239   7.143  69.688  1.00  0.00    -0.215 C  
HETATM    2  C   UNL     1      -8.881   7.212  70.070  1.00  0.00    -0.142 C  
HETATM    3  C   UNL     1      -9.708   8.219  70.838  1.00  0.00    -0.204 C  
HETATM    4  C   UNL     1      -8.708   8.566  72.132  1.00  0.00    -0.267 C  
HETATM    5  C   UNL     1     -11.736   7.975  70.621  1.00  0.00    -0.158 C  
HETATM    6  C   UNL     1     -10.815   7.483  71.483  1.00  0.00    -0.253 C  
HETATM    7  O   UNL     1     -10.264  12.827  64.030  1.00  0.00    -0.403 OA 
HETATM    8  C   UNL     1      -9.832  12.613  68.497  1.00  0.00    -0.152 C  
HETATM    9  C   UNL     1     -11.616  12.359  65.954  1.00  0.00    -0.449 C  
HETATM   10  C   UNL     1     -11.197   9.337  71.904  1.00  0.00    -0.331 C  
HETATM   11  C   UNL     1     -10.741   6.291  72.423  1.00  0.00    -0.257 C  
HETATM   12  C   UNL     1     -11.220  10.410  70.446  1.00  0.00    -0.321 C  
HETATM   13  C   UNL     1     -10.432  11.279  67.867  1.00  0.00    -0.218 C  
HETATM   14  C   UNL     1     -10.321  10.124  68.994  1.00  0.00    -0.230 C  
HETATM   15  O   UNL     1     -12.613  10.546  70.077  1.00  0.00    -0.502 OA 
HETATM   16  C   UNL     1     -11.697  11.832  67.204  1.00  0.00    -0.267 C  
HETATM   17  H   UNL     1     -12.626  11.109  69.312  1.00  0.00     0.000 HD 
HETATM   18  C   UNL     1     -10.545   8.520  68.489  1.00  0.00    -0.154 C  
HETATM   19 CL   UNL     1      -8.294  10.348  69.279  1.00  0.00    -0.160 Cl 
HETATM   20  C   UNL     1      -9.824   8.250  67.162  1.00  0.00    -0.281 C  
HETATM   21  C   UNL     1     -10.062   9.364  66.148  1.00  0.00    -0.254 C  
HETATM   22  C   UNL     1      -9.626  10.735  66.651  1.00  0.00    -0.208 C  
HETATM   23  F   UNL     1      -9.387   9.031  65.012  1.00  0.00    -0.261 F  
HETATM   24  C   UNL     1      -9.148  11.628  65.762  1.00  0.00    -0.128 C  
HETATM   25  C   UNL     1     -10.345  12.302  65.131  1.00  0.00    -0.286 C  
ENDROOT
BRANCH   5  26
HETATM   26  C   UNL     1     -13.055   7.583  71.579  1.00  0.00    -0.356 C  
HETATM   27  O   UNL     1     -13.349   6.475  72.039  1.00  0.00    -0.150 OA 
BRANCH  26  28
HETATM   28  C   UNL     1     -13.980   8.746  71.957  1.00  0.00    -0.451 C  
HETATM   29  O   UNL     1     -14.230   8.759  73.362  1.00  0.00    -1.173 OA 
HETATM   30  H   UNL     1     -14.803   9.480  73.596  1.00  0.00     0.000 HD 
ENDBRANCH  26  28
ENDBRANCH   5  26
TORSDOF 2
ENDMDL
MODEL       12
REMARK 921   NORMALIZED FREE ENERGY PREDICTED BY IDOCK:   -6.20 KCAL/MOL
REMARK 922        TOTAL FREE ENERGY PREDICTED BY IDOCK:   -6.24 KCAL/MOL
REMARK 923 INTER-LIGAND FREE ENERGY PREDICTED BY IDOCK:   -6.97 KCAL/MOL
REMARK 924 INTRA-LIGAND FREE ENERGY PREDICTED BY IDOCK:    0.72 KCAL/MOL
REMARK 927      BINDING AFFINITY PREDICTED BY RF-SCORE:    0.00 PKD
ROOT
HETATM    1  C   UNL     1      -8.468   7.874  65.286  1.00  0.00    -0.119 C  
HETATM    2  C   UNL     1      -7.112   8.262  65.336  1.00  0.00    -0.067 C  
HETATM    3  C   UNL     1      -7.728   8.280  66.717  1.00  0.00    -0.094 C  
HETATM    4  C   UNL     1      -6.372   8.250  67.695  1.00  0.00    -0.053 C  
HETATM    5  C   UNL     1      -9.584   7.406  66.815  1.00  0.00    -0.249 C  
HETATM    6  C   UNL     1      -8.318   6.946  66.954  1.00  0.00    -0.114 C  
HETATM    7  O   UNL     1     -11.853  15.122  64.701  1.00  0.00    -0.402 OA 
HETATM    8  C   UNL     1      -9.613  12.761  67.798  1.00  0.00    -0.204 C  
HETATM    9  C   UNL     1     -12.193  13.212  66.110  1.00  0.00    -0.451 C  
HETATM   10  C   UNL     1      -8.836   7.958  68.526  1.00  0.00    -0.134 C  
HETATM   11  C   UNL     1      -7.647   5.585  66.880  1.00  0.00    -0.092 C  
HETATM   12  C   UNL     1      -9.650   9.526  68.130  1.00  0.00    -0.137 C  
HETATM   13  C   UNL     1     -10.155  11.859  66.603  1.00  0.00    -0.225 C  
HETATM   14  C   UNL     1      -9.382  10.440  66.684  1.00  0.00    -0.185 C  
HETATM   15  O   UNL     1     -11.071   9.269  68.227  1.00  0.00    -0.481 OA 
HETATM   16  C   UNL     1     -11.660  12.122  66.721  1.00  0.00    -0.412 C  
HETATM   17  H   UNL     1     -11.498  10.092  68.019  1.00  0.00     0.000 HD 
HETATM   18  C   UNL     1      -9.487   9.419  65.333  1.00  0.00    -0.322 C  
HETATM   19 CL   UNL     1      -7.495  11.263  66.623  1.00  0.00    -0.146 Cl 
HETATM   20  C   UNL     1      -9.331  10.209  64.027  1.00  0.00    -0.339 C  
HETATM   21  C   UNL     1     -10.164  11.486  64.031  1.00  0.00    -0.345 C  
HETATM   22  C   UNL     1      -9.827  12.418  65.188  1.00  0.00    -0.157 C  
HETATM   23  F   UNL     1      -9.959  12.108  62.835  1.00  0.00    -0.376 F  
HETATM   24  C   UNL     1      -9.928  13.749  64.997  1.00  0.00    -0.211 C  
HETATM   25  C   UNL     1     -11.380  14.111  65.202  1.00  0.00    -0.336 C  
ENDROOT
BRANCH   5  26
HETATM   26  C   UNL     1     -10.302   6.079  67.548  1.00  0.00    -0.210 C  
HETATM   27  O   UNL     1     -10.637   5.963  68.731  1.00  0.00    -0.224 OA 
BRANCH  26  28
HETATM   28  C   UNL     1     -10.613   4.891  66.631  1.00  0.00    -0.142 C  
HETATM   29  O   UNL     1     -11.519   5.272  65.596  1.00  0.00    -0.737 OA 
HETATM   30  H   UNL     1     -11.711   4.535  65.028  1.00  0.00     0.000 HD 
ENDBRANCH  26  28
ENDBRANCH   5  26
TORSDOF 2
ENDMDL
MODEL       13
REMARK 921   NORMALIZED FREE ENERGY PREDICTED BY IDOCK:   -6.17 KCAL/MOL
REMARK 922        TOTAL FREE ENERGY PREDICTED BY IDOCK:   -6.21 KCAL/MOL
REMARK 923 INTER-LIGAND FREE ENERGY PREDICTED BY IDOCK:   -6.85 KCAL/MOL
REMARK 924 INTRA-LIGAND FREE ENERGY PREDICTED BY IDOCK:    0.64 KCAL/MOL
REMARK 927      BINDING AFFINITY PREDICTED BY RF-SCORE:    0.00 PKD
ROOT
HETATM    1  C   UNL     1     -10.671  15.253  66.653  1.00  0.00    -0.309 C  
HETATM    2  C   UNL     1     -11.777  14.913  67.461  1.00  0.00    -0.328 C  
HETATM    3  C   UNL     1     -10.500  14.924  68.272  1.00  0.00    -0.239 C  
HETATM    4  C   UNL     1     -11.090  15.035  69.834  1.00  0.00    -0.298 C  
HETATM    5  C   UNL     1      -8.892  15.738  67.288  1.00  0.00    -0.212 C  
HETATM    6  C   UNL     1      -9.866  16.245  68.080  1.00  0.00    -0.236 C  
HETATM    7  O   UNL     1      -8.232   7.879  64.653  1.00  0.00    -0.144 OA 
HETATM    8  C   UNL     1      -8.369  10.424  68.353  1.00  0.00    -0.119 C  
HETATM    9  C   UNL     1      -7.154   9.825  65.546  1.00  0.00    -0.108 C  
HETATM   10  C   UNL     1      -8.575  15.274  69.153  1.00  0.00    -0.235 C  
HETATM   11  C   UNL     1     -10.456  17.625  68.321  1.00  0.00    -0.376 C  
HETATM   12  C   UNL     1      -8.128  13.666  68.450  1.00  0.00    -0.146 C  
HETATM   13  C   UNL     1      -8.569  11.264  67.014  1.00  0.00    -0.148 C  
HETATM   14  C   UNL     1      -9.158  12.709  67.439  1.00  0.00    -0.191 C  
HETATM   15  O   UNL     1      -6.888  13.878  67.735  1.00  0.00    -0.146 OA 
HETATM   16  C   UNL     1      -7.252  10.955  66.296  1.00  0.00    -0.126 C  
HETATM   17  H   UNL     1      -6.653  13.034  67.366  1.00  0.00     0.000 HD 
HETATM   18  C   UNL     1      -9.808  13.677  66.205  1.00  0.00    -0.310 C  
HETATM   19 CL   UNL     1     -10.770  11.950  68.469  1.00  0.00    -0.235 Cl 
HETATM   20  C   UNL     1     -10.666  12.846  65.243  1.00  0.00    -0.318 C  
HETATM   21  C   UNL     1      -9.980  11.542  64.849  1.00  0.00    -0.259 C  
HETATM   22  C   UNL     1      -9.629  10.665  66.044  1.00  0.00    -0.244 C  
HETATM   23  F   UNL     1     -10.816  10.885  63.996  1.00  0.00    -0.441 F  
HETATM   24  C   UNL     1      -9.662   9.326  65.895  1.00  0.00    -0.355 C  
HETATM   25  C   UNL     1      -8.341   8.922  65.282  1.00  0.00    -0.160 C  
ENDROOT
BRANCH   5  26
HETATM   26  C   UNL     1      -7.878  17.065  67.438  1.00  0.00    -0.171 C  
HETATM   27  O   UNL     1      -7.396  17.531  68.475  1.00  0.00    -0.223 OA 
BRANCH  26  28
HETATM   28  C   UNL     1      -7.473  17.753  66.129  1.00  0.00    -0.287 C  
HETATM   29  O   UNL     1      -8.353  18.837  65.832  1.00  0.00    -0.490 OA 
HETATM   30  H   UNL     1      -8.103  19.263  65.021  1.00  0.00     0.000 HD 
ENDBRANCH  26  28
ENDBRANCH   5  26
TORSDOF 2
ENDMDL
MODEL       14
REMARK 921   NORMALIZED FREE ENERGY PREDICTED BY IDOCK:   -6.11 KCAL/MOL
REMARK 922        TOTAL FREE ENERGY PREDICTED BY IDOCK:   -6.14 KCAL/MOL
REMARK 923 INTER-LIGAND FREE ENERGY PREDICTED BY IDOCK:   -6.74 KCAL/MOL
REMARK 924 INTRA-LIGAND FREE ENERGY PREDICTED BY IDOCK:    0.59 KCAL/MOL
REMARK 927      BINDING AFFINITY PREDICTED BY RF-SCORE:    0.00 PKD
ROOT
HETATM    1  C   UNL     1     -11.533  14.727  67.631  1.00  0.00    -0.363 C  
HETATM    2  C   UNL     1     -11.746  15.083  66.281  1.00  0.00    -0.096 C  
HETATM    3  C   UNL     1     -10.511  14.221  66.422  1.00  0.00    -0.282 C  
HETATM    4  C   UNL     1     -10.291  13.681  64.855  1.00  0.00    -0.408 C  
HETATM    5  C   UNL     1     -10.299  13.363  68.276  1.00  0.00    -0.251 C  
HETATM    6  C   UNL     1     -10.912  12.987  67.129  1.00  0.00    -0.293 C  
HETATM    7  O   UNL     1      -6.521  20.627  69.730  1.00  0.00    -0.213 OA 
HETATM    8  C   UNL     1      -6.432  17.003  67.075  1.00  0.00    -0.233 C  
HETATM    9  C   UNL     1      -6.492  18.238  69.936  1.00  0.00     0.020 C  
HETATM   10  C   UNL     1      -8.989  12.802  66.948  1.00  0.00    -0.213 C  
HETATM   11  C   UNL     1     -12.000  11.993  66.759  1.00  0.00    -0.087 C  
HETATM   12  C   UNL     1      -8.073  14.238  67.563  1.00  0.00    -0.187 C  
HETATM   13  C   UNL     1      -7.642  16.984  68.111  1.00  0.00    -0.194 C  
HETATM   14  C   UNL     1      -8.687  15.857  67.606  1.00  0.00    -0.174 C  
HETATM   15  O   UNL     1      -7.653  13.894  68.904  1.00  0.00    -0.176 OA 
HETATM   16  C   UNL     1      -6.873  17.034  69.434  1.00  0.00    -0.179 C  
HETATM   17  H   UNL     1      -7.172  14.647  69.227  1.00  0.00     0.000 HD 
HETATM   18  C   UNL     1     -10.235  15.863  68.302  1.00  0.00    -0.227 C  
HETATM   19 CL   UNL     1      -8.913  16.653  65.721  1.00  0.00    -0.111 Cl 
HETATM   20  C   UNL     1     -10.780  17.292  68.428  1.00  0.00    -0.332 C  
HETATM   21  C   UNL     1      -9.735  18.253  68.986  1.00  0.00    -0.206 C  
HETATM   22  C   UNL     1      -8.463  18.306  68.150  1.00  0.00    -0.290 C  
HETATM   23  F   UNL     1     -10.315  19.484  69.061  1.00  0.00    -0.468 F  
HETATM   24  C   UNL     1      -7.787  19.470  68.074  1.00  0.00    -0.340 C  
HETATM   25  C   UNL     1      -6.914  19.549  69.305  1.00  0.00    -0.350 C  
ENDROOT
BRANCH   5  26
HETATM   26  C   UNL     1     -10.289  11.825  68.946  1.00  0.00    -0.128 C  
HETATM   27  O   UNL     1      -9.444  10.939  68.784  1.00  0.00    -0.183 OA 
BRANCH  26  28
HETATM   28  C   UNL     1     -11.444  11.500  69.900  1.00  0.00    -0.260 C  
HETATM   29  O   UNL     1     -11.855  12.665  70.614  1.00  0.00    -0.513 OA 
HETATM   30  H   UNL     1     -12.571  12.464  71.205  1.00  0.00     0.000 HD 
ENDBRANCH  26  28
ENDBRANCH   5  26
TORSDOF 2
ENDMDL
MODEL       15
REMARK 921   NORMALIZED FREE ENERGY PREDICTED BY IDOCK:   -6.03 KCAL/MOL
REMARK 922        TOTAL FREE ENERGY PREDICTED BY IDOCK:   -6.05 KCAL/MOL
REMARK 923 INTER-LIGAND FREE ENERGY PREDICTED BY IDOCK:   -6.87 KCAL/MOL
REMARK 924 INTRA-LIGAND FREE ENERGY PREDICTED BY IDOCK:    0.82 KCAL/MOL
REMARK 927      BINDING AFFINITY PREDICTED BY RF-SCORE:    0.00 PKD
ROOT
HETATM    1  C   UNL     1     -11.554  12.043  68.061  1.00  0.00    -0.407 C  
HETATM    2  C   UNL     1     -10.682  12.730  68.934  1.00  0.00    -0.199 C  
HETATM    3  C   UNL     1     -10.208  12.841  67.502  1.00  0.00    -0.216 C  
HETATM    4  C   UNL     1      -9.173  14.153  67.586  1.00  0.00    -0.193 C  
HETATM    5  C   UNL     1     -11.573  12.182  66.117  1.00  0.00    -0.418 C  
HETATM    6  C   UNL     1     -11.332  13.377  66.705  1.00  0.00    -0.353 C  
HETATM    7  O   UNL     1      -7.773   4.975  67.781  1.00  0.00    -0.086 OA 
HETATM    8  C   UNL     1      -7.042   9.173  66.355  1.00  0.00    -0.084 C  
HETATM    9  C   UNL     1      -8.625   6.497  66.135  1.00  0.00    -0.146 C  
HETATM   10  C   UNL     1      -9.970  13.002  65.375  1.00  0.00    -0.201 C  
HETATM   11  C   UNL     1     -12.122  14.657  66.921  1.00  0.00    -0.224 C  
HETATM   12  C   UNL     1      -9.325  11.314  65.470  1.00  0.00    -0.221 C  
HETATM   13  C   UNL     1      -8.559   8.911  66.763  1.00  0.00    -0.122 C  
HETATM   14  C   UNL     1      -9.271  10.356  66.912  1.00  0.00    -0.170 C  
HETATM   15  O   UNL     1     -10.048  10.557  64.471  1.00  0.00    -0.334 OA 
HETATM   16  C   UNL     1      -8.914   7.780  65.793  1.00  0.00    -0.109 C  
HETATM   17  H   UNL     1      -9.709   9.671  64.520  1.00  0.00     0.000 HD 
HETATM   18  C   UNL     1     -10.781  10.403  67.687  1.00  0.00    -0.335 C  
HETATM   19 CL   UNL     1      -7.913  11.083  68.278  1.00  0.00    -0.118 Cl 
HETATM   20  C   UNL     1     -10.794   9.503  68.929  1.00  0.00    -0.177 C  
HETATM   21  C   UNL     1     -10.170   8.140  68.652  1.00  0.00    -0.207 C  
HETATM   22  C   UNL     1      -8.734   8.230  68.152  1.00  0.00    -0.136 C  
HETATM   23  F   UNL     1     -10.233   7.421  69.808  1.00  0.00    -0.192 F  
HETATM   24  C   UNL     1      -7.870   7.250  68.485  1.00  0.00    -0.122 C  
HETATM   25  C   UNL     1      -8.083   6.124  67.500  1.00  0.00    -0.109 C  
ENDROOT
BRANCH   5  26
HETATM   26  C   UNL     1     -12.488  12.820  64.864  1.00  0.00    -0.497 C  
HETATM   27  O   UNL     1     -12.663  14.011  64.591  1.00  0.00    -0.648 OA 
BRANCH  26  28
HETATM   28  C   UNL     1     -13.150  11.801  63.929  1.00  0.00     0.110 C  
HETATM   29  O   UNL     1     -12.292  11.486  62.833  1.00  0.00    -0.958 OA 
HETATM   30  H   UNL     1     -12.702  10.855  62.253  1.00  0.00     0.000 HD 
ENDBRANCH  26  28
ENDBRANCH   5  26
TORSDOF 2
ENDMDL
MODEL       16
REMARK 921   NORMALIZED FREE ENERGY PREDICTED BY IDOCK:   -6.01 KCAL/MOL
REMARK 922        TOTAL FREE ENERGY PREDICTED BY IDOCK:   -6.03 KCAL/MOL
REMARK 923 INTER-LIGAND FREE ENERGY PREDICTED BY IDOCK:   -6.60 KCAL/MOL
REMARK 924 INTRA-LIGAND FREE ENERGY PREDICTED BY IDOCK:    0.56 KCAL/MOL
REMARK 927      BINDING AFFINITY PREDICTED BY RF-SCORE:    0.00 PKD
ROOT
HETATM    1  C   UNL     1     -11.287  11.745  67.742  1.00  0.00    -0.358 C  
HETATM    2  C   UNL     1     -11.888  11.845  66.469  1.00  0.00    -0.132 C  
HETATM    3  C   UNL     1     -10.385  11.730  66.347  1.00  0.00    -0.257 C  
HETATM    4  C   UNL     1     -10.208  11.257  64.753  1.00  0.00    -0.347 C  
HETATM    5  C   UNL     1      -9.441  11.233  68.102  1.00  0.00    -0.184 C  
HETATM    6  C   UNL     1      -9.974  10.517  67.084  1.00  0.00    -0.234 C  
HETATM    7  O   UNL     1      -9.658  19.497  68.998  1.00  0.00    -0.403 OA 
HETATM    8  C   UNL     1      -8.229  16.218  66.279  1.00  0.00    -0.312 C  
HETATM    9  C   UNL     1      -8.390  17.466  69.130  1.00  0.00     0.051 C  
HETATM   10  C   UNL     1      -8.290  11.306  66.532  1.00  0.00    -0.168 C  
HETATM   11  C   UNL     1     -10.457   9.087  66.903  1.00  0.00    -0.293 C  
HETATM   12  C   UNL     1      -8.131  13.048  66.998  1.00  0.00    -0.033 C  
HETATM   13  C   UNL     1      -9.056  15.674  67.526  1.00  0.00    -0.198 C  
HETATM   14  C   UNL     1      -9.459  14.141  67.202  1.00  0.00    -0.237 C  
HETATM   15  O   UNL     1      -7.362  13.061  68.224  1.00  0.00    -0.097 OA 
HETATM   16  C   UNL     1      -8.194  16.200  68.678  1.00  0.00    -0.202 C  
HETATM   17  H   UNL     1      -7.279  13.975  68.469  1.00  0.00     0.000 HD 
HETATM   18  C   UNL     1     -10.644  13.424  68.183  1.00  0.00    -0.255 C  
HETATM   19 CL   UNL     1     -10.389  14.575  65.418  1.00  0.00    -0.376 Cl 
HETATM   20  C   UNL     1     -11.803  14.394  68.449  1.00  0.00    -0.354 C  
HETATM   21  C   UNL     1     -11.306  15.787  68.822  1.00  0.00    -0.362 C  
HETATM   22  C   UNL     1     -10.409  16.407  67.758  1.00  0.00    -0.287 C  
HETATM   23  F   UNL     1     -12.404  16.565  69.040  1.00  0.00    -0.018 F  
HETATM   24  C   UNL     1     -10.439  17.743  67.586  1.00  0.00    -0.393 C  
HETATM   25  C   UNL     1      -9.522  18.340  68.627  1.00  0.00    -0.327 C  
ENDROOT
BRANCH   5  26
HETATM   26  C   UNL     1      -8.536   9.961  68.715  1.00  0.00    -0.122 C  
HETATM   27  O   UNL     1      -7.556   9.415  68.198  1.00  0.00    -0.082 OA 
BRANCH  26  28
HETATM   28  C   UNL     1      -8.953   9.445  70.098  1.00  0.00    -0.227 C  
HETATM   29  O   UNL     1     -10.141  10.097  70.545  1.00  0.00    -0.392 OA 
HETATM   30  H   UNL     1     -10.399   9.777  71.402  1.00  0.00     0.000 HD 
ENDBRANCH  26  28
ENDBRANCH   5  26
TORSDOF 2
ENDMDL
MODEL       17
REMARK 921   NORMALIZED FREE ENERGY PREDICTED BY IDOCK:   -5.93 KCAL/MOL
REMARK 922        TOTAL FREE ENERGY PREDICTED BY IDOCK:   -5.95 KCAL/MOL
REMARK 923 INTER-LIGAND FREE ENERGY PREDICTED BY IDOCK:   -6.64 KCAL/MOL
REMARK 924 INTRA-LIGAND FREE ENERGY PREDICTED BY IDOCK:    0.69 KCAL/MOL
REMARK 927      BINDING AFFINITY PREDICTED BY RF-SCORE:    0.00 PKD
ROOT
HETATM    1  C   UNL     1      -8.485  12.131  68.141  1.00  0.00    -0.175 C  
HETATM    2  C   UNL     1      -7.746  11.605  67.058  1.00  0.00    -0.159 C  
HETATM    3  C   UNL     1      -9.232  11.458  66.818  1.00  0.00    -0.185 C  
HETATM    4  C   UNL     1      -9.287  11.215  65.164  1.00  0.00    -0.237 C  
HETATM    5  C   UNL     1     -10.402  12.491  68.153  1.00  0.00    -0.236 C  
HETATM    6  C   UNL     1      -9.838  12.798  66.960  1.00  0.00    -0.231 C  
HETATM    7  O   UNL     1      -9.455   5.412  72.411  1.00  0.00    -0.143 OA 
HETATM    8  C   UNL     1     -10.909   7.082  68.502  1.00  0.00    -0.187 C  
HETATM    9  C   UNL     1     -10.926   7.131  71.618  1.00  0.00    -0.255 C  
HETATM   10  C   UNL     1     -11.368  11.634  66.695  1.00  0.00    -0.338 C  
HETATM   11  C   UNL     1      -9.484  14.082  66.229  1.00  0.00    -0.249 C  
HETATM   12  C   UNL     1     -11.399  10.226  67.833  1.00  0.00    -0.105 C  
HETATM   13  C   UNL     1     -10.278   8.191  69.454  1.00  0.00    -0.211 C  
HETATM   14  C   UNL     1      -9.998   9.500  68.545  1.00  0.00    -0.184 C  
HETATM   15  O   UNL     1     -12.288  10.608  68.909  1.00  0.00    -0.800 OA 
HETATM   16  C   UNL     1     -11.200   8.066  70.671  1.00  0.00    -0.266 C  
HETATM   17  H   UNL     1     -12.305   9.870  69.506  1.00  0.00     0.000 HD 
HETATM   18  C   UNL     1      -9.000  10.705  69.202  1.00  0.00    -0.139 C  
HETATM   19 CL   UNL     1      -8.846   8.509  67.156  1.00  0.00    -0.134 Cl 
HETATM   20  C   UNL     1      -7.785  10.092  69.911  1.00  0.00    -0.171 C  
HETATM   21  C   UNL     1      -8.176   8.917  70.800  1.00  0.00    -0.171 C  
HETATM   22  C   UNL     1      -8.889   7.804  70.043  1.00  0.00    -0.142 C  
HETATM   23  F   UNL     1      -7.035   8.450  71.382  1.00  0.00    -0.049 F  
HETATM   24  C   UNL     1      -8.708   6.530  70.443  1.00  0.00    -0.147 C  
HETATM   25  C   UNL     1      -9.666   6.290  71.586  1.00  0.00    -0.161 C  
ENDROOT
BRANCH   5  26
HETATM   26  C   UNL     1     -11.489  13.768  68.132  1.00  0.00    -0.313 C  
HETATM   27  O   UNL     1     -12.358  14.003  67.287  1.00  0.00    -0.351 OA 
BRANCH  26  28
HETATM   28  C   UNL     1     -11.418  14.731  69.324  1.00  0.00    -0.296 C  
HETATM   29  O   UNL     1     -12.695  15.311  69.584  1.00  0.00    -0.602 OA 
HETATM   30  H   UNL     1     -12.651  15.907  70.322  1.00  0.00     0.000 HD 
ENDBRANCH  26  28
ENDBRANCH   5  26
TORSDOF 2
ENDMDL
MODEL       18
REMARK 921   NORMALIZED FREE ENERGY PREDICTED BY IDOCK:   -5.88 KCAL/MOL
REMARK 922        TOTAL FREE ENERGY PREDICTED BY IDOCK:   -5.89 KCAL/MOL
REMARK 923 INTER-LIGAND FREE ENERGY PREDICTED BY IDOCK:   -6.60 KCAL/MOL
REMARK 924 INTRA-LIGAND FREE ENERGY PREDICTED BY IDOCK:    0.71 KCAL/MOL
REMARK 927      BINDING AFFINITY PREDICTED BY RF-SCORE:    0.00 PKD
ROOT
HETATM    1  C   UNL     1     -10.566  10.598  67.222  1.00  0.00    -0.313 C  
HETATM    2  C   UNL     1      -9.733  11.037  68.274  1.00  0.00    -0.181 C  
HETATM    3  C   UNL     1      -8.935  10.828  67.007  1.00  0.00    -0.148 C  
HETATM    4  C   UNL     1      -7.551  11.711  67.326  1.00  0.00    -0.147 C  
HETATM    5  C   UNL     1     -10.087  10.529  65.333  1.00  0.00    -0.358 C  
HETATM    6  C   UNL     1      -9.579  11.626  65.942  1.00  0.00    -0.250 C  
HETATM    7  O   UNL     1      -9.589   2.679  68.031  1.00  0.00    -0.197 OA 
HETATM    8  C   UNL     1      -7.107   6.202  66.762  1.00  0.00    -0.073 C  
HETATM    9  C   UNL     1      -9.441   4.216  66.197  1.00  0.00    -0.187 C  
HETATM   10  C   UNL     1      -8.172  10.672  65.006  1.00  0.00    -0.074 C  
HETATM   11  C   UNL     1      -9.890  13.113  65.928  1.00  0.00    -0.241 C  
HETATM   12  C   UNL     1      -8.210   8.885  65.292  1.00  0.00    -0.137 C  
HETATM   13  C   UNL     1      -8.668   6.517  66.778  1.00  0.00    -0.123 C  
HETATM   14  C   UNL     1      -8.834   8.125  66.717  1.00  0.00    -0.156 C  
HETATM   15  O   UNL     1      -8.903   8.318  64.155  1.00  0.00    -0.390 OA 
HETATM   16  C   UNL     1      -9.168   5.477  65.770  1.00  0.00    -0.132 C  
HETATM   17  H   UNL     1      -8.923   7.380  64.304  1.00  0.00     0.000 HD 
HETATM   18  C   UNL     1     -10.363   8.763  67.084  1.00  0.00    -0.364 C  
HETATM   19 CL   UNL     1      -7.659   8.488  68.368  1.00  0.00    -0.095 Cl 
HETATM   20  C   UNL     1     -10.981   8.059  68.298  1.00  0.00     0.155 C  
HETATM   21  C   UNL     1     -10.836   6.543  68.212  1.00  0.00    -0.288 C  
HETATM   22  C   UNL     1      -9.388   6.086  68.089  1.00  0.00    -0.115 C  
HETATM   23  F   UNL     1     -11.415   6.015  69.327  1.00  0.00    -0.464 F  
HETATM   24  C   UNL     1      -9.030   4.912  68.648  1.00  0.00    -0.130 C  
HETATM   25  C   UNL     1      -9.397   3.829  67.661  1.00  0.00    -0.195 C  
ENDROOT
BRANCH   5  26
HETATM   26  C   UNL     1     -10.401  11.303  63.879  1.00  0.00    -0.381 C  
HETATM   27  O   UNL     1      -9.643  11.422  62.910  1.00  0.00    -0.367 OA 
BRANCH  26  28
HETATM   28  C   UNL     1     -11.806  11.896  63.722  1.00  0.00    -0.458 C  
HETATM   29  O   UNL     1     -11.759  13.133  63.013  1.00  0.00    -0.795 OA 
HETATM   30  H   UNL     1     -12.630  13.500  62.916  1.00  0.00     0.000 HD 
ENDBRANCH  26  28
ENDBRANCH   5  26
TORSDOF 2
ENDMDL
MODEL       19
REMARK 921   NORMALIZED FREE ENERGY PREDICTED BY IDOCK:   -5.85 KCAL/MOL
REMARK 922        TOTAL FREE ENERGY PREDICTED BY IDOCK:   -5.86 KCAL/MOL
REMARK 923 INTER-LIGAND FREE ENERGY PREDICTED BY IDOCK:   -6.53 KCAL/MOL
REMARK 924 INTRA-LIGAND FREE ENERGY PREDICTED BY IDOCK:    0.67 KCAL/MOL
REMARK 927      BINDING AFFINITY PREDICTED BY RF-SCORE:    0.00 PKD
ROOT
HETATM    1  C   UNL     1     -10.859  11.614  68.642  1.00  0.00    -0.253 C  
HETATM    2  C   UNL     1     -11.893  11.559  67.682  1.00  0.00    -0.194 C  
HETATM    3  C   UNL     1     -10.539  11.634  67.011  1.00  0.00    -0.272 C  
HETATM    4  C   UNL     1     -10.892  11.095  65.468  1.00  0.00    -0.205 C  
HETATM    5  C   UNL     1      -8.956  11.370  68.293  1.00  0.00    -0.175 C  
HETATM    6  C   UNL     1      -9.717  10.531  67.551  1.00  0.00    -0.190 C  
HETATM    7  O   UNL     1     -10.012  19.573  69.151  1.00  0.00    -0.442 OA 
HETATM    8  C   UNL     1      -9.225  16.354  66.118  1.00  0.00    -0.365 C  
HETATM    9  C   UNL     1      -8.507  17.737  68.816  1.00  0.00    -0.214 C  
HETATM   10  C   UNL     1      -8.484  11.499  66.408  1.00  0.00    -0.138 C  
HETATM   11  C   UNL     1     -10.022   9.043  67.572  1.00  0.00    -0.262 C  
HETATM   12  C   UNL     1      -8.417  13.272  66.770  1.00  0.00     0.028 C  
HETATM   13  C   UNL     1      -9.450  15.781  67.587  1.00  0.00    -0.218 C  
HETATM   14  C   UNL     1      -9.720  14.192  67.445  1.00  0.00    -0.232 C  
HETATM   15  O   UNL     1      -7.263  13.458  67.623  1.00  0.00    -0.135 OA 
HETATM   16  C   UNL     1      -8.310  16.482  68.332  1.00  0.00    -0.200 C  
HETATM   17  H   UNL     1      -7.227  14.388  67.813  1.00  0.00     0.000 HD 
HETATM   18  C   UNL     1     -10.347  13.386  68.800  1.00  0.00    -0.164 C  
HETATM   19 CL   UNL     1     -11.291  14.394  66.131  1.00  0.00    -0.343 Cl 
HETATM   20  C   UNL     1     -11.454  14.210  69.472  1.00  0.00    -0.334 C  
HETATM   21  C   UNL     1     -11.060  15.675  69.624  1.00  0.00    -0.299 C  
HETATM   22  C   UNL     1     -10.714  16.343  68.299  1.00  0.00    -0.337 C  
HETATM   23  F   UNL     1     -12.101  16.315  70.229  1.00  0.00    -0.290 F  
HETATM   24  C   UNL     1     -10.997  17.652  68.141  1.00  0.00    -0.089 C  
HETATM   25  C   UNL     1      -9.857  18.423  68.764  1.00  0.00    -0.361 C  
ENDROOT
BRANCH   5  26
HETATM   26  C   UNL     1      -7.717  10.266  68.535  1.00  0.00    -0.091 C  
HETATM   27  O   UNL     1      -7.055   9.677  67.675  1.00  0.00    -0.086 OA 
BRANCH  26  28
HETATM   28  C   UNL     1      -7.340   9.988  69.995  1.00  0.00    -0.167 C  
HETATM   29  O   UNL     1      -6.703  11.124  70.579  1.00  0.00    -0.497 OA 
HETATM   30  H   UNL     1      -6.469  10.952  71.484  1.00  0.00     0.000 HD 
ENDBRANCH  26  28
ENDBRANCH   5  26
TORSDOF 2
ENDMDL
MODEL       20
REMARK 921   NORMALIZED FREE ENERGY PREDICTED BY IDOCK:   -5.68 KCAL/MOL
REMARK 922        TOTAL FREE ENERGY PREDICTED BY IDOCK:   -5.67 KCAL/MOL
REMARK 923 INTER-LIGAND FREE ENERGY PREDICTED BY IDOCK:   -6.32 KCAL/MOL
REMARK 924 INTRA-LIGAND FREE ENERGY PREDICTED BY IDOCK:    0.65 KCAL/MOL
REMARK 927      BINDING AFFINITY PREDICTED BY RF-SCORE:    0.00 PKD
ROOT
HETATM    1  C   UNL     1     -11.007  13.122  65.686  1.00  0.00    -0.295 C  
HETATM    2  C   UNL     1     -12.014  12.333  66.285  1.00  0.00    -0.307 C  
HETATM    3  C   UNL     1     -10.863  12.554  67.241  1.00  0.00    -0.277 C  
HETATM    4  C   UNL     1     -11.570  12.195  68.713  1.00  0.00    -0.380 C  
HETATM    5  C   UNL     1      -9.510  13.964  66.609  1.00  0.00    -0.296 C  
HETATM    6  C   UNL     1     -10.647  14.013  67.343  1.00  0.00    -0.278 C  
HETATM    7  O   UNL     1      -6.309   7.268  62.859  1.00  0.00    -0.052 OA 
HETATM    8  C   UNL     1      -7.480   8.919  66.870  1.00  0.00    -0.083 C  
HETATM    9  C   UNL     1      -5.940   9.235  64.179  1.00  0.00    -0.076 C  
HETATM   10  C   UNL     1      -9.203  13.265  68.401  1.00  0.00    -0.145 C  
HETATM   11  C   UNL     1     -11.643  15.095  67.725  1.00  0.00    -0.303 C  
HETATM   12  C   UNL     1      -8.241  12.015  67.513  1.00  0.00    -0.159 C  
HETATM   13  C   UNL     1      -7.828   9.904  65.668  1.00  0.00    -0.127 C  
HETATM   14  C   UNL     1      -8.856  11.014  66.240  1.00  0.00    -0.187 C  
HETATM   15  O   UNL     1      -7.075  12.703  67.002  1.00  0.00    -0.353 OA 
HETATM   16  C   UNL     1      -6.430  10.126  65.081  1.00  0.00    -0.121 C  
HETATM   17  H   UNL     1      -6.569  12.048  66.536  1.00  0.00     0.000 HD 
HETATM   18  C   UNL     1      -9.677  11.972  65.105  1.00  0.00    -0.163 C  
HETATM   19 CL   UNL     1     -10.233   9.645  66.925  1.00  0.00    -0.293 Cl 
HETATM   20  C   UNL     1     -10.171  11.129  63.922  1.00  0.00    -0.420 C  
HETATM   21  C   UNL     1      -9.095  10.175  63.415  1.00  0.00    -0.276 C  
HETATM   22  C   UNL     1      -8.583   9.224  64.489  1.00  0.00    -0.217 C  
HETATM   23  F   UNL     1      -9.628   9.480  62.370  1.00  0.00    -0.253 F  
HETATM   24  C   UNL     1      -8.197   7.984  64.126  1.00  0.00    -0.060 C  
HETATM   25  C   UNL     1      -6.775   8.098  63.628  1.00  0.00    -0.075 C  
ENDROOT
BRANCH   5  26
HETATM   26  C   UNL     1      -8.960  15.472  67.095  1.00  0.00    -0.214 C  
HETATM   27  O   UNL     1      -8.770  15.868  68.249  1.00  0.00    -0.169 OA 
BRANCH  26  28
HETATM   28  C   UNL     1      -8.616  16.456  65.971  1.00  0.00    -0.211 C  
HETATM   29  O   UNL     1      -9.711  17.333  65.711  1.00  0.00    -0.530 OA 
HETATM   30  H   UNL     1      -9.498  17.943  65.015  1.00  0.00     0.000 HD 
ENDBRANCH  26  28
ENDBRANCH   5  26
TORSDOF 2
ENDMDL
MODEL       21
REMARK 921   NORMALIZED FREE ENERGY PREDICTED BY IDOCK:   -5.64 KCAL/MOL
REMARK 922        TOTAL FREE ENERGY PREDICTED BY IDOCK:   -5.62 KCAL/MOL
REMARK 923 INTER-LIGAND FREE ENERGY PREDICTED BY IDOCK:   -7.09 KCAL/MOL
REMARK 924 INTRA-LIGAND FREE ENERGY PREDICTED BY IDOCK:    1.47 KCAL/MOL
REMARK 927      BINDING AFFINITY PREDICTED BY RF-SCORE:    0.00 PKD
ROOT
HETATM    1  C   UNL     1     -10.851   5.856  69.964  1.00  0.00    -0.421 C  
HETATM    2  C   UNL     1      -9.593   5.472  70.479  1.00  0.00    -0.225 C  
HETATM    3  C   UNL     1      -9.936   6.885  70.895  1.00  0.00    -0.200 C  
HETATM    4  C   UNL     1      -8.901   7.121  72.187  1.00  0.00    -0.140 C  
HETATM    5  C   UNL     1     -11.878   7.424  70.500  1.00  0.00    -0.187 C  
HETATM    6  C   UNL     1     -11.259   6.843  71.554  1.00  0.00    -0.290 C  
HETATM    7  O   UNL     1      -8.426   9.427  63.205  1.00  0.00    -0.178 OA 
HETATM    8  C   UNL     1      -8.186  10.206  67.623  1.00  0.00    -0.110 C  
HETATM    9  C   UNL     1      -9.877  10.046  65.010  1.00  0.00    -0.374 C  
HETATM   10  C   UNL     1     -10.840   8.737  71.496  1.00  0.00    -0.374 C  
HETATM   11  C   UNL     1     -11.701   6.004  72.741  1.00  0.00    -0.145 C  
HETATM   12  C   UNL     1     -10.393   9.319  69.841  1.00  0.00    -0.220 C  
HETATM   13  C   UNL     1      -9.278   9.110  67.244  1.00  0.00    -0.157 C  
HETATM   14  C   UNL     1      -9.674   8.337  68.609  1.00  0.00    -0.162 C  
HETATM   15  O   UNL     1     -11.597   9.900  69.288  1.00  0.00    -0.451 OA 
HETATM   16  C   UNL     1     -10.188   9.934  66.328  1.00  0.00    -0.282 C  
HETATM   17  H   UNL     1     -11.363  10.206  68.420  1.00  0.00     0.000 HD 
HETATM   18  C   UNL     1     -10.539   6.885  68.457  1.00  0.00    -0.247 C  
HETATM   19 CL   UNL     1      -7.742   7.797  69.074  1.00  0.00    -0.106 Cl 
HETATM   20  C   UNL     1      -9.976   6.021  67.321  1.00  0.00    -0.177 C  
HETATM   21  C   UNL     1      -9.715   6.838  66.060  1.00  0.00     0.216 C  
HETATM   22  C   UNL     1      -8.755   7.999  66.288  1.00  0.00    -0.174 C  
HETATM   23  F   UNL     1      -9.223   5.985  65.117  1.00  0.00    -0.040 F  
HETATM   24  C   UNL     1      -7.935   8.368  65.283  1.00  0.00    -0.125 C  
HETATM   25  C   UNL     1      -8.734   9.278  64.379  1.00  0.00    -0.181 C  
ENDROOT
BRANCH   5  26
HETATM   26  C   UNL     1     -13.254   7.851  71.358  1.00  0.00    -0.245 C  
HETATM   27  O   UNL     1     -14.388   7.373  71.249  1.00  0.00    -0.421 OA 
BRANCH  26  28
HETATM   28  C   UNL     1     -13.071   8.934  72.428  1.00  0.00    -0.418 C  
HETATM   29  O   UNL     1     -14.104   8.857  73.409  1.00  0.00    -1.256 OA 
HETATM   30  H   UNL     1     -13.990   9.528  74.073  1.00  0.00     0.000 HD 
ENDBRANCH  26  28
ENDBRANCH   5  26
TORSDOF 2
ENDMDL
MODEL       22
REMARK 921   NORMALIZED FREE ENERGY PREDICTED BY IDOCK:   -5.62 KCAL/MOL
REMARK 922        TOTAL FREE ENERGY PREDICTED BY IDOCK:   -5.59 KCAL/MOL
REMARK 923 INTER-LIGAND FREE ENERGY PREDICTED BY IDOCK:   -6.25 KCAL/MOL
REMARK 924 INTRA-LIGAND FREE ENERGY PREDICTED BY IDOCK:    0.66 KCAL/MOL
REMARK 927      BINDING AFFINITY PREDICTED BY RF-SCORE:    0.00 PKD
ROOT
HETATM    1  C   UNL     1      -9.775   8.090  66.715  1.00  0.00    -0.305 C  
HETATM    2  C   UNL     1      -8.619   7.994  65.909  1.00  0.00    -0.171 C  
HETATM    3  C   UNL     1      -8.253   8.328  67.338  1.00  0.00    -0.121 C  
HETATM    4  C   UNL     1      -6.634   7.912  67.380  1.00  0.00    -0.057 C  
HETATM    5  C   UNL     1      -9.812   8.151  68.663  1.00  0.00    -0.191 C  
HETATM    6  C   UNL     1      -8.866   7.298  68.203  1.00  0.00    -0.126 C  
HETATM    7  O   UNL     1     -11.054  15.989  66.180  1.00  0.00    -0.151 OA 
HETATM    8  C   UNL     1      -8.014  13.252  68.039  1.00  0.00    -0.152 C  
HETATM    9  C   UNL     1     -10.901  14.426  67.992  1.00  0.00    -0.250 C  
HETATM   10  C   UNL     1      -8.081   8.545  69.466  1.00  0.00    -0.111 C  
HETATM   11  C   UNL     1      -8.710   5.788  68.138  1.00  0.00    -0.107 C  
HETATM   12  C   UNL     1      -8.583  10.261  69.180  1.00  0.00    -0.164 C  
HETATM   13  C   UNL     1      -9.356  12.500  67.626  1.00  0.00    -0.189 C  
HETATM   14  C   UNL     1      -9.042  10.914  67.643  1.00  0.00    -0.148 C  
HETATM   15  O   UNL     1      -9.669  10.514  70.103  1.00  0.00    -0.356 OA 
HETATM   16  C   UNL     1     -10.374  13.270  68.474  1.00  0.00    -0.244 C  
HETATM   17  H   UNL     1      -9.933  11.414  69.954  1.00  0.00     0.000 HD 
HETATM   18  C   UNL     1     -10.171   9.888  66.900  1.00  0.00    -0.302 C  
HETATM   19 CL   UNL     1      -7.449  11.034  66.345  1.00  0.00    -0.145 Cl 
HETATM   20  C   UNL     1     -10.659  10.474  65.568  1.00  0.00    -0.138 C  
HETATM   21  C   UNL     1     -11.001  11.956  65.689  1.00  0.00    -0.304 C  
HETATM   22  C   UNL     1      -9.831  12.802  66.175  1.00  0.00    -0.269 C  
HETATM   23  F   UNL     1     -11.423  12.376  64.463  1.00  0.00    -0.333 F  
HETATM   24  C   UNL     1      -9.719  14.068  65.726  1.00  0.00    -0.222 C  
HETATM   25  C   UNL     1     -10.621  14.920  66.587  1.00  0.00    -0.305 C  
ENDROOT
BRANCH   5  26
HETATM   26  C   UNL     1     -10.221   7.210  69.990  1.00  0.00    -0.196 C  
HETATM   27  O   UNL     1      -9.632   7.139  71.073  1.00  0.00    -0.160 OA 
BRANCH  26  28
HETATM   28  C   UNL     1     -11.499   6.374  69.852  1.00  0.00    -0.415 C  
HETATM   29  O   UNL     1     -12.629   7.089  70.352  1.00  0.00    -0.618 OA 
HETATM   30  H   UNL     1     -13.421   6.571  70.267  1.00  0.00     0.000 HD 
ENDBRANCH  26  28
ENDBRANCH   5  26
TORSDOF 2
ENDMDL
MODEL       23
REMARK 921   NORMALIZED FREE ENERGY PREDICTED BY IDOCK:   -5.61 KCAL/MOL
REMARK 922        TOTAL FREE ENERGY PREDICTED BY IDOCK:   -5.58 KCAL/MOL
REMARK 923 INTER-LIGAND FREE ENERGY PREDICTED BY IDOCK:   -6.29 KCAL/MOL
REMARK 924 INTRA-LIGAND FREE ENERGY PREDICTED BY IDOCK:    0.71 KCAL/MOL
REMARK 927      BINDING AFFINITY PREDICTED BY RF-SCORE:    0.00 PKD
ROOT
HETATM    1  C   UNL     1     -11.410   7.874  71.722  1.00  0.00    -0.309 C  
HETATM    2  C   UNL     1     -12.145   7.040  70.851  1.00  0.00    -0.403 C  
HETATM    3  C   UNL     1     -10.664   6.748  70.754  1.00  0.00    -0.270 C  
HETATM    4  C   UNL     1     -10.661   5.232  70.049  1.00  0.00    -0.300 C  
HETATM    5  C   UNL     1      -9.537   7.650  72.215  1.00  0.00    -0.215 C  
HETATM    6  C   UNL     1     -10.179   6.462  72.120  1.00  0.00    -0.207 C  
HETATM    7  O   UNL     1      -9.631  13.798  66.616  1.00  0.00    -0.271 OA 
HETATM    8  C   UNL     1      -8.514   9.484  67.191  1.00  0.00    -0.131 C  
HETATM    9  C   UNL     1      -8.363  12.449  68.139  1.00  0.00    -0.178 C  
HETATM   10  C   UNL     1      -8.562   6.432  71.049  1.00  0.00    -0.131 C  
HETATM   11  C   UNL     1     -10.683   5.423  73.108  1.00  0.00    -0.309 C  
HETATM   12  C   UNL     1      -8.349   7.917  70.036  1.00  0.00    -0.121 C  
HETATM   13  C   UNL     1      -9.203  10.124  68.477  1.00  0.00    -0.144 C  
HETATM   14  C   UNL     1      -9.643   8.902  69.442  1.00  0.00    -0.163 C  
HETATM   15  O   UNL     1      -7.452   8.777  70.779  1.00  0.00    -0.066 OA 
HETATM   16  C   UNL     1      -8.220  11.259  68.779  1.00  0.00    -0.122 C  
HETATM   17  H   UNL     1      -7.340   9.556  70.248  1.00  0.00     0.000 HD 
HETATM   18  C   UNL     1     -10.718   9.259  70.706  1.00  0.00    -0.350 C  
HETATM   19 CL   UNL     1     -10.760   7.935  68.008  1.00  0.00    -0.176 Cl 
HETATM   20  C   UNL     1     -11.839  10.194  70.234  1.00  0.00    -0.342 C  
HETATM   21  C   UNL     1     -11.300  11.351  69.399  1.00  0.00    -0.297 C  
HETATM   22  C   UNL     1     -10.521  10.893  68.172  1.00  0.00    -0.211 C  
HETATM   23  F   UNL     1     -12.366  12.119  69.034  1.00  0.00    -0.272 F  
HETATM   24  C   UNL     1     -10.566  11.650  67.058  1.00  0.00    -0.272 C  
HETATM   25  C   UNL     1      -9.539  12.745  67.232  1.00  0.00    -0.208 C  
ENDROOT
BRANCH   5  26
HETATM   26  C   UNL     1      -8.575   7.192  73.510  1.00  0.00    -0.139 C  
HETATM   27  O   UNL     1      -8.255   6.047  73.842  1.00  0.00    -0.111 OA 
BRANCH  26  28
HETATM   28  C   UNL     1      -7.995   8.334  74.353  1.00  0.00    -0.231 C  
HETATM   29  O   UNL     1      -6.883   8.938  73.693  1.00  0.00    -0.345 OA 
HETATM   30  H   UNL     1      -6.523   9.645  74.215  1.00  0.00     0.000 HD 
ENDBRANCH  26  28
ENDBRANCH   5  26
TORSDOF 2
ENDMDL
MODEL       24
REMARK 921   NORMALIZED FREE ENERGY PREDICTED BY IDOCK:   -5.54 KCAL/MOL
REMARK 922        TOTAL FREE ENERGY PREDICTED BY IDOCK:   -5.51 KCAL/MOL
REMARK 923 INTER-LIGAND FREE ENERGY PREDICTED BY IDOCK:   -6.18 KCAL/MOL
REMARK 924 INTRA-LIGAND FREE ENERGY PREDICTED BY IDOCK:    0.68 KCAL/MOL
REMARK 927      BINDING AFFINITY PREDICTED BY RF-SCORE:    0.00 PKD
ROOT
HETATM    1  C   UNL     1      -7.845  10.664  69.443  1.00  0.00    -0.126 C  
HETATM    2  C   UNL     1      -6.876   9.878  68.783  1.00  0.00    -0.054 C  
HETATM    3  C   UNL     1      -8.144   9.968  67.964  1.00  0.00    -0.112 C  
HETATM    4  C   UNL     1      -7.602   9.525  66.446  1.00  0.00    -0.097 C  
HETATM    5  C   UNL     1      -9.487  11.360  68.654  1.00  0.00    -0.168 C  
HETATM    6  C   UNL     1      -8.452  11.402  67.783  1.00  0.00    -0.128 C  
HETATM    7  O   UNL     1     -11.833   4.846  73.260  1.00  0.00    -0.264 OA 
HETATM    8  C   UNL     1     -11.250   6.222  69.023  1.00  0.00    -0.415 C  
HETATM    9  C   UNL     1     -12.468   6.682  71.854  1.00  0.00    -0.334 C  
HETATM   10  C   UNL     1      -9.969  10.506  66.972  1.00  0.00    -0.244 C  
HETATM   11  C   UNL     1      -7.571  12.495  67.200  1.00  0.00    -0.087 C  
HETATM   12  C   UNL     1     -10.746   9.288  68.063  1.00  0.00    -0.174 C  
HETATM   13  C   UNL     1     -10.815   7.316  70.096  1.00  0.00    -0.274 C  
HETATM   14  C   UNL     1      -9.927   8.422  69.319  1.00  0.00    -0.195 C  
HETATM   15  O   UNL     1     -11.878   9.961  68.664  1.00  0.00    -0.429 OA 
HETATM   16  C   UNL     1     -12.141   7.519  70.835  1.00  0.00    -0.254 C  
HETATM   17  H   UNL     1     -12.286   9.322  69.236  1.00  0.00     0.000 HD 
HETATM   18  C   UNL     1      -9.029   9.505  70.269  1.00  0.00    -0.288 C  
HETATM   19 CL   UNL     1      -8.569   7.068  68.571  1.00  0.00    -0.124 Cl 
HETATM   20  C   UNL     1      -8.349   8.783  71.440  1.00  0.00    -0.222 C  
HETATM   21  C   UNL     1      -9.301   7.824  72.147  1.00  0.00    -0.153 C  
HETATM   22  C   UNL     1      -9.886   6.767  71.218  1.00  0.00    -0.186 C  
HETATM   23  F   UNL     1      -8.607   7.240  73.165  1.00  0.00    -0.134 F  
HETATM   24  C   UNL     1     -10.155   5.545  71.718  1.00  0.00    -0.247 C  
HETATM   25  C   UNL     1     -11.511   5.632  72.380  1.00  0.00    -0.251 C  
ENDROOT
BRANCH   5  26
HETATM   26  C   UNL     1     -10.175  12.797  68.131  1.00  0.00    -0.241 C  
HETATM   27  O   UNL     1     -10.035  13.343  67.032  1.00  0.00    -0.238 OA 
BRANCH  26  28
HETATM   28  C   UNL     1     -11.120  13.490  69.121  1.00  0.00    -0.225 C  
HETATM   29  O   UNL     1     -11.588  12.569  70.105  1.00  0.00    -0.520 OA 
HETATM   30  H   UNL     1     -12.173  12.998  70.718  1.00  0.00     0.000 HD 
ENDBRANCH  26  28
ENDBRANCH   5  26
TORSDOF 2
ENDMDL
MODEL       25
REMARK 921   NORMALIZED FREE ENERGY PREDICTED BY IDOCK:   -5.52 KCAL/MOL
REMARK 922        TOTAL FREE ENERGY PREDICTED BY IDOCK:   -5.48 KCAL/MOL
REMARK 923 INTER-LIGAND FREE ENERGY PREDICTED BY IDOCK:   -6.22 KCAL/MOL
REMARK 924 INTRA-LIGAND FREE ENERGY PREDICTED BY IDOCK:    0.73 KCAL/MOL
REMARK 927      BINDING AFFINITY PREDICTED BY RF-SCORE:    0.00 PKD
ROOT
HETATM    1  C   UNL     1      -8.423  17.895  69.062  1.00  0.00    -0.014 C  
HETATM    2  C   UNL     1      -7.256  17.404  69.688  1.00  0.00     0.322 C  
HETATM    3  C   UNL     1      -7.157  17.270  68.185  1.00  0.00    -0.190 C  
HETATM    4  C   UNL     1      -5.510  17.086  67.966  1.00  0.00    -0.123 C  
HETATM    5  C   UNL     1      -8.635  18.261  67.159  1.00  0.00    -0.249 C  
HETATM    6  C   UNL     1      -7.405  18.607  67.605  1.00  0.00    -0.235 C  
HETATM    7  O   UNL     1     -12.534  11.034  68.469  1.00  0.00    -0.440 OA 
HETATM    8  C   UNL     1      -8.847  12.845  66.650  1.00  0.00    -0.098 C  
HETATM    9  C   UNL     1     -11.949  12.785  66.940  1.00  0.00    -0.380 C  
HETATM   10  C   UNL     1      -7.251  17.459  66.049  1.00  0.00    -0.269 C  
HETATM   11  C   UNL     1      -6.687  19.915  67.895  1.00  0.00    -0.285 C  
HETATM   12  C   UNL     1      -8.337  16.012  66.119  1.00  0.00    -0.130 C  
HETATM   13  C   UNL     1      -9.770  13.918  67.380  1.00  0.00    -0.234 C  
HETATM   14  C   UNL     1      -8.883  15.256  67.579  1.00  0.00    -0.188 C  
HETATM   15  O   UNL     1      -9.509  16.359  65.343  1.00  0.00    -0.410 OA 
HETATM   16  C   UNL     1     -11.066  13.754  66.581  1.00  0.00    -0.316 C  
HETATM   17  H   UNL     1     -10.079  15.601  65.379  1.00  0.00     0.000 HD 
HETATM   18  C   UNL     1      -9.480  16.434  68.644  1.00  0.00    -0.239 C  
HETATM   19 CL   UNL     1      -7.354  14.310  68.582  1.00  0.00    -0.118 Cl 
HETATM   20  C   UNL     1     -10.044  15.793  69.919  1.00  0.00    -0.232 C  
HETATM   21  C   UNL     1     -10.927  14.589  69.608  1.00  0.00    -0.193 C  
HETATM   22  C   UNL     1     -10.205  13.506  68.816  1.00  0.00    -0.139 C  
HETATM   23  F   UNL     1     -11.377  14.097  70.798  1.00  0.00    -0.243 F  
HETATM   24  C   UNL     1     -10.542  12.217  69.027  1.00  0.00    -0.104 C  
HETATM   25  C   UNL     1     -11.765  11.941  68.184  1.00  0.00    -0.320 C  
ENDROOT
BRANCH   5  26
HETATM   26  C   UNL     1      -8.766  19.542  66.084  1.00  0.00    -0.311 C  
HETATM   27  O   UNL     1      -7.893  19.984  65.330  1.00  0.00    -0.299 OA 
BRANCH  26  28
HETATM   28  C   UNL     1     -10.141  20.214  66.003  1.00  0.00    -0.383 C  
HETATM   29  O   UNL     1     -11.054  19.615  66.923  1.00  0.00    -0.396 OA 
HETATM   30  H   UNL     1     -11.906  20.032  66.873  1.00  0.00     0.000 HD 
ENDBRANCH  26  28
ENDBRANCH   5  26
TORSDOF 2
ENDMDL
MODEL       26
REMARK 921   NORMALIZED FREE ENERGY PREDICTED BY IDOCK:   -5.50 KCAL/MOL
REMARK 922        TOTAL FREE ENERGY PREDICTED BY IDOCK:   -5.46 KCAL/MOL
REMARK 923 INTER-LIGAND FREE ENERGY PREDICTED BY IDOCK:   -6.12 KCAL/MOL
REMARK 924 INTRA-LIGAND FREE ENERGY PREDICTED BY IDOCK:    0.66 KCAL/MOL
REMARK 927      BINDING AFFINITY PREDICTED BY RF-SCORE:    0.00 PKD
ROOT
HETATM    1  C   UNL     1      -9.758  18.555  66.503  1.00  0.00    -0.354 C  
HETATM    2  C   UNL     1     -10.845  18.606  67.403  1.00  0.00    -0.381 C  
HETATM    3  C   UNL     1      -9.534  18.807  68.130  1.00  0.00    -0.365 C  
HETATM    4  C   UNL     1     -10.043  19.505  69.562  1.00  0.00    -0.062 C  
HETATM    5  C   UNL     1      -7.925  19.099  66.888  1.00  0.00    -0.273 C  
HETATM    6  C   UNL     1      -8.828  19.924  67.468  1.00  0.00    -0.411 C  
HETATM    7  O   UNL     1      -7.880  10.789  67.200  1.00  0.00    -0.116 OA 
HETATM    8  C   UNL     1      -7.687  14.478  69.758  1.00  0.00     0.219 C  
HETATM    9  C   UNL     1      -6.643  12.839  67.322  1.00  0.00    -0.083 C  
HETATM   10  C   UNL     1      -7.551  19.299  68.789  1.00  0.00    -0.393 C  
HETATM   11  C   UNL     1      -9.318  21.340  67.217  1.00  0.00     0.140 C  
HETATM   12  C   UNL     1      -7.240  17.518  68.694  1.00  0.00    -0.246 C  
HETATM   13  C   UNL     1      -7.896  14.804  68.213  1.00  0.00    -0.125 C  
HETATM   14  C   UNL     1      -8.373  16.347  68.109  1.00  0.00    -0.186 C  
HETATM   15  O   UNL     1      -6.023  17.371  67.924  1.00  0.00    -0.134 OA 
HETATM   16  C   UNL     1      -6.635  14.164  67.624  1.00  0.00    -0.173 C  
HETATM   17  H   UNL     1      -5.859  16.437  67.874  1.00  0.00     0.000 HD 
HETATM   18  C   UNL     1      -9.017  16.863  66.626  1.00  0.00    -0.279 C  
HETATM   19 CL   UNL     1      -9.981  16.122  69.375  1.00  0.00    -0.248 Cl 
HETATM   20  C   UNL     1      -9.969  15.813  66.040  1.00  0.00    -0.358 C  
HETATM   21  C   UNL     1      -9.385  14.407  66.120  1.00  0.00    -0.189 C  
HETATM   22  C   UNL     1      -9.035  13.983  67.541  1.00  0.00    -0.195 C  
HETATM   23  F   UNL     1     -10.299  13.555  65.574  1.00  0.00    -0.270 F  
HETATM   24  C   UNL     1      -9.158  12.684  67.877  1.00  0.00    -0.200 C  
HETATM   25  C   UNL     1      -7.895  11.992  67.420  1.00  0.00    -0.162 C  
ENDROOT
BRANCH   5  26
HETATM   26  C   UNL     1      -6.824  20.314  66.536  1.00  0.00    -0.236 C  
HETATM   27  O   UNL     1      -6.362  21.158  67.309  1.00  0.00    -0.298 OA 
BRANCH  26  28
HETATM   28  C   UNL     1      -6.303  20.351  65.094  1.00  0.00    -0.277 C  
HETATM   29  O   UNL     1      -6.430  19.072  64.475  1.00  0.00    -0.465 OA 
HETATM   30  H   UNL     1      -6.107  19.096  63.582  1.00  0.00     0.000 HD 
ENDBRANCH  26  28
ENDBRANCH   5  26
TORSDOF 2
ENDMDL
MODEL       27
REMARK 921   NORMALIZED FREE ENERGY PREDICTED BY IDOCK:   -5.47 KCAL/MOL
REMARK 922        TOTAL FREE ENERGY PREDICTED BY IDOCK:   -5.44 KCAL/MOL
REMARK 923 INTER-LIGAND FREE ENERGY PREDICTED BY IDOCK:   -6.39 KCAL/MOL
REMARK 924 INTRA-LIGAND FREE ENERGY PREDICTED BY IDOCK:    0.96 KCAL/MOL
REMARK 927      BINDING AFFINITY PREDICTED BY RF-SCORE:    0.00 PKD
ROOT
HETATM    1  C   UNL     1      -7.985  19.566  68.823  1.00  0.00    -0.362 C  
HETATM    2  C   UNL     1      -7.532  19.070  70.065  1.00  0.00     0.679 C  
HETATM    3  C   UNL     1      -6.617  18.630  68.944  1.00  0.00    -0.282 C  
HETATM    4  C   UNL     1      -5.233  18.205  69.780  1.00  0.00    -0.203 C  
HETATM    5  C   UNL     1      -6.977  19.572  67.154  1.00  0.00    -0.218 C  
HETATM    6  C   UNL     1      -6.189  19.846  68.221  1.00  0.00    -0.286 C  
HETATM    7  O   UNL     1     -12.371  13.282  66.457  1.00  0.00    -0.358 OA 
HETATM    8  C   UNL     1      -8.024  14.230  67.084  1.00  0.00    -0.128 C  
HETATM    9  C   UNL     1     -10.649  14.610  65.448  1.00  0.00    -0.390 C  
HETATM   10  C   UNL     1      -5.420  18.402  67.177  1.00  0.00    -0.140 C  
HETATM   11  C   UNL     1      -5.507  21.087  68.772  1.00  0.00    -0.371 C  
HETATM   12  C   UNL     1      -6.630  17.143  66.701  1.00  0.00    -0.237 C  
HETATM   13  C   UNL     1      -8.939  15.531  67.015  1.00  0.00    -0.249 C  
HETATM   14  C   UNL     1      -8.065  16.763  67.593  1.00  0.00    -0.188 C  
HETATM   15  O   UNL     1      -7.031  17.471  65.349  1.00  0.00    -0.167 OA 
HETATM   16  C   UNL     1      -9.536  15.374  65.613  1.00  0.00    -0.323 C  
HETATM   17  H   UNL     1      -7.665  16.810  65.099  1.00  0.00     0.000 HD 
HETATM   18  C   UNL     1      -8.894  18.193  67.978  1.00  0.00    -0.286 C  
HETATM   19 CL   UNL     1      -7.643  15.854  69.392  1.00  0.00    -0.230 Cl 
HETATM   20  C   UNL     1     -10.212  17.891  68.704  1.00  0.00    -0.387 C  
HETATM   21  C   UNL     1     -10.990  16.767  68.027  1.00  0.00    -0.296 C  
HETATM   22  C   UNL     1     -10.200  15.468  67.927  1.00  0.00    -0.238 C  
HETATM   23  F   UNL     1     -12.136  16.580  68.741  1.00  0.00    -0.173 F  
HETATM   24  C   UNL     1     -10.866  14.299  68.000  1.00  0.00    -0.247 C  
HETATM   25  C   UNL     1     -11.404  14.013  66.618  1.00  0.00    -0.335 C  
ENDROOT
BRANCH   5  26
HETATM   26  C   UNL     1      -6.182  20.621  66.114  1.00  0.00    -0.225 C  
HETATM   27  O   UNL     1      -5.223  21.355  66.373  1.00  0.00    -0.216 OA 
BRANCH  26  28
HETATM   28  C   UNL     1      -6.683  20.638  64.665  1.00  0.00    -0.153 C  
HETATM   29  O   UNL     1      -6.116  19.562  63.920  1.00  0.00    -0.388 OA 
HETATM   30  H   UNL     1      -6.427  19.573  63.022  1.00  0.00     0.000 HD 
ENDBRANCH  26  28
ENDBRANCH   5  26
TORSDOF 2
ENDMDL
MODEL       28
REMARK 921   NORMALIZED FREE ENERGY PREDICTED BY IDOCK:   -5.46 KCAL/MOL
REMARK 922        TOTAL FREE ENERGY PREDICTED BY IDOCK:   -5.42 KCAL/MOL
REMARK 923 INTER-LIGAND FREE ENERGY PREDICTED BY IDOCK:   -6.06 KCAL/MOL
REMARK 924 INTRA-LIGAND FREE ENERGY PREDICTED BY IDOCK:    0.63 KCAL/MOL
REMARK 927      BINDING AFFINITY PREDICTED BY RF-SCORE:    0.00 PKD
ROOT
HETATM    1  C   UNL     1     -11.153   7.822  71.055  1.00  0.00    -0.273 C  
HETATM    2  C   UNL     1     -11.902   6.974  70.210  1.00  0.00    -0.243 C  
HETATM    3  C   UNL     1     -10.419   6.738  70.031  1.00  0.00    -0.241 C  
HETATM    4  C   UNL     1     -10.399   5.233  69.303  1.00  0.00    -0.286 C  
HETATM    5  C   UNL     1      -9.250   7.658  71.447  1.00  0.00    -0.152 C  
HETATM    6  C   UNL     1      -9.854   6.449  71.366  1.00  0.00    -0.195 C  
HETATM    7  O   UNL     1      -9.851  13.879  65.961  1.00  0.00    -0.299 OA 
HETATM    8  C   UNL     1      -8.555   9.600  66.408  1.00  0.00    -0.136 C  
HETATM    9  C   UNL     1      -8.459  12.555  67.395  1.00  0.00    -0.181 C  
HETATM   10  C   UNL     1      -8.295   6.493  70.213  1.00  0.00    -0.127 C  
HETATM   11  C   UNL     1     -10.270   5.379  72.361  1.00  0.00    -0.241 C  
HETATM   12  C   UNL     1      -8.187   8.000  69.215  1.00  0.00    -0.127 C  
HETATM   13  C   UNL     1      -9.198  10.196  67.738  1.00  0.00    -0.146 C  
HETATM   14  C   UNL     1      -9.545   8.946  68.704  1.00  0.00    -0.158 C  
HETATM   15  O   UNL     1      -7.283   8.880  69.924  1.00  0.00    -0.049 OA 
HETATM   16  C   UNL     1      -8.241  11.361  68.008  1.00  0.00    -0.140 C  
HETATM   17  H   UNL     1      -7.226   9.671  69.401  1.00  0.00     0.000 HD 
HETATM   18  C   UNL     1     -10.564   9.245  70.028  1.00  0.00    -0.256 C  
HETATM   19 CL   UNL     1     -10.699   7.960  67.314  1.00  0.00    -0.354 Cl 
HETATM   20  C   UNL     1     -11.740  10.146  69.629  1.00  0.00    -0.165 C  
HETATM   21  C   UNL     1     -11.286  11.334  68.786  1.00  0.00    -0.270 C  
HETATM   22  C   UNL     1     -10.557  10.922  67.514  1.00  0.00    -0.271 C  
HETATM   23  F   UNL     1     -12.396  12.068  68.489  1.00  0.00    -0.307 F  
HETATM   24  C   UNL     1     -10.686  11.693  66.416  1.00  0.00    -0.316 C  
HETATM   25  C   UNL     1      -9.690  12.821  66.554  1.00  0.00    -0.255 C  
ENDROOT
BRANCH   5  26
HETATM   26  C   UNL     1      -8.207   7.217  72.683  1.00  0.00    -0.107 C  
HETATM   27  O   UNL     1      -7.235   6.458  72.613  1.00  0.00    -0.081 OA 
BRANCH  26  28
HETATM   28  C   UNL     1      -8.470   7.865  74.048  1.00  0.00    -0.265 C  
HETATM   29  O   UNL     1      -7.479   8.849  74.342  1.00  0.00    -0.420 OA 
HETATM   30  H   UNL     1      -7.642   9.250  75.187  1.00  0.00     0.000 HD 
ENDBRANCH  26  28
ENDBRANCH   5  26
TORSDOF 2
ENDMDL
MODEL       29
REMARK 921   NORMALIZED FREE ENERGY PREDICTED BY IDOCK:   -5.42 KCAL/MOL
REMARK 922        TOTAL FREE ENERGY PREDICTED BY IDOCK:   -5.37 KCAL/MOL
REMARK 923 INTER-LIGAND FREE ENERGY PREDICTED BY IDOCK:   -6.12 KCAL/MOL
REMARK 924 INTRA-LIGAND FREE ENERGY PREDICTED BY IDOCK:    0.75 KCAL/MOL
REMARK 927      BINDING AFFINITY PREDICTED BY RF-SCORE:    0.00 PKD
ROOT
HETATM    1  C   UNL     1      -8.984  14.290  68.155  1.00  0.00    -0.189 C  
HETATM    2  C   UNL     1      -8.795  14.596  66.789  1.00  0.00    -0.269 C  
HETATM    3  C   UNL     1     -10.191  14.068  67.035  1.00  0.00    -0.261 C  
HETATM    4  C   UNL     1     -10.998  14.589  65.665  1.00  0.00    -0.323 C  
HETATM    5  C   UNL     1     -10.692  13.920  69.021  1.00  0.00    -0.219 C  
HETATM    6  C   UNL     1     -10.799  14.901  68.094  1.00  0.00    -0.256 C  
HETATM    7  O   UNL     1      -7.075   6.502  68.000  1.00  0.00    -0.080 OA 
HETATM    8  C   UNL     1     -10.382   9.125  66.460  1.00  0.00    -0.269 C  
HETATM    9  C   UNL     1      -8.924   7.767  68.856  1.00  0.00    -0.141 C  
HETATM   10  C   UNL     1     -12.134  13.531  67.772  1.00  0.00    -0.316 C  
HETATM   11  C   UNL     1     -10.975  16.410  68.130  1.00  0.00    -0.339 C  
HETATM   12  C   UNL     1     -11.469  11.850  67.864  1.00  0.00    -0.316 C  
HETATM   13  C   UNL     1      -9.499   9.833  67.581  1.00  0.00    -0.164 C  
HETATM   14  C   UNL     1      -9.828  11.416  67.521  1.00  0.00    -0.194 C  
HETATM   15  O   UNL     1     -11.776  11.377  69.197  1.00  0.00    -0.283 OA 
HETATM   16  C   UNL     1      -9.714   8.868  68.751  1.00  0.00    -0.170 C  
HETATM   17  H   UNL     1     -11.428  10.495  69.246  1.00  0.00     0.000 HD 
HETATM   18  C   UNL     1      -8.776  12.461  68.346  1.00  0.00    -0.132 C  
HETATM   19 CL   UNL     1      -9.373  11.618  65.523  1.00  0.00    -0.210 Cl 
HETATM   20  C   UNL     1      -7.311  12.059  68.126  1.00  0.00    -0.094 C  
HETATM   21  C   UNL     1      -7.103  10.556  68.284  1.00  0.00    -0.081 C  
HETATM   22  C   UNL     1      -7.965   9.730  67.337  1.00  0.00    -0.102 C  
HETATM   23  F   UNL     1      -5.780  10.305  68.074  1.00  0.00    -0.041 F  
HETATM   24  C   UNL     1      -7.478   8.563  66.871  1.00  0.00    -0.084 C  
HETATM   25  C   UNL     1      -7.747   7.522  67.934  1.00  0.00    -0.116 C  
ENDROOT
BRANCH   5  26
HETATM   26  C   UNL     1     -11.790  14.608  70.086  1.00  0.00    -0.307 C  
HETATM   27  O   UNL     1     -13.002  14.384  70.166  1.00  0.00    -0.222 OA 
BRANCH  26  28
HETATM   28  C   UNL     1     -11.210  15.598  71.103  1.00  0.00    -0.355 C  
HETATM   29  O   UNL     1     -12.252  16.303  71.775  1.00  0.00    -0.591 OA 
HETATM   30  H   UNL     1     -11.893  16.917  72.406  1.00  0.00     0.000 HD 
ENDBRANCH  26  28
ENDBRANCH   5  26
TORSDOF 2
ENDMDL
MODEL       30
REMARK 921   NORMALIZED FREE ENERGY PREDICTED BY IDOCK:   -5.41 KCAL/MOL
REMARK 922        TOTAL FREE ENERGY PREDICTED BY IDOCK:   -5.36 KCAL/MOL
REMARK 923 INTER-LIGAND FREE ENERGY PREDICTED BY IDOCK:   -5.95 KCAL/MOL
REMARK 924 INTRA-LIGAND FREE ENERGY PREDICTED BY IDOCK:    0.59 KCAL/MOL
REMARK 927      BINDING AFFINITY PREDICTED BY RF-SCORE:    0.00 PKD
ROOT
HETATM    1  C   UNL     1      -8.893   7.848  66.322  1.00  0.00    -0.188 C  
HETATM    2  C   UNL     1      -7.753   8.676  66.413  1.00  0.00    -0.095 C  
HETATM    3  C   UNL     1      -7.672   7.538  67.405  1.00  0.00    -0.117 C  
HETATM    4  C   UNL     1      -6.039   7.516  67.767  1.00  0.00    -0.044 C  
HETATM    5  C   UNL     1      -9.096   6.084  67.127  1.00  0.00    -0.113 C  
HETATM    6  C   UNL     1      -7.844   6.279  66.649  1.00  0.00    -0.104 C  
HETATM    7  O   UNL     1     -13.404  11.255  72.011  1.00  0.00    -0.462 OA 
HETATM    8  C   UNL     1      -9.628   8.829  71.799  1.00  0.00    -0.371 C  
HETATM    9  C   UNL     1     -12.727   9.008  71.518  1.00  0.00    -0.399 C  
HETATM   10  C   UNL     1      -7.768   5.693  68.497  1.00  0.00    -0.089 C  
HETATM   11  C   UNL     1      -7.049   5.772  65.458  1.00  0.00    -0.069 C  
HETATM   12  C   UNL     1      -8.937   6.563  69.571  1.00  0.00    -0.137 C  
HETATM   13  C   UNL     1     -10.482   8.768  70.456  1.00  0.00    -0.246 C  
HETATM   14  C   UNL     1      -9.517   8.172  69.302  1.00  0.00    -0.159 C  
HETATM   15  O   UNL     1     -10.090   5.696  69.684  1.00  0.00    -0.182 OA 
HETATM   16  C   UNL     1     -11.791   8.177  70.989  1.00  0.00    -0.279 C  
HETATM   17  H   UNL     1     -10.704   6.153  70.248  1.00  0.00     0.000 HD 
HETATM   18  C   UNL     1     -10.037   8.331  67.694  1.00  0.00    -0.268 C  
HETATM   19 CL   UNL     1      -8.040   9.583  69.559  1.00  0.00    -0.105 Cl 
HETATM   20  C   UNL     1     -10.629   9.723  67.438  1.00  0.00    -0.330 C  
HETATM   21  C   UNL     1     -11.584  10.149  68.550  1.00  0.00     0.087 C  
HETATM   22  C   UNL     1     -10.932  10.161  69.927  1.00  0.00    -0.344 C  
HETATM   23  F   UNL     1     -12.054  11.388  68.229  1.00  0.00    -0.361 F  
HETATM   24  C   UNL     1     -11.342  11.074  70.829  1.00  0.00     0.184 C  
HETATM   25  C   UNL     1     -12.584  10.516  71.483  1.00  0.00    -0.424 C  
ENDROOT
BRANCH   5  26
HETATM   26  C   UNL     1      -9.157   4.460  66.712  1.00  0.00    -0.128 C  
HETATM   27  O   UNL     1      -8.619   3.514  67.295  1.00  0.00    -0.101 OA 
BRANCH  26  28
HETATM   28  C   UNL     1     -10.016   4.111  65.491  1.00  0.00    -0.203 C  
HETATM   29  O   UNL     1     -11.277   4.775  65.551  1.00  0.00    -0.906 OA 
HETATM   30  H   UNL     1     -11.809   4.558  64.794  1.00  0.00     0.000 HD 
ENDBRANCH  26  28
ENDBRANCH   5  26
TORSDOF 2
ENDMDL
MODEL       31
REMARK 921   NORMALIZED FREE ENERGY PREDICTED BY IDOCK:   -5.40 KCAL/MOL
REMARK 922        TOTAL FREE ENERGY PREDICTED BY IDOCK:   -5.35 KCAL/MOL
REMARK 923 INTER-LIGAND FREE ENERGY PREDICTED BY IDOCK:   -6.00 KCAL/MOL
REMARK 924 INTRA-LIGAND FREE ENERGY PREDICTED BY IDOCK:    0.65 KCAL/MOL
REMARK 927      BINDING AFFINITY PREDICTED BY RF-SCORE:    0.00 PKD
ROOT
HETATM    1  C   UNL     1      -7.697   9.988  68.446  1.00  0.00    -0.084 C  
HETATM    2  C   UNL     1      -6.466   9.306  68.328  1.00  0.00    -0.055 C  
HETATM    3  C   UNL     1      -7.513   8.685  67.432  1.00  0.00    -0.089 C  
HETATM    4  C   UNL     1      -6.570   7.821  66.354  1.00  0.00    -0.050 C  
HETATM    5  C   UNL     1      -9.232   9.796  67.259  1.00  0.00    -0.153 C  
HETATM    6  C   UNL     1      -8.061   9.761  66.580  1.00  0.00    -0.116 C  
HETATM    7  O   UNL     1     -11.146   5.429  74.072  1.00  0.00    -0.166 OA 
HETATM    8  C   UNL     1      -9.939   5.014  69.764  1.00  0.00    -0.319 C  
HETATM    9  C   UNL     1     -11.819   6.249  71.921  1.00  0.00    -0.359 C  
HETATM   10  C   UNL     1      -9.145   8.220  66.118  1.00  0.00    -0.238 C  
HETATM   11  C   UNL     1      -7.317  10.710  65.655  1.00  0.00    -0.087 C  
HETATM   12  C   UNL     1      -9.877   7.404  67.559  1.00  0.00    -0.158 C  
HETATM   13  C   UNL     1      -9.985   6.529  70.252  1.00  0.00    -0.198 C  
HETATM   14  C   UNL     1      -9.194   7.412  69.151  1.00  0.00    -0.147 C  
HETATM   15  O   UNL     1     -11.227   7.916  67.661  1.00  0.00    -0.433 OA 
HETATM   16  C   UNL     1     -11.455   6.639  70.671  1.00  0.00    -0.420 C  
HETATM   17  H   UNL     1     -11.611   7.488  68.417  1.00  0.00     0.000 HD 
HETATM   18  C   UNL     1      -8.769   8.997  69.584  1.00  0.00    -0.143 C  
HETATM   19 CL   UNL     1      -7.457   6.313  69.256  1.00  0.00    -0.091 Cl 
HETATM   20  C   UNL     1      -8.231   9.054  71.020  1.00  0.00    -0.220 C  
HETATM   21  C   UNL     1      -9.098   8.251  71.985  1.00  0.00    -0.202 C  
HETATM   22  C   UNL     1      -9.234   6.786  71.591  1.00  0.00    -0.144 C  
HETATM   23  F   UNL     1      -8.541   8.368  73.224  1.00  0.00    -0.263 F  
HETATM   24  C   UNL     1      -9.350   5.862  72.566  1.00  0.00    -0.146 C  
HETATM   25  C   UNL     1     -10.806   5.831  72.968  1.00  0.00    -0.271 C  
ENDROOT
BRANCH   5  26
HETATM   26  C   UNL     1     -10.067  10.625  66.065  1.00  0.00    -0.250 C  
HETATM   27  O   UNL     1     -10.285  10.258  64.906  1.00  0.00    -0.327 OA 
BRANCH  26  28
HETATM   28  C   UNL     1     -10.663  11.977  66.475  1.00  0.00    -0.258 C  
HETATM   29  O   UNL     1     -11.934  11.802  67.099  1.00  0.00    -0.617 OA 
HETATM   30  H   UNL     1     -12.303  12.640  67.354  1.00  0.00     0.000 HD 
ENDBRANCH  26  28
ENDBRANCH   5  26
TORSDOF 2
ENDMDL
MODEL       32
REMARK 921   NORMALIZED FREE ENERGY PREDICTED BY IDOCK:   -5.38 KCAL/MOL
REMARK 922        TOTAL FREE ENERGY PREDICTED BY IDOCK:   -5.33 KCAL/MOL
REMARK 923 INTER-LIGAND FREE ENERGY PREDICTED BY IDOCK:   -6.03 KCAL/MOL
REMARK 924 INTRA-LIGAND FREE ENERGY PREDICTED BY IDOCK:    0.70 KCAL/MOL
REMARK 927      BINDING AFFINITY PREDICTED BY RF-SCORE:    0.00 PKD
ROOT
HETATM    1  C   UNL     1     -11.230   6.609  69.622  1.00  0.00    -0.397 C  
HETATM    2  C   UNL     1     -10.434   5.497  69.974  1.00  0.00    -0.373 C  
HETATM    3  C   UNL     1     -10.107   6.689  70.845  1.00  0.00    -0.208 C  
HETATM    4  C   UNL     1      -9.333   5.965  72.138  1.00  0.00    -0.155 C  
HETATM    5  C   UNL     1     -11.432   8.248  70.660  1.00  0.00    -0.236 C  
HETATM    6  C   UNL     1     -11.372   7.152  71.453  1.00  0.00    -0.288 C  
HETATM    7  O   UNL     1      -6.227  10.178  64.469  1.00  0.00    -0.122 OA 
HETATM    8  C   UNL     1      -6.413   9.396  68.889  1.00  0.00    -0.047 C  
HETATM    9  C   UNL     1      -7.478  10.906  66.380  1.00  0.00    -0.145 C  
HETATM   10  C   UNL     1     -10.077   8.472  72.040  1.00  0.00    -0.386 C  
HETATM   11  C   UNL     1     -12.369   6.364  72.287  1.00  0.00    -0.159 C  
HETATM   12  C   UNL     1      -9.120   9.187  70.679  1.00  0.00    -0.257 C  
HETATM   13  C   UNL     1      -7.816   9.194  68.163  1.00  0.00    -0.099 C  
HETATM   14  C   UNL     1      -8.772   8.382  69.186  1.00  0.00    -0.142 C  
HETATM   15  O   UNL     1      -9.767  10.442  70.358  1.00  0.00    -0.290 OA 
HETATM   16  C   UNL     1      -8.030  10.595  67.582  1.00  0.00    -0.106 C  
HETATM   17  H   UNL     1      -9.266  10.818  69.645  1.00  0.00     0.000 HD 
HETATM   18  C   UNL     1     -10.196   7.711  68.552  1.00  0.00    -0.220 C  
HETATM   19 CL   UNL     1      -7.469   6.809  69.437  1.00  0.00    -0.092 Cl 
HETATM   20  C   UNL     1      -9.940   7.054  67.189  1.00  0.00    -0.248 C  
HETATM   21  C   UNL     1      -9.095   7.941  66.280  1.00  0.00    -0.179 C  
HETATM   22  C   UNL     1      -7.747   8.307  66.886  1.00  0.00    -0.095 C  
HETATM   23  F   UNL     1      -8.929   7.273  65.103  1.00  0.00    -0.024 F  
HETATM   24  C   UNL     1      -6.691   8.469  66.064  1.00  0.00    -0.057 C  
HETATM   25  C   UNL     1      -6.768   9.878  65.523  1.00  0.00    -0.094 C  
ENDROOT
BRANCH   5  26
HETATM   26  C   UNL     1     -12.549   9.057  71.614  1.00  0.00    -0.348 C  
HETATM   27  O   UNL     1     -12.840   8.827  72.792  1.00  0.00    -0.340 OA 
BRANCH  26  28
HETATM   28  C   UNL     1     -13.259  10.246  70.956  1.00  0.00    -0.319 C  
HETATM   29  O   UNL     1     -12.686  10.537  69.682  1.00  0.00    -0.604 OA 
HETATM   30  H   UNL     1     -13.126  11.274  69.274  1.00  0.00     0.000 HD 
ENDBRANCH  26  28
ENDBRANCH   5  26
TORSDOF 2
ENDMDL
MODEL       33
REMARK 921   NORMALIZED FREE ENERGY PREDICTED BY IDOCK:   -5.33 KCAL/MOL
REMARK 922        TOTAL FREE ENERGY PREDICTED BY IDOCK:   -5.28 KCAL/MOL
REMARK 923 INTER-LIGAND FREE ENERGY PREDICTED BY IDOCK:   -6.03 KCAL/MOL
REMARK 924 INTRA-LIGAND FREE ENERGY PREDICTED BY IDOCK:    0.75 KCAL/MOL
REMARK 927      BINDING AFFINITY PREDICTED BY RF-SCORE:    0.00 PKD
ROOT
HETATM    1  C   UNL     1      -9.736  17.020  66.084  1.00  0.00    -0.283 C  
HETATM    2  C   UNL     1     -10.821  17.268  66.952  1.00  0.00    -0.004 C  
HETATM    3  C   UNL     1      -9.553  17.011  67.736  1.00  0.00    -0.244 C  
HETATM    4  C   UNL     1      -9.940  17.654  69.230  1.00  0.00    -0.097 C  
HETATM    5  C   UNL     1      -7.852  16.983  66.586  1.00  0.00    -0.299 C  
HETATM    6  C   UNL     1      -8.529  17.955  67.241  1.00  0.00    -0.242 C  
HETATM    7  O   UNL     1     -10.101   9.012  65.835  1.00  0.00    -0.240 OA 
HETATM    8  C   UNL     1      -9.066  12.181  68.848  1.00  0.00     0.230 C  
HETATM    9  C   UNL     1      -8.360  10.607  66.252  1.00  0.00    -0.155 C  
HETATM   10  C   UNL     1      -7.557  16.851  68.506  1.00  0.00    -0.221 C  
HETATM   11  C   UNL     1      -8.597  19.470  67.159  1.00  0.00    -0.337 C  
HETATM   12  C   UNL     1      -7.739  15.077  68.193  1.00  0.00    -0.113 C  
HETATM   13  C   UNL     1      -9.081  12.728  67.352  1.00  0.00    -0.192 C  
HETATM   14  C   UNL     1      -9.110  14.343  67.432  1.00  0.00    -0.202 C  
HETATM   15  O   UNL     1      -6.563  14.685  67.445  1.00  0.00    -0.283 OA 
HETATM   16  C   UNL     1      -8.009  11.834  66.721  1.00  0.00    -0.116 C  
HETATM   17  H   UNL     1      -6.658  13.755  67.281  1.00  0.00     0.000 HD 
HETATM   18  C   UNL     1      -9.495  15.186  66.011  1.00  0.00    -0.358 C  
HETATM   19 CL   UNL     1     -10.794  14.432  68.614  1.00  0.00    -0.249 Cl 
HETATM   20  C   UNL     1     -10.660  14.518  65.268  1.00  0.00    -0.400 C  
HETATM   21  C   UNL     1     -10.488  13.005  65.184  1.00  0.00    -0.320 C  
HETATM   22  C   UNL     1     -10.357  12.341  66.549  1.00  0.00    -0.250 C  
HETATM   23  F   UNL     1     -11.565  12.511  64.509  1.00  0.00    -0.337 F  
HETATM   24  C   UNL     1     -10.851  11.097  66.713  1.00  0.00    -0.322 C  
HETATM   25  C   UNL     1      -9.800  10.138  66.207  1.00  0.00    -0.229 C  
ENDROOT
BRANCH   5  26
HETATM   26  C   UNL     1      -6.441  17.874  66.423  1.00  0.00    -0.228 C  
HETATM   27  O   UNL     1      -5.464  17.882  67.178  1.00  0.00    -0.132 OA 
BRANCH  26  28
HETATM   28  C   UNL     1      -6.340  18.749  65.167  1.00  0.00    -0.247 C  
HETATM   29  O   UNL     1      -5.628  19.954  65.445  1.00  0.00    -0.160 OA 
HETATM   30  H   UNL     1      -5.565  20.496  64.667  1.00  0.00     0.000 HD 
ENDBRANCH  26  28
ENDBRANCH   5  26
TORSDOF 2
ENDMDL
MODEL       34
REMARK 921   NORMALIZED FREE ENERGY PREDICTED BY IDOCK:   -5.23 KCAL/MOL
REMARK 922        TOTAL FREE ENERGY PREDICTED BY IDOCK:   -5.16 KCAL/MOL
REMARK 923 INTER-LIGAND FREE ENERGY PREDICTED BY IDOCK:   -6.63 KCAL/MOL
REMARK 924 INTRA-LIGAND FREE ENERGY PREDICTED BY IDOCK:    1.47 KCAL/MOL
REMARK 927      BINDING AFFINITY PREDICTED BY RF-SCORE:    0.00 PKD
ROOT
HETATM    1  C   UNL     1     -11.127  13.564  66.177  1.00  0.00    -0.299 C  
HETATM    2  C   UNL     1     -10.025  13.255  65.351  1.00  0.00    -0.205 C  
HETATM    3  C   UNL     1      -9.660  13.110  66.811  1.00  0.00    -0.249 C  
HETATM    4  C   UNL     1      -8.288  12.158  66.727  1.00  0.00    -0.111 C  
HETATM    5  C   UNL     1     -11.268  13.194  68.087  1.00  0.00    -0.304 C  
HETATM    6  C   UNL     1     -10.644  12.192  67.424  1.00  0.00    -0.253 C  
HETATM    7  O   UNL     1      -9.583  21.318  67.525  1.00  0.00    -0.248 OA 
HETATM    8  C   UNL     1      -7.794  17.350  68.638  1.00  0.00    -0.274 C  
HETATM    9  C   UNL     1     -10.093  19.435  68.919  1.00  0.00    -0.459 C  
HETATM   10  C   UNL     1      -9.563  12.769  68.928  1.00  0.00     0.220 C  
HETATM   11  C   UNL     1     -11.011  10.779  67.005  1.00  0.00    -0.292 C  
HETATM   12  C   UNL     1      -9.427  14.570  69.060  1.00  0.00    -0.085 C  
HETATM   13  C   UNL     1      -9.282  17.226  68.086  1.00  0.00    -0.267 C  
HETATM   14  C   UNL     1      -9.532  15.669  67.726  1.00  0.00    -0.208 C  
HETATM   15  O   UNL     1     -10.418  14.971  70.036  1.00  0.00    -0.412 OA 
HETATM   16  C   UNL     1     -10.027  18.091  69.108  1.00  0.00    -0.201 C  
HETATM   17  H   UNL     1     -10.346  15.915  70.106  1.00  0.00     0.000 HD 
HETATM   18  C   UNL     1     -10.894  15.297  66.785  1.00  0.00    -0.312 C  
HETATM   19 CL   UNL     1      -7.913  15.516  66.464  1.00  0.00    -0.134 Cl 
HETATM   20  C   UNL     1     -11.063  16.299  65.635  1.00  0.00     0.012 C  
HETATM   21  C   UNL     1     -10.884  17.740  66.104  1.00  0.00     0.058 C  
HETATM   22  C   UNL     1      -9.529  17.993  66.754  1.00  0.00    -0.293 C  
HETATM   23  F   UNL     1     -11.055  18.545  65.018  1.00  0.00    -0.309 F  
HETATM   24  C   UNL     1      -8.960  19.207  66.611  1.00  0.00    -0.349 C  
HETATM   25  C   UNL     1      -9.570  20.103  67.663  1.00  0.00    -0.402 C  
ENDROOT
BRANCH   5  26
HETATM   26  C   UNL     1     -12.060  12.183  69.164  1.00  0.00    -0.168 C  
HETATM   27  O   UNL     1     -12.341  10.990  69.010  1.00  0.00    -0.481 OA 
BRANCH  26  28
HETATM   28  C   UNL     1     -12.444  12.805  70.512  1.00  0.00    -0.202 C  
HETATM   29  O   UNL     1     -12.902  11.805  71.421  1.00  0.00    -0.404 OA 
HETATM   30  H   UNL     1     -13.139  12.190  72.256  1.00  0.00     0.000 HD 
ENDBRANCH  26  28
ENDBRANCH   5  26
TORSDOF 2
ENDMDL
MODEL       35
REMARK 921   NORMALIZED FREE ENERGY PREDICTED BY IDOCK:   -5.18 KCAL/MOL
REMARK 922        TOTAL FREE ENERGY PREDICTED BY IDOCK:   -5.10 KCAL/MOL
REMARK 923 INTER-LIGAND FREE ENERGY PREDICTED BY IDOCK:   -5.80 KCAL/MOL
REMARK 924 INTRA-LIGAND FREE ENERGY PREDICTED BY IDOCK:    0.70 KCAL/MOL
REMARK 927      BINDING AFFINITY PREDICTED BY RF-SCORE:    0.00 PKD
ROOT
HETATM    1  C   UNL     1     -11.211  10.356  67.605  1.00  0.00    -0.287 C  
HETATM    2  C   UNL     1     -10.683  10.430  68.913  1.00  0.00    -0.255 C  
HETATM    3  C   UNL     1      -9.731  11.045  67.912  1.00  0.00    -0.183 C  
HETATM    4  C   UNL     1      -8.753  11.975  68.900  1.00  0.00     0.204 C  
HETATM    5  C   UNL     1     -10.538  11.306  66.042  1.00  0.00    -0.314 C  
HETATM    6  C   UNL     1     -10.483  12.070  67.158  1.00  0.00    -0.244 C  
HETATM    7  O   UNL     1      -7.794   3.498  65.233  1.00  0.00    -0.084 OA 
HETATM    8  C   UNL     1      -6.478   7.682  66.207  1.00  0.00    -0.049 C  
HETATM    9  C   UNL     1      -7.962   5.705  64.310  1.00  0.00    -0.125 C  
HETATM   10  C   UNL     1      -8.752  12.044  66.284  1.00  0.00    -0.027 C  
HETATM   11  C   UNL     1     -11.259  13.262  67.693  1.00  0.00    -0.307 C  
HETATM   12  C   UNL     1      -8.234  10.385  65.776  1.00  0.00    -0.156 C  
HETATM   13  C   UNL     1      -8.049   7.565  65.971  1.00  0.00    -0.123 C  
HETATM   14  C   UNL     1      -8.723   8.916  66.551  1.00  0.00    -0.145 C  
HETATM   15  O   UNL     1      -8.579  10.276  64.374  1.00  0.00    -0.171 OA 
HETATM   16  C   UNL     1      -8.072   7.041  64.532  1.00  0.00    -0.069 C  
HETATM   17  H   UNL     1      -8.308   9.406  64.107  1.00  0.00     0.000 HD 
HETATM   18  C   UNL     1     -10.406   8.915  66.765  1.00  0.00    -0.317 C  
HETATM   19 CL   UNL     1      -7.914   8.725  68.434  1.00  0.00    -0.108 Cl 
HETATM   20  C   UNL     1     -10.886   7.594  67.381  1.00  0.00    -0.240 C  
HETATM   21  C   UNL     1     -10.246   6.386  66.706  1.00  0.00    -0.195 C  
HETATM   22  C   UNL     1      -8.723   6.406  66.761  1.00  0.00    -0.119 C  
HETATM   23  F   UNL     1     -10.736   5.271  67.318  1.00  0.00    -0.259 F  
HETATM   24  C   UNL     1      -8.064   5.233  66.845  1.00  0.00    -0.104 C  
HETATM   25  C   UNL     1      -7.949   4.694  65.438  1.00  0.00    -0.099 C  
ENDROOT
BRANCH   5  26
HETATM   26  C   UNL     1     -10.931  12.575  65.018  1.00  0.00    -0.294 C  
HETATM   27  O   UNL     1     -10.332  13.647  64.883  1.00  0.00    -0.377 OA 
BRANCH  26  28
HETATM   28  C   UNL     1     -12.152  12.358  64.117  1.00  0.00    -0.453 C  
HETATM   29  O   UNL     1     -11.830  11.503  63.021  1.00  0.00    -0.898 OA 
HETATM   30  H   UNL     1     -12.587  11.369  62.463  1.00  0.00     0.000 HD 
ENDBRANCH  26  28
ENDBRANCH   5  26
TORSDOF 2
ENDMDL
MODEL       36
REMARK 921   NORMALIZED FREE ENERGY PREDICTED BY IDOCK:   -5.17 KCAL/MOL
REMARK 922        TOTAL FREE ENERGY PREDICTED BY IDOCK:   -5.10 KCAL/MOL
REMARK 923 INTER-LIGAND FREE ENERGY PREDICTED BY IDOCK:   -6.28 KCAL/MOL
REMARK 924 INTRA-LIGAND FREE ENERGY PREDICTED BY IDOCK:    1.18 KCAL/MOL
REMARK 927      BINDING AFFINITY PREDICTED BY RF-SCORE:    0.00 PKD
ROOT
HETATM    1  C   UNL     1     -11.382   6.623  70.094  1.00  0.00    -0.440 C  
HETATM    2  C   UNL     1     -10.627   5.663  70.802  1.00  0.00    -0.335 C  
HETATM    3  C   UNL     1      -9.988   7.030  70.901  1.00  0.00    -0.200 C  
HETATM    4  C   UNL     1      -8.984   6.842  72.225  1.00  0.00    -0.136 C  
HETATM    5  C   UNL     1     -11.172   8.559  70.209  1.00  0.00    -0.185 C  
HETATM    6  C   UNL     1     -11.014   7.962  71.414  1.00  0.00    -0.264 C  
HETATM    7  O   UNL     1      -7.525   6.356  63.067  1.00  0.00    -0.058 OA 
HETATM    8  C   UNL     1      -6.672   7.742  67.255  1.00  0.00    -0.068 C  
HETATM    9  C   UNL     1      -8.190   8.112  64.558  1.00  0.00    -0.118 C  
HETATM   10  C   UNL     1      -9.501   9.116  71.038  1.00  0.00    -0.344 C  
HETATM   11  C   UNL     1     -11.837   7.860  72.687  1.00  0.00    -0.352 C  
HETATM   12  C   UNL     1      -8.854   8.921  69.358  1.00  0.00    -0.143 C  
HETATM   13  C   UNL     1      -8.224   7.514  66.981  1.00  0.00    -0.124 C  
HETATM   14  C   UNL     1      -8.963   7.470  68.419  1.00  0.00    -0.128 C  
HETATM   15  O   UNL     1      -9.446   9.989  68.581  1.00  0.00    -0.147 OA 
HETATM   16  C   UNL     1      -8.450   8.503  65.834  1.00  0.00    -0.164 C  
HETATM   17  H   UNL     1      -9.107   9.888  67.700  1.00  0.00     0.000 HD 
HETATM   18  C   UNL     1     -10.554   6.881  68.459  1.00  0.00    -0.247 C  
HETATM   19 CL   UNL     1      -7.784   5.963  69.180  1.00  0.00    -0.089 Cl 
HETATM   20  C   UNL     1     -10.706   5.636  67.575  1.00  0.00    -0.272 C  
HETATM   21  C   UNL     1     -10.040   5.819  66.215  1.00  0.00    -0.078 C  
HETATM   22  C   UNL     1      -8.555   6.146  66.315  1.00  0.00    -0.136 C  
HETATM   23  F   UNL     1     -10.233   4.668  65.510  1.00  0.00    -0.203 F  
HETATM   24  C   UNL     1      -7.728   5.699  65.350  1.00  0.00    -0.087 C  
HETATM   25  C   UNL     1      -7.811   6.687  64.210  1.00  0.00    -0.115 C  
ENDROOT
BRANCH   5  26
HETATM   26  C   UNL     1     -11.938   9.919  70.820  1.00  0.00    -0.323 C  
HETATM   27  O   UNL     1     -12.486  10.045  71.920  1.00  0.00    -0.385 OA 
BRANCH  26  28
HETATM   28  C   UNL     1     -11.919  11.162  69.922  1.00  0.00    -0.363 C  
HETATM   29  O   UNL     1     -12.428  10.858  68.624  1.00  0.00    -0.772 OA 
HETATM   30  H   UNL     1     -12.416  11.628  68.068  1.00  0.00     0.000 HD 
ENDBRANCH  26  28
ENDBRANCH   5  26
TORSDOF 2
ENDMDL
MODEL       37
REMARK 921   NORMALIZED FREE ENERGY PREDICTED BY IDOCK:   -5.13 KCAL/MOL
REMARK 922        TOTAL FREE ENERGY PREDICTED BY IDOCK:   -5.05 KCAL/MOL
REMARK 923 INTER-LIGAND FREE ENERGY PREDICTED BY IDOCK:   -5.69 KCAL/MOL
REMARK 924 INTRA-LIGAND FREE ENERGY PREDICTED BY IDOCK:    0.64 KCAL/MOL
REMARK 927      BINDING AFFINITY PREDICTED BY RF-SCORE:    0.00 PKD
ROOT
HETATM    1  C   UNL     1     -10.452   4.876  70.131  1.00  0.00    -0.144 C  
HETATM    2  C   UNL     1      -9.266   4.200  70.490  1.00  0.00    -0.194 C  
HETATM    3  C   UNL     1      -9.224   5.641  70.948  1.00  0.00    -0.178 C  
HETATM    4  C   UNL     1      -8.019   5.595  72.107  1.00  0.00    -0.107 C  
HETATM    5  C   UNL     1     -11.023   6.620  70.791  1.00  0.00    -0.318 C  
HETATM    6  C   UNL     1     -10.435   5.881  71.761  1.00  0.00    -0.276 C  
HETATM    7  O   UNL     1      -8.075   8.007  63.140  1.00  0.00    -0.157 OA 
HETATM    8  C   UNL     1      -7.151   8.575  67.500  1.00  0.00    -0.080 C  
HETATM    9  C   UNL     1      -9.126   8.884  65.109  1.00  0.00    -0.157 C  
HETATM   10  C   UNL     1      -9.602   7.630  71.659  1.00  0.00    -0.182 C  
HETATM   11  C   UNL     1     -10.917   5.129  72.991  1.00  0.00    -0.355 C  
HETATM   12  C   UNL     1      -9.229   8.145  69.964  1.00  0.00    -0.155 C  
HETATM   13  C   UNL     1      -8.502   7.768  67.252  1.00  0.00    -0.118 C  
HETATM   14  C   UNL     1      -8.903   7.064  68.652  1.00  0.00    -0.128 C  
HETATM   15  O   UNL     1     -10.324   9.003  69.562  1.00  0.00    -0.198 OA 
HETATM   16  C   UNL     1      -9.299   8.805  66.454  1.00  0.00    -0.264 C  
HETATM   17  H   UNL     1     -10.129   9.273  68.673  1.00  0.00     0.000 HD 
HETATM   18  C   UNL     1     -10.090   5.852  68.600  1.00  0.00    -0.213 C  
HETATM   19 CL   UNL     1      -7.107   6.085  68.880  1.00  0.00    -0.078 Cl 
HETATM   20  C   UNL     1      -9.877   4.918  67.402  1.00  0.00    -0.213 C  
HETATM   21  C   UNL     1      -9.583   5.693  66.121  1.00  0.00    -0.120 C  
HETATM   22  C   UNL     1      -8.363   6.597  66.236  1.00  0.00    -0.125 C  
HETATM   23  F   UNL     1      -9.414   4.779  65.124  1.00  0.00    -0.155 F  
HETATM   24  C   UNL     1      -7.603   6.800  65.141  1.00  0.00    -0.098 C  
HETATM   25  C   UNL     1      -8.271   7.896  64.342  1.00  0.00    -0.051 C  
ENDROOT
BRANCH   5  26
HETATM   26  C   UNL     1     -12.155   7.322  71.810  1.00  0.00    -0.319 C  
HETATM   27  O   UNL     1     -11.941   8.014  72.810  1.00  0.00    -0.337 OA 
BRANCH  26  28
HETATM   28  C   UNL     1     -13.625   7.111  71.428  1.00  0.00    -0.275 C  
HETATM   29  O   UNL     1     -14.295   6.321  72.409  1.00  0.00    -0.691 OA 
HETATM   30  H   UNL     1     -15.206   6.190  72.173  1.00  0.00     0.000 HD 
ENDBRANCH  26  28
ENDBRANCH   5  26
TORSDOF 2
ENDMDL
MODEL       38
REMARK 921   NORMALIZED FREE ENERGY PREDICTED BY IDOCK:   -5.10 KCAL/MOL
REMARK 922        TOTAL FREE ENERGY PREDICTED BY IDOCK:   -5.02 KCAL/MOL
REMARK 923 INTER-LIGAND FREE ENERGY PREDICTED BY IDOCK:   -5.71 KCAL/MOL
REMARK 924 INTRA-LIGAND FREE ENERGY PREDICTED BY IDOCK:    0.69 KCAL/MOL
REMARK 927      BINDING AFFINITY PREDICTED BY RF-SCORE:    0.00 PKD
ROOT
HETATM    1  C   UNL     1     -10.030  13.004  64.963  1.00  0.00    -0.158 C  
HETATM    2  C   UNL     1     -11.330  12.503  64.731  1.00  0.00    -0.354 C  
HETATM    3  C   UNL     1     -11.275  13.280  66.027  1.00  0.00    -0.316 C  
HETATM    4  C   UNL     1     -12.893  13.607  66.297  1.00  0.00    -0.035 C  
HETATM    5  C   UNL     1      -9.537  14.340  66.294  1.00  0.00    -0.310 C  
HETATM    6  C   UNL     1     -10.730  14.618  65.718  1.00  0.00    -0.321 C  
HETATM    7  O   UNL     1      -7.156   7.044  69.496  1.00  0.00    -0.067 OA 
HETATM    8  C   UNL     1     -10.229  10.299  69.877  1.00  0.00    -0.250 C  
HETATM    9  C   UNL     1      -7.241   9.431  69.707  1.00  0.00    -0.076 C  
HETATM   10  C   UNL     1     -10.903  14.634  67.650  1.00  0.00    -0.284 C  
HETATM   11  C   UNL     1     -11.234  15.639  64.711  1.00  0.00    -0.391 C  
HETATM   12  C   UNL     1     -10.106  13.219  68.450  1.00  0.00    -0.237 C  
HETATM   13  C   UNL     1      -9.222  10.535  68.666  1.00  0.00    -0.172 C  
HETATM   14  C   UNL     1      -9.875  11.668  67.714  1.00  0.00    -0.186 C  
HETATM   15  O   UNL     1      -8.810  13.691  68.888  1.00  0.00    -0.374 OA 
HETATM   16  C   UNL     1      -7.891  10.590  69.423  1.00  0.00    -0.151 C  
HETATM   17  H   UNL     1      -8.391  12.949  69.308  1.00  0.00     0.000 HD 
HETATM   18  C   UNL     1      -9.206  11.864  66.166  1.00  0.00    -0.204 C  
HETATM   19 CL   UNL     1     -11.652  10.667  67.438  1.00  0.00    -0.038 Cl 
HETATM   20  C   UNL     1      -8.916  10.506  65.513  1.00  0.00    -0.203 C  
HETATM   21  C   UNL     1      -8.230   9.545  66.478  1.00  0.00    -0.119 C  
HETATM   22  C   UNL     1      -9.035   9.293  67.746  1.00  0.00    -0.131 C  
HETATM   23  F   UNL     1      -8.015   8.379  65.805  1.00  0.00    -0.092 F  
HETATM   24  C   UNL     1      -8.958   8.082  68.332  1.00  0.00    -0.133 C  
HETATM   25  C   UNL     1      -7.714   8.088  69.189  1.00  0.00    -0.099 C  
ENDROOT
BRANCH   5  26
HETATM   26  C   UNL     1      -9.059  15.943  66.419  1.00  0.00    -0.320 C  
HETATM   27  O   UNL     1      -9.781  16.943  66.451  1.00  0.00    -0.257 OA 
BRANCH  26  28
HETATM   28  C   UNL     1      -7.550  16.186  66.546  1.00  0.00    -0.133 C  
HETATM   29  O   UNL     1      -6.869  14.980  66.887  1.00  0.00    -0.293 OA 
HETATM   30  H   UNL     1      -5.934  15.130  66.966  1.00  0.00     0.000 HD 
ENDBRANCH  26  28
ENDBRANCH   5  26
TORSDOF 2
ENDMDL
MODEL       39
REMARK 921   NORMALIZED FREE ENERGY PREDICTED BY IDOCK:   -5.05 KCAL/MOL
REMARK 922        TOTAL FREE ENERGY PREDICTED BY IDOCK:   -4.96 KCAL/MOL
REMARK 923 INTER-LIGAND FREE ENERGY PREDICTED BY IDOCK:   -5.73 KCAL/MOL
REMARK 924 INTRA-LIGAND FREE ENERGY PREDICTED BY IDOCK:    0.77 KCAL/MOL
REMARK 927      BINDING AFFINITY PREDICTED BY RF-SCORE:    0.00 PKD
ROOT
HETATM    1  C   UNL     1     -11.604  11.274  67.614  1.00  0.00    -0.290 C  
HETATM    2  C   UNL     1     -11.411  12.045  68.781  1.00  0.00    -0.355 C  
HETATM    3  C   UNL     1     -10.446  12.463  67.695  1.00  0.00    -0.229 C  
HETATM    4  C   UNL     1      -9.971  13.976  68.225  1.00  0.00    -0.236 C  
HETATM    5  C   UNL     1     -10.862  11.657  65.852  1.00  0.00    -0.339 C  
HETATM    6  C   UNL     1     -11.245  12.786  66.494  1.00  0.00    -0.349 C  
HETATM    7  O   UNL     1      -6.158   5.541  68.953  1.00  0.00    -0.023 OA 
HETATM    8  C   UNL     1      -6.168   9.933  68.007  1.00  0.00    -0.054 C  
HETATM    9  C   UNL     1      -6.661   6.989  67.110  1.00  0.00    -0.060 C  
HETATM   10  C   UNL     1      -9.412  12.958  65.880  1.00  0.00    -0.061 C  
HETATM   11  C   UNL     1     -12.390  13.775  66.354  1.00  0.00    -0.460 C  
HETATM   12  C   UNL     1      -8.401  11.499  66.235  1.00  0.00    -0.076 C  
HETATM   13  C   UNL     1      -7.569   9.233  67.718  1.00  0.00    -0.084 C  
HETATM   14  C   UNL     1      -8.668  10.409  67.553  1.00  0.00    -0.125 C  
HETATM   15  O   UNL     1      -8.392  10.718  65.017  1.00  0.00    -0.301 OA 
HETATM   16  C   UNL     1      -7.145   8.185  66.683  1.00  0.00    -0.077 C  
HETATM   17  H   UNL     1      -7.861   9.953  65.203  1.00  0.00     0.000 HD 
HETATM   18  C   UNL     1     -10.303   9.958  67.600  1.00  0.00    -0.275 C  
HETATM   19 CL   UNL     1      -8.270  11.280  69.375  1.00  0.00     0.142 Cl 
HETATM   20  C   UNL     1     -10.563   8.931  68.710  1.00  0.00    -0.185 C  
HETATM   21  C   UNL     1      -9.511   7.826  68.722  1.00  0.00    -0.149 C  
HETATM   22  C   UNL     1      -8.092   8.354  68.892  1.00  0.00    -0.114 C  
HETATM   23  F   UNL     1      -9.831   6.971  69.734  1.00  0.00    -0.166 F  
HETATM   24  C   UNL     1      -7.197   7.599  69.560  1.00  0.00    -0.080 C  
HETATM   25  C   UNL     1      -6.647   6.596  68.573  1.00  0.00    -0.051 C  
ENDROOT
BRANCH   5  26
HETATM   26  C   UNL     1     -11.322  12.192  64.331  1.00  0.00    -0.344 C  
HETATM   27  O   UNL     1     -10.622  12.764  63.490  1.00  0.00    -0.350 OA 
BRANCH  26  28
HETATM   28  C   UNL     1     -12.772  11.899  63.925  1.00  0.00    -0.300 C  
HETATM   29  O   UNL     1     -12.826  11.309  62.627  1.00  0.00    -0.742 OA 
HETATM   30  H   UNL     1     -13.724  11.127  62.376  1.00  0.00     0.000 HD 
ENDBRANCH  26  28
ENDBRANCH   5  26
TORSDOF 2
ENDMDL
MODEL       40
REMARK 921   NORMALIZED FREE ENERGY PREDICTED BY IDOCK:   -5.03 KCAL/MOL
REMARK 922        TOTAL FREE ENERGY PREDICTED BY IDOCK:   -4.94 KCAL/MOL
REMARK 923 INTER-LIGAND FREE ENERGY PREDICTED BY IDOCK:   -5.66 KCAL/MOL
REMARK 924 INTRA-LIGAND FREE ENERGY PREDICTED BY IDOCK:    0.71 KCAL/MOL
REMARK 927      BINDING AFFINITY PREDICTED BY RF-SCORE:    0.00 PKD
ROOT
HETATM    1  C   UNL     1      -8.292   9.773  69.467  1.00  0.00    -0.165 C  
HETATM    2  C   UNL     1      -7.300   9.385  68.540  1.00  0.00    -0.079 C  
HETATM    3  C   UNL     1      -8.669   8.927  68.087  1.00  0.00    -0.134 C  
HETATM    4  C   UNL     1      -8.410   8.637  66.461  1.00  0.00    -0.108 C  
HETATM    5  C   UNL     1     -10.219   9.728  69.170  1.00  0.00    -0.211 C  
HETATM    6  C   UNL     1      -9.547  10.115  68.061  1.00  0.00    -0.160 C  
HETATM    7  O   UNL     1      -8.556   3.108  73.920  1.00  0.00    -0.073 OA 
HETATM    8  C   UNL     1      -9.677   4.341  69.747  1.00  0.00    -0.290 C  
HETATM    9  C   UNL     1     -10.198   4.464  72.817  1.00  0.00    -0.233 C  
HETATM   10  C   UNL     1     -10.749   8.653  67.635  1.00  0.00    -0.194 C  
HETATM   11  C   UNL     1      -9.346  11.426  67.319  1.00  0.00    -0.173 C  
HETATM   12  C   UNL     1     -10.677   7.298  68.834  1.00  0.00    -0.150 C  
HETATM   13  C   UNL     1      -9.441   5.581  70.719  1.00  0.00    -0.209 C  
HETATM   14  C   UNL     1      -9.289   6.896  69.789  1.00  0.00    -0.146 C  
HETATM   15  O   UNL     1     -11.784   7.514  69.741  1.00  0.00    -0.471 OA 
HETATM   16  C   UNL     1     -10.500   5.298  71.788  1.00  0.00    -0.278 C  
HETATM   17  H   UNL     1     -11.746   6.803  70.370  1.00  0.00     0.000 HD 
HETATM   18  C   UNL     1      -8.672   8.298  70.519  1.00  0.00    -0.140 C  
HETATM   19 CL   UNL     1      -7.756   6.132  68.648  1.00  0.00    -0.098 Cl 
HETATM   20  C   UNL     1      -7.486   7.969  71.435  1.00  0.00    -0.071 C  
HETATM   21  C   UNL     1      -7.770   6.761  72.322  1.00  0.00    -0.094 C  
HETATM   22  C   UNL     1      -8.115   5.506  71.531  1.00  0.00    -0.118 C  
HETATM   23  F   UNL     1      -6.665   6.555  73.094  1.00  0.00    -0.069 F  
HETATM   24  C   UNL     1      -7.747   4.307  72.026  1.00  0.00    -0.080 C  
HETATM   25  C   UNL     1      -8.806   3.902  73.024  1.00  0.00    -0.098 C  
ENDROOT
BRANCH   5  26
HETATM   26  C   UNL     1     -11.523  10.750  68.914  1.00  0.00    -0.293 C  
HETATM   27  O   UNL     1     -11.925  11.202  67.837  1.00  0.00    -0.624 OA 
BRANCH  26  28
HETATM   28  C   UNL     1     -12.331  11.135  70.159  1.00  0.00    -0.295 C  
HETATM   29  O   UNL     1     -13.230  10.089  70.523  1.00  0.00    -0.604 OA 
HETATM   30  H   UNL     1     -13.731  10.327  71.295  1.00  0.00     0.000 HD 
ENDBRANCH  26  28
ENDBRANCH   5  26
TORSDOF 2
ENDMDL
MODEL       41
REMARK 921   NORMALIZED FREE ENERGY PREDICTED BY IDOCK:   -4.99 KCAL/MOL
REMARK 922        TOTAL FREE ENERGY PREDICTED BY IDOCK:   -4.90 KCAL/MOL
REMARK 923 INTER-LIGAND FREE ENERGY PREDICTED BY IDOCK:   -5.55 KCAL/MOL
REMARK 924 INTRA-LIGAND FREE ENERGY PREDICTED BY IDOCK:    0.65 KCAL/MOL
REMARK 927      BINDING AFFINITY PREDICTED BY RF-SCORE:    0.00 PKD
ROOT
HETATM    1  C   UNL     1     -10.321   8.110  69.265  1.00  0.00    -0.222 C  
HETATM    2  C   UNL     1     -10.171   7.369  68.072  1.00  0.00    -0.234 C  
HETATM    3  C   UNL     1      -8.823   7.719  68.661  1.00  0.00    -0.131 C  
HETATM    4  C   UNL     1      -7.821   6.620  67.896  1.00  0.00    -0.112 C  
HETATM    5  C   UNL     1      -8.916   8.489  70.563  1.00  0.00    -0.171 C  
HETATM    6  C   UNL     1      -8.812   7.237  70.058  1.00  0.00    -0.141 C  
HETATM    7  O   UNL     1      -9.874  15.521  66.230  1.00  0.00    -0.256 OA 
HETATM    8  C   UNL     1      -7.116  12.027  66.837  1.00  0.00    -0.033 C  
HETATM    9  C   UNL     1      -8.788  14.370  68.031  1.00  0.00    -0.178 C  
HETATM   10  C   UNL     1      -7.118   8.167  69.886  1.00  0.00    -0.059 C  
HETATM   11  C   UNL     1      -9.077   5.834  70.580  1.00  0.00    -0.161 C  
HETATM   12  C   UNL     1      -7.291   9.852  69.249  1.00  0.00    -0.084 C  
HETATM   13  C   UNL     1      -8.452  11.920  67.697  1.00  0.00    -0.156 C  
HETATM   14  C   UNL     1      -8.569  10.390  68.212  1.00  0.00    -0.128 C  
HETATM   15  O   UNL     1      -7.276  10.717  70.409  1.00  0.00    -0.467 OA 
HETATM   16  C   UNL     1      -8.338  13.193  68.541  1.00  0.00    -0.063 C  
HETATM   17  H   UNL     1      -7.367  11.601  70.075  1.00  0.00     0.000 HD 
HETATM   18  C   UNL     1     -10.065   9.894  68.842  1.00  0.00    -0.194 C  
HETATM   19 CL   UNL     1      -8.446   9.560  66.332  1.00  0.00    -0.127 Cl 
HETATM   20  C   UNL     1     -11.227  10.419  67.990  1.00  0.00    -0.340 C  
HETATM   21  C   UNL     1     -11.050  11.891  67.629  1.00  0.00    -0.257 C  
HETATM   22  C   UNL     1      -9.753  12.172  66.881  1.00  0.00    -0.213 C  
HETATM   23  F   UNL     1     -12.128  12.258  66.880  1.00  0.00    -0.413 F  
HETATM   24  C   UNL     1      -9.738  13.157  65.960  1.00  0.00    -0.234 C  
HETATM   25  C   UNL     1      -9.522  14.452  66.708  1.00  0.00    -0.267 C  
ENDROOT
BRANCH   5  26
HETATM   26  C   UNL     1      -8.419   8.064  72.107  1.00  0.00    -0.146 C  
HETATM   27  O   UNL     1      -7.287   7.725  72.467  1.00  0.00    -0.074 OA 
BRANCH  26  28
HETATM   28  C   UNL     1      -9.487   8.145  73.204  1.00  0.00    -0.246 C  
HETATM   29  O   UNL     1      -8.935   7.812  74.477  1.00  0.00    -0.442 OA 
HETATM   30  H   UNL     1      -9.597   7.862  75.156  1.00  0.00     0.000 HD 
ENDBRANCH  26  28
ENDBRANCH   5  26
TORSDOF 2
ENDMDL
MODEL       42
REMARK 921   NORMALIZED FREE ENERGY PREDICTED BY IDOCK:   -4.96 KCAL/MOL
REMARK 922        TOTAL FREE ENERGY PREDICTED BY IDOCK:   -4.86 KCAL/MOL
REMARK 923 INTER-LIGAND FREE ENERGY PREDICTED BY IDOCK:   -5.45 KCAL/MOL
REMARK 924 INTRA-LIGAND FREE ENERGY PREDICTED BY IDOCK:    0.59 KCAL/MOL
REMARK 927      BINDING AFFINITY PREDICTED BY RF-SCORE:    0.00 PKD
ROOT
HETATM    1  C   UNL     1      -6.540  10.592  66.411  1.00  0.00    -0.120 C  
HETATM    2  C   UNL     1      -6.368   9.920  67.641  1.00  0.00    -0.059 C  
HETATM    3  C   UNL     1      -7.511   9.319  66.854  1.00  0.00    -0.091 C  
HETATM    4  C   UNL     1      -7.682   7.826  67.588  1.00  0.00    -0.121 C  
HETATM    5  C   UNL     1      -7.631   9.982  64.914  1.00  0.00    -0.139 C  
HETATM    6  C   UNL     1      -6.987   8.957  65.520  1.00  0.00    -0.080 C  
HETATM    7  O   UNL     1     -12.104  15.924  68.635  1.00  0.00    -0.252 OA 
HETATM    8  C   UNL     1     -11.843  11.480  68.022  1.00  0.00    -0.287 C  
HETATM    9  C   UNL     1     -11.896  14.359  66.830  1.00  0.00    -0.431 C  
HETATM   10  C   UNL     1      -8.883   8.567  65.385  1.00  0.00    -0.173 C  
HETATM   11  C   UNL     1      -5.807   8.064  65.175  1.00  0.00    -0.044 C  
HETATM   12  C   UNL     1      -9.934   9.958  65.873  1.00  0.00    -0.277 C  
HETATM   13  C   UNL     1     -10.633  12.271  67.353  1.00  0.00    -0.247 C  
HETATM   14  C   UNL     1      -9.484  11.186  67.008  1.00  0.00    -0.193 C  
HETATM   15  O   UNL     1     -10.314  10.618  64.643  1.00  0.00    -0.345 OA 
HETATM   16  C   UNL     1     -11.399  13.176  66.383  1.00  0.00    -0.349 C  
HETATM   17  H   UNL     1     -10.865  11.347  64.898  1.00  0.00     0.000 HD 
HETATM   18  C   UNL     1      -7.942  11.782  66.623  1.00  0.00    -0.070 C  
HETATM   19 CL   UNL     1      -9.345  10.457  68.928  1.00  0.00    -0.177 Cl 
HETATM   20  C   UNL     1      -7.541  12.927  67.562  1.00  0.00    -0.164 C  
HETATM   21  C   UNL     1      -8.673  13.931  67.753  1.00  0.00    -0.187 C  
HETATM   22  C   UNL     1      -9.947  13.299  68.300  1.00  0.00    -0.236 C  
HETATM   23  F   UNL     1      -8.218  14.902  68.594  1.00  0.00    -0.129 F  
HETATM   24  C   UNL     1     -10.736  14.031  69.112  1.00  0.00    -0.198 C  
HETATM   25  C   UNL     1     -11.608  14.885  68.221  1.00  0.00    -0.334 C  
ENDROOT
BRANCH   5  26
HETATM   26  C   UNL     1      -7.486   9.350  63.367  1.00  0.00    -0.106 C  
HETATM   27  O   UNL     1      -8.236   8.542  62.812  1.00  0.00    -0.177 OA 
BRANCH  26  28
HETATM   28  C   UNL     1      -6.307   9.870  62.537  1.00  0.00    -0.110 C  
HETATM   29  O   UNL     1      -5.974  11.207  62.909  1.00  0.00    -0.350 OA 
HETATM   30  H   UNL     1      -5.243  11.528  62.394  1.00  0.00     0.000 HD 
ENDBRANCH  26  28
ENDBRANCH   5  26
TORSDOF 2
ENDMDL
MODEL       43
REMARK 921   NORMALIZED FREE ENERGY PREDICTED BY IDOCK:   -4.95 KCAL/MOL
REMARK 922        TOTAL FREE ENERGY PREDICTED BY IDOCK:   -4.85 KCAL/MOL
REMARK 923 INTER-LIGAND FREE ENERGY PREDICTED BY IDOCK:   -5.46 KCAL/MOL
REMARK 924 INTRA-LIGAND FREE ENERGY PREDICTED BY IDOCK:    0.61 KCAL/MOL
REMARK 927      BINDING AFFINITY PREDICTED BY RF-SCORE:    0.00 PKD
ROOT
HETATM    1  C   UNL     1     -10.280  10.791  69.413  1.00  0.00    -0.187 C  
HETATM    2  C   UNL     1     -11.474  10.289  68.853  1.00  0.00    -0.190 C  
HETATM    3  C   UNL     1     -10.317  10.120  67.894  1.00  0.00    -0.234 C  
HETATM    4  C   UNL     1     -10.907   8.957  66.848  1.00  0.00     0.010 C  
HETATM    5  C   UNL     1      -8.478  10.493  68.729  1.00  0.00    -0.141 C  
HETATM    6  C   UNL     1      -9.252   9.388  68.611  1.00  0.00    -0.131 C  
HETATM    7  O   UNL     1     -10.479  18.222  66.403  1.00  0.00    -0.384 OA 
HETATM    8  C   UNL     1      -9.902  14.044  64.855  1.00  0.00     0.002 C  
HETATM    9  C   UNL     1      -8.834  16.479  66.480  1.00  0.00    -0.317 C  
HETATM   10  C   UNL     1      -8.437   9.818  66.903  1.00  0.00    -0.120 C  
HETATM   11  C   UNL     1      -9.332   8.043  69.313  1.00  0.00    -0.151 C  
HETATM   12  C   UNL     1      -8.547  11.575  66.481  1.00  0.00    -0.172 C  
HETATM   13  C   UNL     1      -9.729  14.150  66.435  1.00  0.00    -0.313 C  
HETATM   14  C   UNL     1      -9.795  12.646  67.026  1.00  0.00    -0.225 C  
HETATM   15  O   UNL     1      -7.277  12.154  66.864  1.00  0.00    -0.320 OA 
HETATM   16  C   UNL     1      -8.569  15.147  66.518  1.00  0.00    -0.226 C  
HETATM   17  H   UNL     1      -7.334  13.076  66.643  1.00  0.00     0.000 HD 
HETATM   18  C   UNL     1     -10.002  12.477  68.702  1.00  0.00    -0.111 C  
HETATM   19 CL   UNL     1     -11.620  12.203  66.184  1.00  0.00    -0.431 Cl 
HETATM   20  C   UNL     1     -11.047  13.466  69.233  1.00  0.00    -0.216 C  
HETATM   21  C   UNL     1     -10.842  14.869  68.671  1.00  0.00    -0.251 C  
HETATM   22  C   UNL     1     -10.881  14.915  67.149  1.00  0.00    -0.311 C  
HETATM   23  F   UNL     1     -11.811  15.666  69.202  1.00  0.00    -0.320 F  
HETATM   24  C   UNL     1     -11.373  16.017  66.547  1.00  0.00     0.286 C  
HETATM   25  C   UNL     1     -10.248  17.024  66.493  1.00  0.00    -0.320 C  
ENDROOT
BRANCH   5  26
HETATM   26  C   UNL     1      -7.072   9.649  69.081  1.00  0.00    -0.062 C  
HETATM   27  O   UNL     1      -6.401   8.952  68.314  1.00  0.00    -0.053 OA 
BRANCH  26  28
HETATM   28  C   UNL     1      -6.541   9.795  70.512  1.00  0.00    -0.117 C  
HETATM   29  O   UNL     1      -6.293  11.165  70.824  1.00  0.00    -0.455 OA 
HETATM   30  H   UNL     1      -5.964  11.255  71.710  1.00  0.00     0.000 HD 
ENDBRANCH  26  28
ENDBRANCH   5  26
TORSDOF 2
ENDMDL
MODEL       44
REMARK 921   NORMALIZED FREE ENERGY PREDICTED BY IDOCK:   -4.93 KCAL/MOL
REMARK 922        TOTAL FREE ENERGY PREDICTED BY IDOCK:   -4.83 KCAL/MOL
REMARK 923 INTER-LIGAND FREE ENERGY PREDICTED BY IDOCK:   -5.37 KCAL/MOL
REMARK 924 INTRA-LIGAND FREE ENERGY PREDICTED BY IDOCK:    0.54 KCAL/MOL
REMARK 927      BINDING AFFINITY PREDICTED BY RF-SCORE:    0.00 PKD
ROOT
HETATM    1  C   UNL     1      -9.763   6.902  66.750  1.00  0.00    -0.232 C  
HETATM    2  C   UNL     1      -8.952   8.030  66.998  1.00  0.00    -0.156 C  
HETATM    3  C   UNL     1      -8.123   6.766  66.976  1.00  0.00    -0.109 C  
HETATM    4  C   UNL     1      -6.582   7.372  66.742  1.00  0.00    -0.057 C  
HETATM    5  C   UNL     1      -9.133   5.116  66.284  1.00  0.00    -0.136 C  
HETATM    6  C   UNL     1      -8.392   6.083  65.693  1.00  0.00    -0.145 C  
HETATM    7  O   UNL     1     -11.233   4.693  74.320  1.00  0.00    -0.213 OA 
HETATM    8  C   UNL     1      -7.711   4.794  71.530  1.00  0.00    -0.092 C  
HETATM    9  C   UNL     1     -10.452   3.561  72.355  1.00  0.00    -0.102 C  
HETATM   10  C   UNL     1      -7.237   4.841  66.634  1.00  0.00    -0.080 C  
HETATM   11  C   UNL     1      -8.252   6.627  64.281  1.00  0.00     0.028 C  
HETATM   12  C   UNL     1      -7.824   4.441  68.299  1.00  0.00    -0.079 C  
HETATM   13  C   UNL     1      -9.106   4.946  70.776  1.00  0.00    -0.181 C  
HETATM   14  C   UNL     1      -8.787   5.490  69.286  1.00  0.00    -0.112 C  
HETATM   15  O   UNL     1      -8.532   3.185  68.178  1.00  0.00    -0.080 OA 
HETATM   16  C   UNL     1      -9.780   3.630  71.176  1.00  0.00    -0.245 C  
HETATM   17  H   UNL     1      -8.840   2.974  69.051  1.00  0.00     0.000 HD 
HETATM   18  C   UNL     1     -10.092   6.088  68.380  1.00  0.00    -0.198 C  
HETATM   19 CL   UNL     1      -7.735   7.142  69.920  1.00  0.00    -0.105 Cl 
HETATM   20  C   UNL     1     -11.011   6.962  69.244  1.00  0.00    -0.260 C  
HETATM   21  C   UNL     1     -11.307   6.315  70.594  1.00  0.00    -0.343 C  
HETATM   22  C   UNL     1     -10.051   6.013  71.401  1.00  0.00    -0.236 C  
HETATM   23  F   UNL     1     -12.128   7.162  71.278  1.00  0.00    -0.308 F  
HETATM   24  C   UNL     1     -10.112   6.089  72.745  1.00  0.00    -0.201 C  
HETATM   25  C   UNL     1     -10.675   4.775  73.234  1.00  0.00    -0.248 C  
ENDROOT
BRANCH   5  26
HETATM   26  C   UNL     1      -9.054   4.059  64.985  1.00  0.00    -0.140 C  
HETATM   27  O   UNL     1      -8.084   3.390  64.617  1.00  0.00    -0.089 OA 
BRANCH  26  28
HETATM   28  C   UNL     1     -10.352   3.874  64.190  1.00  0.00    -0.227 C  
HETATM   29  O   UNL     1     -11.480   4.297  64.954  1.00  0.00    -1.029 OA 
HETATM   30  H   UNL     1     -12.284   4.182  64.461  1.00  0.00     0.000 HD 
ENDBRANCH  26  28
ENDBRANCH   5  26
TORSDOF 2
ENDMDL
MODEL       45
REMARK 921   NORMALIZED FREE ENERGY PREDICTED BY IDOCK:   -4.86 KCAL/MOL
REMARK 922        TOTAL FREE ENERGY PREDICTED BY IDOCK:   -4.75 KCAL/MOL
REMARK 923 INTER-LIGAND FREE ENERGY PREDICTED BY IDOCK:   -5.40 KCAL/MOL
REMARK 924 INTRA-LIGAND FREE ENERGY PREDICTED BY IDOCK:    0.65 KCAL/MOL
REMARK 927      BINDING AFFINITY PREDICTED BY RF-SCORE:    0.00 PKD
ROOT
HETATM    1  C   UNL     1     -11.000  10.228  68.578  1.00  0.00    -0.294 C  
HETATM    2  C   UNL     1     -11.220   9.993  67.203  1.00  0.00     0.122 C  
HETATM    3  C   UNL     1      -9.741   9.982  67.521  1.00  0.00    -0.189 C  
HETATM    4  C   UNL     1      -9.112   9.186  66.192  1.00  0.00    -0.234 C  
HETATM    5  C   UNL     1      -9.320   9.965  69.531  1.00  0.00    -0.236 C  
HETATM    6  C   UNL     1      -9.530   9.000  68.606  1.00  0.00    -0.149 C  
HETATM    7  O   UNL     1      -9.942  18.175  68.366  1.00  0.00    -0.339 OA 
HETATM    8  C   UNL     1      -7.741  14.510  66.983  1.00  0.00     0.043 C  
HETATM    9  C   UNL     1      -8.724  16.338  69.309  1.00  0.00    -0.151 C  
HETATM   10  C   UNL     1      -7.775   9.787  68.359  1.00  0.00    -0.081 C  
HETATM   11  C   UNL     1      -9.915   7.530  68.643  1.00  0.00    -0.178 C  
HETATM   12  C   UNL     1      -7.788  11.597  68.426  1.00  0.00    -0.137 C  
HETATM   13  C   UNL     1      -8.875  14.186  68.053  1.00  0.00    -0.182 C  
HETATM   14  C   UNL     1      -9.141  12.591  68.002  1.00  0.00    -0.200 C  
HETATM   15  O   UNL     1      -7.396  11.945  69.776  1.00  0.00    -0.304 OA 
HETATM   16  C   UNL     1      -8.383  15.024  69.238  1.00  0.00    -0.169 C  
HETATM   17  H   UNL     1      -7.403  12.893  69.812  1.00  0.00     0.000 HD 
HETATM   18  C   UNL     1     -10.540  12.011  68.767  1.00  0.00    -0.237 C  
HETATM   19 CL   UNL     1      -9.539  12.542  65.983  1.00  0.00    -0.235 Cl 
HETATM   20  C   UNL     1     -11.746  12.914  68.476  1.00  0.00    -0.374 C  
HETATM   21  C   UNL     1     -11.401  14.391  68.630  1.00  0.00    -0.273 C  
HETATM   22  C   UNL     1     -10.253  14.835  67.733  1.00  0.00    -0.232 C  
HETATM   23  F   UNL     1     -12.531  15.103  68.355  1.00  0.00    -0.140 F  
HETATM   24  C   UNL     1     -10.260  16.094  67.249  1.00  0.00    -0.277 C  
HETATM   25  C   UNL     1      -9.684  16.980  68.329  1.00  0.00    -0.275 C  
ENDROOT
BRANCH   5  26
HETATM   26  C   UNL     1      -8.600   8.941  70.647  1.00  0.00    -0.194 C  
HETATM   27  O   UNL     1      -7.463   8.461  70.604  1.00  0.00    -0.058 OA 
BRANCH  26  28
HETATM   28  C   UNL     1      -9.440   8.595  71.882  1.00  0.00    -0.299 C  
HETATM   29  O   UNL     1      -8.805   7.582  72.661  1.00  0.00    -0.126 OA 
HETATM   30  H   UNL     1      -9.326   7.368  73.426  1.00  0.00     0.000 HD 
ENDBRANCH  26  28
ENDBRANCH   5  26
TORSDOF 2
ENDMDL
MODEL       46
REMARK 921   NORMALIZED FREE ENERGY PREDICTED BY IDOCK:   -4.85 KCAL/MOL
REMARK 922        TOTAL FREE ENERGY PREDICTED BY IDOCK:   -4.74 KCAL/MOL
REMARK 923 INTER-LIGAND FREE ENERGY PREDICTED BY IDOCK:   -5.87 KCAL/MOL
REMARK 924 INTRA-LIGAND FREE ENERGY PREDICTED BY IDOCK:    1.14 KCAL/MOL
REMARK 927      BINDING AFFINITY PREDICTED BY RF-SCORE:    0.00 PKD
ROOT
HETATM    1  C   UNL     1     -11.392  10.923  67.809  1.00  0.00    -0.366 C  
HETATM    2  C   UNL     1     -10.708  11.234  69.004  1.00  0.00    -0.257 C  
HETATM    3  C   UNL     1     -10.177  12.055  67.850  1.00  0.00    -0.203 C  
HETATM    4  C   UNL     1      -9.395  13.299  68.648  1.00  0.00    -0.001 C  
HETATM    5  C   UNL     1     -11.320  11.942  66.148  1.00  0.00    -0.383 C  
HETATM    6  C   UNL     1     -11.328  12.749  67.235  1.00  0.00    -0.364 C  
HETATM    7  O   UNL     1      -6.420   5.338  64.906  1.00  0.00    -0.037 OA 
HETATM    8  C   UNL     1      -6.354   9.774  65.618  1.00  0.00    -0.074 C  
HETATM    9  C   UNL     1      -7.426   7.325  64.017  1.00  0.00    -0.100 C  
HETATM   10  C   UNL     1      -9.844  13.211  66.072  1.00  0.00    -0.266 C  
HETATM   11  C   UNL     1     -12.342  13.670  67.892  1.00  0.00     0.008 C  
HETATM   12  C   UNL     1      -8.919  11.768  65.488  1.00  0.00     0.104 C  
HETATM   13  C   UNL     1      -7.823   9.161  65.660  1.00  0.00    -0.095 C  
HETATM   14  C   UNL     1      -8.785  10.268  66.343  1.00  0.00    -0.144 C  
HETATM   15  O   UNL     1      -9.438  11.474  64.169  1.00  0.00    -0.378 OA 
HETATM   16  C   UNL     1      -7.915   8.572  64.249  1.00  0.00    -0.149 C  
HETATM   17  H   UNL     1      -8.953  10.717  63.862  1.00  0.00     0.000 HD 
HETATM   18  C   UNL     1     -10.322   9.757  66.847  1.00  0.00    -0.301 C  
HETATM   19 CL   UNL     1      -7.659  10.449  68.057  1.00  0.00    -0.091 Cl 
HETATM   20  C   UNL     1     -10.252   8.391  67.543  1.00  0.00    -0.308 C  
HETATM   21  C   UNL     1      -9.382   7.404  66.771  1.00  0.00    -0.160 C  
HETATM   22  C   UNL     1      -7.957   7.899  66.561  1.00  0.00    -0.102 C  
HETATM   23  F   UNL     1      -9.388   6.230  67.465  1.00  0.00    -0.118 F  
HETATM   24  C   UNL     1      -6.956   6.996  66.533  1.00  0.00    -0.069 C  
HETATM   25  C   UNL     1      -6.910   6.437  65.130  1.00  0.00    -0.047 C  
ENDROOT
BRANCH   5  26
HETATM   26  C   UNL     1     -12.256  12.963  65.203  1.00  0.00    -0.470 C  
HETATM   27  O   UNL     1     -12.905  13.946  65.572  1.00  0.00    -0.609 OA 
BRANCH  26  28
HETATM   28  C   UNL     1     -12.274  12.660  63.700  1.00  0.00    -0.536 C  
HETATM   29  O   UNL     1     -12.537  11.277  63.464  1.00  0.00    -0.357 OA 
HETATM   30  H   UNL     1     -12.548  11.090  62.533  1.00  0.00     0.000 HD 
ENDBRANCH  26  28
ENDBRANCH   5  26
TORSDOF 2
ENDMDL
MODEL       47
REMARK 921   NORMALIZED FREE ENERGY PREDICTED BY IDOCK:   -4.84 KCAL/MOL
REMARK 922        TOTAL FREE ENERGY PREDICTED BY IDOCK:   -4.73 KCAL/MOL
REMARK 923 INTER-LIGAND FREE ENERGY PREDICTED BY IDOCK:   -5.40 KCAL/MOL
REMARK 924 INTRA-LIGAND FREE ENERGY PREDICTED BY IDOCK:    0.68 KCAL/MOL
REMARK 927      BINDING AFFINITY PREDICTED BY RF-SCORE:    0.00 PKD
ROOT
HETATM    1  C   UNL     1      -7.166   9.968  68.314  1.00  0.00    -0.077 C  
HETATM    2  C   UNL     1      -7.682  10.057  69.626  1.00  0.00    -0.158 C  
HETATM    3  C   UNL     1      -8.649   9.333  68.715  1.00  0.00    -0.131 C  
HETATM    4  C   UNL     1      -9.624   8.538  69.817  1.00  0.00    -0.170 C  
HETATM    5  C   UNL     1      -7.861   8.840  66.883  1.00  0.00    -0.101 C  
HETATM    6  C   UNL     1      -7.911   8.218  68.085  1.00  0.00    -0.118 C  
HETATM    7  O   UNL     1     -10.553  16.516  65.156  1.00  0.00    -0.632 OA 
HETATM    8  C   UNL     1     -11.892  12.492  66.642  1.00  0.00    -0.422 C  
HETATM    9  C   UNL     1     -10.411  14.213  64.506  1.00  0.00    -0.232 C  
HETATM   10  C   UNL     1      -9.650   8.153  67.229  1.00  0.00    -0.211 C  
HETATM   11  C   UNL     1      -7.139   7.093  68.754  1.00  0.00    -0.088 C  
HETATM   12  C   UNL     1     -10.161   9.742  66.527  1.00  0.00    -0.239 C  
HETATM   13  C   UNL     1     -10.323  12.567  66.380  1.00  0.00    -0.261 C  
HETATM   14  C   UNL     1      -9.653  11.290  67.114  1.00  0.00    -0.194 C  
HETATM   15  O   UNL     1      -9.827   9.678  65.120  1.00  0.00    -0.403 OA 
HETATM   16  C   UNL     1     -10.309  12.912  64.888  1.00  0.00    -0.329 C  
HETATM   17  H   UNL     1     -10.095  10.511  64.751  1.00  0.00     0.000 HD 
HETATM   18  C   UNL     1      -7.968  11.302  67.313  1.00  0.00    -0.141 C  
HETATM   19 CL   UNL     1     -10.443  11.715  68.967  1.00  0.00    -0.197 Cl 
HETATM   20  C   UNL     1      -7.473  12.684  67.760  1.00  0.00    -0.131 C  
HETATM   21  C   UNL     1      -8.110  13.807  66.948  1.00  0.00     0.145 C  
HETATM   22  C   UNL     1      -9.632  13.807  67.018  1.00  0.00    -0.251 C  
HETATM   23  F   UNL     1      -7.606  14.984  67.417  1.00  0.00    -0.157 F  
HETATM   24  C   UNL     1     -10.282  14.987  66.965  1.00  0.00    -0.257 C  
HETATM   25  C   UNL     1     -10.405  15.353  65.504  1.00  0.00    -0.387 C  
ENDROOT
BRANCH   5  26
HETATM   26  C   UNL     1      -7.487   7.453  66.018  1.00  0.00    -0.083 C  
HETATM   27  O   UNL     1      -8.273   6.624  65.549  1.00  0.00    -0.128 OA 
BRANCH  26  28
HETATM   28  C   UNL     1      -5.998   7.213  65.744  1.00  0.00    -0.037 C  
HETATM   29  O   UNL     1      -5.678   5.827  65.862  1.00  0.00    -0.013 OA 
HETATM   30  H   UNL     1      -4.755   5.678  65.692  1.00  0.00     0.000 HD 
ENDBRANCH  26  28
ENDBRANCH   5  26
TORSDOF 2
ENDMDL
MODEL       48
REMARK 921   NORMALIZED FREE ENERGY PREDICTED BY IDOCK:   -4.76 KCAL/MOL
REMARK 922        TOTAL FREE ENERGY PREDICTED BY IDOCK:   -4.64 KCAL/MOL
REMARK 923 INTER-LIGAND FREE ENERGY PREDICTED BY IDOCK:   -5.41 KCAL/MOL
REMARK 924 INTRA-LIGAND FREE ENERGY PREDICTED BY IDOCK:    0.78 KCAL/MOL
REMARK 927      BINDING AFFINITY PREDICTED BY RF-SCORE:    0.00 PKD
ROOT
HETATM    1  C   UNL     1      -7.793  10.044  69.236  1.00  0.00    -0.125 C  
HETATM    2  C   UNL     1      -6.868   9.357  68.420  1.00  0.00    -0.063 C  
HETATM    3  C   UNL     1      -8.286   9.084  67.972  1.00  0.00    -0.117 C  
HETATM    4  C   UNL     1      -8.050   8.520  66.416  1.00  0.00    -0.103 C  
HETATM    5  C   UNL     1      -9.689  10.295  68.858  1.00  0.00    -0.193 C  
HETATM    6  C   UNL     1      -8.935  10.392  67.738  1.00  0.00    -0.131 C  
HETATM    7  O   UNL     1      -9.352   4.249  74.558  1.00  0.00    -0.104 OA 
HETATM    8  C   UNL     1     -10.142   5.039  70.206  1.00  0.00    -0.339 C  
HETATM    9  C   UNL     1     -10.698   5.697  73.201  1.00  0.00    -0.301 C  
HETATM   10  C   UNL     1     -10.371   9.118  67.465  1.00  0.00    -0.324 C  
HETATM   11  C   UNL     1      -8.485  11.525  66.831  1.00  0.00    -0.165 C  
HETATM   12  C   UNL     1     -10.571   7.960  68.843  1.00  0.00    -0.145 C  
HETATM   13  C   UNL     1      -9.706   6.346  71.005  1.00  0.00    -0.192 C  
HETATM   14  C   UNL     1      -9.300   7.465  69.909  1.00  0.00    -0.154 C  
HETATM   15  O   UNL     1     -11.640   8.497  69.658  1.00  0.00    -0.367 OA 
HETATM   16  C   UNL     1     -10.822   6.413  72.053  1.00  0.00    -0.277 C  
HETATM   17  H   UNL     1     -11.745   7.890  70.381  1.00  0.00     0.000 HD 
HETATM   18  C   UNL     1      -8.455   8.827  70.465  1.00  0.00    -0.181 C  
HETATM   19 CL   UNL     1      -7.906   6.285  68.959  1.00  0.00    -0.107 Cl 
HETATM   20  C   UNL     1      -7.368   8.433  71.473  1.00  0.00    -0.103 C  
HETATM   21  C   UNL     1      -7.884   7.435  72.505  1.00  0.00    -0.096 C  
HETATM   22  C   UNL     1      -8.434   6.158  71.881  1.00  0.00    -0.129 C  
HETATM   23  F   UNL     1      -6.852   7.153  73.350  1.00  0.00    -0.068 F  
HETATM   24  C   UNL     1      -8.299   4.999  72.556  1.00  0.00    -0.117 C  
HETATM   25  C   UNL     1      -9.435   4.936  73.549  1.00  0.00    -0.132 C  
ENDROOT
BRANCH   5  26
HETATM   26  C   UNL     1     -10.782  11.482  68.400  1.00  0.00    -0.208 C  
HETATM   27  O   UNL     1     -11.867  11.328  67.832  1.00  0.00    -0.597 OA 
BRANCH  26  28
HETATM   28  C   UNL     1     -10.403  12.922  68.768  1.00  0.00    -0.125 C  
HETATM   29  O   UNL     1     -11.316  13.458  69.724  1.00  0.00    -0.450 OA 
HETATM   30  H   UNL     1     -11.082  14.350  69.952  1.00  0.00     0.000 HD 
ENDBRANCH  26  28
ENDBRANCH   5  26
TORSDOF 2
ENDMDL
MODEL       49
REMARK 921   NORMALIZED FREE ENERGY PREDICTED BY IDOCK:   -4.71 KCAL/MOL
REMARK 922        TOTAL FREE ENERGY PREDICTED BY IDOCK:   -4.59 KCAL/MOL
REMARK 923 INTER-LIGAND FREE ENERGY PREDICTED BY IDOCK:   -5.25 KCAL/MOL
REMARK 924 INTRA-LIGAND FREE ENERGY PREDICTED BY IDOCK:    0.66 KCAL/MOL
REMARK 927      BINDING AFFINITY PREDICTED BY RF-SCORE:    0.00 PKD
ROOT
HETATM    1  C   UNL     1      -8.934   4.043  70.172  1.00  0.00    -0.159 C  
HETATM    2  C   UNL     1      -7.738   3.994  69.425  1.00  0.00    -0.053 C  
HETATM    3  C   UNL     1      -7.533   4.748  70.719  1.00  0.00    -0.064 C  
HETATM    4  C   UNL     1      -5.869   4.711  70.876  1.00  0.00    -0.017 C  
HETATM    5  C   UNL     1      -9.099   4.585  72.038  1.00  0.00    -0.161 C  
HETATM    6  C   UNL     1      -7.973   3.865  71.820  1.00  0.00    -0.071 C  
HETATM    7  O   UNL     1     -11.767  11.091  67.600  1.00  0.00    -0.576 OA 
HETATM    8  C   UNL     1      -8.348   9.624  70.119  1.00  0.00    -0.221 C  
HETATM    9  C   UNL     1     -11.405  10.106  69.756  1.00  0.00    -0.312 C  
HETATM   10  C   UNL     1      -7.537   5.528  72.719  1.00  0.00    -0.098 C  
HETATM   11  C   UNL     1      -7.508   2.457  72.149  1.00  0.00    -0.044 C  
HETATM   12  C   UNL     1      -8.361   6.968  71.996  1.00  0.00    -0.105 C  
HETATM   13  C   UNL     1      -9.481   8.525  69.910  1.00  0.00    -0.163 C  
HETATM   14  C   UNL     1      -8.850   7.099  70.340  1.00  0.00    -0.151 C  
HETATM   15  O   UNL     1      -9.529   7.209  72.816  1.00  0.00    -0.141 OA 
HETATM   16  C   UNL     1     -10.683   9.249  70.525  1.00  0.00    -0.313 C  
HETATM   17  H   UNL     1      -9.961   7.965  72.437  1.00  0.00     0.000 HD 
HETATM   18  C   UNL     1      -9.700   5.703  69.883  1.00  0.00    -0.222 C  
HETATM   19 CL   UNL     1      -7.241   7.224  69.062  1.00  0.00    -0.086 Cl 
HETATM   20  C   UNL     1     -10.217   5.815  68.442  1.00  0.00    -0.242 C  
HETATM   21  C   UNL     1     -10.861   7.171  68.173  1.00  0.00    -0.109 C  
HETATM   22  C   UNL     1      -9.921   8.342  68.428  1.00  0.00    -0.208 C  
HETATM   23  F   UNL     1     -11.286   7.168  66.877  1.00  0.00    -0.431 F  
HETATM   24  C   UNL     1     -10.042   9.448  67.666  1.00  0.00    -0.262 C  
HETATM   25  C   UNL     1     -11.150  10.277  68.273  1.00  0.00    -0.254 C  
ENDROOT
BRANCH   5  26
HETATM   26  C   UNL     1      -9.386   3.945  73.562  1.00  0.00    -0.103 C  
HETATM   27  O   UNL     1      -8.552   3.550  74.382  1.00  0.00    -0.086 OA 
BRANCH  26  28
HETATM   28  C   UNL     1     -10.855   3.882  73.998  1.00  0.00    -0.202 C  
HETATM   29  O   UNL     1     -11.467   5.168  73.906  1.00  0.00    -0.394 OA 
HETATM   30  H   UNL     1     -12.377   5.129  74.176  1.00  0.00     0.000 HD 
ENDBRANCH  26  28
ENDBRANCH   5  26
TORSDOF 2
ENDMDL
MODEL       50
REMARK 921   NORMALIZED FREE ENERGY PREDICTED BY IDOCK:   -4.70 KCAL/MOL
REMARK 922        TOTAL FREE ENERGY PREDICTED BY IDOCK:   -4.57 KCAL/MOL
REMARK 923 INTER-LIGAND FREE ENERGY PREDICTED BY IDOCK:   -5.28 KCAL/MOL
REMARK 924 INTRA-LIGAND FREE ENERGY PREDICTED BY IDOCK:    0.71 KCAL/MOL
REMARK 927      BINDING AFFINITY PREDICTED BY RF-SCORE:    0.00 PKD
ROOT
HETATM    1  C   UNL     1     -10.423   8.084  67.117  1.00  0.00    -0.408 C  
HETATM    2  C   UNL     1     -10.599   9.453  67.417  1.00  0.00    -0.326 C  
HETATM    3  C   UNL     1      -9.142   9.062  67.518  1.00  0.00    -0.145 C  
HETATM    4  C   UNL     1      -8.384  10.550  67.430  1.00  0.00    -0.121 C  
HETATM    5  C   UNL     1      -8.722   7.195  66.772  1.00  0.00    -0.128 C  
HETATM    6  C   UNL     1      -8.761   8.437  66.234  1.00  0.00    -0.164 C  
HETATM    7  O   UNL     1     -10.778   5.091  74.550  1.00  0.00    -0.355 OA 
HETATM    8  C   UNL     1      -7.968   7.643  72.145  1.00  0.00    -0.119 C  
HETATM    9  C   UNL     1      -9.255   4.862  72.712  1.00  0.00    -0.145 C  
HETATM   10  C   UNL     1      -7.171   8.234  67.327  1.00  0.00    -0.084 C  
HETATM   11  C   UNL     1      -8.882   9.006  64.830  1.00  0.00    -0.190 C  
HETATM   12  C   UNL     1      -7.502   7.464  68.932  1.00  0.00    -0.101 C  
HETATM   13  C   UNL     1      -9.027   6.867  71.244  1.00  0.00    -0.142 C  
HETATM   14  C   UNL     1      -9.008   7.557  69.781  1.00  0.00    -0.141 C  
HETATM   15  O   UNL     1      -7.176   6.063  68.772  1.00  0.00    -0.078 OA 
HETATM   16  C   UNL     1      -8.689   5.418  71.608  1.00  0.00    -0.139 C  
HETATM   17  H   UNL     1      -7.349   5.658  69.614  1.00  0.00     0.000 HD 
HETATM   18  C   UNL     1     -10.283   7.180  68.726  1.00  0.00    -0.184 C  
HETATM   19 CL   UNL     1      -9.393   9.456  70.475  1.00  0.00    -0.305 Cl 
HETATM   20  C   UNL     1     -11.629   7.177  69.463  1.00  0.00     0.101 C  
HETATM   21  C   UNL     1     -11.550   6.433  70.792  1.00  0.00    -0.338 C  
HETATM   22  C   UNL     1     -10.498   7.003  71.735  1.00  0.00    -0.223 C  
HETATM   23  F   UNL     1     -12.787   6.485  71.362  1.00  0.00    -0.345 F  
HETATM   24  C   UNL     1     -10.725   6.953  73.063  1.00  0.00    -0.328 C  
HETATM   25  C   UNL     1     -10.314   5.575  73.527  1.00  0.00    -0.227 C  
ENDROOT
BRANCH   5  26
HETATM   26  C   UNL     1      -7.833   6.523  65.519  1.00  0.00    -0.104 C  
HETATM   27  O   UNL     1      -6.778   6.943  65.035  1.00  0.00    -0.048 OA 
BRANCH  26  28
HETATM   28  C   UNL     1      -8.378   5.213  64.936  1.00  0.00    -0.145 C  
HETATM   29  O   UNL     1      -9.051   5.449  63.700  1.00  0.00    -0.343 OA 
HETATM   30  H   UNL     1      -9.388   4.638  63.339  1.00  0.00     0.000 HD 
ENDBRANCH  26  28
ENDBRANCH   5  26
TORSDOF 2
ENDMDL
MODEL       51
REMARK 921   NORMALIZED FREE ENERGY PREDICTED BY IDOCK:   -4.70 KCAL/MOL
REMARK 922        TOTAL FREE ENERGY PREDICTED BY IDOCK:   -4.57 KCAL/MOL
REMARK 923 INTER-LIGAND FREE ENERGY PREDICTED BY IDOCK:   -5.27 KCAL/MOL
REMARK 924 INTRA-LIGAND FREE ENERGY PREDICTED BY IDOCK:    0.70 KCAL/MOL
REMARK 927      BINDING AFFINITY PREDICTED BY RF-SCORE:    0.00 PKD
ROOT
HETATM    1  C   UNL     1     -10.380   9.093  71.341  1.00  0.00    -0.409 C  
HETATM    2  C   UNL     1     -11.594   8.414  71.099  1.00  0.00    -0.317 C  
HETATM    3  C   UNL     1     -10.418   7.470  70.989  1.00  0.00    -0.222 C  
HETATM    4  C   UNL     1     -11.161   5.980  71.145  1.00  0.00    -0.328 C  
HETATM    5  C   UNL     1      -8.645   8.262  71.658  1.00  0.00    -0.202 C  
HETATM    6  C   UNL     1      -9.650   7.572  72.248  1.00  0.00    -0.197 C  
HETATM    7  O   UNL     1      -8.413  10.932  63.786  1.00  0.00    -0.054 OA 
HETATM    8  C   UNL     1      -8.723   7.230  66.313  1.00  0.00    -0.162 C  
HETATM    9  C   UNL     1      -7.268   9.898  65.621  1.00  0.00    -0.113 C  
HETATM   10  C   UNL     1      -8.576   6.381  71.156  1.00  0.00    -0.128 C  
HETATM   11  C   UNL     1     -10.135   7.374  73.674  1.00  0.00    -0.376 C  
HETATM   12  C   UNL     1      -8.202   7.056  69.518  1.00  0.00    -0.132 C  
HETATM   13  C   UNL     1      -8.699   8.569  67.174  1.00  0.00    -0.134 C  
HETATM   14  C   UNL     1      -9.198   8.188  68.665  1.00  0.00    -0.143 C  
HETATM   15  O   UNL     1      -6.878   7.630  69.619  1.00  0.00    -0.043 OA 
HETATM   16  C   UNL     1      -7.345   9.145  66.750  1.00  0.00    -0.086 C  
HETATM   17  H   UNL     1      -6.681   7.984  68.760  1.00  0.00     0.000 HD 
HETATM   18  C   UNL     1      -9.619   9.469  69.696  1.00  0.00    -0.216 C  
HETATM   19 CL   UNL     1     -10.975   7.350  68.051  1.00  0.00    -0.105 Cl 
HETATM   20  C   UNL     1     -10.439  10.532  68.952  1.00  0.00    -0.226 C  
HETATM   21  C   UNL     1      -9.834  10.870  67.593  1.00  0.00    -0.171 C  
HETATM   22  C   UNL     1      -9.697   9.657  66.681  1.00  0.00    -0.266 C  
HETATM   23  F   UNL     1     -10.628  11.817  67.019  1.00  0.00    -0.229 F  
HETATM   24  C   UNL     1      -9.834   9.830  65.351  1.00  0.00    -0.365 C  
HETATM   25  C   UNL     1      -8.496  10.302  64.831  1.00  0.00    -0.177 C  
ENDROOT
BRANCH   5  26
HETATM   26  C   UNL     1      -7.537   7.983  72.886  1.00  0.00    -0.130 C  
HETATM   27  O   UNL     1      -7.578   7.101  73.750  1.00  0.00    -0.101 OA 
BRANCH  26  28
HETATM   28  C   UNL     1      -6.314   8.906  72.911  1.00  0.00     0.056 C  
HETATM   29  O   UNL     1      -6.278   9.733  71.748  1.00  0.00    -0.300 OA 
HETATM   30  H   UNL     1      -5.520  10.305  71.763  1.00  0.00     0.000 HD 
ENDBRANCH  26  28
ENDBRANCH   5  26
TORSDOF 2
ENDMDL
MODEL       52
REMARK 921   NORMALIZED FREE ENERGY PREDICTED BY IDOCK:   -4.68 KCAL/MOL
REMARK 922        TOTAL FREE ENERGY PREDICTED BY IDOCK:   -4.54 KCAL/MOL
REMARK 923 INTER-LIGAND FREE ENERGY PREDICTED BY IDOCK:   -5.30 KCAL/MOL
REMARK 924 INTRA-LIGAND FREE ENERGY PREDICTED BY IDOCK:    0.75 KCAL/MOL
REMARK 927      BINDING AFFINITY PREDICTED BY RF-SCORE:    0.00 PKD
ROOT
HETATM    1  C   UNL     1      -8.046   6.862  68.260  1.00  0.00    -0.119 C  
HETATM    2  C   UNL     1      -6.704   7.185  67.965  1.00  0.00    -0.061 C  
HETATM    3  C   UNL     1      -7.143   7.836  69.258  1.00  0.00    -0.076 C  
HETATM    4  C   UNL     1      -5.675   8.198  69.973  1.00  0.00    -0.022 C  
HETATM    5  C   UNL     1      -8.950   7.161  69.961  1.00  0.00    -0.142 C  
HETATM    6  C   UNL     1      -7.666   6.768  70.135  1.00  0.00    -0.101 C  
HETATM    7  O   UNL     1     -11.650  13.207  64.930  1.00  0.00    -0.307 OA 
HETATM    8  C   UNL     1      -8.983  12.393  68.453  1.00  0.00    -0.133 C  
HETATM    9  C   UNL     1     -11.765  12.136  67.072  1.00  0.00    -0.373 C  
HETATM   10  C   UNL     1      -8.008   8.391  71.142  1.00  0.00    -0.127 C  
HETATM   11  C   UNL     1      -6.977   5.493  70.592  1.00  0.00    -0.057 C  
HETATM   12  C   UNL     1      -8.902   9.646  70.192  1.00  0.00    -0.231 C  
HETATM   13  C   UNL     1      -9.650  11.073  67.861  1.00  0.00    -0.180 C  
HETATM   14  C   UNL     1      -8.838   9.812  68.469  1.00  0.00    -0.121 C  
HETATM   15  O   UNL     1     -10.293   9.508  70.566  1.00  0.00    -0.248 OA 
HETATM   16  C   UNL     1     -11.133  11.413  68.034  1.00  0.00    -0.317 C  
HETATM   17  H   UNL     1     -10.762  10.167  70.068  1.00  0.00     0.000 HD 
HETATM   18  C   UNL     1      -9.088   8.301  67.739  1.00  0.00    -0.138 C  
HETATM   19 CL   UNL     1      -6.995  10.456  67.819  1.00  0.00    -0.082 Cl 
HETATM   20  C   UNL     1      -9.115   8.422  66.210  1.00  0.00    -0.241 C  
HETATM   21  C   UNL     1      -9.972   9.596  65.747  1.00  0.00    -0.272 C  
HETATM   22  C   UNL     1      -9.514  10.933  66.317  1.00  0.00    -0.222 C  
HETATM   23  F   UNL     1      -9.933   9.615  64.384  1.00  0.00    -0.247 F  
HETATM   24  C   UNL     1      -9.670  12.043  65.568  1.00  0.00    -0.221 C  
HETATM   25  C   UNL     1     -11.093  12.509  65.766  1.00  0.00    -0.308 C  
ENDROOT
BRANCH   5  26
HETATM   26  C   UNL     1      -9.539   6.325  71.290  1.00  0.00    -0.174 C  
HETATM   27  O   UNL     1      -9.018   6.220  72.405  1.00  0.00    -0.139 OA 
BRANCH  26  28
HETATM   28  C   UNL     1     -10.901   5.645  71.107  1.00  0.00    -0.218 C  
HETATM   29  O   UNL     1     -11.718   6.383  70.200  1.00  0.00    -0.422 OA 
HETATM   30  H   UNL     1     -12.562   5.962  70.087  1.00  0.00     0.000 HD 
ENDBRANCH  26  28
ENDBRANCH   5  26
TORSDOF 2
ENDMDL
MODEL       53
REMARK 921   NORMALIZED FREE ENERGY PREDICTED BY IDOCK:   -4.65 KCAL/MOL
REMARK 922        TOTAL FREE ENERGY PREDICTED BY IDOCK:   -4.52 KCAL/MOL
REMARK 923 INTER-LIGAND FREE ENERGY PREDICTED BY IDOCK:   -5.76 KCAL/MOL
REMARK 924 INTRA-LIGAND FREE ENERGY PREDICTED BY IDOCK:    1.25 KCAL/MOL
REMARK 927      BINDING AFFINITY PREDICTED BY RF-SCORE:    0.00 PKD
ROOT
HETATM    1  C   UNL     1      -9.542  17.504  67.042  1.00  0.00    -0.268 C  
HETATM    2  C   UNL     1     -10.612  17.911  67.868  1.00  0.00    -0.387 C  
HETATM    3  C   UNL     1      -9.829  16.790  68.515  1.00  0.00    -0.257 C  
HETATM    4  C   UNL     1     -10.295  16.929  70.115  1.00  0.00     0.384 C  
HETATM    5  C   UNL     1      -8.056  16.357  67.572  1.00  0.00    -0.166 C  
HETATM    6  C   UNL     1      -8.413  17.211  68.561  1.00  0.00    -0.262 C  
HETATM    7  O   UNL     1     -13.144  11.485  63.153  1.00  0.00    -0.352 OA 
HETATM    8  C   UNL     1     -11.725  12.341  67.329  1.00  0.00    -0.394 C  
HETATM    9  C   UNL     1     -11.077  11.724  64.344  1.00  0.00    -0.396 C  
HETATM   10  C   UNL     1      -8.369  15.392  69.235  1.00  0.00    -0.254 C  
HETATM   11  C   UNL     1      -7.815  18.465  69.175  1.00  0.00    -0.036 C  
HETATM   12  C   UNL     1      -9.185  14.205  68.139  1.00  0.00    -0.194 C  
HETATM   13  C   UNL     1     -11.109  13.336  66.248  1.00  0.00    -0.306 C  
HETATM   14  C   UNL     1     -10.480  14.589  67.054  1.00  0.00    -0.268 C  
HETATM   15  O   UNL     1      -8.129  13.595  67.359  1.00  0.00    -0.170 OA 
HETATM   16  C   UNL     1     -10.384  12.339  65.338  1.00  0.00    -0.298 C  
HETATM   17  H   UNL     1      -8.557  12.973  66.784  1.00  0.00     0.000 HD 
HETATM   18  C   UNL     1     -10.081  15.972  66.154  1.00  0.00    -0.346 C  
HETATM   19 CL   UNL     1     -12.220  15.050  68.054  1.00  0.00    -0.033 Cl 
HETATM   20  C   UNL     1     -11.173  16.299  65.127  1.00  0.00    -0.116 C  
HETATM   21  C   UNL     1     -11.635  15.056  64.372  1.00  0.00    -0.276 C  
HETATM   22  C   UNL     1     -12.164  13.961  65.289  1.00  0.00    -0.449 C  
HETATM   23  F   UNL     1     -12.595  15.452  63.489  1.00  0.00    -0.043 F  
HETATM   24  C   UNL     1     -13.157  13.167  64.842  1.00  0.00    -0.031 C  
HETATM   25  C   UNL     1     -12.511  12.083  64.012  1.00  0.00    -0.388 C  
ENDROOT
BRANCH   5  26
HETATM   26  C   UNL     1      -6.415  16.422  67.910  1.00  0.00    -0.135 C  
HETATM   27  O   UNL     1      -5.603  17.274  67.537  1.00  0.00    -0.118 OA 
BRANCH  26  28
HETATM   28  C   UNL     1      -5.871  15.313  68.819  1.00  0.00    -0.088 C  
HETATM   29  O   UNL     1      -5.375  14.221  68.047  1.00  0.00    -0.115 OA 
HETATM   30  H   UNL     1      -5.038  13.534  68.610  1.00  0.00     0.000 HD 
ENDBRANCH  26  28
ENDBRANCH   5  26
TORSDOF 2
ENDMDL
MODEL       54
REMARK 921   NORMALIZED FREE ENERGY PREDICTED BY IDOCK:   -4.55 KCAL/MOL
REMARK 922        TOTAL FREE ENERGY PREDICTED BY IDOCK:   -4.40 KCAL/MOL
REMARK 923 INTER-LIGAND FREE ENERGY PREDICTED BY IDOCK:   -4.95 KCAL/MOL
REMARK 924 INTRA-LIGAND FREE ENERGY PREDICTED BY IDOCK:    0.54 KCAL/MOL
REMARK 927      BINDING AFFINITY PREDICTED BY RF-SCORE:    0.00 PKD
ROOT
HETATM    1  C   UNL     1      -9.236   7.607  67.491  1.00  0.00    -0.145 C  
HETATM    2  C   UNL     1     -10.598   7.793  67.169  1.00  0.00    -0.401 C  
HETATM    3  C   UNL     1     -10.091   8.924  68.035  1.00  0.00    -0.239 C  
HETATM    4  C   UNL     1     -11.244  10.105  67.763  1.00  0.00    -0.205 C  
HETATM    5  C   UNL     1      -8.051   8.943  68.275  1.00  0.00    -0.109 C  
HETATM    6  C   UNL     1      -8.898   9.489  67.370  1.00  0.00    -0.134 C  
HETATM    7  O   UNL     1     -10.080   3.846  74.524  1.00  0.00    -0.152 OA 
HETATM    8  C   UNL     1     -10.803   7.960  72.869  1.00  0.00    -0.451 C  
HETATM    9  C   UNL     1      -8.813   5.735  73.765  1.00  0.00    -0.127 C  
HETATM   10  C   UNL     1      -8.990  10.466  69.043  1.00  0.00    -0.184 C  
HETATM   11  C   UNL     1      -8.768  10.034  65.958  1.00  0.00    -0.152 C  
HETATM   12  C   UNL     1      -9.101   9.389  70.494  1.00  0.00    -0.256 C  
HETATM   13  C   UNL     1      -9.862   7.073  71.939  1.00  0.00    -0.173 C  
HETATM   14  C   UNL     1      -9.792   7.801  70.495  1.00  0.00    -0.182 C  
HETATM   15  O   UNL     1      -7.753   9.279  71.009  1.00  0.00    -0.223 OA 
HETATM   16  C   UNL     1      -8.711   6.784  72.907  1.00  0.00    -0.131 C  
HETATM   17  H   UNL     1      -7.811   8.714  71.770  1.00  0.00     0.000 HD 
HETATM   18  C   UNL     1      -9.162   6.902  69.201  1.00  0.00    -0.141 C  
HETATM   19 CL   UNL     1     -11.831   7.841  70.216  1.00  0.00     0.015 Cl 
HETATM   20  C   UNL     1      -9.695   5.463  69.215  1.00  0.00    -0.224 C  
HETATM   21  C   UNL     1      -9.641   4.850  70.610  1.00  0.00    -0.186 C  
HETATM   22  C   UNL     1     -10.421   5.650  71.646  1.00  0.00    -0.286 C  
HETATM   23  F   UNL     1     -10.129   3.581  70.515  1.00  0.00    -0.219 F  
HETATM   24  C   UNL     1     -11.021   4.989  72.656  1.00  0.00    -0.280 C  
HETATM   25  C   UNL     1      -9.967   4.755  73.713  1.00  0.00    -0.158 C  
ENDROOT
BRANCH   5  26
HETATM   26  C   UNL     1      -6.757   9.933  67.877  1.00  0.00    -0.068 C  
HETATM   27  O   UNL     1      -6.654  11.149  68.062  1.00  0.00    -0.057 OA 
BRANCH  26  28
HETATM   28  C   UNL     1      -5.546   9.235  67.246  1.00  0.00    -0.041 C  
HETATM   29  O   UNL     1      -5.672   7.816  67.340  1.00  0.00    -0.034 OA 
HETATM   30  H   UNL     1      -4.922   7.384  66.949  1.00  0.00     0.000 HD 
ENDBRANCH  26  28
ENDBRANCH   5  26
TORSDOF 2
ENDMDL
MODEL       55
REMARK 921   NORMALIZED FREE ENERGY PREDICTED BY IDOCK:   -4.51 KCAL/MOL
REMARK 922        TOTAL FREE ENERGY PREDICTED BY IDOCK:   -4.36 KCAL/MOL
REMARK 923 INTER-LIGAND FREE ENERGY PREDICTED BY IDOCK:   -5.01 KCAL/MOL
REMARK 924 INTRA-LIGAND FREE ENERGY PREDICTED BY IDOCK:    0.65 KCAL/MOL
REMARK 927      BINDING AFFINITY PREDICTED BY RF-SCORE:    0.00 PKD
ROOT
HETATM    1  C   UNL     1      -9.436  10.543  69.657  1.00  0.00    -0.029 C  
HETATM    2  C   UNL     1     -10.339   9.458  69.621  1.00  0.00    -0.229 C  
HETATM    3  C   UNL     1      -9.257   9.292  68.577  1.00  0.00    -0.135 C  
HETATM    4  C   UNL     1      -9.359   7.658  68.238  1.00  0.00    -0.145 C  
HETATM    5  C   UNL     1      -7.703  10.621  68.768  1.00  0.00    -0.117 C  
HETATM    6  C   UNL     1      -7.956   9.390  69.272  1.00  0.00    -0.093 C  
HETATM    7  O   UNL     1     -12.808  15.205  64.070  1.00  0.00    -0.651 OA 
HETATM    8  C   UNL     1     -10.625  11.281  64.222  1.00  0.00    -0.422 C  
HETATM    9  C   UNL     1     -10.590  14.387  64.467  1.00  0.00    -0.186 C  
HETATM   10  C   UNL     1      -7.463   9.256  67.400  1.00  0.00    -0.087 C  
HETATM   11  C   UNL     1      -7.445   8.576  70.449  1.00  0.00    -0.069 C  
HETATM   12  C   UNL     1      -8.306  10.467  66.351  1.00  0.00    -0.145 C  
HETATM   13  C   UNL     1     -10.445  12.143  65.548  1.00  0.00    -0.300 C  
HETATM   14  C   UNL     1      -9.860  11.154  66.687  1.00  0.00    -0.231 C  
HETATM   15  O   UNL     1      -7.373  11.560  66.182  1.00  0.00    -0.368 OA 
HETATM   16  C   UNL     1      -9.797  13.405  64.970  1.00  0.00    -0.070 C  
HETATM   17  H   UNL     1      -7.814  12.196  65.632  1.00  0.00     0.000 HD 
HETATM   18  C   UNL     1      -9.908  11.701  68.293  1.00  0.00    -0.199 C  
HETATM   19 CL   UNL     1     -11.374   9.770  66.516  1.00  0.00     0.734 Cl 
HETATM   20  C   UNL     1     -11.246  12.386  68.604  1.00  0.00    -0.314 C  
HETATM   21  C   UNL     1     -11.661  13.354  67.501  1.00  0.00    -0.344 C  
HETATM   22  C   UNL     1     -11.779  12.689  66.135  1.00  0.00    -0.461 C  
HETATM   23  F   UNL     1     -12.849  13.908  67.873  1.00  0.00     0.089 F  
HETATM   24  C   UNL     1     -12.706  13.148  65.271  1.00  0.00    -0.457 C  
HETATM   25  C   UNL     1     -12.100  14.344  64.574  1.00  0.00    -0.481 C  
ENDROOT
BRANCH   5  26
HETATM   26  C   UNL     1      -6.061  10.581  69.106  1.00  0.00    -0.041 C  
HETATM   27  O   UNL     1      -5.171  10.028  68.452  1.00  0.00    -0.036 OA 
BRANCH  26  28
HETATM   28  C   UNL     1      -5.611  11.355  70.351  1.00  0.00    -0.139 C  
HETATM   29  O   UNL     1      -5.384  12.729  70.039  1.00  0.00    -0.085 OA 
HETATM   30  H   UNL     1      -5.106  13.208  70.811  1.00  0.00     0.000 HD 
ENDBRANCH  26  28
ENDBRANCH   5  26
TORSDOF 2
ENDMDL
MODEL       56
REMARK 921   NORMALIZED FREE ENERGY PREDICTED BY IDOCK:   -4.48 KCAL/MOL
REMARK 922        TOTAL FREE ENERGY PREDICTED BY IDOCK:   -4.33 KCAL/MOL
REMARK 923 INTER-LIGAND FREE ENERGY PREDICTED BY IDOCK:   -4.96 KCAL/MOL
REMARK 924 INTRA-LIGAND FREE ENERGY PREDICTED BY IDOCK:    0.63 KCAL/MOL
REMARK 927      BINDING AFFINITY PREDICTED BY RF-SCORE:    0.00 PKD
ROOT
HETATM    1  C   UNL     1     -10.562   7.104  69.298  1.00  0.00    -0.233 C  
HETATM    2  C   UNL     1     -11.111   5.968  68.665  1.00  0.00    -0.293 C  
HETATM    3  C   UNL     1      -9.692   5.701  69.113  1.00  0.00    -0.193 C  
HETATM    4  C   UNL     1      -9.639   4.030  69.104  1.00  0.00    -0.233 C  
HETATM    5  C   UNL     1      -8.917   7.152  70.344  1.00  0.00    -0.155 C  
HETATM    6  C   UNL     1      -9.617   6.012  70.556  1.00  0.00    -0.198 C  
HETATM    7  O   UNL     1      -6.948  10.466  62.976  1.00  0.00    -0.136 OA 
HETATM    8  C   UNL     1      -6.427   6.797  65.515  1.00  0.00    -0.050 C  
HETATM    9  C   UNL     1      -6.262   9.893  65.201  1.00  0.00    -0.100 C  
HETATM   10  C   UNL     1      -7.783   5.590  70.088  1.00  0.00    -0.085 C  
HETATM   11  C   UNL     1     -10.460   5.455  71.691  1.00  0.00    -0.291 C  
HETATM   12  C   UNL     1      -7.172   6.536  68.670  1.00  0.00    -0.085 C  
HETATM   13  C   UNL     1      -7.372   7.888  66.188  1.00  0.00    -0.074 C  
HETATM   14  C   UNL     1      -8.164   7.157  67.394  1.00  0.00    -0.116 C  
HETATM   15  O   UNL     1      -6.431   7.648  69.227  1.00  0.00    -0.038 OA 
HETATM   16  C   UNL     1      -6.406   9.073  66.275  1.00  0.00    -0.065 C  
HETATM   17  H   UNL     1      -6.110   8.144  68.484  1.00  0.00     0.000 HD 
HETATM   18  C   UNL     1      -9.500   7.970  68.053  1.00  0.00    -0.157 C  
HETATM   19 CL   UNL     1      -8.941   5.658  66.216  1.00  0.00    -0.136 Cl 
HETATM   20  C   UNL     1     -10.363   8.601  66.952  1.00  0.00    -0.355 C  
HETATM   21  C   UNL     1      -9.517   9.329  65.912  1.00  0.00    -0.259 C  
HETATM   22  C   UNL     1      -8.485   8.430  65.244  1.00  0.00    -0.189 C  
HETATM   23  F   UNL     1     -10.372   9.852  64.988  1.00  0.00    -0.376 F  
HETATM   24  C   UNL     1      -8.160   8.663  63.957  1.00  0.00    -0.163 C  
HETATM   25  C   UNL     1      -7.121   9.760  63.960  1.00  0.00    -0.123 C  
ENDROOT
BRANCH   5  26
HETATM   26  C   UNL     1      -8.383   7.290  71.927  1.00  0.00    -0.107 C  
HETATM   27  O   UNL     1      -7.444   6.690  72.460  1.00  0.00    -0.088 OA 
BRANCH  26  28
HETATM   28  C   UNL     1      -9.123   8.310  72.800  1.00  0.00    -0.262 C  
HETATM   29  O   UNL     1      -9.406   7.765  74.088  1.00  0.00    -0.406 OA 
HETATM   30  H   UNL     1      -9.864   8.397  74.630  1.00  0.00     0.000 HD 
ENDBRANCH  26  28
ENDBRANCH   5  26
TORSDOF 2
ENDMDL
MODEL       57
REMARK 921   NORMALIZED FREE ENERGY PREDICTED BY IDOCK:   -4.48 KCAL/MOL
REMARK 922        TOTAL FREE ENERGY PREDICTED BY IDOCK:   -4.33 KCAL/MOL
REMARK 923 INTER-LIGAND FREE ENERGY PREDICTED BY IDOCK:   -4.96 KCAL/MOL
REMARK 924 INTRA-LIGAND FREE ENERGY PREDICTED BY IDOCK:    0.63 KCAL/MOL
REMARK 927      BINDING AFFINITY PREDICTED BY RF-SCORE:    0.00 PKD
ROOT
HETATM    1  C   UNL     1     -10.151   9.547  67.137  1.00  0.00    -0.290 C  
HETATM    2  C   UNL     1     -11.284  10.208  67.661  1.00  0.00    -0.169 C  
HETATM    3  C   UNL     1     -10.009  10.791  68.230  1.00  0.00    -0.182 C  
HETATM    4  C   UNL     1     -10.538  12.270  68.805  1.00  0.00    -0.223 C  
HETATM    5  C   UNL     1      -8.302  10.149  67.285  1.00  0.00    -0.121 C  
HETATM    6  C   UNL     1      -9.155  11.182  67.089  1.00  0.00    -0.151 C  
HETATM    7  O   UNL     1      -9.102   4.053  72.885  1.00  0.00    -0.106 OA 
HETATM    8  C   UNL     1      -8.710   8.509  72.461  1.00  0.00    -0.226 C  
HETATM    9  C   UNL     1      -7.678   5.645  71.796  1.00  0.00    -0.101 C  
HETATM   10  C   UNL     1      -8.035  11.527  68.635  1.00  0.00    -0.135 C  
HETATM   11  C   UNL     1      -9.485  12.108  65.931  1.00  0.00    -0.187 C  
HETATM   12  C   UNL     1      -7.895  10.105  69.747  1.00  0.00    -0.166 C  
HETATM   13  C   UNL     1      -8.785   7.756  71.060  1.00  0.00    -0.138 C  
HETATM   14  C   UNL     1      -9.099   8.873  69.932  1.00  0.00    -0.166 C  
HETATM   15  O   UNL     1      -6.652   9.451  69.399  1.00  0.00    -0.043 OA 
HETATM   16  C   UNL     1      -7.558   6.846  71.170  1.00  0.00    -0.087 C  
HETATM   17  H   UNL     1      -6.578   8.705  69.982  1.00  0.00     0.000 HD 
HETATM   18  C   UNL     1      -9.591   8.321  68.406  1.00  0.00    -0.153 C  
HETATM   19 CL   UNL     1     -10.799   9.582  70.852  1.00  0.00    -0.380 Cl 
HETATM   20  C   UNL     1     -10.603   7.174  68.531  1.00  0.00    -0.219 C  
HETATM   21  C   UNL     1     -10.167   6.141  69.565  1.00  0.00    -0.198 C  
HETATM   22  C   UNL     1      -9.954   6.734  70.952  1.00  0.00    -0.200 C  
HETATM   23  F   UNL     1     -11.124   5.170  69.598  1.00  0.00    -0.238 F  
HETATM   24  C   UNL     1     -10.227   5.973  72.030  1.00  0.00    -0.228 C  
HETATM   25  C   UNL     1      -9.011   5.109  72.274  1.00  0.00    -0.128 C  
ENDROOT
BRANCH   5  26
HETATM   26  C   UNL     1      -7.066  10.803  66.361  1.00  0.00    -0.134 C  
HETATM   27  O   UNL     1      -6.408  11.821  66.596  1.00  0.00    -0.120 OA 
BRANCH  26  28
HETATM   28  C   UNL     1      -6.685  10.022  65.098  1.00  0.00    -0.126 C  
HETATM   29  O   UNL     1      -6.332  10.910  64.039  1.00  0.00    -0.347 OA 
HETATM   30  H   UNL     1      -6.096  10.426  63.256  1.00  0.00     0.000 HD 
ENDBRANCH  26  28
ENDBRANCH   5  26
TORSDOF 2
ENDMDL
MODEL       58
REMARK 921   NORMALIZED FREE ENERGY PREDICTED BY IDOCK:   -4.43 KCAL/MOL
REMARK 922        TOTAL FREE ENERGY PREDICTED BY IDOCK:   -4.27 KCAL/MOL
REMARK 923 INTER-LIGAND FREE ENERGY PREDICTED BY IDOCK:   -4.97 KCAL/MOL
REMARK 924 INTRA-LIGAND FREE ENERGY PREDICTED BY IDOCK:    0.69 KCAL/MOL
REMARK 927      BINDING AFFINITY PREDICTED BY RF-SCORE:    0.00 PKD
ROOT
HETATM    1  C   UNL     1      -8.062  10.231  66.990  1.00  0.00    -0.121 C  
HETATM    2  C   UNL     1      -7.206  10.987  67.820  1.00  0.00    -0.091 C  
HETATM    3  C   UNL     1      -6.874   9.514  67.904  1.00  0.00    -0.074 C  
HETATM    4  C   UNL     1      -5.326   9.550  68.536  1.00  0.00    -0.033 C  
HETATM    5  C   UNL     1      -7.815   8.363  66.487  1.00  0.00    -0.092 C  
HETATM    6  C   UNL     1      -6.640   9.035  66.525  1.00  0.00    -0.067 C  
HETATM    7  O   UNL     1     -13.692   8.309  72.370  1.00  0.00    -0.241 OA 
HETATM    8  C   UNL     1      -9.383   7.300  71.591  1.00  0.00    -0.160 C  
HETATM    9  C   UNL     1     -12.385   7.074  70.785  1.00  0.00    -0.307 C  
HETATM   10  C   UNL     1      -6.519   7.420  67.594  1.00  0.00    -0.056 C  
HETATM   11  C   UNL     1      -5.662   9.564  65.490  1.00  0.00    -0.057 C  
HETATM   12  C   UNL     1      -7.949   7.171  68.675  1.00  0.00    -0.123 C  
HETATM   13  C   UNL     1     -10.100   7.972  70.337  1.00  0.00    -0.194 C  
HETATM   14  C   UNL     1      -8.937   8.441  69.316  1.00  0.00    -0.150 C  
HETATM   15  O   UNL     1      -8.820   6.252  67.974  1.00  0.00    -0.115 OA 
HETATM   16  C   UNL     1     -11.223   6.960  70.089  1.00  0.00    -0.361 C  
HETATM   17  H   UNL     1      -9.571   6.121  68.541  1.00  0.00     0.000 HD 
HETATM   18  C   UNL     1      -9.380   9.505  68.070  1.00  0.00    -0.143 C  
HETATM   19 CL   UNL     1      -7.932   9.583  70.703  1.00  0.00    -0.190 Cl 
HETATM   20  C   UNL     1     -10.319  10.603  68.586  1.00  0.00    -0.202 C  
HETATM   21  C   UNL     1     -11.422  10.036  69.475  1.00  0.00    -0.120 C  
HETATM   22  C   UNL     1     -10.887   9.271  70.678  1.00  0.00    -0.339 C  
HETATM   23  F   UNL     1     -12.198  11.083  69.876  1.00  0.00    -0.334 F  
HETATM   24  C   UNL     1     -11.592   9.297  71.827  1.00  0.00    -0.458 C  
HETATM   25  C   UNL     1     -12.667   8.243  71.705  1.00  0.00    -0.336 C  
ENDROOT
BRANCH   5  26
HETATM   26  C   UNL     1      -7.395   7.412  65.171  1.00  0.00    -0.077 C  
HETATM   27  O   UNL     1      -6.766   6.349  65.181  1.00  0.00    -0.044 OA 
BRANCH  26  28
HETATM   28  C   UNL     1      -7.886   7.902  63.804  1.00  0.00    -0.141 C  
HETATM   29  O   UNL     1      -8.659   6.895  63.152  1.00  0.00    -0.337 OA 
HETATM   30  H   UNL     1      -8.963   7.199  62.304  1.00  0.00     0.000 HD 
ENDBRANCH  26  28
ENDBRANCH   5  26
TORSDOF 2
ENDMDL
MODEL       59
REMARK 921   NORMALIZED FREE ENERGY PREDICTED BY IDOCK:   -4.43 KCAL/MOL
REMARK 922        TOTAL FREE ENERGY PREDICTED BY IDOCK:   -4.27 KCAL/MOL
REMARK 923 INTER-LIGAND FREE ENERGY PREDICTED BY IDOCK:   -4.86 KCAL/MOL
REMARK 924 INTRA-LIGAND FREE ENERGY PREDICTED BY IDOCK:    0.59 KCAL/MOL
REMARK 927      BINDING AFFINITY PREDICTED BY RF-SCORE:    0.00 PKD
ROOT
HETATM    1  C   UNL     1      -9.291   5.844  72.416  1.00  0.00    -0.149 C  
HETATM    2  C   UNL     1     -10.362   5.007  72.033  1.00  0.00    -0.276 C  
HETATM    3  C   UNL     1      -9.283   5.019  70.974  1.00  0.00    -0.191 C  
HETATM    4  C   UNL     1      -9.645   3.638  70.103  1.00  0.00    -0.242 C  
HETATM    5  C   UNL     1      -7.535   5.917  71.571  1.00  0.00    -0.094 C  
HETATM    6  C   UNL     1      -8.012   4.652  71.634  1.00  0.00    -0.101 C  
HETATM    7  O   UNL     1     -11.605  12.621  68.805  1.00  0.00    -0.269 OA 
HETATM    8  C   UNL     1     -10.123   8.562  67.576  1.00  0.00    -0.282 C  
HETATM    9  C   UNL     1      -9.573  11.349  68.858  1.00  0.00    -0.087 C  
HETATM   10  C   UNL     1      -7.476   5.073  69.817  1.00  0.00    -0.056 C  
HETATM   11  C   UNL     1      -7.693   3.414  72.455  1.00  0.00    -0.063 C  
HETATM   12  C   UNL     1      -8.060   6.692  69.258  1.00  0.00    -0.116 C  
HETATM   13  C   UNL     1      -9.852   8.882  69.113  1.00  0.00    -0.180 C  
HETATM   14  C   UNL     1      -9.488   7.482  69.837  1.00  0.00    -0.160 C  
HETATM   15  O   UNL     1      -6.950   7.601  69.450  1.00  0.00    -0.060 OA 
HETATM   16  C   UNL     1      -8.978  10.133  68.983  1.00  0.00    -0.168 C  
HETATM   17  H   UNL     1      -7.255   8.451  69.156  1.00  0.00     0.000 HD 
HETATM   18  C   UNL     1      -9.507   7.457  71.534  1.00  0.00    -0.162 C  
HETATM   19 CL   UNL     1     -11.206   6.519  69.239  1.00  0.00    -0.395 Cl 
HETATM   20  C   UNL     1     -10.721   8.216  72.086  1.00  0.00    -0.360 C  
HETATM   21  C   UNL     1     -10.923   9.555  71.384  1.00  0.00    -0.345 C  
HETATM   22  C   UNL     1     -11.097   9.420  69.877  1.00  0.00    -0.223 C  
HETATM   23  F   UNL     1     -12.015  10.147  71.945  1.00  0.00    -0.431 F  
HETATM   24  C   UNL     1     -11.899  10.295  69.237  1.00  0.00    -0.081 C  
HETATM   25  C   UNL     1     -11.073  11.533  68.975  1.00  0.00    -0.245 C  
ENDROOT
BRANCH   5  26
HETATM   26  C   UNL     1      -5.938   5.484  71.843  1.00  0.00    -0.026 C  
HETATM   27  O   UNL     1      -5.226   4.758  71.142  1.00  0.00    -0.003 OA 
BRANCH  26  28
HETATM   28  C   UNL     1      -5.278   6.093  73.085  1.00  0.00    -0.031 C  
HETATM   29  O   UNL     1      -6.177   6.084  74.193  1.00  0.00    -0.063 OA 
HETATM   30  H   UNL     1      -5.768   6.462  74.963  1.00  0.00     0.000 HD 
ENDBRANCH  26  28
ENDBRANCH   5  26
TORSDOF 2
ENDMDL
MODEL       60
REMARK 921   NORMALIZED FREE ENERGY PREDICTED BY IDOCK:   -4.38 KCAL/MOL
REMARK 922        TOTAL FREE ENERGY PREDICTED BY IDOCK:   -4.22 KCAL/MOL
REMARK 923 INTER-LIGAND FREE ENERGY PREDICTED BY IDOCK:   -4.87 KCAL/MOL
REMARK 924 INTRA-LIGAND FREE ENERGY PREDICTED BY IDOCK:    0.65 KCAL/MOL
REMARK 927      BINDING AFFINITY PREDICTED BY RF-SCORE:    0.00 PKD
ROOT
HETATM    1  C   UNL     1     -10.697  10.479  67.598  1.00  0.00    -0.324 C  
HETATM    2  C   UNL     1     -11.260  10.517  66.304  1.00  0.00     0.328 C  
HETATM    3  C   UNL     1      -9.751  10.592  66.237  1.00  0.00    -0.254 C  
HETATM    4  C   UNL     1      -9.459  10.162  64.647  1.00  0.00    -0.357 C  
HETATM    5  C   UNL     1      -8.814  10.197  68.021  1.00  0.00    -0.125 C  
HETATM    6  C   UNL     1      -9.217   9.431  66.980  1.00  0.00    -0.171 C  
HETATM    7  O   UNL     1     -10.094  18.360  68.963  1.00  0.00    -0.379 OA 
HETATM    8  C   UNL     1      -8.171  15.314  66.277  1.00  0.00     0.316 C  
HETATM    9  C   UNL     1      -8.588  16.501  69.128  1.00  0.00    -0.147 C  
HETATM   10  C   UNL     1      -7.626  10.430  66.496  1.00  0.00    -0.118 C  
HETATM   11  C   UNL     1      -9.512   7.955  66.773  1.00  0.00    -0.257 C  
HETATM   12  C   UNL     1      -7.703  12.173  66.978  1.00  0.00    -0.112 C  
HETATM   13  C   UNL     1      -8.967  14.657  67.490  1.00  0.00    -0.193 C  
HETATM   14  C   UNL     1      -9.164  13.090  67.141  1.00  0.00    -0.226 C  
HETATM   15  O   UNL     1      -6.986  12.269  68.232  1.00  0.00    -0.069 OA 
HETATM   16  C   UNL     1      -8.219  15.274  68.676  1.00  0.00    -0.159 C  
HETATM   17  H   UNL     1      -7.026  13.183  68.485  1.00  0.00     0.000 HD 
HETATM   18  C   UNL     1     -10.284  12.220  68.072  1.00  0.00    -0.206 C  
HETATM   19 CL   UNL     1     -10.077  13.424  65.326  1.00  0.00    -0.294 Cl 
HETATM   20  C   UNL     1     -11.564  13.035  68.302  1.00  0.00    -0.375 C  
HETATM   21  C   UNL     1     -11.259  14.475  68.702  1.00  0.00    -0.261 C  
HETATM   22  C   UNL     1     -10.409  15.213  67.676  1.00  0.00    -0.248 C  
HETATM   23  F   UNL     1     -12.452  15.107  68.885  1.00  0.00    -0.200 F  
HETATM   24  C   UNL     1     -10.600  16.538  67.511  1.00  0.00    -0.313 C  
HETATM   25  C   UNL     1      -9.801  17.232  68.590  1.00  0.00    -0.313 C  
ENDROOT
BRANCH   5  26
HETATM   26  C   UNL     1      -7.780   9.041  68.660  1.00  0.00    -0.096 C  
HETATM   27  O   UNL     1      -6.754   8.585  68.147  1.00  0.00    -0.063 OA 
BRANCH  26  28
HETATM   28  C   UNL     1      -8.133   8.523  70.059  1.00  0.00    -0.111 C  
HETATM   29  O   UNL     1      -8.779   7.254  69.982  1.00  0.00    -0.139 OA 
HETATM   30  H   UNL     1      -8.998   6.933  70.850  1.00  0.00     0.000 HD 
ENDBRANCH  26  28
ENDBRANCH   5  26
TORSDOF 2
ENDMDL
MODEL       61
REMARK 921   NORMALIZED FREE ENERGY PREDICTED BY IDOCK:   -4.32 KCAL/MOL
REMARK 922        TOTAL FREE ENERGY PREDICTED BY IDOCK:   -4.14 KCAL/MOL
REMARK 923 INTER-LIGAND FREE ENERGY PREDICTED BY IDOCK:   -5.07 KCAL/MOL
REMARK 924 INTRA-LIGAND FREE ENERGY PREDICTED BY IDOCK:    0.92 KCAL/MOL
REMARK 927      BINDING AFFINITY PREDICTED BY RF-SCORE:    0.00 PKD
ROOT
HETATM    1  C   UNL     1      -9.904   8.890  70.961  1.00  0.00    -0.321 C  
HETATM    2  C   UNL     1     -10.954   8.016  70.604  1.00  0.00    -0.250 C  
HETATM    3  C   UNL     1      -9.757   7.816  69.701  1.00  0.00    -0.172 C  
HETATM    4  C   UNL     1     -10.067   6.306  69.054  1.00  0.00    -0.206 C  
HETATM    5  C   UNL     1      -8.059   8.778  70.340  1.00  0.00    -0.118 C  
HETATM    6  C   UNL     1      -8.589   7.554  70.568  1.00  0.00    -0.138 C  
HETATM    7  O   UNL     1     -11.506  14.934  65.938  1.00  0.00    -0.342 OA 
HETATM    8  C   UNL     1     -10.049  10.694  65.648  1.00  0.00    -0.335 C  
HETATM    9  C   UNL     1      -9.546  13.658  66.468  1.00  0.00    -0.294 C  
HETATM   10  C   UNL     1      -7.825   7.627  68.786  1.00  0.00    -0.120 C  
HETATM   11  C   UNL     1      -8.418   6.481  71.631  1.00  0.00    -0.124 C  
HETATM   12  C   UNL     1      -8.274   9.128  67.878  1.00  0.00    -0.112 C  
HETATM   13  C   UNL     1      -9.950  11.285  67.124  1.00  0.00    -0.219 C  
HETATM   14  C   UNL     1      -9.729  10.034  68.126  1.00  0.00    -0.156 C  
HETATM   15  O   UNL     1      -7.160  10.037  68.041  1.00  0.00    -0.079 OA 
HETATM   16  C   UNL     1      -9.018  12.476  66.881  1.00  0.00    -0.212 C  
HETATM   17  H   UNL     1      -7.395  10.824  67.564  1.00  0.00     0.000 HD 
HETATM   18  C   UNL     1      -9.950  10.319  69.784  1.00  0.00    -0.222 C  
HETATM   19 CL   UNL     1     -11.400   9.008  67.501  1.00  0.00     0.551 Cl 
HETATM   20  C   UNL     1     -11.190  11.186  70.037  1.00  0.00    -0.261 C  
HETATM   21  C   UNL     1     -11.254  12.378  69.088  1.00  0.00    -0.236 C  
HETATM   22  C   UNL     1     -11.255  11.974  67.619  1.00  0.00    -0.343 C  
HETATM   23  F   UNL     1     -12.381  13.081  69.394  1.00  0.00    -0.297 F  
HETATM   24  C   UNL     1     -11.940  12.732  66.739  1.00  0.00    -0.389 C  
HETATM   25  C   UNL     1     -11.040  13.886  66.364  1.00  0.00    -0.309 C  
ENDROOT
BRANCH   5  26
HETATM   26  C   UNL     1      -6.523   8.374  70.880  1.00  0.00    -0.040 C  
HETATM   27  O   UNL     1      -5.495   8.256  70.206  1.00  0.00    -0.023 OA 
BRANCH  26  28
HETATM   28  C   UNL     1      -6.375   8.168  72.392  1.00  0.00    -0.068 C  
HETATM   29  O   UNL     1      -6.500   9.407  73.088  1.00  0.00    -0.230 OA 
HETATM   30  H   UNL     1      -6.409   9.280  74.025  1.00  0.00     0.000 HD 
ENDBRANCH  26  28
ENDBRANCH   5  26
TORSDOF 2
ENDMDL
MODEL       62
REMARK 921   NORMALIZED FREE ENERGY PREDICTED BY IDOCK:   -4.30 KCAL/MOL
REMARK 922        TOTAL FREE ENERGY PREDICTED BY IDOCK:   -4.12 KCAL/MOL
REMARK 923 INTER-LIGAND FREE ENERGY PREDICTED BY IDOCK:   -4.88 KCAL/MOL
REMARK 924 INTRA-LIGAND FREE ENERGY PREDICTED BY IDOCK:    0.76 KCAL/MOL
REMARK 927      BINDING AFFINITY PREDICTED BY RF-SCORE:    0.00 PKD
ROOT
HETATM    1  C   UNL     1     -12.145   7.448  70.177  1.00  0.00     0.216 C  
HETATM    2  C   UNL     1     -12.197   6.633  71.329  1.00  0.00    -0.369 C  
HETATM    3  C   UNL     1     -11.188   7.746  71.503  1.00  0.00    -0.278 C  
HETATM    4  C   UNL     1     -11.000   7.778  73.164  1.00  0.00    -0.372 C  
HETATM    5  C   UNL     1     -11.276   9.189  70.044  1.00  0.00    -0.168 C  
HETATM    6  C   UNL     1     -11.888   9.021  71.240  1.00  0.00    -0.379 C  
HETATM    7  O   UNL     1      -6.104   3.844  66.325  1.00  0.00    -0.029 OA 
HETATM    8  C   UNL     1      -6.649   6.320  70.034  1.00  0.00    -0.048 C  
HETATM    9  C   UNL     1      -6.606   6.110  66.925  1.00  0.00    -0.059 C  
HETATM   10  C   UNL     1     -10.044   9.562  71.505  1.00  0.00     0.009 C  
HETATM   11  C   UNL     1     -13.143   9.568  71.900  1.00  0.00    -0.517 C  
HETATM   12  C   UNL     1      -8.876   8.650  70.465  1.00  0.00    -0.163 C  
HETATM   13  C   UNL     1      -7.893   6.405  69.043  1.00  0.00    -0.110 C  
HETATM   14  C   UNL     1      -9.126   7.041  69.875  1.00  0.00    -0.141 C  
HETATM   15  O   UNL     1      -8.620   9.500  69.321  1.00  0.00    -0.132 OA 
HETATM   16  C   UNL     1      -7.209   6.966  67.792  1.00  0.00    -0.091 C  
HETATM   17  H   UNL     1      -8.007   9.022  68.775  1.00  0.00     0.000 HD 
HETATM   18  C   UNL     1     -10.673   6.917  69.189  1.00  0.00    -0.262 C  
HETATM   19 CL   UNL     1      -9.063   5.642  71.384  1.00  0.00    -0.148 Cl 
HETATM   20  C   UNL     1     -10.901   5.524  68.587  1.00  0.00    -0.088 C  
HETATM   21  C   UNL     1      -9.708   5.059  67.759  1.00  0.00    -0.153 C  
HETATM   22  C   UNL     1      -8.408   5.021  68.553  1.00  0.00    -0.088 C  
HETATM   23  F   UNL     1     -10.010   3.823  67.269  1.00  0.00    -0.237 F  
HETATM   24  C   UNL     1      -7.492   4.079  68.249  1.00  0.00    -0.059 C  
HETATM   25  C   UNL     1      -6.696   4.606  67.077  1.00  0.00    -0.051 C  
ENDROOT
BRANCH   5  26
HETATM   26  C   UNL     1     -11.639  10.822  69.923  1.00  0.00    -0.331 C  
HETATM   27  O   UNL     1     -12.031  11.574  70.821  1.00  0.00    -0.344 OA 
BRANCH  26  28
HETATM   28  C   UNL     1     -11.420  11.459  68.546  1.00  0.00    -0.297 C  
HETATM   29  O   UNL     1     -10.038  11.740  68.332  1.00  0.00    -0.192 OA 
HETATM   30  H   UNL     1      -9.902  12.135  67.478  1.00  0.00     0.000 HD 
ENDBRANCH  26  28
ENDBRANCH   5  26
TORSDOF 2
ENDMDL
MODEL       63
REMARK 921   NORMALIZED FREE ENERGY PREDICTED BY IDOCK:   -4.23 KCAL/MOL
REMARK 922        TOTAL FREE ENERGY PREDICTED BY IDOCK:   -4.04 KCAL/MOL
REMARK 923 INTER-LIGAND FREE ENERGY PREDICTED BY IDOCK:   -4.69 KCAL/MOL
REMARK 924 INTRA-LIGAND FREE ENERGY PREDICTED BY IDOCK:    0.65 KCAL/MOL
REMARK 927      BINDING AFFINITY PREDICTED BY RF-SCORE:    0.00 PKD
ROOT
HETATM    1  C   UNL     1     -10.837   7.161  69.507  1.00  0.00    -0.244 C  
HETATM    2  C   UNL     1     -11.594   6.265  70.292  1.00  0.00    -0.379 C  
HETATM    3  C   UNL     1     -10.142   6.255  70.714  1.00  0.00    -0.229 C  
HETATM    4  C   UNL     1     -10.235   5.577  72.240  1.00  0.00    -0.244 C  
HETATM    5  C   UNL     1      -9.021   7.762  69.883  1.00  0.00    -0.146 C  
HETATM    6  C   UNL     1      -9.759   7.651  71.012  1.00  0.00    -0.169 C  
HETATM    7  O   UNL     1      -8.267   2.067  63.871  1.00  0.00    -0.078 OA 
HETATM    8  C   UNL     1      -7.569   2.775  68.253  1.00  0.00    -0.055 C  
HETATM    9  C   UNL     1      -7.207   3.681  65.293  1.00  0.00    -0.067 C  
HETATM   10  C   UNL     1      -8.095   6.673  71.206  1.00  0.00    -0.112 C  
HETATM   11  C   UNL     1     -10.407   8.626  71.982  1.00  0.00    -0.416 C  
HETATM   12  C   UNL     1      -7.697   5.650  69.767  1.00  0.00    -0.079 C  
HETATM   13  C   UNL     1      -8.267   4.009  67.528  1.00  0.00    -0.094 C  
HETATM   14  C   UNL     1      -8.865   4.968  68.685  1.00  0.00    -0.111 C  
HETATM   15  O   UNL     1      -6.769   6.427  68.973  1.00  0.00    -0.049 OA 
HETATM   16  C   UNL     1      -7.205   4.348  66.477  1.00  0.00    -0.079 C  
HETATM   17  H   UNL     1      -6.560   5.891  68.218  1.00  0.00     0.000 HD 
HETATM   18  C   UNL     1      -9.971   6.164  68.210  1.00  0.00    -0.162 C  
HETATM   19 CL   UNL     1      -9.983   3.489  69.581  1.00  0.00     0.094 Cl 
HETATM   20  C   UNL     1     -10.978   5.614  67.190  1.00  0.00    -0.101 C  
HETATM   21  C   UNL     1     -10.294   4.792  66.102  1.00  0.00    -0.300 C  
HETATM   22  C   UNL     1      -9.494   3.619  66.653  1.00  0.00    -0.197 C  
HETATM   23  F   UNL     1     -11.267   4.356  65.252  1.00  0.00    -0.344 F  
HETATM   24  C   UNL     1      -9.410   2.491  65.919  1.00  0.00     0.021 C  
HETATM   25  C   UNL     1      -8.302   2.704  64.914  1.00  0.00    -0.089 C  
ENDROOT
BRANCH   5  26
HETATM   26  C   UNL     1      -8.175   9.117  70.395  1.00  0.00    -0.171 C  
HETATM   27  O   UNL     1      -7.523   9.248  71.436  1.00  0.00    -0.316 OA 
BRANCH  26  28
HETATM   28  C   UNL     1      -8.182  10.315  69.439  1.00  0.00    -0.165 C  
HETATM   29  O   UNL     1      -9.445  10.978  69.466  1.00  0.00    -0.407 OA 
HETATM   30  H   UNL     1      -9.449  11.721  68.874  1.00  0.00     0.000 HD 
ENDBRANCH  26  28
ENDBRANCH   5  26
TORSDOF 2
ENDMDL
MODEL       64
REMARK 921   NORMALIZED FREE ENERGY PREDICTED BY IDOCK:   -4.19 KCAL/MOL
REMARK 922        TOTAL FREE ENERGY PREDICTED BY IDOCK:   -4.00 KCAL/MOL
REMARK 923 INTER-LIGAND FREE ENERGY PREDICTED BY IDOCK:   -4.60 KCAL/MOL
REMARK 924 INTRA-LIGAND FREE ENERGY PREDICTED BY IDOCK:    0.59 KCAL/MOL
REMARK 927      BINDING AFFINITY PREDICTED BY RF-SCORE:    0.00 PKD
ROOT
HETATM    1  C   UNL     1     -10.879   6.718  69.942  1.00  0.00    -0.310 C  
HETATM    2  C   UNL     1     -11.035   5.984  68.746  1.00  0.00    -0.384 C  
HETATM    3  C   UNL     1      -9.603   5.929  69.229  1.00  0.00    -0.172 C  
HETATM    4  C   UNL     1      -9.013   4.603  68.398  1.00  0.00    -0.140 C  
HETATM    5  C   UNL     1      -9.332   6.664  71.128  1.00  0.00    -0.164 C  
HETATM    6  C   UNL     1      -9.625   5.442  70.624  1.00  0.00    -0.228 C  
HETATM    7  O   UNL     1      -8.581  13.746  66.835  1.00  0.00    -0.196 OA 
HETATM    8  C   UNL     1      -6.887   9.606  67.253  1.00  0.00    -0.083 C  
HETATM    9  C   UNL     1      -7.734  12.307  68.556  1.00  0.00    -0.118 C  
HETATM   10  C   UNL     1      -7.755   5.857  70.319  1.00  0.00    -0.096 C  
HETATM   11  C   UNL     1     -10.236   4.163  71.173  1.00  0.00    -0.040 C  
HETATM   12  C   UNL     1      -7.490   7.532  69.685  1.00  0.00    -0.092 C  
HETATM   13  C   UNL     1      -8.130   9.867  68.213  1.00  0.00    -0.104 C  
HETATM   14  C   UNL     1      -8.637   8.426  68.745  1.00  0.00    -0.135 C  
HETATM   15  O   UNL     1      -7.145   8.340  70.836  1.00  0.00    -0.047 OA 
HETATM   16  C   UNL     1      -7.598  11.044  69.038  1.00  0.00    -0.134 C  
HETATM   17  H   UNL     1      -7.006   9.219  70.504  1.00  0.00     0.000 HD 
HETATM   18  C   UNL     1     -10.161   8.363  69.490  1.00  0.00    -0.200 C  
HETATM   19 CL   UNL     1      -8.894   7.624  66.866  1.00  0.00    -0.131 Cl 
HETATM   20  C   UNL     1     -11.187   9.209  68.724  1.00  0.00     0.228 C  
HETATM   21  C   UNL     1     -10.628  10.576  68.342  1.00  0.00    -0.199 C  
HETATM   22  C   UNL     1      -9.364  10.490  67.496  1.00  0.00    -0.162 C  
HETATM   23  F   UNL     1     -11.611  11.244  67.675  1.00  0.00    -0.337 F  
HETATM   24  C   UNL     1      -9.139  11.444  66.571  1.00  0.00    -0.193 C  
HETATM   25  C   UNL     1      -8.511  12.614  67.292  1.00  0.00    -0.193 C  
ENDROOT
BRANCH   5  26
HETATM   26  C   UNL     1      -8.862   6.092  72.632  1.00  0.00    -0.123 C  
HETATM   27  O   UNL     1      -7.973   5.272  72.882  1.00  0.00    -0.101 OA 
BRANCH  26  28
HETATM   28  C   UNL     1      -9.598   6.689  73.838  1.00  0.00    -0.212 C  
HETATM   29  O   UNL     1     -10.954   6.985  73.509  1.00  0.00    -0.527 OA 
HETATM   30  H   UNL     1     -11.410   7.354  74.256  1.00  0.00     0.000 HD 
ENDBRANCH  26  28
ENDBRANCH   5  26
TORSDOF 2
ENDMDL
MODEL       65
REMARK 921   NORMALIZED FREE ENERGY PREDICTED BY IDOCK:   -4.18 KCAL/MOL
REMARK 922        TOTAL FREE ENERGY PREDICTED BY IDOCK:   -3.99 KCAL/MOL
REMARK 923 INTER-LIGAND FREE ENERGY PREDICTED BY IDOCK:   -4.77 KCAL/MOL
REMARK 924 INTRA-LIGAND FREE ENERGY PREDICTED BY IDOCK:    0.78 KCAL/MOL
REMARK 927      BINDING AFFINITY PREDICTED BY RF-SCORE:    0.00 PKD
ROOT
HETATM    1  C   UNL     1      -9.384  12.896  68.717  1.00  0.00     0.130 C  
HETATM    2  C   UNL     1      -9.651  13.957  67.824  1.00  0.00    -0.222 C  
HETATM    3  C   UNL     1     -10.707  12.880  67.711  1.00  0.00    -0.238 C  
HETATM    4  C   UNL     1     -11.954  13.703  66.960  1.00  0.00    -0.448 C  
HETATM    5  C   UNL     1     -10.616  11.462  69.194  1.00  0.00    -0.196 C  
HETATM    6  C   UNL     1     -11.251  12.651  69.067  1.00  0.00    -0.322 C  
HETATM    7  O   UNL     1      -5.279   8.082  63.787  1.00  0.00    -0.040 OA 
HETATM    8  C   UNL     1      -9.509   9.532  64.225  1.00  0.00     0.035 C  
HETATM    9  C   UNL     1      -7.145   7.786  65.263  1.00  0.00    -0.060 C  
HETATM   10  C   UNL     1     -12.136  11.304  67.988  1.00  0.00     0.053 C  
HETATM   11  C   UNL     1     -11.867  13.657  70.024  1.00  0.00    -0.378 C  
HETATM   12  C   UNL     1     -10.986  10.294  67.020  1.00  0.00    -0.119 C  
HETATM   13  C   UNL     1      -8.632   9.772  65.533  1.00  0.00    -0.158 C  
HETATM   14  C   UNL     1      -9.435  10.825  66.462  1.00  0.00    -0.197 C  
HETATM   15  O   UNL     1     -10.784   9.082  67.785  1.00  0.00    -0.385 OA 
HETATM   16  C   UNL     1      -8.235   8.330  65.866  1.00  0.00    -0.119 C  
HETATM   17  H   UNL     1     -10.181   8.553  67.278  1.00  0.00     0.000 HD 
HETATM   18  C   UNL     1      -8.581  11.542  67.741  1.00  0.00    -0.138 C  
HETATM   19 CL   UNL     1      -9.587  12.270  65.004  1.00  0.00    -0.060 Cl 
HETATM   20  C   UNL     1      -7.171  11.957  67.302  1.00  0.00    -0.147 C  
HETATM   21  C   UNL     1      -6.478  10.859  66.501  1.00  0.00    -0.128 C  
HETATM   22  C   UNL     1      -7.255  10.445  65.258  1.00  0.00    -0.106 C  
HETATM   23  F   UNL     1      -5.241  11.321  66.164  1.00  0.00    -0.100 F  
HETATM   24  C   UNL     1      -6.568  10.050  64.167  1.00  0.00    -0.130 C  
HETATM   25  C   UNL     1      -6.225   8.593  64.370  1.00  0.00    -0.067 C  
ENDROOT
BRANCH   5  26
HETATM   26  C   UNL     1     -11.564  10.928  70.471  1.00  0.00    -0.300 C  
HETATM   27  O   UNL     1     -12.606  11.435  70.897  1.00  0.00    -0.367 OA 
BRANCH  26  28
HETATM   28  C   UNL     1     -11.099   9.640  71.160  1.00  0.00    -0.374 C  
HETATM   29  O   UNL     1     -10.048   9.020  70.421  1.00  0.00    -0.185 OA 
HETATM   30  H   UNL     1      -9.760   8.222  70.848  1.00  0.00     0.000 HD 
ENDBRANCH  26  28
ENDBRANCH   5  26
TORSDOF 2
ENDMDL
MODEL       66
REMARK 921   NORMALIZED FREE ENERGY PREDICTED BY IDOCK:   -4.18 KCAL/MOL
REMARK 922        TOTAL FREE ENERGY PREDICTED BY IDOCK:   -3.99 KCAL/MOL
REMARK 923 INTER-LIGAND FREE ENERGY PREDICTED BY IDOCK:   -4.62 KCAL/MOL
REMARK 924 INTRA-LIGAND FREE ENERGY PREDICTED BY IDOCK:    0.63 KCAL/MOL
REMARK 927      BINDING AFFINITY PREDICTED BY RF-SCORE:    0.00 PKD
ROOT
HETATM    1  C   UNL     1      -8.153  10.245  69.334  1.00  0.00    -0.167 C  
HETATM    2  C   UNL     1      -7.059  10.545  68.493  1.00  0.00    -0.075 C  
HETATM    3  C   UNL     1      -8.297  10.245  67.678  1.00  0.00    -0.114 C  
HETATM    4  C   UNL     1      -7.903  10.918  66.199  1.00  0.00    -0.144 C  
HETATM    5  C   UNL     1     -10.022  10.138  68.788  1.00  0.00    -0.187 C  
HETATM    6  C   UNL     1      -9.369  11.143  68.158  1.00  0.00    -0.176 C  
HETATM    7  O   UNL     1      -7.475   2.256  69.517  1.00  0.00    -0.043 OA 
HETATM    8  C   UNL     1      -8.567   5.411  66.511  1.00  0.00    -0.116 C  
HETATM    9  C   UNL     1      -9.268   3.785  69.075  1.00  0.00    -0.221 C  
HETATM   10  C   UNL     1     -10.268  10.014  66.861  1.00  0.00    -0.299 C  
HETATM   11  C   UNL     1      -9.364  12.659  68.255  1.00  0.00    -0.195 C  
HETATM   12  C   UNL     1     -10.023   8.246  67.161  1.00  0.00    -0.239 C  
HETATM   13  C   UNL     1      -8.607   5.943  68.012  1.00  0.00    -0.113 C  
HETATM   14  C   UNL     1      -8.640   7.559  67.947  1.00  0.00    -0.121 C  
HETATM   15  O   UNL     1     -11.198   7.800  67.879  1.00  0.00    -0.404 OA 
HETATM   16  C   UNL     1      -9.657   5.001  68.610  1.00  0.00    -0.204 C  
HETATM   17  H   UNL     1     -11.070   6.872  68.037  1.00  0.00     0.000 HD 
HETATM   18  C   UNL     1      -8.322   8.402  69.385  1.00  0.00    -0.120 C  
HETATM   19 CL   UNL     1      -6.936   7.727  66.805  1.00  0.00    -0.071 Cl 
HETATM   20  C   UNL     1      -7.149   7.774  70.148  1.00  0.00    -0.054 C  
HETATM   21  C   UNL     1      -7.262   6.254  70.214  1.00  0.00    -0.083 C  
HETATM   22  C   UNL     1      -7.335   5.599  68.841  1.00  0.00    -0.082 C  
HETATM   23  F   UNL     1      -6.182   5.797  70.909  1.00  0.00    -0.029 F  
HETATM   24  C   UNL     1      -6.788   4.378  68.677  1.00  0.00    -0.051 C  
HETATM   25  C   UNL     1      -7.812   3.372  69.149  1.00  0.00    -0.050 C  
ENDROOT
BRANCH   5  26
HETATM   26  C   UNL     1     -11.471  10.971  68.927  1.00  0.00    -0.296 C  
HETATM   27  O   UNL     1     -12.260  11.265  68.024  1.00  0.00    -0.621 OA 
BRANCH  26  28
HETATM   28  C   UNL     1     -11.878  11.379  70.348  1.00  0.00    -0.335 C  
HETATM   29  O   UNL     1     -12.730  12.523  70.323  1.00  0.00    -0.002 OA 
HETATM   30  H   UNL     1     -12.983  12.776  71.203  1.00  0.00     0.000 HD 
ENDBRANCH  26  28
ENDBRANCH   5  26
TORSDOF 2
ENDMDL
MODEL       67
REMARK 921   NORMALIZED FREE ENERGY PREDICTED BY IDOCK:   -4.09 KCAL/MOL
REMARK 922        TOTAL FREE ENERGY PREDICTED BY IDOCK:   -3.89 KCAL/MOL
REMARK 923 INTER-LIGAND FREE ENERGY PREDICTED BY IDOCK:   -4.53 KCAL/MOL
REMARK 924 INTRA-LIGAND FREE ENERGY PREDICTED BY IDOCK:    0.64 KCAL/MOL
REMARK 927      BINDING AFFINITY PREDICTED BY RF-SCORE:    0.00 PKD
ROOT
HETATM    1  C   UNL     1      -8.749  10.452  65.526  1.00  0.00    -0.190 C  
HETATM    2  C   UNL     1     -10.148  10.384  65.349  1.00  0.00    -0.354 C  
HETATM    3  C   UNL     1      -9.793  10.422  66.819  1.00  0.00    -0.242 C  
HETATM    4  C   UNL     1     -11.244  10.885  67.509  1.00  0.00    -0.364 C  
HETATM    5  C   UNL     1      -7.823  10.869  67.190  1.00  0.00    -0.127 C  
HETATM    6  C   UNL     1      -8.944  11.612  67.038  1.00  0.00    -0.182 C  
HETATM    7  O   UNL     1      -7.174   2.627  66.301  1.00  0.00    -0.062 OA 
HETATM    8  C   UNL     1      -9.257   5.828  68.666  1.00  0.00    -0.125 C  
HETATM    9  C   UNL     1      -6.619   4.590  67.561  1.00  0.00    -0.047 C  
HETATM   10  C   UNL     1      -8.955  10.737  68.769  1.00  0.00    -0.171 C  
HETATM   11  C   UNL     1      -9.244  13.064  66.705  1.00  0.00    -0.229 C  
HETATM   12  C   UNL     1      -8.492   8.989  68.689  1.00  0.00    -0.128 C  
HETATM   13  C   UNL     1      -8.321   6.414  67.518  1.00  0.00    -0.117 C  
HETATM   14  C   UNL     1      -8.730   7.966  67.312  1.00  0.00    -0.131 C  
HETATM   15  O   UNL     1      -7.087   8.936  69.034  1.00  0.00    -0.062 OA 
HETATM   16  C   UNL     1      -6.966   5.845  67.950  1.00  0.00    -0.065 C  
HETATM   17  H   UNL     1      -6.844   8.019  68.992  1.00  0.00     0.000 HD 
HETATM   18  C   UNL     1      -8.158   8.742  65.916  1.00  0.00    -0.110 C  
HETATM   19 CL   UNL     1     -10.723   7.580  66.967  1.00  0.00    -0.422 Cl 
HETATM   20  C   UNL     1      -8.282   7.834  64.686  1.00  0.00    -0.080 C  
HETATM   21  C   UNL     1      -7.796   6.417  64.973  1.00  0.00    -0.112 C  
HETATM   22  C   UNL     1      -8.536   5.752  66.126  1.00  0.00    -0.130 C  
HETATM   23  F   UNL     1      -7.944   5.697  63.825  1.00  0.00    -0.093 F  
HETATM   24  C   UNL     1      -8.731   4.419  66.087  1.00  0.00    -0.113 C  
HETATM   25  C   UNL     1      -7.464   3.776  66.602  1.00  0.00    -0.080 C  
ENDROOT
BRANCH   5  26
HETATM   26  C   UNL     1      -6.937  12.093  67.918  1.00  0.00    -0.099 C  
HETATM   27  O   UNL     1      -7.255  12.771  68.900  1.00  0.00    -0.097 OA 
BRANCH  26  28
HETATM   28  C   UNL     1      -5.555  12.371  67.316  1.00  0.00    -0.099 C  
HETATM   29  O   UNL     1      -5.423  11.749  66.039  1.00  0.00    -0.501 OA 
HETATM   30  H   UNL     1      -4.567  11.922  65.665  1.00  0.00     0.000 HD 
ENDBRANCH  26  28
ENDBRANCH   5  26
TORSDOF 2
ENDMDL
MODEL       68
REMARK 921   NORMALIZED FREE ENERGY PREDICTED BY IDOCK:   -4.06 KCAL/MOL
REMARK 922        TOTAL FREE ENERGY PREDICTED BY IDOCK:   -3.86 KCAL/MOL
REMARK 923 INTER-LIGAND FREE ENERGY PREDICTED BY IDOCK:   -4.80 KCAL/MOL
REMARK 924 INTRA-LIGAND FREE ENERGY PREDICTED BY IDOCK:    0.94 KCAL/MOL
REMARK 927      BINDING AFFINITY PREDICTED BY RF-SCORE:    0.00 PKD
ROOT
HETATM    1  C   UNL     1      -8.952   8.041  65.399  1.00  0.00     0.013 C  
HETATM    2  C   UNL     1      -7.914   8.991  65.517  1.00  0.00    -0.106 C  
HETATM    3  C   UNL     1      -7.430   7.613  65.911  1.00  0.00    -0.082 C  
HETATM    4  C   UNL     1      -5.770   7.790  65.797  1.00  0.00    -0.037 C  
HETATM    5  C   UNL     1      -8.743   6.103  65.451  1.00  0.00    -0.071 C  
HETATM    6  C   UNL     1      -7.727   6.702  64.786  1.00  0.00    -0.111 C  
HETATM    7  O   UNL     1     -11.698   8.207  72.933  1.00  0.00    -0.373 OA 
HETATM    8  C   UNL     1      -7.996   6.825  70.795  1.00  0.00    -0.110 C  
HETATM    9  C   UNL     1     -11.027   6.470  71.422  1.00  0.00    -0.303 C  
HETATM   10  C   UNL     1      -7.022   5.520  66.153  1.00  0.00    -0.063 C  
HETATM   11  C   UNL     1      -7.310   6.825  63.329  1.00  0.00    -0.076 C  
HETATM   12  C   UNL     1      -7.859   5.695  67.749  1.00  0.00    -0.097 C  
HETATM   13  C   UNL     1      -9.222   7.080  69.811  1.00  0.00    -0.147 C  
HETATM   14  C   UNL     1      -8.626   7.144  68.309  1.00  0.00    -0.122 C  
HETATM   15  O   UNL     1      -8.842   4.634  67.798  1.00  0.00    -0.103 OA 
HETATM   16  C   UNL     1     -10.242   6.089  70.381  1.00  0.00    -0.261 C  
HETATM   17  H   UNL     1      -9.282   4.725  68.635  1.00  0.00     0.000 HD 
HETATM   18  C   UNL     1      -9.639   7.761  67.095  1.00  0.00    -0.220 C  
HETATM   19 CL   UNL     1      -7.265   8.633  68.720  1.00  0.00    -0.074 Cl 
HETATM   20  C   UNL     1     -10.395   9.004  67.584  1.00  0.00    -0.317 C  
HETATM   21  C   UNL     1     -10.980   8.803  68.978  1.00  0.00     0.074 C  
HETATM   22  C   UNL     1      -9.930   8.450  70.023  1.00  0.00    -0.188 C  
HETATM   23  F   UNL     1     -11.629   9.953  69.315  1.00  0.00    -0.204 F  
HETATM   24  C   UNL     1     -10.108   8.878  71.289  1.00  0.00    -0.365 C  
HETATM   25  C   UNL     1     -11.029   7.886  71.961  1.00  0.00    -0.274 C  
ENDROOT
BRANCH   5  26
HETATM   26  C   UNL     1      -8.798   4.758  64.449  1.00  0.00    -0.142 C  
HETATM   27  O   UNL     1      -7.930   4.371  63.661  1.00  0.00    -0.084 OA 
BRANCH  26  28
HETATM   28  C   UNL     1     -10.057   3.890  64.558  1.00  0.00    -0.218 C  
HETATM   29  O   UNL     1     -11.199   4.689  64.863  1.00  0.00    -0.742 OA 
HETATM   30  H   UNL     1     -11.980   4.152  64.930  1.00  0.00     0.000 HD 
ENDBRANCH  26  28
ENDBRANCH   5  26
TORSDOF 2
ENDMDL
MODEL       69
REMARK 921   NORMALIZED FREE ENERGY PREDICTED BY IDOCK:   -3.82 KCAL/MOL
REMARK 922        TOTAL FREE ENERGY PREDICTED BY IDOCK:   -3.59 KCAL/MOL
REMARK 923 INTER-LIGAND FREE ENERGY PREDICTED BY IDOCK:   -4.27 KCAL/MOL
REMARK 924 INTRA-LIGAND FREE ENERGY PREDICTED BY IDOCK:    0.68 KCAL/MOL
REMARK 927      BINDING AFFINITY PREDICTED BY RF-SCORE:    0.00 PKD
ROOT
HETATM    1  C   UNL     1      -9.370  11.936  65.245  1.00  0.00    -0.011 C  
HETATM    2  C   UNL     1     -10.718  11.634  64.956  1.00  0.00    -0.351 C  
HETATM    3  C   UNL     1     -10.554  12.031  66.406  1.00  0.00    -0.278 C  
HETATM    4  C   UNL     1     -12.124  12.419  66.833  1.00  0.00    -0.097 C  
HETATM    5  C   UNL     1      -8.712  12.821  66.853  1.00  0.00    -0.169 C  
HETATM    6  C   UNL     1      -9.885  13.348  66.431  1.00  0.00    -0.299 C  
HETATM    7  O   UNL     1      -6.996   4.753  67.910  1.00  0.00    -0.058 OA 
HETATM    8  C   UNL     1      -9.717   8.054  69.284  1.00  0.00    -0.167 C  
HETATM    9  C   UNL     1      -6.836   6.996  68.742  1.00  0.00    -0.076 C  
HETATM   10  C   UNL     1     -10.008  12.866  68.306  1.00  0.00    -0.234 C  
HETATM   11  C   UNL     1     -10.309  14.640  65.753  1.00  0.00    -0.349 C  
HETATM   12  C   UNL     1      -9.336  11.224  68.667  1.00  0.00    -0.164 C  
HETATM   13  C   UNL     1      -8.721   8.511  68.128  1.00  0.00    -0.142 C  
HETATM   14  C   UNL     1      -9.281   9.910  67.539  1.00  0.00    -0.148 C  
HETATM   15  O   UNL     1      -7.989  11.444  69.147  1.00  0.00    -0.324 OA 
HETATM   16  C   UNL     1      -7.373   8.243  68.804  1.00  0.00    -0.088 C  
HETATM   17  H   UNL     1      -7.636  10.583  69.336  1.00  0.00     0.000 HD 
HETATM   18  C   UNL     1      -8.635  10.448  66.065  1.00  0.00    -0.158 C  
HETATM   19 CL   UNL     1     -11.156   9.182  67.102  1.00  0.00     0.087 Cl 
HETATM   20  C   UNL     1      -8.499   9.292  65.065  1.00  0.00    -0.178 C  
HETATM   21  C   UNL     1      -7.888   8.051  65.709  1.00  0.00    -0.097 C  
HETATM   22  C   UNL     1      -8.683   7.546  66.907  1.00  0.00    -0.131 C  
HETATM   23  F   UNL     1      -7.808   7.091  64.744  1.00  0.00    -0.098 F  
HETATM   24  C   UNL     1      -8.714   6.221  67.150  1.00  0.00    -0.109 C  
HETATM   25  C   UNL     1      -7.454   5.887  67.915  1.00  0.00    -0.081 C  
ENDROOT
BRANCH   5  26
HETATM   26  C   UNL     1      -8.072  14.283  67.368  1.00  0.00    -0.196 C  
HETATM   27  O   UNL     1      -8.690  15.302  67.693  1.00  0.00    -0.164 OA 
BRANCH  26  28
HETATM   28  C   UNL     1      -6.545  14.345  67.486  1.00  0.00    -0.076 C  
HETATM   29  O   UNL     1      -6.011  13.066  67.825  1.00  0.00    -0.118 OA 
HETATM   30  H   UNL     1      -5.064  13.104  67.898  1.00  0.00     0.000 HD 
ENDBRANCH  26  28
ENDBRANCH   5  26
TORSDOF 2
ENDMDL
MODEL       70
REMARK 921   NORMALIZED FREE ENERGY PREDICTED BY IDOCK:   -3.80 KCAL/MOL
REMARK 922        TOTAL FREE ENERGY PREDICTED BY IDOCK:   -3.56 KCAL/MOL
REMARK 923 INTER-LIGAND FREE ENERGY PREDICTED BY IDOCK:   -4.27 KCAL/MOL
REMARK 924 INTRA-LIGAND FREE ENERGY PREDICTED BY IDOCK:    0.71 KCAL/MOL
REMARK 927      BINDING AFFINITY PREDICTED BY RF-SCORE:    0.00 PKD
ROOT
HETATM    1  C   UNL     1     -10.318   6.342  68.031  1.00  0.00    -0.236 C  
HETATM    2  C   UNL     1     -10.600   6.016  66.686  1.00  0.00    -0.312 C  
HETATM    3  C   UNL     1      -9.112   5.974  66.949  1.00  0.00    -0.126 C  
HETATM    4  C   UNL     1      -8.564   5.061  65.659  1.00  0.00    -0.135 C  
HETATM    5  C   UNL     1      -8.610   6.088  68.937  1.00  0.00    -0.116 C  
HETATM    6  C   UNL     1      -8.891   5.066  68.094  1.00  0.00    -0.110 C  
HETATM    7  O   UNL     1      -9.002  14.209  67.193  1.00  0.00    -0.205 OA 
HETATM    8  C   UNL     1      -6.983  10.375  66.002  1.00  0.00    -0.129 C  
HETATM    9  C   UNL     1      -7.809  12.401  68.222  1.00  0.00    -0.150 C  
HETATM   10  C   UNL     1      -7.121   5.769  67.723  1.00  0.00    -0.071 C  
HETATM   11  C   UNL     1      -9.323   3.618  68.254  1.00  0.00    -0.228 C  
HETATM   12  C   UNL     1      -7.070   7.578  67.658  1.00  0.00    -0.085 C  
HETATM   13  C   UNL     1      -8.084  10.172  67.136  1.00  0.00    -0.120 C  
HETATM   14  C   UNL     1      -8.405   8.588  67.213  1.00  0.00    -0.115 C  
HETATM   15  O   UNL     1      -6.613   8.008  68.962  1.00  0.00    -0.046 OA 
HETATM   16  C   UNL     1      -7.516  11.074  68.235  1.00  0.00    -0.092 C  
HETATM   17  H   UNL     1      -6.586   8.957  68.928  1.00  0.00     0.000 HD 
HETATM   18  C   UNL     1      -9.791   8.116  68.070  1.00  0.00    -0.200 C  
HETATM   19 CL   UNL     1      -8.885   8.406  65.219  1.00  0.00    -0.160 Cl 
HETATM   20  C   UNL     1     -10.976   9.039  67.759  1.00  0.00    -0.004 C  
HETATM   21  C   UNL     1     -10.576  10.510  67.790  1.00  0.00    -0.243 C  
HETATM   22  C   UNL     1      -9.451  10.846  66.820  1.00  0.00    -0.200 C  
HETATM   23  F   UNL     1     -11.692  11.240  67.506  1.00  0.00    -0.347 F  
HETATM   24  C   UNL     1      -9.434  12.065  66.245  1.00  0.00    -0.237 C  
HETATM   25  C   UNL     1      -8.786  13.006  67.234  1.00  0.00    -0.208 C  
ENDROOT
BRANCH   5  26
HETATM   26  C   UNL     1      -7.881   5.122  70.098  1.00  0.00    -0.078 C  
HETATM   27  O   UNL     1      -7.040   4.235  69.919  1.00  0.00    -0.041 OA 
BRANCH  26  28
HETATM   28  C   UNL     1      -8.277   5.403  71.552  1.00  0.00    -0.118 C  
HETATM   29  O   UNL     1      -9.694   5.506  71.681  1.00  0.00    -0.156 OA 
HETATM   30  H   UNL     1      -9.940   5.680  72.582  1.00  0.00     0.000 HD 
ENDBRANCH  26  28
ENDBRANCH   5  26
TORSDOF 2
ENDMDL
MODEL       71
REMARK 921   NORMALIZED FREE ENERGY PREDICTED BY IDOCK:   -3.75 KCAL/MOL
REMARK 922        TOTAL FREE ENERGY PREDICTED BY IDOCK:   -3.51 KCAL/MOL
REMARK 923 INTER-LIGAND FREE ENERGY PREDICTED BY IDOCK:   -4.18 KCAL/MOL
REMARK 924 INTRA-LIGAND FREE ENERGY PREDICTED BY IDOCK:    0.67 KCAL/MOL
REMARK 927      BINDING AFFINITY PREDICTED BY RF-SCORE:    0.00 PKD
ROOT
HETATM    1  C   UNL     1      -7.971   7.043  67.665  1.00  0.00    -0.114 C  
HETATM    2  C   UNL     1      -8.697   6.072  66.942  1.00  0.00    -0.112 C  
HETATM    3  C   UNL     1      -9.613   6.865  67.848  1.00  0.00    -0.126 C  
HETATM    4  C   UNL     1     -11.111   6.556  67.172  1.00  0.00    -0.434 C  
HETATM    5  C   UNL     1      -8.732   8.523  68.682  1.00  0.00    -0.139 C  
HETATM    6  C   UNL     1      -9.414   8.295  67.534  1.00  0.00    -0.182 C  
HETATM    7  O   UNL     1      -6.529   2.850  74.348  1.00  0.00    -0.023 OA 
HETATM    8  C   UNL     1     -10.082   4.685  72.301  1.00  0.00    -0.250 C  
HETATM    9  C   UNL     1      -7.420   5.027  73.885  1.00  0.00    -0.087 C  
HETATM   10  C   UNL     1     -10.637   8.326  69.040  1.00  0.00    -0.167 C  
HETATM   11  C   UNL     1      -9.540   8.999  66.193  1.00  0.00    -0.341 C  
HETATM   12  C   UNL     1     -10.050   7.363  70.456  1.00  0.00    -0.191 C  
HETATM   13  C   UNL     1      -8.694   5.238  71.749  1.00  0.00    -0.139 C  
HETATM   14  C   UNL     1      -8.999   5.991  70.350  1.00  0.00    -0.153 C  
HETATM   15  O   UNL     1      -9.434   8.316  71.354  1.00  0.00    -0.153 OA 
HETATM   16  C   UNL     1      -8.106   5.833  73.033  1.00  0.00    -0.118 C  
HETATM   17  H   UNL     1      -9.126   7.812  72.097  1.00  0.00     0.000 HD 
HETATM   18  C   UNL     1      -7.672   6.361  69.360  1.00  0.00    -0.101 C  
HETATM   19 CL   UNL     1      -9.922   4.372  69.475  1.00  0.00    -0.255 Cl 
HETATM   20  C   UNL     1      -6.679   5.192  69.305  1.00  0.00    -0.052 C  
HETATM   21  C   UNL     1      -6.405   4.611  70.688  1.00  0.00    -0.026 C  
HETATM   22  C   UNL     1      -7.665   4.125  71.393  1.00  0.00    -0.065 C  
HETATM   23  F   UNL     1      -5.516   3.590  70.531  1.00  0.00    -0.010 F  
HETATM   24  C   UNL     1      -7.576   3.063  72.218  1.00  0.00    -0.053 C  
HETATM   25  C   UNL     1      -7.098   3.584  73.553  1.00  0.00    -0.050 C  
ENDROOT
BRANCH   5  26
HETATM   26  C   UNL     1      -8.907  10.190  68.626  1.00  0.00    -0.136 C  
HETATM   27  O   UNL     1      -9.884  10.831  68.227  1.00  0.00    -0.157 OA 
BRANCH  26  28
HETATM   28  C   UNL     1      -7.730  11.007  69.171  1.00  0.00    -0.102 C  
HETATM   29  O   UNL     1      -7.297  10.495  70.431  1.00  0.00    -0.451 OA 
HETATM   30  H   UNL     1      -6.568  11.002  70.769  1.00  0.00     0.000 HD 
ENDBRANCH  26  28
ENDBRANCH   5  26
TORSDOF 2
ENDMDL
MODEL       72
REMARK 921   NORMALIZED FREE ENERGY PREDICTED BY IDOCK:   -3.73 KCAL/MOL
REMARK 922        TOTAL FREE ENERGY PREDICTED BY IDOCK:   -3.48 KCAL/MOL
REMARK 923 INTER-LIGAND FREE ENERGY PREDICTED BY IDOCK:   -4.10 KCAL/MOL
REMARK 924 INTRA-LIGAND FREE ENERGY PREDICTED BY IDOCK:    0.62 KCAL/MOL
REMARK 927      BINDING AFFINITY PREDICTED BY RF-SCORE:    0.00 PKD
ROOT
HETATM    1  C   UNL     1      -9.779  10.409  68.001  1.00  0.00    -0.166 C  
HETATM    2  C   UNL     1      -9.411  11.115  69.166  1.00  0.00     0.019 C  
HETATM    3  C   UNL     1      -8.187  10.637  68.417  1.00  0.00    -0.125 C  
HETATM    4  C   UNL     1      -6.992  11.618  69.055  1.00  0.00    -0.111 C  
HETATM    5  C   UNL     1      -8.589   9.905  66.541  1.00  0.00    -0.131 C  
HETATM    6  C   UNL     1      -8.296  11.133  67.029  1.00  0.00    -0.144 C  
HETATM    7  O   UNL     1      -9.737   2.953  70.958  1.00  0.00    -0.157 OA 
HETATM    8  C   UNL     1      -6.726   6.154  70.019  1.00  0.00    -0.056 C  
HETATM    9  C   UNL     1      -8.764   4.010  69.038  1.00  0.00    -0.130 C  
HETATM   10  C   UNL     1      -6.699  10.032  66.994  1.00  0.00    -0.078 C  
HETATM   11  C   UNL     1      -8.476  12.562  66.544  1.00  0.00     0.081 C  
HETATM   12  C   UNL     1      -6.966   8.365  67.647  1.00  0.00    -0.075 C  
HETATM   13  C   UNL     1      -8.138   6.408  69.328  1.00  0.00    -0.111 C  
HETATM   14  C   UNL     1      -8.158   7.948  68.832  1.00  0.00    -0.125 C  
HETATM   15  O   UNL     1      -7.182   7.518  66.494  1.00  0.00    -0.072 OA 
HETATM   16  C   UNL     1      -8.260   5.141  68.477  1.00  0.00    -0.089 C  
HETATM   17  H   UNL     1      -7.323   6.644  66.836  1.00  0.00     0.000 HD 
HETATM   18  C   UNL     1      -9.660   8.603  68.389  1.00  0.00    -0.157 C  
HETATM   19 CL   UNL     1      -7.723   8.737  70.683  1.00  0.00    -0.081 Cl 
HETATM   20  C   UNL     1     -10.758   8.189  69.377  1.00  0.00    -0.164 C  
HETATM   21  C   UNL     1     -10.692   6.702  69.712  1.00  0.00    -0.257 C  
HETATM   22  C   UNL     1      -9.350   6.280  70.297  1.00  0.00    -0.170 C  
HETATM   23  F   UNL     1     -11.703   6.438  70.587  1.00  0.00    -0.383 F  
HETATM   24  C   UNL     1      -9.325   5.288  71.209  1.00  0.00    -0.187 C  
HETATM   25  C   UNL     1      -9.337   3.987  70.440  1.00  0.00    -0.160 C  
ENDROOT
BRANCH   5  26
HETATM   26  C   UNL     1      -8.241  10.296  64.948  1.00  0.00    -0.157 C  
HETATM   27  O   UNL     1      -7.129  10.381  64.419  1.00  0.00    -0.101 OA 
BRANCH  26  28
HETATM   28  C   UNL     1      -9.450  10.537  64.036  1.00  0.00    -0.289 C  
HETATM   29  O   UNL     1      -9.216  11.644  63.165  1.00  0.00    -0.524 OA 
HETATM   30  H   UNL     1      -9.965  11.793  62.600  1.00  0.00     0.000 HD 
ENDBRANCH  26  28
ENDBRANCH   5  26
TORSDOF 2
ENDMDL
MODEL       73
REMARK 921   NORMALIZED FREE ENERGY PREDICTED BY IDOCK:   -3.70 KCAL/MOL
REMARK 922        TOTAL FREE ENERGY PREDICTED BY IDOCK:   -3.45 KCAL/MOL
REMARK 923 INTER-LIGAND FREE ENERGY PREDICTED BY IDOCK:   -4.70 KCAL/MOL
REMARK 924 INTRA-LIGAND FREE ENERGY PREDICTED BY IDOCK:    1.25 KCAL/MOL
REMARK 927      BINDING AFFINITY PREDICTED BY RF-SCORE:    0.00 PKD
ROOT
HETATM    1  C   UNL     1      -8.586   5.570  67.187  1.00  0.00    -0.109 C  
HETATM    2  C   UNL     1      -7.362   6.241  66.977  1.00  0.00    -0.083 C  
HETATM    3  C   UNL     1      -7.385   5.579  68.336  1.00  0.00    -0.076 C  
HETATM    4  C   UNL     1      -5.758   5.527  68.718  1.00  0.00    -0.015 C  
HETATM    5  C   UNL     1      -8.962   4.292  68.611  1.00  0.00    -0.156 C  
HETATM    6  C   UNL     1      -7.706   4.151  68.126  1.00  0.00    -0.071 C  
HETATM    7  O   UNL     1     -12.598  11.383  70.986  1.00  0.00    -0.389 OA 
HETATM    8  C   UNL     1      -9.110   8.681  71.830  1.00  0.00    -0.317 C  
HETATM    9  C   UNL     1     -12.176   9.064  71.424  1.00  0.00    -0.387 C  
HETATM   10  C   UNL     1      -7.659   4.327  70.058  1.00  0.00    -0.049 C  
HETATM   11  C   UNL     1      -6.992   3.138  67.247  1.00  0.00    -0.053 C  
HETATM   12  C   UNL     1      -8.707   5.666  70.679  1.00  0.00    -0.134 C  
HETATM   13  C   UNL     1      -9.990   8.191  70.596  1.00  0.00    -0.204 C  
HETATM   14  C   UNL     1      -9.116   7.094  69.789  1.00  0.00    -0.141 C  
HETATM   15  O   UNL     1      -9.945   5.040  71.091  1.00  0.00    -0.186 OA 
HETATM   16  C   UNL     1     -11.344   7.998  71.284  1.00  0.00    -0.295 C  
HETATM   17  H   UNL     1     -10.496   5.742  71.417  1.00  0.00     0.000 HD 
HETATM   18  C   UNL     1      -9.646   6.668  68.234  1.00  0.00    -0.125 C  
HETATM   19 CL   UNL     1      -7.491   8.328  69.513  1.00  0.00    -0.084 Cl 
HETATM   20  C   UNL     1     -10.090   7.905  67.442  1.00  0.00    -0.292 C  
HETATM   21  C   UNL     1     -10.972   8.829  68.275  1.00  0.00     0.156 C  
HETATM   22  C   UNL     1     -10.297   9.307  69.555  1.00  0.00    -0.223 C  
HETATM   23  F   UNL     1     -11.312   9.887  67.486  1.00  0.00    -0.335 F  
HETATM   24  C   UNL     1     -10.590  10.538  70.019  1.00  0.00    -0.223 C  
HETATM   25  C   UNL     1     -11.873  10.415  70.808  1.00  0.00    -0.368 C  
ENDROOT
BRANCH   5  26
HETATM   26  C   UNL     1      -9.206   2.651  68.860  1.00  0.00    -0.160 C  
HETATM   27  O   UNL     1      -9.660   1.828  68.060  1.00  0.00    -0.180 OA 
BRANCH  26  28
HETATM   28  C   UNL     1      -8.776   2.108  70.228  1.00  0.00    -0.064 C  
HETATM   29  O   UNL     1      -9.882   2.069  71.129  1.00  0.00    -0.136 OA 
HETATM   30  H   UNL     1      -9.615   1.732  71.976  1.00  0.00     0.000 HD 
ENDBRANCH  26  28
ENDBRANCH   5  26
TORSDOF 2
ENDMDL
MODEL       74
REMARK 921   NORMALIZED FREE ENERGY PREDICTED BY IDOCK:   -3.62 KCAL/MOL
REMARK 922        TOTAL FREE ENERGY PREDICTED BY IDOCK:   -3.37 KCAL/MOL
REMARK 923 INTER-LIGAND FREE ENERGY PREDICTED BY IDOCK:   -4.35 KCAL/MOL
REMARK 924 INTRA-LIGAND FREE ENERGY PREDICTED BY IDOCK:    0.98 KCAL/MOL
REMARK 927      BINDING AFFINITY PREDICTED BY RF-SCORE:    0.00 PKD
ROOT
HETATM    1  C   UNL     1     -10.407   9.140  66.508  1.00  0.00    -0.269 C  
HETATM    2  C   UNL     1     -10.953  10.297  67.106  1.00  0.00    -0.233 C  
HETATM    3  C   UNL     1      -9.527  10.540  66.667  1.00  0.00    -0.199 C  
HETATM    4  C   UNL     1      -9.461  12.211  66.634  1.00  0.00    -0.226 C  
HETATM    5  C   UNL     1      -8.752   9.053  65.481  1.00  0.00    -0.212 C  
HETATM    6  C   UNL     1      -9.441  10.192  65.233  1.00  0.00    -0.306 C  
HETATM    7  O   UNL     1      -6.887   5.910  72.950  1.00  0.00    -0.072 OA 
HETATM    8  C   UNL     1      -6.308   9.509  70.324  1.00  0.00    -0.066 C  
HETATM    9  C   UNL     1      -6.173   6.421  70.719  1.00  0.00    -0.039 C  
HETATM   10  C   UNL     1      -7.607  10.611  65.710  1.00  0.00    -0.120 C  
HETATM   11  C   UNL     1     -10.267  10.727  64.076  1.00  0.00    -0.390 C  
HETATM   12  C   UNL     1      -7.018   9.696  67.157  1.00  0.00    -0.085 C  
HETATM   13  C   UNL     1      -7.256   8.409  69.670  1.00  0.00    -0.057 C  
HETATM   14  C   UNL     1      -8.030   9.116  68.437  1.00  0.00    -0.103 C  
HETATM   15  O   UNL     1      -6.281   8.565  66.636  1.00  0.00    -0.056 OA 
HETATM   16  C   UNL     1      -6.299   7.214  69.623  1.00  0.00    -0.035 C  
HETATM   17  H   UNL     1      -5.972   8.084  67.394  1.00  0.00     0.000 HD 
HETATM   18  C   UNL     1      -9.365   8.297  67.786  1.00  0.00    -0.153 C  
HETATM   19 CL   UNL     1      -8.805  10.650  69.570  1.00  0.00    -0.057 Cl 
HETATM   20  C   UNL     1     -10.245   7.702  68.893  1.00  0.00    -0.217 C  
HETATM   21  C   UNL     1      -9.416   6.993  69.959  1.00  0.00    -0.161 C  
HETATM   22  C   UNL     1      -8.383   7.900  70.615  1.00  0.00    -0.123 C  
HETATM   23  F   UNL     1     -10.284   6.501  70.888  1.00  0.00    -0.198 F  
HETATM   24  C   UNL     1      -8.073   7.697  71.912  1.00  0.00    -0.112 C  
HETATM   25  C   UNL     1      -7.044   6.592  71.947  1.00  0.00    -0.081 C  
ENDROOT
BRANCH   5  26
HETATM   26  C   UNL     1      -8.203   8.870  63.907  1.00  0.00    -0.171 C  
HETATM   27  O   UNL     1      -8.073   9.748  63.048  1.00  0.00    -0.131 OA 
BRANCH  26  28
HETATM   28  C   UNL     1      -7.775   7.454  63.504  1.00  0.00    -0.125 C  
HETATM   29  O   UNL     1      -8.609   6.949  62.463  1.00  0.00    -0.351 OA 
HETATM   30  H   UNL     1      -8.344   6.071  62.213  1.00  0.00     0.000 HD 
ENDBRANCH  26  28
ENDBRANCH   5  26
TORSDOF 2
ENDMDL
MODEL       75
REMARK 921   NORMALIZED FREE ENERGY PREDICTED BY IDOCK:   -3.59 KCAL/MOL
REMARK 922        TOTAL FREE ENERGY PREDICTED BY IDOCK:   -3.33 KCAL/MOL
REMARK 923 INTER-LIGAND FREE ENERGY PREDICTED BY IDOCK:   -3.93 KCAL/MOL
REMARK 924 INTRA-LIGAND FREE ENERGY PREDICTED BY IDOCK:    0.59 KCAL/MOL
REMARK 927      BINDING AFFINITY PREDICTED BY RF-SCORE:    0.00 PKD
ROOT
HETATM    1  C   UNL     1      -8.560   9.702  66.155  1.00  0.00    -0.138 C  
HETATM    2  C   UNL     1      -9.888   9.476  65.733  1.00  0.00    -0.363 C  
HETATM    3  C   UNL     1      -9.861  10.213  67.053  1.00  0.00    -0.238 C  
HETATM    4  C   UNL     1     -11.403  10.857  67.116  1.00  0.00    -0.168 C  
HETATM    5  C   UNL     1      -8.001  10.899  67.590  1.00  0.00    -0.114 C  
HETATM    6  C   UNL     1      -9.024  11.417  66.870  1.00  0.00    -0.171 C  
HETATM    7  O   UNL     1      -7.579   3.241  70.804  1.00  0.00    -0.040 OA 
HETATM    8  C   UNL     1      -9.969   7.045  70.893  1.00  0.00    -0.200 C  
HETATM    9  C   UNL     1      -7.218   5.594  71.092  1.00  0.00    -0.076 C  
HETATM   10  C   UNL     1      -9.456  11.448  68.761  1.00  0.00    -0.128 C  
HETATM   11  C   UNL     1      -9.171  12.528  65.844  1.00  0.00     0.044 C  
HETATM   12  C   UNL     1      -9.073   9.894  69.607  1.00  0.00    -0.227 C  
HETATM   13  C   UNL     1      -8.777   7.085  69.838  1.00  0.00    -0.142 C  
HETATM   14  C   UNL     1      -9.055   8.336  68.850  1.00  0.00    -0.147 C  
HETATM   15  O   UNL     1      -7.783  10.091  70.231  1.00  0.00    -0.189 OA 
HETATM   16  C   UNL     1      -7.580   6.863  70.767  1.00  0.00    -0.091 C  
HETATM   17  H   UNL     1      -7.581   9.276  70.675  1.00  0.00     0.000 HD 
HETATM   18  C   UNL     1      -8.153   8.408  67.414  1.00  0.00    -0.106 C  
HETATM   19 CL   UNL     1     -10.940   7.716  68.302  1.00  0.00    -0.008 Cl 
HETATM   20  C   UNL     1      -8.050   7.026  66.755  1.00  0.00    -0.109 C  
HETATM   21  C   UNL     1      -7.708   5.937  67.766  1.00  0.00    -0.097 C  
HETATM   22  C   UNL     1      -8.715   5.840  68.905  1.00  0.00    -0.111 C  
HETATM   23  F   UNL     1      -7.637   4.758  67.084  1.00  0.00    -0.082 F  
HETATM   24  C   UNL     1      -8.962   4.632  69.450  1.00  0.00    -0.140 C  
HETATM   25  C   UNL     1      -7.872   4.379  70.465  1.00  0.00    -0.053 C  
ENDROOT
BRANCH   5  26
HETATM   26  C   UNL     1      -7.236  12.371  67.837  1.00  0.00    -0.110 C  
HETATM   27  O   UNL     1      -7.657  13.339  68.477  1.00  0.00    -0.128 OA 
BRANCH  26  28
HETATM   28  C   UNL     1      -5.836  12.511  67.228  1.00  0.00    -0.100 C  
HETATM   29  O   UNL     1      -5.696  11.677  66.079  1.00  0.00    -0.495 OA 
HETATM   30  H   UNL     1      -4.828  11.764  65.702  1.00  0.00     0.000 HD 
ENDBRANCH  26  28
ENDBRANCH   5  26
TORSDOF 2
ENDMDL
MODEL       76
REMARK 921   NORMALIZED FREE ENERGY PREDICTED BY IDOCK:   -3.53 KCAL/MOL
REMARK 922        TOTAL FREE ENERGY PREDICTED BY IDOCK:   -3.27 KCAL/MOL
REMARK 923 INTER-LIGAND FREE ENERGY PREDICTED BY IDOCK:   -3.89 KCAL/MOL
REMARK 924 INTRA-LIGAND FREE ENERGY PREDICTED BY IDOCK:    0.63 KCAL/MOL
REMARK 927      BINDING AFFINITY PREDICTED BY RF-SCORE:    0.00 PKD
ROOT
HETATM    1  C   UNL     1      -9.291  14.274  66.617  1.00  0.00    -0.302 C  
HETATM    2  C   UNL     1     -10.014  13.915  65.458  1.00  0.00    -0.275 C  
HETATM    3  C   UNL     1     -10.946  14.411  66.541  1.00  0.00    -0.316 C  
HETATM    4  C   UNL     1     -12.321  14.782  65.665  1.00  0.00    -0.032 C  
HETATM    5  C   UNL     1      -9.985  15.282  68.135  1.00  0.00    -0.221 C  
HETATM    6  C   UNL     1     -10.468  15.746  66.958  1.00  0.00    -0.309 C  
HETATM    7  O   UNL     1      -9.807   7.354  70.639  1.00  0.00    -0.180 OA 
HETATM    8  C   UNL     1     -12.578  10.659  69.379  1.00  0.00     0.228 C  
HETATM    9  C   UNL     1     -10.239   9.651  71.175  1.00  0.00    -0.180 C  
HETATM   10  C   UNL     1     -11.930  15.386  68.181  1.00  0.00    -0.052 C  
HETATM   11  C   UNL     1     -10.228  16.978  66.101  1.00  0.00    -0.346 C  
HETATM   12  C   UNL     1     -11.778  13.791  69.024  1.00  0.00    -0.331 C  
HETATM   13  C   UNL     1     -11.042  11.067  69.283  1.00  0.00    -0.312 C  
HETATM   14  C   UNL     1     -10.957  12.408  68.382  1.00  0.00    -0.272 C  
HETATM   15  O   UNL     1     -11.198  14.081  70.318  1.00  0.00    -0.480 OA 
HETATM   16  C   UNL     1     -10.617  10.883  70.744  1.00  0.00     1.316 C  
HETATM   17  H   UNL     1     -11.118  13.245  70.761  1.00  0.00     0.000 HD 
HETATM   18  C   UNL     1      -9.427  12.865  67.810  1.00  0.00    -0.202 C  
HETATM   19 CL   UNL     1     -11.945  11.599  66.767  1.00  0.00     0.038 Cl 
HETATM   20  C   UNL     1      -8.639  11.650  67.303  1.00  0.00    -0.154 C  
HETATM   21  C   UNL     1      -8.724  10.473  68.268  1.00  0.00    -0.135 C  
HETATM   22  C   UNL     1     -10.154  10.025  68.542  1.00  0.00    -0.187 C  
HETATM   23  F   UNL     1      -7.994   9.454  67.732  1.00  0.00    -0.094 F  
HETATM   24  C   UNL     1     -10.390   8.718  68.773  1.00  0.00    -0.234 C  
HETATM   25  C   UNL     1     -10.093   8.472  70.234  1.00  0.00    -0.186 C  
ENDROOT
BRANCH   5  26
HETATM   26  C   UNL     1      -9.880  16.793  68.855  1.00  0.00    -0.264 C  
HETATM   27  O   UNL     1     -10.799  17.465  69.333  1.00  0.00    -0.066 OA 
BRANCH  26  28
HETATM   28  C   UNL     1      -8.471  17.388  68.965  1.00  0.00    -0.056 C  
HETATM   29  O   UNL     1      -8.518  18.814  68.928  1.00  0.00    -0.294 OA 
HETATM   30  H   UNL     1      -7.645  19.182  68.997  1.00  0.00     0.000 HD 
ENDBRANCH  26  28
ENDBRANCH   5  26
TORSDOF 2
ENDMDL
MODEL       77
REMARK 921   NORMALIZED FREE ENERGY PREDICTED BY IDOCK:   -3.44 KCAL/MOL
REMARK 922        TOTAL FREE ENERGY PREDICTED BY IDOCK:   -3.16 KCAL/MOL
REMARK 923 INTER-LIGAND FREE ENERGY PREDICTED BY IDOCK:   -4.14 KCAL/MOL
REMARK 924 INTRA-LIGAND FREE ENERGY PREDICTED BY IDOCK:    0.98 KCAL/MOL
REMARK 927      BINDING AFFINITY PREDICTED BY RF-SCORE:    0.00 PKD
ROOT
HETATM    1  C   UNL     1      -6.322   8.273  67.204  1.00  0.00    -0.057 C  
HETATM    2  C   UNL     1      -5.418   7.192  67.291  1.00  0.00    -0.021 C  
HETATM    3  C   UNL     1      -6.703   6.765  66.618  1.00  0.00    -0.053 C  
HETATM    4  C   UNL     1      -6.232   5.361  65.843  1.00  0.00    -0.034 C  
HETATM    5  C   UNL     1      -7.946   8.325  66.126  1.00  0.00    -0.100 C  
HETATM    6  C   UNL     1      -6.936   7.687  65.487  1.00  0.00    -0.056 C  
HETATM    7  O   UNL     1     -10.508   6.988  73.923  1.00  0.00    -0.375 OA 
HETATM    8  C   UNL     1      -9.978   5.000  69.928  1.00  0.00    -0.322 C  
HETATM    9  C   UNL     1     -11.083   7.368  71.626  1.00  0.00    -0.264 C  
HETATM   10  C   UNL     1      -8.525   6.574  65.500  1.00  0.00    -0.139 C  
HETATM   11  C   UNL     1      -6.015   8.014  64.324  1.00  0.00    -0.057 C  
HETATM   12  C   UNL     1      -9.334   6.504  67.118  1.00  0.00    -0.126 C  
HETATM   13  C   UNL     1      -9.451   6.503  69.949  1.00  0.00    -0.161 C  
HETATM   14  C   UNL     1      -8.527   6.704  68.636  1.00  0.00    -0.122 C  
HETATM   15  O   UNL     1     -10.409   7.472  67.064  1.00  0.00    -0.269 OA 
HETATM   16  C   UNL     1     -10.741   7.242  70.317  1.00  0.00    -0.252 C  
HETATM   17  H   UNL     1     -10.834   7.435  67.912  1.00  0.00     0.000 HD 
HETATM   18  C   UNL     1      -7.542   8.086  68.583  1.00  0.00    -0.100 C  
HETATM   19 CL   UNL     1      -7.269   5.131  69.061  1.00  0.00    -0.056 Cl 
HETATM   20  C   UNL     1      -6.869   8.339  69.938  1.00  0.00    -0.043 C  
HETATM   21  C   UNL     1      -7.851   8.199  71.097  1.00  0.00    -0.093 C  
HETATM   22  C   UNL     1      -8.520   6.832  71.152  1.00  0.00    -0.125 C  
HETATM   23  F   UNL     1      -7.160   8.444  72.246  1.00  0.00    -0.086 F  
HETATM   24  C   UNL     1      -8.842   6.317  72.356  1.00  0.00    -0.131 C  
HETATM   25  C   UNL     1     -10.170   6.921  72.749  1.00  0.00    -0.192 C  
ENDROOT
BRANCH   5  26
HETATM   26  C   UNL     1      -8.569   9.034  64.740  1.00  0.00    -0.175 C  
HETATM   27  O   UNL     1      -8.376   8.695  63.568  1.00  0.00    -0.169 OA 
BRANCH  26  28
HETATM   28  C   UNL     1      -9.519  10.217  64.960  1.00  0.00    -0.257 C  
HETATM   29  O   UNL     1      -8.832  11.316  65.556  1.00  0.00    -0.306 OA 
HETATM   30  H   UNL     1      -9.421  12.049  65.692  1.00  0.00     0.000 HD 
ENDBRANCH  26  28
ENDBRANCH   5  26
TORSDOF 2
ENDMDL
MODEL       78
REMARK 921   NORMALIZED FREE ENERGY PREDICTED BY IDOCK:   -3.43 KCAL/MOL
REMARK 922        TOTAL FREE ENERGY PREDICTED BY IDOCK:   -3.16 KCAL/MOL
REMARK 923 INTER-LIGAND FREE ENERGY PREDICTED BY IDOCK:   -4.17 KCAL/MOL
REMARK 924 INTRA-LIGAND FREE ENERGY PREDICTED BY IDOCK:    1.01 KCAL/MOL
REMARK 927      BINDING AFFINITY PREDICTED BY RF-SCORE:    0.00 PKD
ROOT
HETATM    1  C   UNL     1      -7.847  11.769  66.210  1.00  0.00     0.193 C  
HETATM    2  C   UNL     1      -7.274  10.886  67.151  1.00  0.00    -0.104 C  
HETATM    3  C   UNL     1      -8.656  10.422  66.751  1.00  0.00    -0.125 C  
HETATM    4  C   UNL     1      -8.627   8.818  67.222  1.00  0.00    -0.122 C  
HETATM    5  C   UNL     1      -9.441  11.427  65.141  1.00  0.00    -0.223 C  
HETATM    6  C   UNL     1      -8.677  10.318  65.277  1.00  0.00    -0.186 C  
HETATM    7  O   UNL     1     -11.915  16.523  71.229  1.00  0.00    -0.189 OA 
HETATM    8  C   UNL     1     -12.136  12.270  69.795  1.00  0.00    -0.298 C  
HETATM    9  C   UNL     1     -12.466  15.317  69.231  1.00  0.00    -0.015 C  
HETATM   10  C   UNL     1     -10.509   9.932  65.785  1.00  0.00    -0.033 C  
HETATM   11  C   UNL     1      -7.755   9.520  64.369  1.00  0.00    -0.123 C  
HETATM   12  C   UNL     1     -11.232  11.194  66.863  1.00  0.00    -0.186 C  
HETATM   13  C   UNL     1     -11.215  13.188  68.876  1.00  0.00    -0.324 C  
HETATM   14  C   UNL     1     -10.332  12.201  67.947  1.00  0.00    -0.216 C  
HETATM   15  O   UNL     1     -11.999  12.062  65.996  1.00  0.00    -0.559 OA 
HETATM   16  C   UNL     1     -12.233  14.243  68.432  1.00  0.00    -0.197 C  
HETATM   17  H   UNL     1     -12.378  12.724  66.560  1.00  0.00     0.000 HD 
HETATM   18  C   UNL     1      -9.007  12.880  67.131  1.00  0.00    -0.219 C  
HETATM   19 CL   UNL     1      -9.539  11.136  69.520  1.00  0.00     0.190 Cl 
HETATM   20  C   UNL     1      -8.229  13.840  68.039  1.00  0.00    -0.164 C  
HETATM   21  C   UNL     1      -9.158  14.775  68.808  1.00  0.00    -0.191 C  
HETATM   22  C   UNL     1     -10.175  14.035  69.667  1.00  0.00     0.425 C  
HETATM   23  F   UNL     1      -8.374  15.583  69.577  1.00  0.00    -0.220 F  
HETATM   24  C   UNL     1     -10.571  14.595  70.827  1.00  0.00     0.523 C  
HETATM   25  C   UNL     1     -11.661  15.584  70.486  1.00  0.00    -0.349 C  
ENDROOT
BRANCH   5  26
HETATM   26  C   UNL     1      -9.906  11.090  63.565  1.00  0.00    -0.359 C  
HETATM   27  O   UNL     1      -9.484  10.191  62.831  1.00  0.00    -0.299 OA 
BRANCH  26  28
HETATM   28  C   UNL     1     -11.014  11.979  62.987  1.00  0.00     0.005 C  
HETATM   29  O   UNL     1     -12.299  11.403  63.218  1.00  0.00    -0.805 OA 
HETATM   30  H   UNL     1     -12.985  11.954  62.860  1.00  0.00     0.000 HD 
ENDBRANCH  26  28
ENDBRANCH   5  26
TORSDOF 2
ENDMDL
MODEL       79
REMARK 921   NORMALIZED FREE ENERGY PREDICTED BY IDOCK:   -3.41 KCAL/MOL
REMARK 922        TOTAL FREE ENERGY PREDICTED BY IDOCK:   -3.13 KCAL/MOL
REMARK 923 INTER-LIGAND FREE ENERGY PREDICTED BY IDOCK:   -3.79 KCAL/MOL
REMARK 924 INTRA-LIGAND FREE ENERGY PREDICTED BY IDOCK:    0.66 KCAL/MOL
REMARK 927      BINDING AFFINITY PREDICTED BY RF-SCORE:    0.00 PKD
ROOT
HETATM    1  C   UNL     1      -8.547  15.515  67.046  1.00  0.00    -0.262 C  
HETATM    2  C   UNL     1      -9.245  15.280  65.841  1.00  0.00    -0.236 C  
HETATM    3  C   UNL     1      -9.830  16.463  66.580  1.00  0.00    -0.290 C  
HETATM    4  C   UNL     1     -10.684  17.234  65.366  1.00  0.00    -0.074 C  
HETATM    5  C   UNL     1      -8.689  17.109  68.160  1.00  0.00    -0.232 C  
HETATM    6  C   UNL     1      -8.727  17.411  66.841  1.00  0.00    -0.265 C  
HETATM    7  O   UNL     1     -13.175  11.286  72.048  1.00  0.00    -0.506 OA 
HETATM    8  C   UNL     1     -13.514  15.051  69.619  1.00  0.00     1.350 C  
HETATM    9  C   UNL     1     -12.298  13.518  72.045  1.00  0.00     0.125 C  
HETATM   10  C   UNL     1     -10.241  18.213  67.752  1.00  0.00    -0.395 C  
HETATM   11  C   UNL     1      -7.769  18.049  65.848  1.00  0.00    -0.130 C  
HETATM   12  C   UNL     1     -11.077  17.075  68.885  1.00  0.00    -0.037 C  
HETATM   13  C   UNL     1     -12.009  14.559  69.795  1.00  0.00    -0.383 C  
HETATM   14  C   UNL     1     -11.115  15.353  68.706  1.00  0.00    -0.284 C  
HETATM   15  O   UNL     1     -10.547  17.366  70.200  1.00  0.00    -0.093 OA 
HETATM   16  C   UNL     1     -11.887  14.593  71.322  1.00  0.00    -0.378 C  
HETATM   17  H   UNL     1     -10.985  16.770  70.794  1.00  0.00     0.000 HD 
HETATM   18  C   UNL     1      -9.547  14.773  68.416  1.00  0.00    -0.213 C  
HETATM   19 CL   UNL     1     -12.242  14.765  67.087  1.00  0.00    -0.141 Cl 
HETATM   20  C   UNL     1      -9.529  13.242  68.328  1.00  0.00    -0.209 C  
HETATM   21  C   UNL     1     -10.339  12.598  69.449  1.00  0.00     0.486 C  
HETATM   22  C   UNL     1     -11.793  13.052  69.474  1.00  0.00    -0.385 C  
HETATM   23  F   UNL     1     -10.259  11.247  69.284  1.00  0.00    -0.220 F  
HETATM   24  C   UNL     1     -12.736  12.179  69.882  1.00  0.00     0.343 C  
HETATM   25  C   UNL     1     -12.754  12.229  71.392  1.00  0.00    -0.248 C  
ENDROOT
BRANCH   5  26
HETATM   26  C   UNL     1      -7.822  18.477  68.596  1.00  0.00    -0.314 C  
HETATM   27  O   UNL     1      -8.186  19.654  68.525  1.00  0.00    -0.336 OA 
BRANCH  26  28
HETATM   28  C   UNL     1      -6.430  18.229  69.190  1.00  0.00    -0.261 C  
HETATM   29  O   UNL     1      -5.662  19.431  69.203  1.00  0.00    -0.209 OA 
HETATM   30  H   UNL     1      -4.800  19.278  69.571  1.00  0.00     0.000 HD 
ENDBRANCH  26  28
ENDBRANCH   5  26
TORSDOF 2
ENDMDL
MODEL       80
REMARK 921   NORMALIZED FREE ENERGY PREDICTED BY IDOCK:   -3.40 KCAL/MOL
REMARK 922        TOTAL FREE ENERGY PREDICTED BY IDOCK:   -3.12 KCAL/MOL
REMARK 923 INTER-LIGAND FREE ENERGY PREDICTED BY IDOCK:   -3.94 KCAL/MOL
REMARK 924 INTRA-LIGAND FREE ENERGY PREDICTED BY IDOCK:    0.81 KCAL/MOL
REMARK 927      BINDING AFFINITY PREDICTED BY RF-SCORE:    0.00 PKD
ROOT
HETATM    1  C   UNL     1     -10.069   4.682  67.538  1.00  0.00    -0.131 C  
HETATM    2  C   UNL     1      -9.460   4.381  66.300  1.00  0.00    -0.178 C  
HETATM    3  C   UNL     1      -8.458   4.289  67.429  1.00  0.00    -0.099 C  
HETATM    4  C   UNL     1      -7.242   3.375  66.733  1.00  0.00    -0.066 C  
HETATM    5  C   UNL     1      -9.299   4.364  69.301  1.00  0.00    -0.223 C  
HETATM    6  C   UNL     1      -9.012   3.362  68.437  1.00  0.00    -0.185 C  
HETATM    7  O   UNL     1      -8.384  12.514  67.923  1.00  0.00    -0.145 OA 
HETATM    8  C   UNL     1      -6.128   8.634  68.136  1.00  0.00    -0.051 C  
HETATM    9  C   UNL     1      -8.121  10.658  69.419  1.00  0.00    -0.102 C  
HETATM   10  C   UNL     1      -7.384   4.014  69.267  1.00  0.00    -0.054 C  
HETATM   11  C   UNL     1      -9.475   1.926  68.253  1.00  0.00    -0.230 C  
HETATM   12  C   UNL     1      -7.273   5.820  69.298  1.00  0.00    -0.066 C  
HETATM   13  C   UNL     1      -7.698   8.451  68.334  1.00  0.00    -0.105 C  
HETATM   14  C   UNL     1      -8.024   6.877  68.150  1.00  0.00    -0.115 C  
HETATM   15  O   UNL     1      -7.718   6.221  70.616  1.00  0.00    -0.100 OA 
HETATM   16  C   UNL     1      -7.922   9.322  69.573  1.00  0.00    -0.098 C  
HETATM   17  H   UNL     1      -7.660   7.169  70.633  1.00  0.00     0.000 HD 
HETATM   18  C   UNL     1      -9.651   6.438  67.947  1.00  0.00    -0.121 C  
HETATM   19 CL   UNL     1      -7.164   6.734  66.285  1.00  0.00    -0.070 Cl 
HETATM   20  C   UNL     1     -10.370   7.400  66.993  1.00  0.00    -0.384 C  
HETATM   21  C   UNL     1     -10.051   8.858  67.308  1.00  0.00    -0.239 C  
HETATM   22  C   UNL     1      -8.561   9.170  67.256  1.00  0.00    -0.118 C  
HETATM   23  F   UNL     1     -10.735   9.626  66.413  1.00  0.00    -0.241 F  
HETATM   24  C   UNL     1      -8.170  10.395  66.852  1.00  0.00    -0.124 C  
HETATM   25  C   UNL     1      -8.262  11.304  68.056  1.00  0.00    -0.134 C  
ENDROOT
BRANCH   5  26
HETATM   26  C   UNL     1      -9.466   3.362  70.635  1.00  0.00    -0.173 C  
HETATM   27  O   UNL     1      -9.198   2.159  70.712  1.00  0.00    -0.096 OA 
BRANCH  26  28
HETATM   28  C   UNL     1      -9.974   4.030  71.918  1.00  0.00    -0.176 C  
HETATM   29  O   UNL     1      -8.885   4.499  72.712  1.00  0.00    -0.112 OA 
HETATM   30  H   UNL     1      -9.200   4.913  73.507  1.00  0.00     0.000 HD 
ENDBRANCH  26  28
ENDBRANCH   5  26
TORSDOF 2
ENDMDL
MODEL       81
REMARK 921   NORMALIZED FREE ENERGY PREDICTED BY IDOCK:   -3.35 KCAL/MOL
REMARK 922        TOTAL FREE ENERGY PREDICTED BY IDOCK:   -3.06 KCAL/MOL
REMARK 923 INTER-LIGAND FREE ENERGY PREDICTED BY IDOCK:   -4.38 KCAL/MOL
REMARK 924 INTRA-LIGAND FREE ENERGY PREDICTED BY IDOCK:    1.32 KCAL/MOL
REMARK 927      BINDING AFFINITY PREDICTED BY RF-SCORE:    0.00 PKD
ROOT
HETATM    1  C   UNL     1      -8.445  10.132  67.585  1.00  0.00    -0.118 C  
HETATM    2  C   UNL     1      -7.647  11.180  68.091  1.00  0.00    -0.103 C  
HETATM    3  C   UNL     1      -6.823   9.929  67.883  1.00  0.00    -0.076 C  
HETATM    4  C   UNL     1      -5.268  10.544  67.864  1.00  0.00    -0.037 C  
HETATM    5  C   UNL     1      -7.793   8.456  66.831  1.00  0.00    -0.095 C  
HETATM    6  C   UNL     1      -7.012   9.504  66.480  1.00  0.00    -0.085 C  
HETATM    7  O   UNL     1     -10.408   6.565  74.495  1.00  0.00    -0.341 OA 
HETATM    8  C   UNL     1      -6.714   7.130  72.000  1.00  0.00    -0.056 C  
HETATM    9  C   UNL     1      -9.507   5.809  72.405  1.00  0.00    -0.155 C  
HETATM   10  C   UNL     1      -5.925   8.089  67.240  1.00  0.00    -0.050 C  
HETATM   11  C   UNL     1      -6.778  10.302  65.208  1.00  0.00    -0.126 C  
HETATM   12  C   UNL     1      -6.620   7.393  68.760  1.00  0.00    -0.048 C  
HETATM   13  C   UNL     1      -8.056   7.444  71.202  1.00  0.00    -0.101 C  
HETATM   14  C   UNL     1      -7.640   8.253  69.864  1.00  0.00    -0.080 C  
HETATM   15  O   UNL     1      -7.323   6.193  68.360  1.00  0.00    -0.082 OA 
HETATM   16  C   UNL     1      -8.760   6.088  71.304  1.00  0.00    -0.136 C  
HETATM   17  H   UNL     1      -7.688   5.828  69.157  1.00  0.00     0.000 HD 
HETATM   18  C   UNL     1      -8.881   9.032  69.009  1.00  0.00    -0.136 C  
HETATM   19 CL   UNL     1      -6.624   9.739  70.863  1.00  0.00    -0.081 Cl 
HETATM   20  C   UNL     1      -9.850   9.742  69.962  1.00  0.00    -0.295 C  
HETATM   21  C   UNL     1     -10.236   8.859  71.145  1.00  0.00    -0.266 C  
HETATM   22  C   UNL     1      -9.035   8.390  71.957  1.00  0.00    -0.290 C  
HETATM   23  F   UNL     1     -11.095   9.575  71.924  1.00  0.00    -0.433 F  
HETATM   24  C   UNL     1      -9.183   8.214  73.285  1.00  0.00    -0.316 C  
HETATM   25  C   UNL     1      -9.781   6.840  73.481  1.00  0.00    -0.203 C  
ENDROOT
BRANCH   5  26
HETATM   26  C   UNL     1      -7.635   7.660  65.363  1.00  0.00    -0.094 C  
HETATM   27  O   UNL     1      -7.186   8.113  64.306  1.00  0.00    -0.082 OA 
BRANCH  26  28
HETATM   28  C   UNL     1      -8.064   6.188  65.347  1.00  0.00    -0.133 C  
HETATM   29  O   UNL     1      -9.486   6.074  65.350  1.00  0.00    -0.365 OA 
HETATM   30  H   UNL     1      -9.752   5.162  65.340  1.00  0.00     0.000 HD 
ENDBRANCH  26  28
ENDBRANCH   5  26
TORSDOF 2
ENDMDL
MODEL       82
REMARK 921   NORMALIZED FREE ENERGY PREDICTED BY IDOCK:   -3.07 KCAL/MOL
REMARK 922        TOTAL FREE ENERGY PREDICTED BY IDOCK:   -2.75 KCAL/MOL
REMARK 923 INTER-LIGAND FREE ENERGY PREDICTED BY IDOCK:   -3.38 KCAL/MOL
REMARK 924 INTRA-LIGAND FREE ENERGY PREDICTED BY IDOCK:    0.62 KCAL/MOL
REMARK 927      BINDING AFFINITY PREDICTED BY RF-SCORE:    0.00 PKD
ROOT
HETATM    1  C   UNL     1      -9.670   6.028  66.631  1.00  0.00    -0.189 C  
HETATM    2  C   UNL     1      -9.795   7.352  66.157  1.00  0.00     0.087 C  
HETATM    3  C   UNL     1      -8.340   6.954  66.266  1.00  0.00    -0.126 C  
HETATM    4  C   UNL     1      -7.602   8.090  65.285  1.00  0.00    -0.085 C  
HETATM    5  C   UNL     1      -8.045   4.951  66.610  1.00  0.00    -0.107 C  
HETATM    6  C   UNL     1      -8.163   5.707  65.493  1.00  0.00    -0.129 C  
HETATM    7  O   UNL     1      -8.879   7.546  74.467  1.00  0.00    -0.189 OA 
HETATM    8  C   UNL     1      -6.469   8.152  70.723  1.00  0.00    -0.037 C  
HETATM    9  C   UNL     1      -7.658   6.234  72.873  1.00  0.00    -0.096 C  
HETATM   10  C   UNL     1      -6.424   5.987  66.306  1.00  0.00    -0.046 C  
HETATM   11  C   UNL     1      -8.499   5.439  64.036  1.00  0.00    -0.077 C  
HETATM   12  C   UNL     1      -6.505   6.233  68.098  1.00  0.00    -0.049 C  
HETATM   13  C   UNL     1      -7.656   7.107  70.535  1.00  0.00    -0.089 C  
HETATM   14  C   UNL     1      -7.862   6.897  68.944  1.00  0.00    -0.111 C  
HETATM   15  O   UNL     1      -6.211   4.944  68.687  1.00  0.00    -0.029 OA 
HETATM   16  C   UNL     1      -7.268   6.059  71.583  1.00  0.00    -0.087 C  
HETATM   17  H   UNL     1      -6.253   5.073  69.627  1.00  0.00     0.000 HD 
HETATM   18  C   UNL     1      -9.285   6.123  68.440  1.00  0.00    -0.111 C  
HETATM   19 CL   UNL     1      -8.131   8.896  68.534  1.00  0.00    -0.107 Cl 
HETATM   20  C   UNL     1     -10.501   6.632  69.224  1.00  0.00    -0.247 C  
HETATM   21  C   UNL     1     -10.219   6.716  70.721  1.00  0.00    -0.196 C  
HETATM   22  C   UNL     1      -9.033   7.611  71.057  1.00  0.00    -0.148 C  
HETATM   23  F   UNL     1     -11.353   7.172  71.323  1.00  0.00    -0.262 F  
HETATM   24  C   UNL     1      -9.053   8.303  72.214  1.00  0.00    -0.289 C  
HETATM   25  C   UNL     1      -8.578   7.362  73.296  1.00  0.00    -0.145 C  
ENDROOT
BRANCH   5  26
HETATM   26  C   UNL     1      -7.361   3.637  65.824  1.00  0.00    -0.076 C  
HETATM   27  O   UNL     1      -6.294   3.603  65.203  1.00  0.00    -0.026 OA 
BRANCH  26  28
HETATM   28  C   UNL     1      -8.135   2.317  65.924  1.00  0.00    -0.085 C  
HETATM   29  O   UNL     1      -9.442   2.452  65.368  1.00  0.00    -0.324 OA 
HETATM   30  H   UNL     1      -9.922   1.634  65.430  1.00  0.00     0.000 HD 
ENDBRANCH  26  28
ENDBRANCH   5  26
TORSDOF 2
ENDMDL
MODEL       83
REMARK 921   NORMALIZED FREE ENERGY PREDICTED BY IDOCK:   -3.01 KCAL/MOL
REMARK 922        TOTAL FREE ENERGY PREDICTED BY IDOCK:   -2.68 KCAL/MOL
REMARK 923 INTER-LIGAND FREE ENERGY PREDICTED BY IDOCK:   -4.11 KCAL/MOL
REMARK 924 INTRA-LIGAND FREE ENERGY PREDICTED BY IDOCK:    1.42 KCAL/MOL
REMARK 927      BINDING AFFINITY PREDICTED BY RF-SCORE:    0.00 PKD
ROOT
HETATM    1  C   UNL     1     -11.541  10.965  67.472  1.00  0.00    -0.102 C  
HETATM    2  C   UNL     1     -12.263  10.980  68.685  1.00  0.00     0.041 C  
HETATM    3  C   UNL     1     -11.020  11.836  68.787  1.00  0.00    -0.281 C  
HETATM    4  C   UNL     1     -11.375  12.794  70.111  1.00  0.00     0.172 C  
HETATM    5  C   UNL     1     -10.083  12.167  66.990  1.00  0.00    -0.219 C  
HETATM    6  C   UNL     1     -11.060  12.808  67.674  1.00  0.00    -0.294 C  
HETATM    7  O   UNL     1      -6.433   4.998  69.097  1.00  0.00    -0.033 OA 
HETATM    8  C   UNL     1      -7.150   9.208  70.495  1.00  0.00    -0.088 C  
HETATM    9  C   UNL     1      -6.200   7.239  68.274  1.00  0.00    -0.036 C  
HETATM   10  C   UNL     1      -9.338  13.139  68.504  1.00  0.00    -0.085 C  
HETATM   11  C   UNL     1     -12.152  13.804  67.324  1.00  0.00    -0.393 C  
HETATM   12  C   UNL     1      -8.338  11.642  68.694  1.00  0.00    -0.100 C  
HETATM   13  C   UNL     1      -7.881   8.878  69.119  1.00  0.00    -0.093 C  
HETATM   14  C   UNL     1      -8.977  10.041  68.867  1.00  0.00    -0.152 C  
HETATM   15  O   UNL     1      -7.427  11.629  67.569  1.00  0.00    -0.108 OA 
HETATM   16  C   UNL     1      -6.676   8.511  68.248  1.00  0.00    -0.065 C  
HETATM   17  H   UNL     1      -6.902  10.844  67.668  1.00  0.00     0.000 HD 
HETATM   18  C   UNL     1     -10.149   9.761  67.672  1.00  0.00    -0.236 C  
HETATM   19 CL   UNL     1      -9.934   9.778  70.670  1.00  0.00    -0.289 Cl 
HETATM   20  C   UNL     1     -10.683   8.325  67.746  1.00  0.00    -0.165 C  
HETATM   21  C   UNL     1      -9.559   7.306  67.905  1.00  0.00    -0.139 C  
HETATM   22  C   UNL     1      -8.698   7.552  69.137  1.00  0.00    -0.136 C  
HETATM   23  F   UNL     1     -10.134   6.072  67.957  1.00  0.00    -0.127 F  
HETATM   24  C   UNL     1      -8.163   6.492  69.775  1.00  0.00    -0.126 C  
HETATM   25  C   UNL     1      -6.898   6.128  69.032  1.00  0.00    -0.066 C  
ENDROOT
BRANCH   5  26
HETATM   26  C   UNL     1      -9.740  13.462  65.981  1.00  0.00    -0.215 C  
HETATM   27  O   UNL     1     -10.143  13.645  64.828  1.00  0.00    -0.349 OA 
BRANCH  26  28
HETATM   28  C   UNL     1      -8.856  14.563  66.577  1.00  0.00    -0.122 C  
HETATM   29  O   UNL     1      -8.911  15.746  65.781  1.00  0.00    -0.299 OA 
HETATM   30  H   UNL     1      -8.363  16.428  66.150  1.00  0.00     0.000 HD 
ENDBRANCH  26  28
ENDBRANCH   5  26
TORSDOF 2
ENDMDL
MODEL       84
REMARK 921   NORMALIZED FREE ENERGY PREDICTED BY IDOCK:   -3.01 KCAL/MOL
REMARK 922        TOTAL FREE ENERGY PREDICTED BY IDOCK:   -2.68 KCAL/MOL
REMARK 923 INTER-LIGAND FREE ENERGY PREDICTED BY IDOCK:   -3.33 KCAL/MOL
REMARK 924 INTRA-LIGAND FREE ENERGY PREDICTED BY IDOCK:    0.65 KCAL/MOL
REMARK 927      BINDING AFFINITY PREDICTED BY RF-SCORE:    0.00 PKD
ROOT
HETATM    1  C   UNL     1      -8.495   8.491  69.991  1.00  0.00    -0.125 C  
HETATM    2  C   UNL     1      -8.684   9.546  69.071  1.00  0.00    -0.142 C  
HETATM    3  C   UNL     1      -9.933   8.702  69.185  1.00  0.00    -0.193 C  
HETATM    4  C   UNL     1     -11.096   9.729  68.560  1.00  0.00    -0.138 C  
HETATM    5  C   UNL     1      -9.895   7.358  70.738  1.00  0.00    -0.178 C  
HETATM    6  C   UNL     1     -10.299   8.645  70.616  1.00  0.00    -0.241 C  
HETATM    7  O   UNL     1      -6.203   2.742  64.890  1.00  0.00    -0.019 OA 
HETATM    8  C   UNL     1      -9.953   5.037  65.814  1.00  0.00    -0.147 C  
HETATM    9  C   UNL     1      -7.845   2.893  66.631  1.00  0.00    -0.076 C  
HETATM   10  C   UNL     1     -11.583   7.461  69.772  1.00  0.00     0.124 C  
HETATM   11  C   UNL     1     -10.555   9.795  71.576  1.00  0.00     0.154 C  
HETATM   12  C   UNL     1     -10.812   6.200  68.727  1.00  0.00    -0.336 C  
HETATM   13  C   UNL     1      -8.858   5.149  66.964  1.00  0.00    -0.109 C  
HETATM   14  C   UNL     1      -9.290   6.381  67.920  1.00  0.00    -0.114 C  
HETATM   15  O   UNL     1     -10.735   5.005  69.540  1.00  0.00    -0.098 OA 
HETATM   16  C   UNL     1      -8.703   3.672  67.341  1.00  0.00    -0.129 C  
HETATM   17  H   UNL     1     -10.331   4.343  68.993  1.00  0.00     0.000 HD 
HETATM   18  C   UNL     1      -8.129   6.963  69.011  1.00  0.00    -0.117 C  
HETATM   19 CL   UNL     1      -9.379   7.764  66.397  1.00  0.00    -0.239 Cl 
HETATM   20  C   UNL     1      -6.748   7.064  68.350  1.00  0.00    -0.064 C  
HETATM   21  C   UNL     1      -6.413   5.816  67.540  1.00  0.00    -0.047 C  
HETATM   22  C   UNL     1      -7.435   5.516  66.451  1.00  0.00    -0.087 C  
HETATM   23  F   UNL     1      -5.175   6.003  67.001  1.00  0.00    -0.004 F  
HETATM   24  C   UNL     1      -7.012   4.945  65.306  1.00  0.00    -0.062 C  
HETATM   25  C   UNL     1      -6.932   3.458  65.562  1.00  0.00    -0.057 C  
ENDROOT
BRANCH   5  26
HETATM   26  C   UNL     1     -10.723   7.082  72.170  1.00  0.00    -0.218 C  
HETATM   27  O   UNL     1     -11.922   6.820  72.308  1.00  0.00    -0.275 OA 
BRANCH  26  28
HETATM   28  C   UNL     1      -9.882   7.122  73.451  1.00  0.00    -0.259 C  
HETATM   29  O   UNL     1      -9.212   5.879  73.657  1.00  0.00    -0.131 OA 
HETATM   30  H   UNL     1      -8.690   5.904  74.451  1.00  0.00     0.000 HD 
ENDBRANCH  26  28
ENDBRANCH   5  26
TORSDOF 2
ENDMDL
MODEL       85
REMARK 921   NORMALIZED FREE ENERGY PREDICTED BY IDOCK:   -2.98 KCAL/MOL
REMARK 922        TOTAL FREE ENERGY PREDICTED BY IDOCK:   -2.65 KCAL/MOL
REMARK 923 INTER-LIGAND FREE ENERGY PREDICTED BY IDOCK:   -3.21 KCAL/MOL
REMARK 924 INTRA-LIGAND FREE ENERGY PREDICTED BY IDOCK:    0.56 KCAL/MOL
REMARK 927      BINDING AFFINITY PREDICTED BY RF-SCORE:    0.00 PKD
ROOT
HETATM    1  C   UNL     1      -8.919   4.016  70.700  1.00  0.00    -0.151 C  
HETATM    2  C   UNL     1      -7.841   3.177  71.054  1.00  0.00    -0.050 C  
HETATM    3  C   UNL     1      -7.378   4.606  70.888  1.00  0.00    -0.055 C  
HETATM    4  C   UNL     1      -5.919   4.589  71.706  1.00  0.00    -0.017 C  
HETATM    5  C   UNL     1      -8.907   5.966  70.716  1.00  0.00    -0.140 C  
HETATM    6  C   UNL     1      -8.220   5.449  71.762  1.00  0.00    -0.119 C  
HETATM    7  O   UNL     1      -8.131   3.815  62.721  1.00  0.00    -0.073 OA 
HETATM    8  C   UNL     1      -5.868   5.486  66.224  1.00  0.00    -0.018 C  
HETATM    9  C   UNL     1      -8.355   5.562  64.348  1.00  0.00    -0.115 C  
HETATM   10  C   UNL     1      -7.121   6.736  70.814  1.00  0.00    -0.068 C  
HETATM   11  C   UNL     1      -8.459   5.322  73.257  1.00  0.00    -0.117 C  
HETATM   12  C   UNL     1      -7.169   6.529  69.016  1.00  0.00    -0.091 C  
HETATM   13  C   UNL     1      -7.365   5.082  66.588  1.00  0.00    -0.086 C  
HETATM   14  C   UNL     1      -7.469   5.031  68.202  1.00  0.00    -0.075 C  
HETATM   15  O   UNL     1      -8.138   7.490  68.534  1.00  0.00    -0.121 OA 
HETATM   16  C   UNL     1      -8.136   5.986  65.621  1.00  0.00    -0.126 C  
HETATM   17  H   UNL     1      -8.163   7.382  67.591  1.00  0.00     0.000 HD 
HETATM   18  C   UNL     1      -8.836   4.280  68.870  1.00  0.00    -0.139 C  
HETATM   19 CL   UNL     1      -5.920   3.695  68.437  1.00  0.00    -0.026 Cl 
HETATM   20  C   UNL     1      -9.179   2.985  68.122  1.00  0.00    -0.248 C  
HETATM   21  C   UNL     1      -9.126   3.170  66.608  1.00  0.00    -0.162 C  
HETATM   22  C   UNL     1      -7.770   3.657  66.112  1.00  0.00    -0.088 C  
HETATM   23  F   UNL     1      -9.446   1.973  66.041  1.00  0.00    -0.067 F  
HETATM   24  C   UNL     1      -7.343   3.253  64.899  1.00  0.00    -0.071 C  
HETATM   25  C   UNL     1      -7.982   4.170  63.882  1.00  0.00    -0.089 C  
ENDROOT
BRANCH   5  26
HETATM   26  C   UNL     1      -9.523   7.267  71.577  1.00  0.00    -0.152 C  
HETATM   27  O   UNL     1      -8.908   8.253  71.993  1.00  0.00    -0.155 OA 
BRANCH  26  28
HETATM   28  C   UNL     1     -11.033   7.244  71.840  1.00  0.00    -0.230 C  
HETATM   29  O   UNL     1     -11.718   6.536  70.808  1.00  0.00    -0.361 OA 
HETATM   30  H   UNL     1     -12.654   6.522  70.971  1.00  0.00     0.000 HD 
ENDBRANCH  26  28
ENDBRANCH   5  26
TORSDOF 2
ENDMDL
MODEL       86
REMARK 921   NORMALIZED FREE ENERGY PREDICTED BY IDOCK:   -2.86 KCAL/MOL
REMARK 922        TOTAL FREE ENERGY PREDICTED BY IDOCK:   -2.52 KCAL/MOL
REMARK 923 INTER-LIGAND FREE ENERGY PREDICTED BY IDOCK:   -4.13 KCAL/MOL
REMARK 924 INTRA-LIGAND FREE ENERGY PREDICTED BY IDOCK:    1.61 KCAL/MOL
REMARK 927      BINDING AFFINITY PREDICTED BY RF-SCORE:    0.00 PKD
ROOT
HETATM    1  C   UNL     1     -10.872   7.280  69.185  1.00  0.00    -0.156 C  
HETATM    2  C   UNL     1     -11.480   6.667  70.303  1.00  0.00    -0.449 C  
HETATM    3  C   UNL     1     -10.239   7.427  70.715  1.00  0.00    -0.200 C  
HETATM    4  C   UNL     1     -10.478   7.602  72.361  1.00  0.00    -0.302 C  
HETATM    5  C   UNL     1      -9.473   8.637  69.243  1.00  0.00    -0.158 C  
HETATM    6  C   UNL     1     -10.388   8.814  70.226  1.00  0.00    -0.227 C  
HETATM    7  O   UNL     1      -5.597   1.544  67.290  1.00  0.00    -0.016 OA 
HETATM    8  C   UNL     1      -6.212   4.500  70.618  1.00  0.00    -0.022 C  
HETATM    9  C   UNL     1      -5.456   3.910  67.653  1.00  0.00    -0.017 C  
HETATM   10  C   UNL     1      -8.599   8.786  70.977  1.00  0.00    -0.236 C  
HETATM   11  C   UNL     1     -11.514   9.798  70.492  1.00  0.00    -0.370 C  
HETATM   12  C   UNL     1      -7.575   7.439  70.334  1.00  0.00    -0.091 C  
HETATM   13  C   UNL     1      -7.064   4.844  69.317  1.00  0.00    -0.055 C  
HETATM   14  C   UNL     1      -8.185   5.926  69.751  1.00  0.00    -0.113 C  
HETATM   15  O   UNL     1      -6.772   8.021  69.280  1.00  0.00    -0.039 OA 
HETATM   16  C   UNL     1      -5.940   5.009  68.289  1.00  0.00    -0.026 C  
HETATM   17  H   UNL     1      -6.235   7.315  68.943  1.00  0.00     0.000 HD 
HETATM   18  C   UNL     1      -9.459   6.203  68.665  1.00  0.00    -0.128 C  
HETATM   19 CL   UNL     1      -8.972   4.771  71.262  1.00  0.00    -0.153 Cl 
HETATM   20  C   UNL     1      -9.975   4.887  68.068  1.00  0.00    -0.175 C  
HETATM   21  C   UNL     1      -8.834   3.979  67.622  1.00  0.00    -0.115 C  
HETATM   22  C   UNL     1      -7.866   3.638  68.748  1.00  0.00    -0.055 C  
HETATM   23  F   UNL     1      -9.394   2.847  67.108  1.00  0.00    -0.179 F  
HETATM   24  C   UNL     1      -7.267   2.430  68.742  1.00  0.00    -0.044 C  
HETATM   25  C   UNL     1      -6.073   2.537  67.822  1.00  0.00    -0.024 C  
ENDROOT
BRANCH   5  26
HETATM   26  C   UNL     1      -9.233  10.275  68.973  1.00  0.00    -0.183 C  
HETATM   27  O   UNL     1     -10.038  11.087  68.509  1.00  0.00    -0.176 OA 
BRANCH  26  28
HETATM   28  C   UNL     1      -7.866  10.831  69.390  1.00  0.00    -0.087 C  
HETATM   29  O   UNL     1      -7.779  12.227  69.107  1.00  0.00    -0.331 OA 
HETATM   30  H   UNL     1      -6.932  12.572  69.365  1.00  0.00     0.000 HD 
ENDBRANCH  26  28
ENDBRANCH   5  26
TORSDOF 2
ENDMDL
MODEL       87
REMARK 921   NORMALIZED FREE ENERGY PREDICTED BY IDOCK:   -2.49 KCAL/MOL
REMARK 922        TOTAL FREE ENERGY PREDICTED BY IDOCK:   -2.10 KCAL/MOL
REMARK 923 INTER-LIGAND FREE ENERGY PREDICTED BY IDOCK:   -3.90 KCAL/MOL
REMARK 924 INTRA-LIGAND FREE ENERGY PREDICTED BY IDOCK:    1.80 KCAL/MOL
REMARK 927      BINDING AFFINITY PREDICTED BY RF-SCORE:    0.00 PKD
ROOT
HETATM    1  C   UNL     1      -6.253  13.249  67.206  1.00  0.00     0.173 C  
HETATM    2  C   UNL     1      -5.584  13.248  68.449  1.00  0.00    -0.085 C  
HETATM    3  C   UNL     1      -6.984  12.696  68.592  1.00  0.00    -0.091 C  
HETATM    4  C   UNL     1      -6.880  11.874  70.044  1.00  0.00     0.383 C  
HETATM    5  C   UNL     1      -7.924  12.328  66.803  1.00  0.00     0.010 C  
HETATM    6  C   UNL     1      -7.127  11.595  67.616  1.00  0.00    -0.095 C  
HETATM    7  O   UNL     1      -9.988  20.324  67.774  1.00  0.00    -0.405 OA 
HETATM    8  C   UNL     1     -10.236  16.290  69.735  1.00  0.00    -0.169 C  
HETATM    9  C   UNL     1     -10.679  18.093  67.233  1.00  0.00    -0.336 C  
HETATM   10  C   UNL     1      -8.901  11.751  68.386  1.00  0.00    -0.161 C  
HETATM   11  C   UNL     1      -6.268  10.352  67.455  1.00  0.00    -0.057 C  
HETATM   12  C   UNL     1      -9.558  13.437  68.328  1.00  0.00    -0.220 C  
HETATM   13  C   UNL     1      -9.415  16.267  68.371  1.00  0.00    -0.216 C  
HETATM   14  C   UNL     1      -8.592  14.875  68.330  1.00  0.00    -0.160 C  
HETATM   15  O   UNL     1     -10.414  13.488  67.162  1.00  0.00    -0.254 OA 
HETATM   16  C   UNL     1     -10.490  16.757  67.395  1.00  0.00    -0.310 C  
HETATM   17  H   UNL     1     -10.759  14.372  67.132  1.00  0.00     0.000 HD 
HETATM   18  C   UNL     1      -7.357  14.735  67.175  1.00  0.00    -0.020 C  
HETATM   19 CL   UNL     1      -7.647  15.174  70.134  1.00  0.00     0.118 Cl 
HETATM   20  C   UNL     1      -6.526  16.023  67.094  1.00  0.00    -0.145 C  
HETATM   21  C   UNL     1      -7.407  17.268  67.059  1.00  0.00    -0.185 C  
HETATM   22  C   UNL     1      -8.332  17.380  68.264  1.00  0.00    -0.248 C  
HETATM   23  F   UNL     1      -6.579  18.349  66.985  1.00  0.00    -0.179 F  
HETATM   24  C   UNL     1      -8.641  18.606  68.731  1.00  0.00    -0.292 C  
HETATM   25  C   UNL     1      -9.778  19.124  67.880  1.00  0.00    -0.333 C  
ENDROOT
BRANCH   5  26
HETATM   26  C   UNL     1      -8.513  11.009  65.950  1.00  0.00    -0.140 C  
HETATM   27  O   UNL     1      -8.046  10.508  64.923  1.00  0.00    -0.153 OA 
BRANCH  26  28
HETATM   28  C   UNL     1      -9.752  10.326  66.541  1.00  0.00    -0.193 C  
HETATM   29  O   UNL     1      -9.404   9.083  67.150  1.00  0.00    -0.140 OA 
HETATM   30  H   UNL     1     -10.171   8.660  67.516  1.00  0.00     0.000 HD 
ENDBRANCH  26  28
ENDBRANCH   5  26
TORSDOF 2
ENDMDL
MODEL       88
REMARK 921   NORMALIZED FREE ENERGY PREDICTED BY IDOCK:   -2.49 KCAL/MOL
REMARK 922        TOTAL FREE ENERGY PREDICTED BY IDOCK:   -2.10 KCAL/MOL
REMARK 923 INTER-LIGAND FREE ENERGY PREDICTED BY IDOCK:   -2.76 KCAL/MOL
REMARK 924 INTRA-LIGAND FREE ENERGY PREDICTED BY IDOCK:    0.66 KCAL/MOL
REMARK 927      BINDING AFFINITY PREDICTED BY RF-SCORE:    0.00 PKD
ROOT
HETATM    1  C   UNL     1      -8.508   5.877  70.322  1.00  0.00    -0.127 C  
HETATM    2  C   UNL     1      -7.319   5.378  70.897  1.00  0.00    -0.078 C  
HETATM    3  C   UNL     1      -7.869   6.528  71.711  1.00  0.00    -0.103 C  
HETATM    4  C   UNL     1      -7.088   6.314  73.175  1.00  0.00    -0.083 C  
HETATM    5  C   UNL     1      -9.765   7.102  71.171  1.00  0.00    -0.168 C  
HETATM    6  C   UNL     1      -9.270   6.199  72.049  1.00  0.00    -0.148 C  
HETATM    7  O   UNL     1      -5.393  11.758  65.846  1.00  0.00    -0.195 OA 
HETATM    8  C   UNL     1      -5.960  10.877  70.215  1.00  0.00    -0.130 C  
HETATM    9  C   UNL     1      -7.175  11.621  67.443  1.00  0.00    -0.128 C  
HETATM   10  C   UNL     1      -9.045   7.997  72.743  1.00  0.00    -0.303 C  
HETATM   11  C   UNL     1      -9.811   4.969  72.758  1.00  0.00    -0.191 C  
HETATM   12  C   UNL     1      -8.396   9.160  71.516  1.00  0.00     0.129 C  
HETATM   13  C   UNL     1      -6.856   9.956  69.275  1.00  0.00    -0.057 C  
HETATM   14  C   UNL     1      -7.388   8.723  70.177  1.00  0.00    -0.055 C  
HETATM   15  O   UNL     1      -9.547   9.858  70.986  1.00  0.00    -0.273 OA 
HETATM   16  C   UNL     1      -7.685  11.023  68.553  1.00  0.00    -0.122 C  
HETATM   17  H   UNL     1      -9.208  10.468  70.342  1.00  0.00     0.000 HD 
HETATM   18  C   UNL     1      -8.062   7.396  69.362  1.00  0.00    -0.129 C  
HETATM   19 CL   UNL     1      -5.513   8.123  70.780  1.00  0.00    -0.029 Cl 
HETATM   20  C   UNL     1      -7.235   7.029  68.123  1.00  0.00    -0.091 C  
HETATM   21  C   UNL     1      -6.856   8.259  67.306  1.00  0.00    -0.070 C  
HETATM   22  C   UNL     1      -6.072   9.292  68.106  1.00  0.00    -0.053 C  
HETATM   23  F   UNL     1      -6.132   7.828  66.234  1.00  0.00    -0.040 F  
HETATM   24  C   UNL     1      -5.142  10.032  67.470  1.00  0.00    -0.034 C  
HETATM   25  C   UNL     1      -5.871  11.179  66.811  1.00  0.00    -0.111 C  
ENDROOT
BRANCH   5  26
HETATM   26  C   UNL     1     -11.300   7.135  71.846  1.00  0.00    -0.260 C  
HETATM   27  O   UNL     1     -11.613   7.491  72.986  1.00  0.00    -0.259 OA 
BRANCH  26  28
HETATM   28  C   UNL     1     -12.449   6.709  70.925  1.00  0.00    -0.122 C  
HETATM   29  O   UNL     1     -13.504   6.108  71.674  1.00  0.00     0.467 OA 
HETATM   30  H   UNL     1     -14.216   5.845  71.103  1.00  0.00     0.000 HD 
ENDBRANCH  26  28
ENDBRANCH   5  26
TORSDOF 2
ENDMDL
MODEL       89
REMARK 921   NORMALIZED FREE ENERGY PREDICTED BY IDOCK:   -2.00 KCAL/MOL
REMARK 922        TOTAL FREE ENERGY PREDICTED BY IDOCK:   -1.56 KCAL/MOL
REMARK 923 INTER-LIGAND FREE ENERGY PREDICTED BY IDOCK:   -3.96 KCAL/MOL
REMARK 924 INTRA-LIGAND FREE ENERGY PREDICTED BY IDOCK:    2.40 KCAL/MOL
REMARK 927      BINDING AFFINITY PREDICTED BY RF-SCORE:    0.00 PKD
ROOT
HETATM    1  C   UNL     1      -9.966   9.165  69.508  1.00  0.00    -0.193 C  
HETATM    2  C   UNL     1     -10.854   8.749  68.492  1.00  0.00    -0.016 C  
HETATM    3  C   UNL     1      -9.796   9.677  67.937  1.00  0.00    -0.182 C  
HETATM    4  C   UNL     1      -9.881   9.349  66.299  1.00  0.00    -0.351 C  
HETATM    5  C   UNL     1      -8.258  10.066  69.241  1.00  0.00    -0.147 C  
HETATM    6  C   UNL     1      -8.479   9.115  68.303  1.00  0.00    -0.125 C  
HETATM    7  O   UNL     1     -13.552  16.026  71.607  1.00  0.00    -0.323 OA 
HETATM    8  C   UNL     1     -11.306  14.421  68.063  1.00  0.00    -0.316 C  
HETATM    9  C   UNL     1     -11.311  15.407  71.019  1.00  0.00    -0.411 C  
HETATM   10  C   UNL     1      -8.033  10.799  67.451  1.00  0.00    -0.112 C  
HETATM   11  C   UNL     1      -7.926   7.729  68.015  1.00  0.00    -0.122 C  
HETATM   12  C   UNL     1      -8.920  12.212  68.154  1.00  0.00    -0.195 C  
HETATM   13  C   UNL     1     -11.104  13.541  69.375  1.00  0.00    -0.173 C  
HETATM   14  C   UNL     1     -10.475  12.125  68.911  1.00  0.00    -0.142 C  
HETATM   15  O   UNL     1      -8.008  12.822  69.098  1.00  0.00    -0.314 OA 
HETATM   16  C   UNL     1     -10.491  14.584  70.314  1.00  0.00     0.395 C  
HETATM   17  H   UNL     1      -8.473  13.563  69.467  1.00  0.00     0.000 HD 
HETATM   18  C   UNL     1     -10.491  10.859  70.041  1.00  0.00     0.168 C  
HETATM   19 CL   UNL     1     -11.972  11.698  67.564  1.00  0.00    -0.176 Cl 
HETATM   20  C   UNL     1     -11.830  10.799  70.787  1.00  0.00    -0.443 C  
HETATM   21  C   UNL     1     -12.288  12.180  71.247  1.00  0.00    -0.070 C  
HETATM   22  C   UNL     1     -12.432  13.174  70.101  1.00  0.00    -0.192 C  
HETATM   23  F   UNL     1     -13.475  12.019  71.897  1.00  0.00    -0.513 F  
HETATM   24  C   UNL     1     -13.387  14.122  70.183  1.00  0.00     0.609 C  
HETATM   25  C   UNL     1     -12.818  15.247  71.015  1.00  0.00    -0.440 C  
ENDROOT
BRANCH   5  26
HETATM   26  C   UNL     1      -6.607   9.788  69.342  1.00  0.00    -0.049 C  
HETATM   27  O   UNL     1      -5.950   9.519  70.353  1.00  0.00    -0.044 OA 
BRANCH  26  28
HETATM   28  C   UNL     1      -5.835   9.834  68.019  1.00  0.00    -0.040 C  
HETATM   29  O   UNL     1      -5.470  11.173  67.690  1.00  0.00    -0.040 OA 
HETATM   30  H   UNL     1      -4.992  11.202  66.870  1.00  0.00     0.000 HD 
ENDBRANCH  26  28
ENDBRANCH   5  26
TORSDOF 2
ENDMDL
MODEL       90
REMARK 921   NORMALIZED FREE ENERGY PREDICTED BY IDOCK:   -1.98 KCAL/MOL
REMARK 922        TOTAL FREE ENERGY PREDICTED BY IDOCK:   -1.53 KCAL/MOL
REMARK 923 INTER-LIGAND FREE ENERGY PREDICTED BY IDOCK:   -2.91 KCAL/MOL
REMARK 924 INTRA-LIGAND FREE ENERGY PREDICTED BY IDOCK:    1.38 KCAL/MOL
REMARK 927      BINDING AFFINITY PREDICTED BY RF-SCORE:    0.00 PKD
ROOT
HETATM    1  C   UNL     1      -6.868  11.320  66.893  1.00  0.00    -0.134 C  
HETATM    2  C   UNL     1      -8.084  11.781  66.343  1.00  0.00     0.032 C  
HETATM    3  C   UNL     1      -8.315  11.130  67.688  1.00  0.00    -0.122 C  
HETATM    4  C   UNL     1      -9.818  11.732  68.105  1.00  0.00    -0.190 C  
HETATM    5  C   UNL     1      -6.591  10.735  68.733  1.00  0.00    -0.054 C  
HETATM    6  C   UNL     1      -7.426  11.798  68.662  1.00  0.00    -0.120 C  
HETATM    7  O   UNL     1      -7.055   3.753  64.240  1.00  0.00    -0.052 OA 
HETATM    8  C   UNL     1      -9.310   6.275  67.197  1.00  0.00    -0.130 C  
HETATM    9  C   UNL     1      -6.701   4.781  66.377  1.00  0.00    -0.054 C  
HETATM   10  C   UNL     1      -8.245  10.376  69.696  1.00  0.00    -0.099 C  
HETATM   11  C   UNL     1      -7.326  13.278  68.994  1.00  0.00     0.036 C  
HETATM   12  C   UNL     1      -8.089   8.748  68.920  1.00  0.00    -0.114 C  
HETATM   13  C   UNL     1      -7.922   6.923  66.759  1.00  0.00    -0.108 C  
HETATM   14  C   UNL     1      -7.953   8.475  67.216  1.00  0.00    -0.102 C  
HETATM   15  O   UNL     1      -6.953   8.114  69.556  1.00  0.00    -0.048 OA 
HETATM   16  C   UNL     1      -6.952   5.826  67.209  1.00  0.00    -0.065 C  
HETATM   17  H   UNL     1      -6.871   7.260  69.149  1.00  0.00     0.000 HD 
HETATM   18  C   UNL     1      -6.768   9.501  66.564  1.00  0.00    -0.075 C  
HETATM   19 CL   UNL     1      -9.697   8.920  66.216  1.00  0.00    -0.329 Cl 
HETATM   20  C   UNL     1      -6.566   9.233  65.067  1.00  0.00    -0.077 C  
HETATM   21  C   UNL     1      -6.473   7.741  64.763  1.00  0.00    -0.044 C  
HETATM   22  C   UNL     1      -7.698   6.960  65.219  1.00  0.00    -0.110 C  
HETATM   23  F   UNL     1      -6.291   7.612  63.418  1.00  0.00    -0.052 F  
HETATM   24  C   UNL     1      -8.085   5.887  64.501  1.00  0.00    -0.132 C  
HETATM   25  C   UNL     1      -7.240   4.723  64.963  1.00  0.00    -0.064 C  
ENDROOT
BRANCH   5  26
HETATM   26  C   UNL     1      -5.857  11.223  70.160  1.00  0.00    -0.133 C  
HETATM   27  O   UNL     1      -5.855  12.353  70.657  1.00  0.00    -0.207 OA 
BRANCH  26  28
HETATM   28  C   UNL     1      -5.139  10.126  70.955  1.00  0.00    -0.068 C  
HETATM   29  O   UNL     1      -5.351  10.295  72.356  1.00  0.00    -0.298 OA 
HETATM   30  H   UNL     1      -4.906   9.616  72.850  1.00  0.00     0.000 HD 
ENDBRANCH  26  28
ENDBRANCH   5  26
TORSDOF 2
ENDMDL
MODEL       91
REMARK 921   NORMALIZED FREE ENERGY PREDICTED BY IDOCK:   -1.96 KCAL/MOL
REMARK 922        TOTAL FREE ENERGY PREDICTED BY IDOCK:   -1.51 KCAL/MOL
REMARK 923 INTER-LIGAND FREE ENERGY PREDICTED BY IDOCK:   -2.91 KCAL/MOL
REMARK 924 INTRA-LIGAND FREE ENERGY PREDICTED BY IDOCK:    1.39 KCAL/MOL
REMARK 927      BINDING AFFINITY PREDICTED BY RF-SCORE:    0.00 PKD
ROOT
HETATM    1  C   UNL     1      -7.946   9.695  66.737  1.00  0.00    -0.105 C  
HETATM    2  C   UNL     1      -7.749   8.497  66.017  1.00  0.00    -0.093 C  
HETATM    3  C   UNL     1      -9.185   8.619  66.476  1.00  0.00    -0.236 C  
HETATM    4  C   UNL     1      -9.959   7.531  65.469  1.00  0.00     1.405 C  
HETATM    5  C   UNL     1      -9.667  10.469  67.227  1.00  0.00    -0.197 C  
HETATM    6  C   UNL     1      -9.696   9.918  65.991  1.00  0.00    -0.310 C  
HETATM    7  O   UNL     1      -6.778   6.923  74.172  1.00  0.00    -0.081 OA 
HETATM    8  C   UNL     1      -9.847   6.473  70.921  1.00  0.00    -0.201 C  
HETATM    9  C   UNL     1      -8.487   8.227  73.109  1.00  0.00    -0.265 C  
HETATM   10  C   UNL     1     -11.158   9.227  67.061  1.00  0.00     0.326 C  
HETATM   11  C   UNL     1      -9.729  10.452  64.568  1.00  0.00    -0.393 C  
HETATM   12  C   UNL     1     -10.653   8.736  68.729  1.00  0.00    -0.145 C  
HETATM   13  C   UNL     1      -8.885   7.722  70.698  1.00  0.00    -0.144 C  
HETATM   14  C   UNL     1      -9.065   8.197  69.162  1.00  0.00    -0.148 C  
HETATM   15  O   UNL     1     -10.983   9.854  69.587  1.00  0.00    -0.233 OA 
HETATM   16  C   UNL     1      -9.171   8.522  71.973  1.00  0.00    -0.326 C  
HETATM   17  H   UNL     1     -10.718   9.597  70.462  1.00  0.00     0.000 HD 
HETATM   18  C   UNL     1      -7.907   9.269  68.538  1.00  0.00    -0.090 C  
HETATM   19 CL   UNL     1      -8.622   6.356  68.353  1.00  0.00    -0.115 Cl 
HETATM   20  C   UNL     1      -6.490   8.865  68.967  1.00  0.00    -0.047 C  
HETATM   21  C   UNL     1      -6.422   8.515  70.450  1.00  0.00    -0.036 C  
HETATM   22  C   UNL     1      -7.371   7.390  70.843  1.00  0.00    -0.073 C  
HETATM   23  F   UNL     1      -5.131   8.176  70.728  1.00  0.00    -0.023 F  
HETATM   24  C   UNL     1      -7.003   6.548  71.829  1.00  0.00    -0.076 C  
HETATM   25  C   UNL     1      -7.352   7.224  73.134  1.00  0.00    -0.072 C  
ENDROOT
BRANCH   5  26
HETATM   26  C   UNL     1     -10.680  11.748  66.839  1.00  0.00    -0.250 C  
HETATM   27  O   UNL     1     -11.696  12.112  67.439  1.00  0.00    -0.431 OA 
BRANCH  26  28
HETATM   28  C   UNL     1     -10.271  12.583  65.620  1.00  0.00    -0.267 C  
HETATM   29  O   UNL     1     -10.558  13.965  65.832  1.00  0.00    -0.282 OA 
HETATM   30  H   UNL     1     -10.305  14.482  65.077  1.00  0.00     0.000 HD 
ENDBRANCH  26  28
ENDBRANCH   5  26
TORSDOF 2
ENDMDL
MODEL       92
REMARK 921   NORMALIZED FREE ENERGY PREDICTED BY IDOCK:   -1.59 KCAL/MOL
REMARK 922        TOTAL FREE ENERGY PREDICTED BY IDOCK:   -1.10 KCAL/MOL
REMARK 923 INTER-LIGAND FREE ENERGY PREDICTED BY IDOCK:   -2.37 KCAL/MOL
REMARK 924 INTRA-LIGAND FREE ENERGY PREDICTED BY IDOCK:    1.27 KCAL/MOL
REMARK 927      BINDING AFFINITY PREDICTED BY RF-SCORE:    0.00 PKD
ROOT
HETATM    1  C   UNL     1     -10.445   5.521  69.947  1.00  0.00    -0.386 C  
HETATM    2  C   UNL     1     -10.527   4.113  69.877  1.00  0.00     0.884 C  
HETATM    3  C   UNL     1      -9.369   4.542  70.750  1.00  0.00    -0.218 C  
HETATM    4  C   UNL     1      -9.065   3.149  71.622  1.00  0.00    -0.169 C  
HETATM    5  C   UNL     1      -9.362   6.546  71.203  1.00  0.00    -0.167 C  
HETATM    6  C   UNL     1      -9.908   5.451  71.784  1.00  0.00    -0.223 C  
HETATM    7  O   UNL     1      -5.220   6.796  63.997  1.00  0.00    -0.026 OA 
HETATM    8  C   UNL     1      -5.173   4.972  68.103  1.00  0.00    -0.007 C  
HETATM    9  C   UNL     1      -5.371   7.496  66.286  1.00  0.00    -0.025 C  
HETATM   10  C   UNL     1      -7.994   5.488  72.099  1.00  0.00    -0.107 C  
HETATM   11  C   UNL     1     -11.030   5.198  72.777  1.00  0.00    -0.327 C  
HETATM   12  C   UNL     1      -7.033   5.871  70.614  1.00  0.00    -0.062 C  
HETATM   13  C   UNL     1      -6.459   5.874  67.839  1.00  0.00    -0.047 C  
HETATM   14  C   UNL     1      -7.536   5.522  68.994  1.00  0.00    -0.082 C  
HETATM   15  O   UNL     1      -6.744   7.288  70.685  1.00  0.00    -0.047 OA 
HETATM   16  C   UNL     1      -5.793   7.222  67.548  1.00  0.00    -0.030 C  
HETATM   17  H   UNL     1      -6.239   7.490  69.906  1.00  0.00     0.000 HD 
HETATM   18  C   UNL     1      -9.129   6.058  68.761  1.00  0.00    -0.124 C  
HETATM   19 CL   UNL     1      -7.558   3.500  68.607  1.00  0.00    -0.053 Cl 
HETATM   20  C   UNL     1      -9.583   5.833  67.313  1.00  0.00    -0.122 C  
HETATM   21  C   UNL     1      -8.521   6.272  66.309  1.00  0.00    -0.133 C  
HETATM   22  C   UNL     1      -7.187   5.562  66.499  1.00  0.00    -0.077 C  
HETATM   23  F   UNL     1      -9.019   6.037  65.062  1.00  0.00    -0.103 F  
HETATM   24  C   UNL     1      -6.429   5.309  65.414  1.00  0.00    -0.039 C  
HETATM   25  C   UNL     1      -5.651   6.570  65.119  1.00  0.00    -0.026 C  
ENDROOT
BRANCH   5  26
HETATM   26  C   UNL     1      -9.510   7.518  72.562  1.00  0.00    -0.159 C  
HETATM   27  O   UNL     1     -10.346   7.425  73.467  1.00  0.00    -0.342 OA 
BRANCH  26  28
HETATM   28  C   UNL     1      -8.461   8.625  72.713  1.00  0.00     0.037 C  
HETATM   29  O   UNL     1      -8.576   9.581  71.660  1.00  0.00    -0.190 OA 
HETATM   30  H   UNL     1      -7.925  10.268  71.754  1.00  0.00     0.000 HD 
ENDBRANCH  26  28
ENDBRANCH   5  26
TORSDOF 2
ENDMDL
MODEL       93
REMARK 921   NORMALIZED FREE ENERGY PREDICTED BY IDOCK:   -1.17 KCAL/MOL
REMARK 922        TOTAL FREE ENERGY PREDICTED BY IDOCK:   -0.63 KCAL/MOL
REMARK 923 INTER-LIGAND FREE ENERGY PREDICTED BY IDOCK:   -2.66 KCAL/MOL
REMARK 924 INTRA-LIGAND FREE ENERGY PREDICTED BY IDOCK:    2.03 KCAL/MOL
REMARK 927      BINDING AFFINITY PREDICTED BY RF-SCORE:    0.00 PKD
ROOT
HETATM    1  C   UNL     1      -8.693   7.433  65.058  1.00  0.00     0.187 C  
HETATM    2  C   UNL     1      -7.883   7.728  63.939  1.00  0.00    -0.126 C  
HETATM    3  C   UNL     1      -7.052   7.649  65.200  1.00  0.00    -0.060 C  
HETATM    4  C   UNL     1      -5.513   7.437  64.580  1.00  0.00    -0.033 C  
HETATM    5  C   UNL     1      -8.060   6.889  66.820  1.00  0.00    -0.109 C  
HETATM    6  C   UNL     1      -7.323   6.338  65.827  1.00  0.00    -0.080 C  
HETATM    7  O   UNL     1     -10.140  14.903  67.593  1.00  0.00    -0.226 OA 
HETATM    8  C   UNL     1      -6.626  12.113  67.366  1.00  0.00    -0.147 C  
HETATM    9  C   UNL     1      -9.362  12.890  68.638  1.00  0.00     0.014 C  
HETATM   10  C   UNL     1      -6.163   7.222  67.106  1.00  0.00    -0.046 C  
HETATM   11  C   UNL     1      -7.187   4.951  65.222  1.00  0.00    -0.067 C  
HETATM   12  C   UNL     1      -6.745   8.870  67.578  1.00  0.00    -0.066 C  
HETATM   13  C   UNL     1      -8.022  11.369  67.184  1.00  0.00    -0.156 C  
HETATM   14  C   UNL     1      -7.708   9.903  66.575  1.00  0.00    -0.107 C  
HETATM   15  O   UNL     1      -7.451   8.696  68.830  1.00  0.00    -0.086 OA 
HETATM   16  C   UNL     1      -8.693  11.714  68.517  1.00  0.00    -0.130 C  
HETATM   17  H   UNL     1      -7.757   9.560  69.078  1.00  0.00     0.000 HD 
HETATM   18  C   UNL     1      -9.016   9.027  65.941  1.00  0.00    -0.233 C  
HETATM   19 CL   UNL     1      -6.658  10.606  64.950  1.00  0.00     0.017 Cl 
HETATM   20  C   UNL     1      -9.935   9.930  65.108  1.00  0.00    -0.278 C  
HETATM   21  C   UNL     1     -10.227  11.251  65.812  1.00  0.00    -0.251 C  
HETATM   22  C   UNL     1      -8.968  12.042  66.147  1.00  0.00    -0.079 C  
HETATM   23  F   UNL     1     -11.047  11.973  64.997  1.00  0.00    -0.326 F  
HETATM   24  C   UNL     1      -9.026  13.388  66.128  1.00  0.00     0.223 C  
HETATM   25  C   UNL     1      -9.585  13.821  67.463  1.00  0.00    -0.219 C  
ENDROOT
BRANCH   5  26
HETATM   26  C   UNL     1      -7.983   5.545  67.820  1.00  0.00    -0.101 C  
HETATM   27  O   UNL     1      -8.834   5.157  68.626  1.00  0.00    -0.096 OA 
BRANCH  26  28
HETATM   28  C   UNL     1      -6.725   4.679  67.686  1.00  0.00    -0.051 C  
HETATM   29  O   UNL     1      -6.381   4.086  68.938  1.00  0.00    -0.031 OA 
HETATM   30  H   UNL     1      -5.602   3.549  68.855  1.00  0.00     0.000 HD 
ENDBRANCH  26  28
ENDBRANCH   5  26
TORSDOF 2
ENDMDL
MODEL       94
REMARK 921   NORMALIZED FREE ENERGY PREDICTED BY IDOCK:   -0.74 KCAL/MOL
REMARK 922        TOTAL FREE ENERGY PREDICTED BY IDOCK:   -0.15 KCAL/MOL
REMARK 923 INTER-LIGAND FREE ENERGY PREDICTED BY IDOCK:   -2.58 KCAL/MOL
REMARK 924 INTRA-LIGAND FREE ENERGY PREDICTED BY IDOCK:    2.43 KCAL/MOL
REMARK 927      BINDING AFFINITY PREDICTED BY RF-SCORE:    0.00 PKD
ROOT
HETATM    1  C   UNL     1      -9.685  14.318  69.994  1.00  0.00     1.084 C  
HETATM    2  C   UNL     1     -10.416  14.827  71.090  1.00  0.00     0.916 C  
HETATM    3  C   UNL     1     -11.259  14.828  69.834  1.00  0.00    -0.293 C  
HETATM    4  C   UNL     1     -12.804  14.945  70.461  1.00  0.00    -0.376 C  
HETATM    5  C   UNL     1     -10.424  13.795  68.267  1.00  0.00    -0.251 C  
HETATM    6  C   UNL     1     -11.242  13.453  69.291  1.00  0.00    -0.275 C  
HETATM    7  O   UNL     1      -6.894  21.217  67.002  1.00  0.00    -0.357 OA 
HETATM    8  C   UNL     1     -10.865  19.151  67.394  1.00  0.00    -0.533 C  
HETATM    9  C   UNL     1      -8.043  19.324  66.082  1.00  0.00    -0.294 C  
HETATM   10  C   UNL     1     -12.229  14.458  67.956  1.00  0.00    -0.162 C  
HETATM   11  C   UNL     1     -11.629  12.156  69.980  1.00  0.00    -0.251 C  
HETATM   12  C   UNL     1     -11.354  15.936  67.383  1.00  0.00    -0.048 C  
HETATM   13  C   UNL     1      -9.630  18.172  67.625  1.00  0.00    -0.278 C  
HETATM   14  C   UNL     1     -10.206  16.830  68.323  1.00  0.00    -0.295 C  
HETATM   15  O   UNL     1     -10.704  15.556  66.147  1.00  0.00    -0.310 OA 
HETATM   16  C   UNL     1      -8.919  18.302  66.275  1.00  0.00    -0.197 C  
HETATM   17  H   UNL     1     -10.245  16.331  65.846  1.00  0.00     0.000 HD 
HETATM   18  C   UNL     1      -9.079  15.767  69.013  1.00  0.00    -0.245 C  
HETATM   19 CL   UNL     1     -11.092  17.815  69.898  1.00  0.00     1.254 Cl 
HETATM   20  C   UNL     1      -8.000  16.532  69.792  1.00  0.00     0.671 C  
HETATM   21  C   UNL     1      -7.474  17.730  69.007  1.00  0.00    -0.169 C  
HETATM   22  C   UNL     1      -8.566  18.719  68.621  1.00  0.00    -0.358 C  
HETATM   23  F   UNL     1      -6.526  18.335  69.778  1.00  0.00    -0.245 F  
HETATM   24  C   UNL     1      -8.258  20.030  68.555  1.00  0.00    -0.092 C  
HETATM   25  C   UNL     1      -7.640  20.267  67.197  1.00  0.00    -0.315 C  
ENDROOT
BRANCH   5  26
HETATM   26  C   UNL     1     -10.760  12.430  67.352  1.00  0.00    -0.229 C  
HETATM   27  O   UNL     1     -10.432  12.208  66.182  1.00  0.00    -0.237 OA 
BRANCH  26  28
HETATM   28  C   UNL     1     -11.529  11.313  68.068  1.00  0.00    -0.298 C  
HETATM   29  O   UNL     1     -11.252  10.045  67.475  1.00  0.00    -0.392 OA 
HETATM   30  H   UNL     1     -11.728   9.353  67.919  1.00  0.00     0.000 HD 
ENDBRANCH  26  28
ENDBRANCH   5  26
TORSDOF 2
ENDMDL
MODEL       95
REMARK 921   NORMALIZED FREE ENERGY PREDICTED BY IDOCK:   -0.67 KCAL/MOL
REMARK 922        TOTAL FREE ENERGY PREDICTED BY IDOCK:   -0.07 KCAL/MOL
REMARK 923 INTER-LIGAND FREE ENERGY PREDICTED BY IDOCK:   -1.02 KCAL/MOL
REMARK 924 INTRA-LIGAND FREE ENERGY PREDICTED BY IDOCK:    0.94 KCAL/MOL
REMARK 927      BINDING AFFINITY PREDICTED BY RF-SCORE:    0.00 PKD
ROOT
HETATM    1  C   UNL     1     -12.191   9.821  71.682  1.00  0.00    -0.488 C  
HETATM    2  C   UNL     1     -13.290   9.465  70.870  1.00  0.00    -0.075 C  
HETATM    3  C   UNL     1     -11.992   8.981  70.262  1.00  0.00     0.167 C  
HETATM    4  C   UNL     1     -12.531   7.815  69.192  1.00  0.00     3.202 C  
HETATM    5  C   UNL     1     -10.373   9.135  71.517  1.00  0.00    -0.414 C  
HETATM    6  C   UNL     1     -11.298   8.173  71.287  1.00  0.00    -0.300 C  
HETATM    7  O   UNL     1     -10.182  16.739  68.156  1.00  0.00    -0.273 OA 
HETATM    8  C   UNL     1     -10.088  12.363  67.141  1.00  0.00    -0.221 C  
HETATM    9  C   UNL     1      -8.984  14.763  68.794  1.00  0.00    -0.179 C  
HETATM   10  C   UNL     1     -10.027   8.239  69.823  1.00  0.00    -0.191 C  
HETATM   11  C   UNL     1     -11.810   6.961  72.046  1.00  0.00    -0.345 C  
HETATM   12  C   UNL     1      -9.682   9.922  69.252  1.00  0.00    -0.208 C  
HETATM   13  C   UNL     1     -10.283  12.635  68.698  1.00  0.00    -0.165 C  
HETATM   14  C   UNL     1     -10.786  11.250  69.367  1.00  0.00    -0.239 C  
HETATM   15  O   UNL     1      -8.453  10.317  69.906  1.00  0.00    -0.348 OA 
HETATM   16  C   UNL     1      -9.004  13.420  69.003  1.00  0.00     0.407 C  
HETATM   17  H   UNL     1      -8.272  11.200  69.607  1.00  0.00     0.000 HD 
HETATM   18  C   UNL     1     -11.421  11.332  70.939  1.00  0.00     0.435 C  
HETATM   19 CL   UNL     1     -12.405  11.026  68.116  1.00  0.00     0.399 Cl 
HETATM   20  C   UNL     1     -12.347  12.544  71.101  1.00  0.00    -0.241 C  
HETATM   21  C   UNL     1     -11.738  13.809  70.504  1.00  0.00    -0.130 C  
HETATM   22  C   UNL     1     -11.399  13.670  69.025  1.00  0.00    -0.333 C  
HETATM   23  F   UNL     1     -12.630  14.821  70.701  1.00  0.00    -0.331 F  
HETATM   24  C   UNL     1     -11.503  14.756  68.233  1.00  0.00    -0.338 C  
HETATM   25  C   UNL     1     -10.221  15.540  68.396  1.00  0.00    -0.215 C  
ENDROOT
BRANCH   5  26
HETATM   26  C   UNL     1      -9.290   8.113  72.288  1.00  0.00    -0.224 C  
HETATM   27  O   UNL     1      -8.463   7.359  71.764  1.00  0.00    -0.107 OA 
BRANCH  26  28
HETATM   28  C   UNL     1      -9.304   8.151  73.820  1.00  0.00     0.116 C  
HETATM   29  O   UNL     1      -9.882   6.959  74.352  1.00  0.00    -0.375 OA 
HETATM   30  H   UNL     1      -9.890   6.983  75.302  1.00  0.00     0.000 HD 
ENDBRANCH  26  28
ENDBRANCH   5  26
TORSDOF 2
ENDMDL
MODEL       96
REMARK 921   NORMALIZED FREE ENERGY PREDICTED BY IDOCK:    0.76 KCAL/MOL
REMARK 922        TOTAL FREE ENERGY PREDICTED BY IDOCK:    1.53 KCAL/MOL
REMARK 923 INTER-LIGAND FREE ENERGY PREDICTED BY IDOCK:    0.52 KCAL/MOL
REMARK 924 INTRA-LIGAND FREE ENERGY PREDICTED BY IDOCK:    1.01 KCAL/MOL
REMARK 927      BINDING AFFINITY PREDICTED BY RF-SCORE:    0.00 PKD
ROOT
HETATM    1  C   UNL     1      -9.940   4.935  66.618  1.00  0.00    -0.254 C  
HETATM    2  C   UNL     1     -10.061   4.076  65.504  1.00  0.00    -0.142 C  
HETATM    3  C   UNL     1      -8.715   3.905  66.173  1.00  0.00    -0.115 C  
HETATM    4  C   UNL     1      -8.227   2.419  65.582  1.00  0.00    -0.087 C  
HETATM    5  C   UNL     1      -8.562   4.842  67.994  1.00  0.00    -0.103 C  
HETATM    6  C   UNL     1      -8.965   3.611  67.600  1.00  0.00    -0.165 C  
HETATM    7  O   UNL     1      -6.335  11.151  63.056  1.00  0.00     0.253 OA 
HETATM    8  C   UNL     1      -5.301   6.921  64.162  1.00  0.00    -0.028 C  
HETATM    9  C   UNL     1      -5.901   9.855  65.026  1.00  0.00    -0.094 C  
HETATM   10  C   UNL     1      -7.032   3.745  67.495  1.00  0.00    -0.055 C  
HETATM   11  C   UNL     1      -9.809   2.503  68.206  1.00  0.00     0.346 C  
HETATM   12  C   UNL     1      -6.464   5.276  66.715  1.00  0.00    -0.041 C  
HETATM   13  C   UNL     1      -6.596   7.461  64.915  1.00  0.00    -0.043 C  
HETATM   14  C   UNL     1      -7.359   6.176  65.537  1.00  0.00    -0.080 C  
HETATM   15  O   UNL     1      -6.142   6.177  67.801  1.00  0.00    -0.016 OA 
HETATM   16  C   UNL     1      -6.001   8.658  65.662  1.00  0.00    -0.051 C  
HETATM   17  H   UNL     1      -5.843   6.981  67.392  1.00  0.00     0.000 HD 
HETATM   18  C   UNL     1      -8.950   6.404  66.079  1.00  0.00    -0.143 C  
HETATM   19 CL   UNL     1      -7.510   5.174  63.745  1.00  0.00    -0.058 Cl 
HETATM   20  C   UNL     1      -9.753   7.264  65.094  1.00  0.00     1.719 C  
HETATM   21  C   UNL     1      -8.967   8.488  64.635  1.00  0.00     0.240 C  
HETATM   22  C   UNL     1      -7.640   8.134  63.977  1.00  0.00    -0.130 C  
HETATM   23  F   UNL     1      -9.763   9.182  63.773  1.00  0.00     0.267 F  
HETATM   24  C   UNL     1      -7.179   8.923  62.986  1.00  0.00    -0.092 C  
HETATM   25  C   UNL     1      -6.478  10.089  63.644  1.00  0.00    -0.131 C  
ENDROOT
BRANCH   5  26
HETATM   26  C   UNL     1      -8.352   4.417  69.603  1.00  0.00    -0.062 C  
HETATM   27  O   UNL     1      -7.291   4.350  70.231  1.00  0.00    -0.048 OA 
BRANCH  26  28
HETATM   28  C   UNL     1      -9.632   4.118  70.391  1.00  0.00    -0.196 C  
HETATM   29  O   UNL     1      -9.932   5.180  71.295  1.00  0.00    -0.175 OA 
HETATM   30  H   UNL     1     -10.725   4.995  71.784  1.00  0.00     0.000 HD 
ENDBRANCH  26  28
ENDBRANCH   5  26
TORSDOF 2
ENDMDL
MODEL       97
REMARK 921   NORMALIZED FREE ENERGY PREDICTED BY IDOCK:    1.14 KCAL/MOL
REMARK 922        TOTAL FREE ENERGY PREDICTED BY IDOCK:    1.96 KCAL/MOL
REMARK 923 INTER-LIGAND FREE ENERGY PREDICTED BY IDOCK:   -1.04 KCAL/MOL
REMARK 924 INTRA-LIGAND FREE ENERGY PREDICTED BY IDOCK:    3.00 KCAL/MOL
REMARK 927      BINDING AFFINITY PREDICTED BY RF-SCORE:    0.00 PKD
ROOT
HETATM    1  C   UNL     1     -11.728  16.719  67.663  1.00  0.00     0.732 C  
HETATM    2  C   UNL     1     -12.431  16.499  68.868  1.00  0.00     1.587 C  
HETATM    3  C   UNL     1     -10.944  16.604  69.124  1.00  0.00    -0.276 C  
HETATM    4  C   UNL     1     -10.903  16.926  70.765  1.00  0.00     0.634 C  
HETATM    5  C   UNL     1      -9.862  17.265  67.508  1.00  0.00    -0.275 C  
HETATM    6  C   UNL     1     -10.485  17.882  68.540  1.00  0.00    -0.312 C  
HETATM    7  O   UNL     1      -9.928   9.121  65.829  1.00  0.00    -0.277 OA 
HETATM    8  C   UNL     1      -8.760  12.133  68.952  1.00  0.00     0.236 C  
HETATM    9  C   UNL     1      -8.673  11.157  65.993  1.00  0.00    -0.185 C  
HETATM   10  C   UNL     1      -8.845  17.047  69.154  1.00  0.00    -0.035 C  
HETATM   11  C   UNL     1     -10.995  19.287  68.813  1.00  0.00     0.937 C  
HETATM   12  C   UNL     1      -8.632  15.356  68.543  1.00  0.00    -0.172 C  
HETATM   13  C   UNL     1      -9.485  12.790  67.696  1.00  0.00    -0.190 C  
HETATM   14  C   UNL     1      -9.928  14.285  68.127  1.00  0.00    -0.230 C  
HETATM   15  O   UNL     1      -7.764  15.459  67.389  1.00  0.00    -0.160 OA 
HETATM   16  C   UNL     1      -8.526  12.376  66.576  1.00  0.00     0.052 C  
HETATM   17  H   UNL     1      -7.652  14.573  67.068  1.00  0.00     0.000 HD 
HETATM   18  C   UNL     1     -11.035  15.089  67.123  1.00  0.00    -0.329 C  
HETATM   19 CL   UNL     1     -10.999  13.684  69.780  1.00  0.00     0.011 Cl 
HETATM   20  C   UNL     1     -12.159  14.147  66.672  1.00  0.00    -0.480 C  
HETATM   21  C   UNL     1     -11.620  12.796  66.213  1.00  0.00    -0.379 C  
HETATM   22  C   UNL     1     -10.808  12.080  67.285  1.00  0.00    -0.290 C  
HETATM   23  F   UNL     1     -12.689  12.040  65.833  1.00  0.00     0.094 F  
HETATM   24  C   UNL     1     -10.840  10.733  67.329  1.00  0.00    -0.344 C  
HETATM   25  C   UNL     1      -9.834  10.239  66.316  1.00  0.00    -0.219 C  
ENDROOT
BRANCH   5  26
HETATM   26  C   UNL     1      -8.922  18.590  67.093  1.00  0.00    -0.277 C  
HETATM   27  O   UNL     1      -9.197  19.486  66.289  1.00  0.00    -0.353 OA 
BRANCH  26  28
HETATM   28  C   UNL     1      -7.584  18.722  67.830  1.00  0.00    -0.229 C  
HETATM   29  O   UNL     1      -7.782  19.186  69.164  1.00  0.00    -0.311 OA 
HETATM   30  H   UNL     1      -6.953  19.268  69.621  1.00  0.00     0.000 HD 
ENDBRANCH  26  28
ENDBRANCH   5  26
TORSDOF 2
ENDMDL
MODEL       98
REMARK 921   NORMALIZED FREE ENERGY PREDICTED BY IDOCK:    2.62 KCAL/MOL
REMARK 922        TOTAL FREE ENERGY PREDICTED BY IDOCK:    3.61 KCAL/MOL
REMARK 923 INTER-LIGAND FREE ENERGY PREDICTED BY IDOCK:    1.04 KCAL/MOL
REMARK 924 INTRA-LIGAND FREE ENERGY PREDICTED BY IDOCK:    2.57 KCAL/MOL
REMARK 927      BINDING AFFINITY PREDICTED BY RF-SCORE:    0.00 PKD
ROOT
HETATM    1  C   UNL     1     -12.015  13.897  67.578  1.00  0.00    -0.421 C  
HETATM    2  C   UNL     1     -12.066  13.350  68.878  1.00  0.00    -0.289 C  
HETATM    3  C   UNL     1     -10.794  14.142  68.677  1.00  0.00    -0.268 C  
HETATM    4  C   UNL     1     -10.311  14.418  70.254  1.00  0.00     0.680 C  
HETATM    5  C   UNL     1     -10.771  15.264  66.956  1.00  0.00    -0.313 C  
HETATM    6  C   UNL     1     -11.183  15.495  68.226  1.00  0.00    -0.343 C  
HETATM    7  O   UNL     1      -7.873   8.089  63.911  1.00  0.00    -0.132 OA 
HETATM    8  C   UNL     1      -7.101  11.242  67.018  1.00  0.00    -0.129 C  
HETATM    9  C   UNL     1      -7.668  10.474  64.051  1.00  0.00     0.054 C  
HETATM   10  C   UNL     1      -9.245  15.526  68.137  1.00  0.00    -0.189 C  
HETATM   11  C   UNL     1     -12.119  16.487  68.896  1.00  0.00     0.659 C  
HETATM   12  C   UNL     1      -8.551  14.148  67.190  1.00  0.00    -0.214 C  
HETATM   13  C   UNL     1      -8.439  11.499  66.192  1.00  0.00    -0.060 C  
HETATM   14  C   UNL     1      -9.302  12.599  67.006  1.00  0.00    -0.220 C  
HETATM   15  O   UNL     1      -8.295  14.669  65.864  1.00  0.00     0.284 OA 
HETATM   16  C   UNL     1      -7.870  11.607  64.774  1.00  0.00     1.663 C  
HETATM   17  H   UNL     1      -7.931  13.947  65.367  1.00  0.00     0.000 HD 
HETATM   18  C   UNL     1     -10.926  12.799  66.559  1.00  0.00    -0.291 C  
HETATM   19 CL   UNL     1      -9.328  11.535  68.769  1.00  0.00    -0.138 Cl 
HETATM   20  C   UNL     1     -11.604  11.445  66.313  1.00  0.00     0.110 C  
HETATM   21  C   UNL     1     -10.735  10.518  65.470  1.00  0.00     0.023 C  
HETATM   22  C   UNL     1      -9.367  10.254  66.087  1.00  0.00    -0.211 C  
HETATM   23  F   UNL     1     -11.423   9.352  65.306  1.00  0.00     2.433 F  
HETATM   24  C   UNL     1      -8.790   9.052  65.890  1.00  0.00    -0.210 C  
HETATM   25  C   UNL     1      -8.108   9.110  64.543  1.00  0.00    -0.139 C  
ENDROOT
BRANCH   5  26
HETATM   26  C   UNL     1     -10.724  16.883  66.522  1.00  0.00    -0.087 C  
HETATM   27  O   UNL     1     -10.702  17.356  65.382  1.00  0.00    -0.595 OA 
BRANCH  26  28
HETATM   28  C   UNL     1     -10.750  17.890  67.678  1.00  0.00    -0.331 C  
HETATM   29  O   UNL     1      -9.471  18.500  67.849  1.00  0.00    -0.284 OA 
HETATM   30  H   UNL     1      -9.487  19.124  68.565  1.00  0.00     0.000 HD 
ENDBRANCH  26  28
ENDBRANCH   5  26
TORSDOF 2
ENDMDL
MODEL       99
REMARK 921   NORMALIZED FREE ENERGY PREDICTED BY IDOCK:    3.26 KCAL/MOL
REMARK 922        TOTAL FREE ENERGY PREDICTED BY IDOCK:    4.32 KCAL/MOL
REMARK 923 INTER-LIGAND FREE ENERGY PREDICTED BY IDOCK:    2.92 KCAL/MOL
REMARK 924 INTRA-LIGAND FREE ENERGY PREDICTED BY IDOCK:    1.40 KCAL/MOL
REMARK 927      BINDING AFFINITY PREDICTED BY RF-SCORE:    0.00 PKD
ROOT
HETATM    1  C   UNL     1      -8.635  14.063  68.130  1.00  0.00    -0.181 C  
HETATM    2  C   UNL     1      -8.205  14.412  69.429  1.00  0.00     0.217 C  
HETATM    3  C   UNL     1      -9.710  14.502  69.319  1.00  0.00     0.007 C  
HETATM    4  C   UNL     1     -10.172  14.470  70.926  1.00  0.00     1.539 C  
HETATM    5  C   UNL     1     -10.472  13.688  67.594  1.00  0.00    -0.238 C  
HETATM    6  C   UNL     1     -10.196  13.196  68.825  1.00  0.00    -0.109 C  
HETATM    7  O   UNL     1      -8.894  21.380  64.856  1.00  0.00     2.430 OA 
HETATM    8  C   UNL     1     -11.156  19.076  67.980  1.00  0.00     0.149 C  
HETATM    9  C   UNL     1     -10.423  19.537  64.987  1.00  0.00     1.024 C  
HETATM   10  C   UNL     1     -11.801  14.284  68.887  1.00  0.00    -0.372 C  
HETATM   11  C   UNL     1      -9.962  11.814  69.411  1.00  0.00     0.456 C  
HETATM   12  C   UNL     1     -11.631  15.859  68.010  1.00  0.00    -0.168 C  
HETATM   13  C   UNL     1     -10.259  18.144  67.050  1.00  0.00    -0.373 C  
HETATM   14  C   UNL     1     -10.139  16.708  67.784  1.00  0.00    -0.275 C  
HETATM   15  O   UNL     1     -12.216  15.649  66.703  1.00  0.00     0.586 OA 
HETATM   16  C   UNL     1     -10.867  18.456  65.680  1.00  0.00     0.055 C  
HETATM   17  H   UNL     1     -12.127  16.474  66.242  1.00  0.00     0.000 HD 
HETATM   18  C   UNL     1      -8.953  15.638  67.211  1.00  0.00    -0.214 C  
HETATM   19 CL   UNL     1      -9.405  17.471  69.550  1.00  0.00     0.324 Cl 
HETATM   20  C   UNL     1      -7.635  16.372  66.926  1.00  0.00    -0.275 C  
HETATM   21  C   UNL     1      -7.862  17.672  66.162  1.00  0.00    -0.234 C  
HETATM   22  C   UNL     1      -8.791  18.638  66.887  1.00  0.00    -0.289 C  
HETATM   23  F   UNL     1      -6.640  18.241  65.958  1.00  0.00    -0.208 F  
HETATM   24  C   UNL     1      -8.584  19.963  66.747  1.00  0.00    -0.394 C  
HETATM   25  C   UNL     1      -9.252  20.376  65.456  1.00  0.00     0.495 C  
ENDROOT
BRANCH   5  26
HETATM   26  C   UNL     1     -11.466  12.413  67.148  1.00  0.00    -0.357 C  
HETATM   27  O   UNL     1     -12.601  12.476  66.666  1.00  0.00    -0.163 OA 
BRANCH  26  28
HETATM   28  C   UNL     1     -10.878  11.008  67.326  1.00  0.00    -0.281 C  
HETATM   29  O   UNL     1     -10.199  10.589  66.143  1.00  0.00    -0.235 OA 
HETATM   30  H   UNL     1      -9.834   9.719  66.253  1.00  0.00     0.000 HD 
ENDBRANCH  26  28
ENDBRANCH   5  26
TORSDOF 2
ENDMDL
MODEL      100
REMARK 921   NORMALIZED FREE ENERGY PREDICTED BY IDOCK:    3.32 KCAL/MOL
REMARK 922        TOTAL FREE ENERGY PREDICTED BY IDOCK:    4.39 KCAL/MOL
REMARK 923 INTER-LIGAND FREE ENERGY PREDICTED BY IDOCK:    2.23 KCAL/MOL
REMARK 924 INTRA-LIGAND FREE ENERGY PREDICTED BY IDOCK:    2.16 KCAL/MOL
REMARK 927      BINDING AFFINITY PREDICTED BY RF-SCORE:    0.00 PKD
ROOT
HETATM    1  C   UNL     1      -7.036  11.838  66.387  1.00  0.00     0.218 C  
HETATM    2  C   UNL     1      -6.060  11.316  67.263  1.00  0.00    -0.076 C  
HETATM    3  C   UNL     1      -7.425  11.312  67.915  1.00  0.00    -0.094 C  
HETATM    4  C   UNL     1      -7.205  10.216  69.159  1.00  0.00    -0.081 C  
HETATM    5  C   UNL     1      -8.968  11.720  66.623  1.00  0.00    -0.195 C  
HETATM    6  C   UNL     1      -8.342  10.585  67.012  1.00  0.00    -0.128 C  
HETATM    7  O   UNL     1      -6.946  19.491  68.787  1.00  0.00    -0.306 OA 
HETATM    8  C   UNL     1      -8.231  15.520  70.452  1.00  0.00     1.201 C  
HETATM    9  C   UNL     1      -8.664  17.855  68.435  1.00  0.00    -0.296 C  
HETATM   10  C   UNL     1      -9.507  11.222  68.427  1.00  0.00    -0.192 C  
HETATM   11  C   UNL     1      -8.208   9.177  66.455  1.00  0.00    -0.114 C  
HETATM   12  C   UNL     1      -9.355  13.001  68.730  1.00  0.00     0.135 C  
HETATM   13  C   UNL     1      -8.007  15.489  68.875  1.00  0.00    -0.187 C  
HETATM   14  C   UNL     1      -7.927  13.935  68.433  1.00  0.00    -0.144 C  
HETATM   15  O   UNL     1     -10.441  13.620  68.001  1.00  0.00    -0.237 OA 
HETATM   16  C   UNL     1      -9.024  16.545  68.432  1.00  0.00    -0.219 C  
HETATM   17  H   UNL     1     -10.361  14.553  68.160  1.00  0.00     0.000 HD 
HETATM   18  C   UNL     1      -7.335  13.598  66.879  1.00  0.00     0.628 C  
HETATM   19 CL   UNL     1      -6.403  13.458  69.733  1.00  0.00    -0.112 Cl 
HETATM   20  C   UNL     1      -6.112  14.465  66.551  1.00  0.00     3.343 C  
HETATM   21  C   UNL     1      -6.329  15.924  66.939  1.00  0.00     0.271 C  
HETATM   22  C   UNL     1      -6.656  16.110  68.415  1.00  0.00    -0.127 C  
HETATM   23  F   UNL     1      -5.196  16.605  66.606  1.00  0.00    -0.157 F  
HETATM   24  C   UNL     1      -6.234  17.230  69.035  1.00  0.00    -0.209 C  
HETATM   25  C   UNL     1      -7.249  18.307  68.733  1.00  0.00    -0.279 C  
ENDROOT
BRANCH   5  26
HETATM   26  C   UNL     1     -10.313  10.937  65.997  1.00  0.00    -0.245 C  
HETATM   27  O   UNL     1     -10.386  10.288  64.949  1.00  0.00    -0.283 OA 
BRANCH  26  28
HETATM   28  C   UNL     1     -11.587  11.005  66.848  1.00  0.00     0.308 C  
HETATM   29  O   UNL     1     -11.718   9.838  67.658  1.00  0.00    -0.197 OA 
HETATM   30  H   UNL     1     -12.507   9.880  68.186  1.00  0.00     0.000 HD 
ENDBRANCH  26  28
ENDBRANCH   5  26
TORSDOF 2
ENDMDL
MODEL      101
REMARK 921   NORMALIZED FREE ENERGY PREDICTED BY IDOCK:    6.03 KCAL/MOL
REMARK 922        TOTAL FREE ENERGY PREDICTED BY IDOCK:    7.42 KCAL/MOL
REMARK 923 INTER-LIGAND FREE ENERGY PREDICTED BY IDOCK:    3.78 KCAL/MOL
REMARK 924 INTRA-LIGAND FREE ENERGY PREDICTED BY IDOCK:    3.64 KCAL/MOL
REMARK 927      BINDING AFFINITY PREDICTED BY RF-SCORE:    0.00 PKD
ROOT
HETATM    1  C   UNL     1      -9.146  12.885  65.993  1.00  0.00     0.150 C  
HETATM    2  C   UNL     1      -7.926  12.583  65.351  1.00  0.00     2.698 C  
HETATM    3  C   UNL     1      -7.821  12.350  66.841  1.00  0.00    -0.014 C  
HETATM    4  C   UNL     1      -6.478  11.358  66.938  1.00  0.00    -0.138 C  
HETATM    5  C   UNL     1      -9.622  12.420  67.826  1.00  0.00    -0.202 C  
HETATM    6  C   UNL     1      -8.917  11.434  67.223  1.00  0.00    -0.159 C  
HETATM    7  O   UNL     1      -7.675  20.502  68.026  1.00  0.00    -0.183 OA 
HETATM    8  C   UNL     1      -6.198  16.424  69.199  1.00  0.00    -0.169 C  
HETATM    9  C   UNL     1      -8.462  18.567  69.202  1.00  0.00     0.042 C  
HETATM   10  C   UNL     1      -8.099  11.896  68.920  1.00  0.00     0.066 C  
HETATM   11  C   UNL     1      -9.240  10.057  66.667  1.00  0.00    -0.178 C  
HETATM   12  C   UNL     1      -7.945  13.681  69.177  1.00  0.00     0.288 C  
HETATM   13  C   UNL     1      -7.572  16.379  68.395  1.00  0.00    -0.178 C  
HETATM   14  C   UNL     1      -7.793  14.852  67.909  1.00  0.00    -0.145 C  
HETATM   15  O   UNL     1      -9.079  14.064  69.990  1.00  0.00     0.728 OA 
HETATM   16  C   UNL     1      -8.461  17.213  69.322  1.00  0.00     0.149 C  
HETATM   17  H   UNL     1      -8.999  15.000  70.125  1.00  0.00     0.000 HD 
HETATM   18  C   UNL     1      -8.980  14.575  66.729  1.00  0.00    -0.270 C  
HETATM   19 CL   UNL     1      -5.985  14.711  66.935  1.00  0.00     1.175 Cl 
HETATM   20  C   UNL     1      -8.925  15.641  65.627  1.00  0.00     0.199 C  
HETATM   21  C   UNL     1      -8.795  17.048  66.201  1.00  0.00    -0.216 C  
HETATM   22  C   UNL     1      -7.568  17.222  67.086  1.00  0.00    -0.217 C  
HETATM   23  F   UNL     1      -8.758  17.914  65.149  1.00  0.00     0.881 F  
HETATM   24  C   UNL     1      -6.954  18.422  67.112  1.00  0.00    -0.212 C  
HETATM   25  C   UNL     1      -7.715  19.282  68.094  1.00  0.00    -0.297 C  
ENDROOT
BRANCH   5  26
HETATM   26  C   UNL     1     -10.613  11.381  68.693  1.00  0.00    -0.199 C  
HETATM   27  O   UNL     1     -10.558  11.120  69.899  1.00  0.00    -0.048 OA 
BRANCH  26  28
HETATM   28  C   UNL     1     -11.740  10.709  67.900  1.00  0.00     0.143 C  
HETATM   29  O   UNL     1     -11.212   9.928  66.829  1.00  0.00     0.083 OA 
HETATM   30  H   UNL     1     -11.910   9.512  66.338  1.00  0.00     0.000 HD 
ENDBRANCH  26  28
ENDBRANCH   5  26
TORSDOF 2
ENDMDL
MODEL      102
REMARK 921   NORMALIZED FREE ENERGY PREDICTED BY IDOCK:    6.09 KCAL/MOL
REMARK 922        TOTAL FREE ENERGY PREDICTED BY IDOCK:    7.48 KCAL/MOL
REMARK 923 INTER-LIGAND FREE ENERGY PREDICTED BY IDOCK:    4.50 KCAL/MOL
REMARK 924 INTRA-LIGAND FREE ENERGY PREDICTED BY IDOCK:    2.98 KCAL/MOL
REMARK 927      BINDING AFFINITY PREDICTED BY RF-SCORE:    0.00 PKD
ROOT
HETATM    1  C   UNL     1      -8.038  15.515  67.118  1.00  0.00    -0.249 C  
HETATM    2  C   UNL     1      -9.363  15.510  66.632  1.00  0.00    -0.291 C  
HETATM    3  C   UNL     1      -9.346  15.511  68.144  1.00  0.00    -0.197 C  
HETATM    4  C   UNL     1     -10.895  16.028  68.502  1.00  0.00    -0.304 C  
HETATM    5  C   UNL     1      -7.494  15.866  68.958  1.00  0.00    -0.194 C  
HETATM    6  C   UNL     1      -8.522  16.660  68.576  1.00  0.00    -0.233 C  
HETATM    7  O   UNL     1      -6.987   7.617  68.039  1.00  0.00    -0.074 OA 
HETATM    8  C   UNL     1      -9.421  10.872  69.954  1.00  0.00     0.692 C  
HETATM    9  C   UNL     1      -6.653   9.535  69.438  1.00  0.00    -0.044 C  
HETATM   10  C   UNL     1      -8.956  15.761  70.239  1.00  0.00     0.978 C  
HETATM   11  C   UNL     1      -8.682  18.128  68.220  1.00  0.00    -0.294 C  
HETATM   12  C   UNL     1      -8.556  13.996  70.223  1.00  0.00     2.504 C  
HETATM   13  C   UNL     1      -8.229  11.433  69.059  1.00  0.00     0.015 C  
HETATM   14  C   UNL     1      -8.519  13.004  68.804  1.00  0.00     0.149 C  
HETATM   15  O   UNL     1      -7.268  13.876  70.873  1.00  0.00     0.477 OA 
HETATM   16  C   UNL     1      -7.029  10.799  69.770  1.00  0.00    -0.141 C  
HETATM   17  H   UNL     1      -7.058  12.950  70.864  1.00  0.00     0.000 HD 
HETATM   18  C   UNL     1      -7.617  13.775  67.590  1.00  0.00    -0.189 C  
HETATM   19 CL   UNL     1     -10.397  12.712  68.012  1.00  0.00    -0.221 Cl 
HETATM   20  C   UNL     1      -7.498  12.891  66.342  1.00  0.00     1.336 C  
HETATM   21  C   UNL     1      -7.145  11.450  66.697  1.00  0.00    -0.103 C  
HETATM   22  C   UNL     1      -8.151  10.801  67.639  1.00  0.00    -0.114 C  
HETATM   23  F   UNL     1      -7.060  10.753  65.528  1.00  0.00    -0.139 F  
HETATM   24  C   UNL     1      -8.384   9.478  67.524  1.00  0.00    -0.125 C  
HETATM   25  C   UNL     1      -7.293   8.773  68.295  1.00  0.00    -0.087 C  
ENDROOT
BRANCH   5  26
HETATM   26  C   UNL     1      -6.746  17.039  69.895  1.00  0.00     0.237 C  
HETATM   27  O   UNL     1      -6.933  18.259  69.864  1.00  0.00     0.135 OA 
BRANCH  26  28
HETATM   28  C   UNL     1      -5.745  16.529  70.938  1.00  0.00     0.231 C  
HETATM   29  O   UNL     1      -6.275  15.409  71.645  1.00  0.00     0.744 OA 
HETATM   30  H   UNL     1      -5.655  15.093  72.291  1.00  0.00     0.000 HD 
ENDBRANCH  26  28
ENDBRANCH   5  26
TORSDOF 2
ENDMDL
MODEL      103
REMARK 921   NORMALIZED FREE ENERGY PREDICTED BY IDOCK:    6.34 KCAL/MOL
REMARK 922        TOTAL FREE ENERGY PREDICTED BY IDOCK:    7.76 KCAL/MOL
REMARK 923 INTER-LIGAND FREE ENERGY PREDICTED BY IDOCK:    6.23 KCAL/MOL
REMARK 924 INTRA-LIGAND FREE ENERGY PREDICTED BY IDOCK:    1.53 KCAL/MOL
REMARK 927      BINDING AFFINITY PREDICTED BY RF-SCORE:    0.00 PKD
ROOT
HETATM    1  C   UNL     1      -8.190  18.339  69.409  1.00  0.00     0.390 C  
HETATM    2  C   UNL     1      -6.806  18.213  69.158  1.00  0.00    -0.240 C  
HETATM    3  C   UNL     1      -7.522  18.777  67.951  1.00  0.00    -0.262 C  
HETATM    4  C   UNL     1      -6.259  19.459  67.094  1.00  0.00    -0.191 C  
HETATM    5  C   UNL     1      -9.467  19.326  68.316  1.00  0.00    -0.421 C  
HETATM    6  C   UNL     1      -8.277  19.965  68.401  1.00  0.00    -0.223 C  
HETATM    7  O   UNL     1     -10.674  11.317  66.434  1.00  0.00    -0.262 OA 
HETATM    8  C   UNL     1      -8.964  15.158  64.850  1.00  0.00     2.870 C  
HETATM    9  C   UNL     1     -11.337  13.601  66.138  1.00  0.00    -0.324 C  
HETATM   10  C   UNL     1      -8.798  19.774  66.542  1.00  0.00    -0.420 C  
HETATM   11  C   UNL     1      -7.761  21.200  69.120  1.00  0.00     2.550 C  
HETATM   12  C   UNL     1      -9.395  18.113  66.136  1.00  0.00    -0.132 C  
HETATM   13  C   UNL     1      -9.511  15.290  66.340  1.00  0.00    -0.326 C  
HETATM   14  C   UNL     1      -8.912  16.663  66.950  1.00  0.00    -0.244 C  
HETATM   15  O   UNL     1     -10.839  18.187  66.195  1.00  0.00    -0.208 OA 
HETATM   16  C   UNL     1     -10.981  14.913  66.128  1.00  0.00    -0.334 C  
HETATM   17  H   UNL     1     -11.153  17.317  65.981  1.00  0.00     0.000 HD 
HETATM   18  C   UNL     1      -9.027  16.884  68.628  1.00  0.00    -0.266 C  
HETATM   19 CL   UNL     1      -6.946  16.181  66.577  1.00  0.00     0.037 Cl 
HETATM   20  C   UNL     1      -8.680  15.593  69.382  1.00  0.00    -0.249 C  
HETATM   21  C   UNL     1      -9.362  14.374  68.768  1.00  0.00    -0.150 C  
HETATM   22  C   UNL     1      -9.012  14.170  67.299  1.00  0.00    -0.221 C  
HETATM   23  F   UNL     1      -8.994  13.289  69.506  1.00  0.00     0.592 F  
HETATM   24  C   UNL     1      -8.945  12.912  66.819  1.00  0.00    -0.182 C  
HETATM   25  C   UNL     1     -10.359  12.498  66.482  1.00  0.00    -0.237 C  
ENDROOT
BRANCH   5  26
HETATM   26  C   UNL     1     -10.386  20.729  68.331  1.00  0.00     0.424 C  
HETATM   27  O   UNL     1     -10.934  21.280  67.371  1.00  0.00     2.312 OA 
BRANCH  26  28
HETATM   28  C   UNL     1     -10.601  21.377  69.704  1.00  0.00     1.853 C  
HETATM   29  O   UNL     1     -10.149  20.516  70.747  1.00  0.00     0.091 OA 
HETATM   30  H   UNL     1     -10.282  20.918  71.598  1.00  0.00     0.000 HD 
ENDBRANCH  26  28
ENDBRANCH   5  26
TORSDOF 2
ENDMDL
MODEL      104
REMARK 921   NORMALIZED FREE ENERGY PREDICTED BY IDOCK:    6.60 KCAL/MOL
REMARK 922        TOTAL FREE ENERGY PREDICTED BY IDOCK:    8.05 KCAL/MOL
REMARK 923 INTER-LIGAND FREE ENERGY PREDICTED BY IDOCK:    2.53 KCAL/MOL
REMARK 924 INTRA-LIGAND FREE ENERGY PREDICTED BY IDOCK:    5.52 KCAL/MOL
REMARK 927      BINDING AFFINITY PREDICTED BY RF-SCORE:    0.00 PKD
ROOT
HETATM    1  C   UNL     1      -8.543   7.456  65.589  1.00  0.00    -0.128 C  
HETATM    2  C   UNL     1      -7.278   7.775  66.128  1.00  0.00    -0.074 C  
HETATM    3  C   UNL     1      -8.207   7.259  67.204  1.00  0.00    -0.118 C  
HETATM    4  C   UNL     1      -7.129   6.828  68.408  1.00  0.00    -0.083 C  
HETATM    5  C   UNL     1      -9.948   6.442  66.483  1.00  0.00    -0.162 C  
HETATM    6  C   UNL     1      -8.718   5.946  66.754  1.00  0.00    -0.117 C  
HETATM    7  O   UNL     1     -12.309  14.401  66.975  1.00  0.00    -0.353 OA 
HETATM    8  C   UNL     1     -10.680  10.983  69.396  1.00  0.00    -0.247 C  
HETATM    9  C   UNL     1     -12.809  12.096  67.411  1.00  0.00     2.966 C  
HETATM   10  C   UNL     1      -9.685   6.269  68.405  1.00  0.00    -0.130 C  
HETATM   11  C   UNL     1      -7.932   4.714  66.339  1.00  0.00    -0.103 C  
HETATM   12  C   UNL     1     -10.513   7.878  68.444  1.00  0.00    -0.166 C  
HETATM   13  C   UNL     1     -10.839  10.630  67.851  1.00  0.00    -0.328 C  
HETATM   14  C   UNL     1      -9.986   9.282  67.578  1.00  0.00    -0.254 C  
HETATM   15  O   UNL     1     -11.888   7.624  68.070  1.00  0.00     0.880 OA 
HETATM   16  C   UNL     1     -12.345  10.846  67.673  1.00  0.00     1.866 C  
HETATM   17  H   UNL     1     -12.323   8.468  68.090  1.00  0.00     0.000 HD 
HETATM   18  C   UNL     1      -9.675   8.873  65.961  1.00  0.00    -0.308 C  
HETATM   19 CL   UNL     1      -8.220  10.035  68.320  1.00  0.00    -0.104 Cl 
HETATM   20  C   UNL     1      -9.279  10.110  65.143  1.00  0.00    -0.262 C  
HETATM   21  C   UNL     1     -10.197  11.295  65.422  1.00  0.00    -0.270 C  
HETATM   22  C   UNL     1     -10.230  11.694  66.892  1.00  0.00    -0.244 C  
HETATM   23  F   UNL     1      -9.766  12.333  64.650  1.00  0.00    -0.222 F  
HETATM   24  C   UNL     1     -10.398  12.994  67.205  1.00  0.00    -0.238 C  
HETATM   25  C   UNL     1     -11.883  13.268  67.155  1.00  0.00    -0.374 C  
ENDROOT
BRANCH   5  26
HETATM   26  C   UNL     1     -10.702   4.945  66.444  1.00  0.00    -0.109 C  
HETATM   27  O   UNL     1     -11.741   4.640  65.850  1.00  0.00     1.174 OA 
BRANCH  26  28
HETATM   28  C   UNL     1      -9.995   3.816  67.202  1.00  0.00     0.185 C  
HETATM   29  O   UNL     1      -9.627   4.239  68.515  1.00  0.00    -0.154 OA 
HETATM   30  H   UNL     1      -9.189   3.539  68.985  1.00  0.00     0.000 HD 
ENDBRANCH  26  28
ENDBRANCH   5  26
TORSDOF 2
ENDMDL
MODEL      105
REMARK 921   NORMALIZED FREE ENERGY PREDICTED BY IDOCK:    9.55 KCAL/MOL
REMARK 922        TOTAL FREE ENERGY PREDICTED BY IDOCK:   11.34 KCAL/MOL
REMARK 923 INTER-LIGAND FREE ENERGY PREDICTED BY IDOCK:    9.02 KCAL/MOL
REMARK 924 INTRA-LIGAND FREE ENERGY PREDICTED BY IDOCK:    2.32 KCAL/MOL
REMARK 927      BINDING AFFINITY PREDICTED BY RF-SCORE:    0.00 PKD
ROOT
HETATM    1  C   UNL     1      -9.026   9.976  68.699  1.00  0.00    -0.136 C  
HETATM    2  C   UNL     1      -9.857   9.776  69.823  1.00  0.00    -0.262 C  
HETATM    3  C   UNL     1     -10.578  10.567  68.754  1.00  0.00    -0.233 C  
HETATM    4  C   UNL     1     -12.176  10.374  69.207  1.00  0.00     0.081 C  
HETATM    5  C   UNL     1      -9.598  10.618  66.949  1.00  0.00    -0.200 C  
HETATM    6  C   UNL     1     -10.509   9.783  67.503  1.00  0.00    -0.309 C  
HETATM    7  O   UNL     1      -5.977  17.141  70.623  1.00  0.00     0.050 OA 
HETATM    8  C   UNL     1      -9.963  15.465  69.403  1.00  0.00    -0.272 C  
HETATM    9  C   UNL     1      -7.031  16.227  68.673  1.00  0.00    -0.148 C  
HETATM   10  C   UNL     1     -11.367  11.435  66.956  1.00  0.00    -0.309 C  
HETATM   11  C   UNL     1     -10.957   8.352  67.253  1.00  0.00     0.111 C  
HETATM   12  C   UNL     1     -10.444  12.914  67.444  1.00  0.00    -0.233 C  
HETATM   13  C   UNL     1      -8.754  14.474  69.100  1.00  0.00     0.032 C  
HETATM   14  C   UNL     1      -9.391  13.014  68.816  1.00  0.00     0.127 C  
HETATM   15  O   UNL     1      -9.680  13.306  66.279  1.00  0.00    -0.276 OA 
HETATM   16  C   UNL     1      -7.919  15.339  68.152  1.00  0.00    -0.128 C  
HETATM   17  H   UNL     1      -9.196  14.082  66.535  1.00  0.00     0.000 HD 
HETATM   18  C   UNL     1      -8.332  11.688  68.823  1.00  0.00    -0.040 C  
HETATM   19 CL   UNL     1     -10.424  12.921  70.595  1.00  0.00     3.227 Cl 
HETATM   20  C   UNL     1      -7.333  11.783  69.984  1.00  0.00     1.055 C  
HETATM   21  C   UNL     1      -6.737  13.182  70.109  1.00  0.00     0.425 C  
HETATM   22  C   UNL     1      -7.789  14.266  70.304  1.00  0.00     1.235 C  
HETATM   23  F   UNL     1      -5.867  13.160  71.158  1.00  0.00    -0.193 F  
HETATM   24  C   UNL     1      -7.479  15.341  71.055  1.00  0.00     1.920 C  
HETATM   25  C   UNL     1      -6.736  16.302  70.157  1.00  0.00     0.350 C  
ENDROOT
BRANCH   5  26
HETATM   26  C   UNL     1      -9.844  10.082  65.380  1.00  0.00    -0.314 C  
HETATM   27  O   UNL     1      -9.290   9.135  64.812  1.00  0.00    -0.124 OA 
BRANCH  26  28
HETATM   28  C   UNL     1     -10.910  10.831  64.572  1.00  0.00     0.070 C  
HETATM   29  O   UNL     1     -12.191  10.226  64.738  1.00  0.00     3.510 OA 
HETATM   30  H   UNL     1     -12.852  10.690  64.238  1.00  0.00     0.000 HD 
ENDBRANCH  26  28
ENDBRANCH   5  26
TORSDOF 2
ENDMDL
MODEL      106
REMARK 921   NORMALIZED FREE ENERGY PREDICTED BY IDOCK:   10.66 KCAL/MOL
REMARK 922        TOTAL FREE ENERGY PREDICTED BY IDOCK:   12.59 KCAL/MOL
REMARK 923 INTER-LIGAND FREE ENERGY PREDICTED BY IDOCK:   11.00 KCAL/MOL
REMARK 924 INTRA-LIGAND FREE ENERGY PREDICTED BY IDOCK:    1.59 KCAL/MOL
REMARK 927      BINDING AFFINITY PREDICTED BY RF-SCORE:    0.00 PKD
ROOT
HETATM    1  C   UNL     1      -6.754  12.819  68.028  1.00  0.00    -0.100 C  
HETATM    2  C   UNL     1      -7.716  13.733  67.547  1.00  0.00    -0.187 C  
HETATM    3  C   UNL     1      -8.314  12.828  68.600  1.00  0.00     0.032 C  
HETATM    4  C   UNL     1      -9.676  13.685  69.054  1.00  0.00     0.176 C  
HETATM    5  C   UNL     1      -6.929  11.698  69.614  1.00  0.00     0.055 C  
HETATM    6  C   UNL     1      -7.462  12.928  69.804  1.00  0.00     1.006 C  
HETATM    7  O   UNL     1      -8.315   6.637  63.163  1.00  0.00     0.000 OA 
HETATM    8  C   UNL     1     -10.351   8.771  66.553  1.00  0.00    -0.254 C  
HETATM    9  C   UNL     1      -8.078   6.897  65.535  1.00  0.00    -0.132 C  
HETATM   10  C   UNL     1      -8.756  11.562  70.276  1.00  0.00     3.354 C  
HETATM   11  C   UNL     1      -7.065  14.171  70.584  1.00  0.00     0.887 C  
HETATM   12  C   UNL     1      -8.870  10.234  69.052  1.00  0.00    -0.168 C  
HETATM   13  C   UNL     1      -8.796   9.102  66.455  1.00  0.00    -0.165 C  
HETATM   14  C   UNL     1      -8.527  10.413  67.364  1.00  0.00    -0.121 C  
HETATM   15  O   UNL     1      -8.039   9.160  69.554  1.00  0.00    -0.097 OA 
HETATM   16  C   UNL     1      -8.204   7.699  66.624  1.00  0.00    -0.124 C  
HETATM   17  H   UNL     1      -8.099   8.463  68.912  1.00  0.00     0.000 HD 
HETATM   18  C   UNL     1      -7.041  11.208  67.163  1.00  0.00    -0.113 C  
HETATM   19 CL   UNL     1      -9.926  11.583  66.407  1.00  0.00    -0.232 Cl 
HETATM   20  C   UNL     1      -6.667  11.317  65.679  1.00  0.00     0.410 C  
HETATM   21  C   UNL     1      -6.886  10.002  64.938  1.00  0.00    -0.133 C  
HETATM   22  C   UNL     1      -8.321   9.497  65.026  1.00  0.00    -0.148 C  
HETATM   23  F   UNL     1      -6.524  10.202  63.640  1.00  0.00    -0.118 F  
HETATM   24  C   UNL     1      -8.832   8.815  63.982  1.00  0.00     0.110 C  
HETATM   25  C   UNL     1      -8.378   7.382  64.131  1.00  0.00     0.138 C  
ENDROOT
BRANCH   5  26
HETATM   26  C   UNL     1      -6.343  11.551  71.178  1.00  0.00     1.305 C  
HETATM   27  O   UNL     1      -5.403  12.166  71.691  1.00  0.00    -0.365 OA 
BRANCH  26  28
HETATM   28  C   UNL     1      -7.089  10.565  72.085  1.00  0.00     3.990 C  
HETATM   29  O   UNL     1      -6.542  10.576  73.403  1.00  0.00     1.997 OA 
HETATM   30  H   UNL     1      -7.004   9.965  73.966  1.00  0.00     0.000 HD 
ENDBRANCH  26  28
ENDBRANCH   5  26
TORSDOF 2
ENDMDL
MODEL      107
REMARK 921   NORMALIZED FREE ENERGY PREDICTED BY IDOCK:   10.97 KCAL/MOL
REMARK 922        TOTAL FREE ENERGY PREDICTED BY IDOCK:   12.93 KCAL/MOL
REMARK 923 INTER-LIGAND FREE ENERGY PREDICTED BY IDOCK:   11.79 KCAL/MOL
REMARK 924 INTRA-LIGAND FREE ENERGY PREDICTED BY IDOCK:    1.13 KCAL/MOL
REMARK 927      BINDING AFFINITY PREDICTED BY RF-SCORE:    0.00 PKD
ROOT
HETATM    1  C   UNL     1     -10.169   5.048  66.582  1.00  0.00    -0.299 C  
HETATM    2  C   UNL     1     -10.504   5.179  65.216  1.00  0.00     0.340 C  
HETATM    3  C   UNL     1      -9.068   5.587  65.460  1.00  0.00    -0.101 C  
HETATM    4  C   UNL     1      -8.423   5.502  63.920  1.00  0.00    -0.035 C  
HETATM    5  C   UNL     1      -8.371   5.112  67.333  1.00  0.00    -0.106 C  
HETATM    6  C   UNL     1      -8.399   4.462  66.146  1.00  0.00    -0.113 C  
HETATM    7  O   UNL     1     -11.732  12.532  69.004  1.00  0.00    -0.285 OA 
HETATM    8  C   UNL     1      -8.712  10.465  66.398  1.00  0.00    -0.149 C  
HETATM    9  C   UNL     1      -9.868  11.042  69.234  1.00  0.00    -0.060 C  
HETATM   10  C   UNL     1      -7.041   5.847  66.115  1.00  0.00    -0.071 C  
HETATM   11  C   UNL     1      -8.287   3.013  65.703  1.00  0.00    -0.098 C  
HETATM   12  C   UNL     1      -7.617   7.427  66.784  1.00  0.00    -0.101 C  
HETATM   13  C   UNL     1      -9.513   9.459  67.338  1.00  0.00    -0.163 C  
HETATM   14  C   UNL     1      -9.263   7.967  66.765  1.00  0.00    -0.206 C  
HETATM   15  O   UNL     1      -7.161   7.465  68.157  1.00  0.00    -0.085 OA 
HETATM   16  C   UNL     1      -9.143  10.016  68.716  1.00  0.00    -0.148 C  
HETATM   17  H   UNL     1      -7.463   8.294  68.509  1.00  0.00     0.000 HD 
HETATM   18  C   UNL     1     -10.276   6.733  67.341  1.00  0.00    -0.254 C  
HETATM   19 CL   UNL     1      -9.918   8.394  64.861  1.00  0.00     1.729 Cl 
HETATM   20  C   UNL     1     -11.735   7.202  67.411  1.00  0.00     1.331 C  
HETATM   21  C   UNL     1     -11.859   8.587  68.038  1.00  0.00     2.864 C  
HETATM   22  C   UNL     1     -11.057   9.652  67.301  1.00  0.00     0.050 C  
HETATM   23  F   UNL     1     -13.184   8.907  68.057  1.00  0.00     8.277 F  
HETATM   24  C   UNL     1     -11.534  10.912  67.267  1.00  0.00    -0.104 C  
HETATM   25  C   UNL     1     -11.117  11.573  68.560  1.00  0.00    -0.236 C  
ENDROOT
BRANCH   5  26
HETATM   26  C   UNL     1      -7.206   4.117  68.016  1.00  0.00    -0.060 C  
HETATM   27  O   UNL     1      -6.084   4.438  68.420  1.00  0.00    -0.029 OA 
BRANCH  26  28
HETATM   28  C   UNL     1      -7.600   2.646  68.194  1.00  0.00    -0.055 C  
HETATM   29  O   UNL     1      -7.846   2.349  69.568  1.00  0.00    -0.043 OA 
HETATM   30  H   UNL     1      -8.090   1.438  69.678  1.00  0.00     0.000 HD 
ENDBRANCH  26  28
ENDBRANCH   5  26
TORSDOF 2
ENDMDL
MODEL      108
REMARK 921   NORMALIZED FREE ENERGY PREDICTED BY IDOCK:   12.15 KCAL/MOL
REMARK 922        TOTAL FREE ENERGY PREDICTED BY IDOCK:   14.25 KCAL/MOL
REMARK 923 INTER-LIGAND FREE ENERGY PREDICTED BY IDOCK:   12.45 KCAL/MOL
REMARK 924 INTRA-LIGAND FREE ENERGY PREDICTED BY IDOCK:    1.80 KCAL/MOL
REMARK 927      BINDING AFFINITY PREDICTED BY RF-SCORE:    0.00 PKD
ROOT
HETATM    1  C   UNL     1     -10.233  11.183  66.977  1.00  0.00    -0.251 C  
HETATM    2  C   UNL     1      -9.397  12.095  66.295  1.00  0.00    -0.221 C  
HETATM    3  C   UNL     1      -8.754  11.635  67.584  1.00  0.00    -0.156 C  
HETATM    4  C   UNL     1      -7.149  12.028  67.323  1.00  0.00    -0.149 C  
HETATM    5  C   UNL     1      -9.713  10.056  68.481  1.00  0.00    -0.164 C  
HETATM    6  C   UNL     1      -8.725  10.158  67.561  1.00  0.00    -0.125 C  
HETATM    7  O   UNL     1     -14.056  16.320  71.806  1.00  0.00     0.297 OA 
HETATM    8  C   UNL     1      -9.899  14.674  71.359  1.00  0.00     3.037 C  
HETATM    9  C   UNL     1     -12.888  14.251  72.133  1.00  0.00    -0.424 C  
HETATM   10  C   UNL     1      -8.043  10.598  69.323  1.00  0.00    -0.133 C  
HETATM   11  C   UNL     1      -8.123   9.237  66.513  1.00  0.00    -0.104 C  
HETATM   12  C   UNL     1      -9.125  11.717  70.248  1.00  0.00     3.989 C  
HETATM   13  C   UNL     1     -10.991  13.826  70.569  1.00  0.00     0.895 C  
HETATM   14  C   UNL     1     -10.197  12.872  69.530  1.00  0.00     0.777 C  
HETATM   15  O   UNL     1      -9.914  10.873  71.121  1.00  0.00     1.888 OA 
HETATM   16  C   UNL     1     -11.904  13.407  71.725  1.00  0.00     1.197 C  
HETATM   17  H   UNL     1     -10.482  11.460  71.606  1.00  0.00     0.000 HD 
HETATM   18  C   UNL     1     -11.108  12.126  68.308  1.00  0.00    -0.288 C  
HETATM   19 CL   UNL     1      -9.181  14.412  68.616  1.00  0.00    -0.197 Cl 
HETATM   20  C   UNL     1     -12.124  13.101  67.700  1.00  0.00    -0.281 C  
HETATM   21  C   UNL     1     -12.869  13.890  68.773  1.00  0.00     1.219 C  
HETATM   22  C   UNL     1     -11.941  14.684  69.684  1.00  0.00    -0.368 C  
HETATM   23  F   UNL     1     -13.743  14.718  68.134  1.00  0.00     3.273 F  
HETATM   24  C   UNL     1     -12.374  15.860  70.181  1.00  0.00    -0.193 C  
HETATM   25  C   UNL     1     -13.206  15.539  71.401  1.00  0.00    -0.510 C  
ENDROOT
BRANCH   5  26
HETATM   26  C   UNL     1      -9.394   8.454  68.861  1.00  0.00    -0.147 C  
HETATM   27  O   UNL     1     -10.192   7.512  68.882  1.00  0.00    -0.197 OA 
BRANCH  26  28
HETATM   28  C   UNL     1      -7.933   8.117  69.179  1.00  0.00    -0.113 C  
HETATM   29  O   UNL     1      -7.584   6.834  68.662  1.00  0.00    -0.100 OA 
HETATM   30  H   UNL     1      -6.678   6.625  68.859  1.00  0.00     0.000 HD 
ENDBRANCH  26  28
ENDBRANCH   5  26
TORSDOF 2
ENDMDL
MODEL      109
REMARK 921   NORMALIZED FREE ENERGY PREDICTED BY IDOCK:   12.31 KCAL/MOL
REMARK 922        TOTAL FREE ENERGY PREDICTED BY IDOCK:   14.43 KCAL/MOL
REMARK 923 INTER-LIGAND FREE ENERGY PREDICTED BY IDOCK:   11.22 KCAL/MOL
REMARK 924 INTRA-LIGAND FREE ENERGY PREDICTED BY IDOCK:    3.20 KCAL/MOL
REMARK 927      BINDING AFFINITY PREDICTED BY RF-SCORE:    0.00 PKD
ROOT
HETATM    1  C   UNL     1      -8.617  13.729  68.922  1.00  0.00     0.138 C  
HETATM    2  C   UNL     1      -7.427  13.203  68.374  1.00  0.00    -0.124 C  
HETATM    3  C   UNL     1      -8.512  13.284  67.324  1.00  0.00    -0.203 C  
HETATM    4  C   UNL     1      -7.625  13.198  65.909  1.00  0.00     3.277 C  
HETATM    5  C   UNL     1     -10.167  14.348  67.914  1.00  0.00    -0.232 C  
HETATM    6  C   UNL     1      -9.004  14.678  67.304  1.00  0.00    -0.216 C  
HETATM    7  O   UNL     1     -12.284   6.859  70.844  1.00  0.00    -0.381 OA 
HETATM    8  C   UNL     1     -11.126   9.052  67.097  1.00  0.00     0.350 C  
HETATM    9  C   UNL     1     -12.922   8.829  69.634  1.00  0.00     3.038 C  
HETATM   10  C   UNL     1     -10.176  13.765  66.056  1.00  0.00    -0.315 C  
HETATM   11  C   UNL     1      -8.214  15.960  67.100  1.00  0.00    -0.233 C  
HETATM   12  C   UNL     1     -10.943  12.280  66.752  1.00  0.00    -0.276 C  
HETATM   13  C   UNL     1     -11.085   9.975  68.394  1.00  0.00    -0.236 C  
HETATM   14  C   UNL     1     -10.252  11.307  68.007  1.00  0.00    -0.201 C  
HETATM   15  O   UNL     1     -12.262  12.685  67.190  1.00  0.00    -0.445 OA 
HETATM   16  C   UNL     1     -12.544   9.873  68.850  1.00  0.00     2.260 C  
HETATM   17  H   UNL     1     -12.665  11.907  67.555  1.00  0.00     0.000 HD 
HETATM   18  C   UNL     1      -9.737  12.300  69.283  1.00  0.00     0.632 C  
HETATM   19 CL   UNL     1      -8.578  10.292  67.371  1.00  0.00    -0.125 Cl 
HETATM   20  C   UNL     1      -9.189  11.465  70.448  1.00  0.00     3.533 C  
HETATM   21  C   UNL     1     -10.093  10.282  70.776  1.00  0.00     0.647 C  
HETATM   22  C   UNL     1     -10.313   9.350  69.592  1.00  0.00    -0.229 C  
HETATM   23  F   UNL     1      -9.524   9.612  71.818  1.00  0.00    -0.067 F  
HETATM   24  C   UNL     1     -10.475   8.032  69.827  1.00  0.00    -0.227 C  
HETATM   25  C   UNL     1     -11.928   7.827  70.186  1.00  0.00     0.343 C  
ENDROOT
BRANCH   5  26
HETATM   26  C   UNL     1     -10.962  15.760  67.481  1.00  0.00    -0.293 C  
HETATM   27  O   UNL     1     -10.511  16.910  67.486  1.00  0.00    -0.318 OA 
BRANCH  26  28
HETATM   28  C   UNL     1     -12.404  15.595  66.986  1.00  0.00     1.351 C  
HETATM   29  O   UNL     1     -12.460  14.694  65.881  1.00  0.00    -0.225 OA 
HETATM   30  H   UNL     1     -13.354  14.592  65.574  1.00  0.00     0.000 HD 
ENDBRANCH  26  28
ENDBRANCH   5  26
TORSDOF 2
ENDMDL
MODEL      110
REMARK 921   NORMALIZED FREE ENERGY PREDICTED BY IDOCK:   13.24 KCAL/MOL
REMARK 922        TOTAL FREE ENERGY PREDICTED BY IDOCK:   15.46 KCAL/MOL
REMARK 923 INTER-LIGAND FREE ENERGY PREDICTED BY IDOCK:   14.88 KCAL/MOL
REMARK 924 INTRA-LIGAND FREE ENERGY PREDICTED BY IDOCK:    0.59 KCAL/MOL
REMARK 927      BINDING AFFINITY PREDICTED BY RF-SCORE:    0.00 PKD
ROOT
HETATM    1  C   UNL     1      -9.689  13.651  67.889  1.00  0.00    -0.234 C  
HETATM    2  C   UNL     1      -8.349  13.216  67.983  1.00  0.00    -0.162 C  
HETATM    3  C   UNL     1      -8.754  13.984  69.222  1.00  0.00     0.429 C  
HETATM    4  C   UNL     1      -7.586  13.502  70.318  1.00  0.00     1.941 C  
HETATM    5  C   UNL     1     -10.768  14.362  69.349  1.00  0.00    -0.184 C  
HETATM    6  C   UNL     1      -9.974  13.345  69.759  1.00  0.00     1.405 C  
HETATM    7  O   UNL     1      -8.448  20.982  64.884  1.00  0.00     1.335 OA 
HETATM    8  C   UNL     1      -7.717  18.833  68.761  1.00  0.00    -0.351 C  
HETATM    9  C   UNL     1      -9.706  20.109  66.729  1.00  0.00    -0.577 C  
HETATM   10  C   UNL     1      -9.726  14.889  70.908  1.00  0.00     1.604 C  
HETATM   11  C   UNL     1     -10.190  11.894  70.152  1.00  0.00     2.046 C  
HETATM   12  C   UNL     1      -9.543  16.439  69.991  1.00  0.00     0.655 C  
HETATM   13  C   UNL     1      -8.752  18.075  67.817  1.00  0.00    -0.251 C  
HETATM   14  C   UNL     1      -8.906  16.569  68.386  1.00  0.00    -0.218 C  
HETATM   15  O   UNL     1     -10.852  17.056  69.992  1.00  0.00    -0.354 OA 
HETATM   16  C   UNL     1      -9.837  19.148  67.682  1.00  0.00    -0.412 C  
HETATM   17  H   UNL     1     -10.756  17.870  69.512  1.00  0.00     0.000 HD 
HETATM   18  C   UNL     1      -9.658  15.430  67.378  1.00  0.00    -0.210 C  
HETATM   19 CL   UNL     1      -6.892  16.145  68.313  1.00  0.00    -0.121 Cl 
HETATM   20  C   UNL     1      -9.173  15.566  65.929  1.00  0.00    -0.305 C  
HETATM   21  C   UNL     1      -9.143  17.022  65.473  1.00  0.00     0.674 C  
HETATM   22  C   UNL     1      -8.263  17.905  66.349  1.00  0.00    -0.287 C  
HETATM   23  F   UNL     1      -8.706  17.034  64.182  1.00  0.00     5.623 F  
HETATM   24  C   UNL     1      -7.611  18.937  65.778  1.00  0.00    -0.111 C  
HETATM   25  C   UNL     1      -8.591  20.085  65.703  1.00  0.00     0.200 C  
ENDROOT
BRANCH   5  26
HETATM   26  C   UNL     1     -12.056  13.948  70.341  1.00  0.00    -0.351 C  
HETATM   27  O   UNL     1     -12.059  13.861  71.573  1.00  0.00    -0.240 OA 
BRANCH  26  28
HETATM   28  C   UNL     1     -13.392  13.688  69.635  1.00  0.00     1.867 C  
HETATM   29  O   UNL     1     -13.188  13.417  68.249  1.00  0.00     1.467 OA 
HETATM   30  H   UNL     1     -14.016  13.255  67.811  1.00  0.00     0.000 HD 
ENDBRANCH  26  28
ENDBRANCH   5  26
TORSDOF 2
ENDMDL
MODEL      111
REMARK 921   NORMALIZED FREE ENERGY PREDICTED BY IDOCK:   16.01 KCAL/MOL
REMARK 922        TOTAL FREE ENERGY PREDICTED BY IDOCK:   18.57 KCAL/MOL
REMARK 923 INTER-LIGAND FREE ENERGY PREDICTED BY IDOCK:   10.88 KCAL/MOL
REMARK 924 INTRA-LIGAND FREE ENERGY PREDICTED BY IDOCK:    7.68 KCAL/MOL
REMARK 927      BINDING AFFINITY PREDICTED BY RF-SCORE:    0.00 PKD
ROOT
HETATM    1  C   UNL     1     -10.361  16.634  67.463  1.00  0.00    -0.294 C  
HETATM    2  C   UNL     1     -10.577  16.141  68.768  1.00  0.00    -0.279 C  
HETATM    3  C   UNL     1      -9.218  15.723  68.254  1.00  0.00    -0.188 C  
HETATM    4  C   UNL     1      -8.426  15.321  69.671  1.00  0.00    -0.101 C  
HETATM    5  C   UNL     1      -8.656  16.667  66.518  1.00  0.00    -0.320 C  
HETATM    6  C   UNL     1      -8.509  16.950  67.833  1.00  0.00    -0.203 C  
HETATM    7  O   UNL     1     -12.867  10.277  63.262  1.00  0.00     4.451 OA 
HETATM    8  C   UNL     1      -9.429  11.305  65.966  1.00  0.00    -0.240 C  
HETATM    9  C   UNL     1     -10.896  11.643  63.237  1.00  0.00    -0.380 C  
HETATM   10  C   UNL     1      -7.296  15.526  67.320  1.00  0.00    -0.249 C  
HETATM   11  C   UNL     1      -8.215  18.201  68.644  1.00  0.00    -0.295 C  
HETATM   12  C   UNL     1      -8.084  14.246  66.311  1.00  0.00     1.258 C  
HETATM   13  C   UNL     1     -10.212  12.589  65.443  1.00  0.00    -0.303 C  
HETATM   14  C   UNL     1      -9.765  13.835  66.373  1.00  0.00    -0.304 C  
HETATM   15  O   UNL     1      -7.764  14.572  64.938  1.00  0.00     6.882 OA 
HETATM   16  C   UNL     1     -10.029  12.426  63.931  1.00  0.00    -0.262 C  
HETATM   17  H   UNL     1      -8.177  13.901  64.408  1.00  0.00     0.000 HD 
HETATM   18  C   UNL     1     -10.702  15.247  66.285  1.00  0.00    -0.315 C  
HETATM   19 CL   UNL     1     -10.278  12.926  68.147  1.00  0.00    -0.233 Cl 
HETATM   20  C   UNL     1     -12.201  14.917  66.260  1.00  0.00     0.105 C  
HETATM   21  C   UNL     1     -12.517  13.781  65.292  1.00  0.00    -0.480 C  
HETATM   22  C   UNL     1     -11.758  12.498  65.606  1.00  0.00    -0.473 C  
HETATM   23  F   UNL     1     -13.863  13.569  65.341  1.00  0.00     0.216 F  
HETATM   24  C   UNL     1     -12.350  11.316  65.345  1.00  0.00     2.027 C  
HETATM   25  C   UNL     1     -12.122  11.026  63.879  1.00  0.00     1.351 C  
ENDROOT
BRANCH   5  26
HETATM   26  C   UNL     1      -7.469  17.735  66.005  1.00  0.00    -0.249 C  
HETATM   27  O   UNL     1      -6.685  17.594  65.061  1.00  0.00     0.260 OA 
BRANCH  26  28
HETATM   28  C   UNL     1      -7.376  19.057  66.777  1.00  0.00    -0.212 C  
HETATM   29  O   UNL     1      -8.446  19.173  67.714  1.00  0.00    -0.288 OA 
HETATM   30  H   UNL     1      -8.388  19.992  68.192  1.00  0.00     0.000 HD 
ENDBRANCH  26  28
ENDBRANCH   5  26
TORSDOF 2
ENDMDL
MODEL      112
REMARK 921   NORMALIZED FREE ENERGY PREDICTED BY IDOCK:   16.72 KCAL/MOL
REMARK 922        TOTAL FREE ENERGY PREDICTED BY IDOCK:   19.36 KCAL/MOL
REMARK 923 INTER-LIGAND FREE ENERGY PREDICTED BY IDOCK:   17.28 KCAL/MOL
REMARK 924 INTRA-LIGAND FREE ENERGY PREDICTED BY IDOCK:    2.08 KCAL/MOL
REMARK 927      BINDING AFFINITY PREDICTED BY RF-SCORE:    0.00 PKD
ROOT
HETATM    1  C   UNL     1     -10.161  16.101  65.876  1.00  0.00    -0.381 C  
HETATM    2  C   UNL     1     -11.296  16.332  65.069  1.00  0.00    -0.076 C  
HETATM    3  C   UNL     1     -11.612  16.587  66.526  1.00  0.00     1.019 C  
HETATM    4  C   UNL     1     -12.999  17.514  66.417  1.00  0.00     9.097 C  
HETATM    5  C   UNL     1      -9.959  16.621  67.745  1.00  0.00    -0.262 C  
HETATM    6  C   UNL     1     -10.620  17.561  67.029  1.00  0.00    -0.245 C  
HETATM    7  O   UNL     1     -11.548   8.459  67.877  1.00  0.00     1.092 OA 
HETATM    8  C   UNL     1     -13.353  12.482  68.742  1.00  0.00     4.224 C  
HETATM    9  C   UNL     1     -11.016  10.451  69.101  1.00  0.00    -0.285 C  
HETATM   10  C   UNL     1     -11.639  17.091  68.612  1.00  0.00     0.555 C  
HETATM   11  C   UNL     1     -10.288  18.941  66.489  1.00  0.00    -0.493 C  
HETATM   12  C   UNL     1     -11.745  15.305  68.888  1.00  0.00    -0.342 C  
HETATM   13  C   UNL     1     -11.886  12.579  68.129  1.00  0.00    -0.371 C  
HETATM   14  C   UNL     1     -11.671  14.106  67.641  1.00  0.00    -0.421 C  
HETATM   15  O   UNL     1     -10.715  14.992  69.856  1.00  0.00    -0.299 OA 
HETATM   16  C   UNL     1     -11.094  11.805  69.187  1.00  0.00    -0.294 C  
HETATM   17  H   UNL     1     -10.771  14.055  70.001  1.00  0.00     0.000 HD 
HETATM   18  C   UNL     1     -10.349  14.418  66.624  1.00  0.00    -0.275 C  
HETATM   19 CL   UNL     1     -13.335  14.142  66.429  1.00  0.00     1.174 Cl 
HETATM   20  C   UNL     1     -10.206  13.332  65.551  1.00  0.00    -0.298 C  
HETATM   21  C   UNL     1     -10.348  11.930  66.136  1.00  0.00    -0.226 C  
HETATM   22  C   UNL     1     -11.676  11.713  66.852  1.00  0.00    -0.133 C  
HETATM   23  F   UNL     1     -10.204  11.045  65.110  1.00  0.00    -0.282 F  
HETATM   24  C   UNL     1     -12.232  10.486  66.824  1.00  0.00     3.622 C  
HETATM   25  C   UNL     1     -11.573   9.681  67.920  1.00  0.00     0.998 C  
ENDROOT
BRANCH   5  26
HETATM   26  C   UNL     1      -9.143  17.722  68.712  1.00  0.00    -0.205 C  
HETATM   27  O   UNL     1      -9.229  17.857  69.936  1.00  0.00     0.948 OA 
BRANCH  26  28
HETATM   28  C   UNL     1      -8.147  18.638  67.992  1.00  0.00    -0.275 C  
HETATM   29  O   UNL     1      -8.566  20.000  68.065  1.00  0.00    -0.290 OA 
HETATM   30  H   UNL     1      -7.949  20.568  67.619  1.00  0.00     0.000 HD 
ENDBRANCH  26  28
ENDBRANCH   5  26
TORSDOF 2
ENDMDL
MODEL      113
REMARK 921   NORMALIZED FREE ENERGY PREDICTED BY IDOCK:   18.71 KCAL/MOL
REMARK 922        TOTAL FREE ENERGY PREDICTED BY IDOCK:   21.58 KCAL/MOL
REMARK 923 INTER-LIGAND FREE ENERGY PREDICTED BY IDOCK:   19.20 KCAL/MOL
REMARK 924 INTRA-LIGAND FREE ENERGY PREDICTED BY IDOCK:    2.38 KCAL/MOL
REMARK 927      BINDING AFFINITY PREDICTED BY RF-SCORE:    0.00 PKD
ROOT
HETATM    1  C   UNL     1     -13.634  13.187  69.663  1.00  0.00     3.190 C  
HETATM    2  C   UNL     1     -14.268  11.928  69.736  1.00  0.00     7.430 C  
HETATM    3  C   UNL     1     -13.015  11.949  70.582  1.00  0.00     0.077 C  
HETATM    4  C   UNL     1     -13.268  10.646  71.599  1.00  0.00    -0.495 C  
HETATM    5  C   UNL     1     -12.205  13.820  70.828  1.00  0.00    -0.437 C  
HETATM    6  C   UNL     1     -13.126  13.097  71.507  1.00  0.00    -0.404 C  
HETATM    7  O   UNL     1      -8.471  11.673  63.714  1.00  0.00     0.600 OA 
HETATM    8  C   UNL     1      -9.055  10.408  67.986  1.00  0.00    -0.136 C  
HETATM    9  C   UNL     1      -8.280  12.604  65.916  1.00  0.00     1.273 C  
HETATM   10  C   UNL     1     -11.347  12.404  71.854  1.00  0.00     4.802 C  
HETATM   11  C   UNL     1     -14.232  13.412  72.499  1.00  0.00    -0.296 C  
HETATM   12  C   UNL     1     -10.347  12.222  70.355  1.00  0.00     3.158 C  
HETATM   13  C   UNL     1      -9.884  11.713  67.606  1.00  0.00    -0.195 C  
HETATM   14  C   UNL     1     -10.985  11.937  68.771  1.00  0.00    -0.280 C  
HETATM   15  O   UNL     1      -9.519  13.407  70.286  1.00  0.00     2.327 OA 
HETATM   16  C   UNL     1      -8.746  12.651  67.191  1.00  0.00    -0.201 C  
HETATM   17  H   UNL     1      -8.994  13.311  69.500  1.00  0.00     0.000 HD 
HETATM   18  C   UNL     1     -12.241  13.034  68.453  1.00  0.00    -0.029 C  
HETATM   19 CL   UNL     1     -11.815  10.062  68.593  1.00  0.00     0.223 Cl 
HETATM   20  C   UNL     1     -12.780  12.862  67.027  1.00  0.00     1.120 C  
HETATM   21  C   UNL     1     -11.655  12.739  66.004  1.00  0.00    -0.383 C  
HETATM   22  C   UNL     1     -10.707  11.582  66.292  1.00  0.00    -0.321 C  
HETATM   23  F   UNL     1     -12.235  12.594  64.779  1.00  0.00    -0.405 F  
HETATM   24  C   UNL     1     -10.137  10.939  65.253  1.00  0.00    -0.340 C  
HETATM   25  C   UNL     1      -8.931  11.752  64.845  1.00  0.00     0.386 C  
ENDROOT
BRANCH   5  26
HETATM   26  C   UNL     1     -11.923  14.905  72.076  1.00  0.00    -0.351 C  
HETATM   27  O   UNL     1     -11.026  15.750  72.151  1.00  0.00     0.020 OA 
BRANCH  26  28
HETATM   28  C   UNL     1     -12.923  14.866  73.238  1.00  0.00    -0.519 C  
HETATM   29  O   UNL     1     -12.671  15.926  74.159  1.00  0.00    -0.612 OA 
HETATM   30  H   UNL     1     -13.290  15.902  74.879  1.00  0.00     0.000 HD 
ENDBRANCH  26  28
ENDBRANCH   5  26
TORSDOF 2
ENDMDL
MODEL      114
REMARK 921   NORMALIZED FREE ENERGY PREDICTED BY IDOCK:   27.43 KCAL/MOL
REMARK 922        TOTAL FREE ENERGY PREDICTED BY IDOCK:   31.32 KCAL/MOL
REMARK 923 INTER-LIGAND FREE ENERGY PREDICTED BY IDOCK:   30.09 KCAL/MOL
REMARK 924 INTRA-LIGAND FREE ENERGY PREDICTED BY IDOCK:    1.23 KCAL/MOL
REMARK 927      BINDING AFFINITY PREDICTED BY RF-SCORE:    0.00 PKD
ROOT
HETATM    1  C   UNL     1     -11.614   9.461  66.575  1.00  0.00     2.938 C  
HETATM    2  C   UNL     1     -10.757  10.236  65.763  1.00  0.00     0.044 C  
HETATM    3  C   UNL     1      -9.964   9.434  66.771  1.00  0.00    -0.305 C  
HETATM    4  C   UNL     1      -8.434   9.458  66.097  1.00  0.00    -0.127 C  
HETATM    5  C   UNL     1     -11.069   8.017  67.766  1.00  0.00     0.269 C  
HETATM    6  C   UNL     1     -10.356   8.018  66.615  1.00  0.00    -0.273 C  
HETATM    7  O   UNL     1     -12.505  14.545  72.713  1.00  0.00    -0.304 OA 
HETATM    8  C   UNL     1      -9.226  12.023  70.961  1.00  0.00    10.033 C  
HETATM    9  C   UNL     1     -11.919  12.229  72.516  1.00  0.00     3.760 C  
HETATM   10  C   UNL     1      -9.158   7.993  68.141  1.00  0.00    -0.134 C  
HETATM   11  C   UNL     1     -10.319   7.155  65.365  1.00  0.00     2.799 C  
HETATM   12  C   UNL     1      -9.615   9.181  69.427  1.00  0.00    -0.165 C  
HETATM   13  C   UNL     1     -10.674  11.604  70.445  1.00  0.00     1.441 C  
HETATM   14  C   UNL     1     -10.466  10.663  69.146  1.00  0.00    -0.245 C  
HETATM   15  O   UNL     1     -10.361   8.429  70.413  1.00  0.00    -0.198 OA 
HETATM   16  C   UNL     1     -11.345  11.245  71.774  1.00  0.00     3.107 C  
HETATM   17  H   UNL     1     -10.601   9.053  71.089  1.00  0.00     0.000 HD 
HETATM   18  C   UNL     1     -11.826  10.366  68.176  1.00  0.00     0.368 C  
HETATM   19 CL   UNL     1      -9.325  12.031  68.115  1.00  0.00    -0.195 Cl 
HETATM   20  C   UNL     1     -12.649  11.644  67.968  1.00  0.00     1.623 C  
HETATM   21  C   UNL     1     -12.848  12.411  69.272  1.00  0.00     1.226 C  
HETATM   22  C   UNL     1     -11.537  12.799  69.944  1.00  0.00    -0.243 C  
HETATM   23  F   UNL     1     -13.588  13.519  68.982  1.00  0.00     1.982 F  
HETATM   24  C   UNL     1     -11.485  13.950  70.643  1.00  0.00     0.075 C  
HETATM   25  C   UNL     1     -12.038  13.654  72.017  1.00  0.00     0.596 C  
ENDROOT
BRANCH   5  26
HETATM   26  C   UNL     1     -11.124   6.347  67.902  1.00  0.00    -0.270 C  
HETATM   27  O   UNL     1     -11.962   5.580  67.417  1.00  0.00     2.699 OA 
BRANCH  26  28
HETATM   28  C   UNL     1      -9.978   5.697  68.686  1.00  0.00    -0.162 C  
HETATM   29  O   UNL     1     -10.376   5.417  70.027  1.00  0.00    -0.252 OA 
HETATM   30  H   UNL     1      -9.665   5.014  70.513  1.00  0.00     0.000 HD 
ENDBRANCH  26  28
ENDBRANCH   5  26
TORSDOF 2
ENDMDL
MODEL      115
REMARK 921   NORMALIZED FREE ENERGY PREDICTED BY IDOCK:   28.64 KCAL/MOL
REMARK 922        TOTAL FREE ENERGY PREDICTED BY IDOCK:   32.67 KCAL/MOL
REMARK 923 INTER-LIGAND FREE ENERGY PREDICTED BY IDOCK:   31.64 KCAL/MOL
REMARK 924 INTRA-LIGAND FREE ENERGY PREDICTED BY IDOCK:    1.04 KCAL/MOL
REMARK 927      BINDING AFFINITY PREDICTED BY RF-SCORE:    0.00 PKD
ROOT
HETATM    1  C   UNL     1      -9.464  14.991  66.357  1.00  0.00    -0.325 C  
HETATM    2  C   UNL     1      -8.531  13.937  66.248  1.00  0.00     0.695 C  
HETATM    3  C   UNL     1      -9.943  13.428  66.061  1.00  0.00    -0.300 C  
HETATM    4  C   UNL     1      -9.678  11.960  65.304  1.00  0.00    -0.214 C  
HETATM    5  C   UNL     1     -11.346  14.914  65.853  1.00  0.00    -0.306 C  
HETATM    6  C   UNL     1     -10.563  14.230  64.985  1.00  0.00    -0.444 C  
HETATM    7  O   UNL     1     -11.250  14.318  74.147  1.00  0.00     1.238 OA 
HETATM    8  C   UNL     1     -11.921  11.953  70.386  1.00  0.00    -0.400 C  
HETATM    9  C   UNL     1     -12.538  14.462  72.129  1.00  0.00    -0.377 C  
HETATM   10  C   UNL     1     -12.014  13.101  65.604  1.00  0.00    -0.462 C  
HETATM   11  C   UNL     1     -10.072  14.453  63.565  1.00  0.00     4.657 C  
HETATM   12  C   UNL     1     -12.267  13.180  67.395  1.00  0.00    -0.140 C  
HETATM   13  C   UNL     1     -11.482  13.458  70.103  1.00  0.00    -0.059 C  
HETATM   14  C   UNL     1     -11.030  13.541  68.552  1.00  0.00    -0.291 C  
HETATM   15  O   UNL     1     -13.346  14.123  67.600  1.00  0.00     1.643 OA 
HETATM   16  C   UNL     1     -12.622  14.211  70.796  1.00  0.00    -0.432 C  
HETATM   17  H   UNL     1     -13.479  14.165  68.539  1.00  0.00     0.000 HD 
HETATM   18  C   UNL     1     -10.176  14.924  68.064  1.00  0.00    -0.228 C  
HETATM   19 CL   UNL     1      -9.634  12.035  68.692  1.00  0.00    -0.140 Cl 
HETATM   20  C   UNL     1      -9.121  15.320  69.105  1.00  0.00    -0.236 C  
HETATM   21  C   UNL     1      -9.679  15.281  70.525  1.00  0.00     0.666 C  
HETATM   22  C   UNL     1     -10.234  13.917  70.912  1.00  0.00     3.407 C  
HETATM   23  F   UNL     1      -8.672  15.649  71.367  1.00  0.00     2.263 F  
HETATM   24  C   UNL     1     -10.136  13.520  72.197  1.00  0.00    10.215 C  
HETATM   25  C   UNL     1     -11.297  14.141  72.937  1.00  0.00     2.182 C  
ENDROOT
BRANCH   5  26
HETATM   26  C   UNL     1     -12.406  15.474  64.681  1.00  0.00     0.110 C  
HETATM   27  O   UNL     1     -13.558  15.086  64.460  1.00  0.00     0.893 OA 
BRANCH  26  28
HETATM   28  C   UNL     1     -11.897  16.629  63.811  1.00  0.00     2.208 C  
HETATM   29  O   UNL     1     -12.277  16.443  62.448  1.00  0.00     5.812 OA 
HETATM   30  H   UNL     1     -11.962  17.159  61.909  1.00  0.00     0.000 HD 
ENDBRANCH  26  28
ENDBRANCH   5  26
TORSDOF 2
ENDMDL
MODEL      116
REMARK 921   NORMALIZED FREE ENERGY PREDICTED BY IDOCK:   31.72 KCAL/MOL
REMARK 922        TOTAL FREE ENERGY PREDICTED BY IDOCK:   36.11 KCAL/MOL
REMARK 923 INTER-LIGAND FREE ENERGY PREDICTED BY IDOCK:   35.07 KCAL/MOL
REMARK 924 INTRA-LIGAND FREE ENERGY PREDICTED BY IDOCK:    1.04 KCAL/MOL
REMARK 927      BINDING AFFINITY PREDICTED BY RF-SCORE:    0.00 PKD
ROOT
HETATM    1  C   UNL     1     -11.605  10.892  70.402  1.00  0.00    -0.418 C  
HETATM    2  C   UNL     1     -10.792  10.370  71.431  1.00  0.00     1.047 C  
HETATM    3  C   UNL     1     -10.105  11.524  70.737  1.00  0.00     4.234 C  
HETATM    4  C   UNL     1      -8.941  11.953  71.859  1.00  0.00    17.816 C  
HETATM    5  C   UNL     1     -11.324  12.579  69.464  1.00  0.00    -0.240 C  
HETATM    6  C   UNL     1     -11.026  12.679  70.781  1.00  0.00     2.575 C  
HETATM    7  O   UNL     1      -8.715   6.671  64.224  1.00  0.00     0.274 OA 
HETATM    8  C   UNL     1      -7.277   9.934  66.958  1.00  0.00    -0.090 C  
HETATM    9  C   UNL     1      -9.126   8.999  64.630  1.00  0.00    -0.032 C  
HETATM   10  C   UNL     1      -9.542  13.324  69.712  1.00  0.00     1.919 C  
HETATM   11  C   UNL     1     -11.678  13.327  71.991  1.00  0.00     2.187 C  
HETATM   12  C   UNL     1      -9.128  12.230  68.330  1.00  0.00    -0.146 C  
HETATM   13  C   UNL     1      -8.858   9.744  66.996  1.00  0.00    -0.145 C  
HETATM   14  C   UNL     1      -9.403  10.520  68.307  1.00  0.00    -0.156 C  
HETATM   15  O   UNL     1      -9.784  12.793  67.170  1.00  0.00    -0.207 OA 
HETATM   16  C   UNL     1      -9.203  10.015  65.528  1.00  0.00    -0.247 C  
HETATM   17  H   UNL     1      -9.568  12.219  66.445  1.00  0.00     0.000 HD 
HETATM   18  C   UNL     1     -10.991  10.189  68.803  1.00  0.00    -0.264 C  
HETATM   19 CL   UNL     1      -8.180   9.519  69.627  1.00  0.00    -0.125 Cl 
HETATM   20  C   UNL     1     -11.296   8.687  68.722  1.00  0.00     0.613 C  
HETATM   21  C   UNL     1     -10.809   8.077  67.412  1.00  0.00    -0.076 C  
HETATM   22  C   UNL     1      -9.315   8.268  67.182  1.00  0.00    -0.189 C  
HETATM   23  F   UNL     1     -11.127   6.752  67.437  1.00  0.00    -0.347 F  
HETATM   24  C   UNL     1      -8.635   7.311  66.519  1.00  0.00    -0.134 C  
HETATM   25  C   UNL     1      -8.839   7.570  65.045  1.00  0.00     0.318 C  
ENDROOT
BRANCH   5  26
HETATM   26  C   UNL     1     -11.961  14.125  69.341  1.00  0.00    -0.337 C  
HETATM   27  O   UNL     1     -11.859  15.048  70.156  1.00  0.00    -0.274 OA 
BRANCH  26  28
HETATM   28  C   UNL     1     -12.726  14.437  68.049  1.00  0.00     0.932 C  
HETATM   29  O   UNL     1     -14.125  14.219  68.223  1.00  0.00     6.575 OA 
HETATM   30  H   UNL     1     -14.599  14.412  67.422  1.00  0.00     0.000 HD 
ENDBRANCH  26  28
ENDBRANCH   5  26
TORSDOF 2
ENDMDL
MODEL      117
REMARK 921   NORMALIZED FREE ENERGY PREDICTED BY IDOCK:   36.85 KCAL/MOL
REMARK 922        TOTAL FREE ENERGY PREDICTED BY IDOCK:   41.84 KCAL/MOL
REMARK 923 INTER-LIGAND FREE ENERGY PREDICTED BY IDOCK:   40.96 KCAL/MOL
REMARK 924 INTRA-LIGAND FREE ENERGY PREDICTED BY IDOCK:    0.88 KCAL/MOL
REMARK 927      BINDING AFFINITY PREDICTED BY RF-SCORE:    0.00 PKD
ROOT
HETATM    1  C   UNL     1      -9.150  18.671  69.285  1.00  0.00     0.123 C  
HETATM    2  C   UNL     1     -10.545  18.672  69.500  1.00  0.00     0.905 C  
HETATM    3  C   UNL     1      -9.862  17.674  70.407  1.00  0.00     2.108 C  
HETATM    4  C   UNL     1     -11.027  17.430  71.583  1.00  0.00     1.877 C  
HETATM    5  C   UNL     1      -7.815  17.831  70.432  1.00  0.00     3.213 C  
HETATM    6  C   UNL     1      -8.811  18.400  71.151  1.00  0.00     6.892 C  
HETATM    7  O   UNL     1      -8.682  12.715  63.934  1.00  0.00     1.550 OA 
HETATM    8  C   UNL     1      -9.644  13.167  68.300  1.00  0.00    -0.218 C  
HETATM    9  C   UNL     1      -7.555  13.227  65.988  1.00  0.00     2.942 C  
HETATM   10  C   UNL     1      -8.563  16.555  71.699  1.00  0.00     8.950 C  
HETATM   11  C   UNL     1      -8.948  19.639  72.020  1.00  0.00     3.979 C  
HETATM   12  C   UNL     1      -8.409  15.411  70.304  1.00  0.00     0.870 C  
HETATM   13  C   UNL     1      -8.915  14.445  67.689  1.00  0.00    -0.192 C  
HETATM   14  C   UNL     1      -9.112  15.658  68.741  1.00  0.00    -0.208 C  
HETATM   15  O   UNL     1      -6.989  15.205  70.117  1.00  0.00    -0.137 OA 
HETATM   16  C   UNL     1      -7.603  13.812  67.213  1.00  0.00    -0.075 C  
HETATM   17  H   UNL     1      -6.908  14.605  69.385  1.00  0.00     0.000 HD 
HETATM   18  C   UNL     1      -8.759  17.226  68.196  1.00  0.00    -0.243 C  
HETATM   19 CL   UNL     1     -11.166  15.524  68.783  1.00  0.00    -0.293 Cl 
HETATM   20  C   UNL     1      -9.302  17.455  66.779  1.00  0.00    -0.279 C  
HETATM   21  C   UNL     1      -8.990  16.284  65.854  1.00  0.00    -0.186 C  
HETATM   22  C   UNL     1      -9.542  14.958  66.360  1.00  0.00    -0.317 C  
HETATM   23  F   UNL     1      -9.507  16.586  64.629  1.00  0.00     1.157 F  
HETATM   24  C   UNL     1      -9.947  14.040  65.459  1.00  0.00    -0.302 C  
HETATM   25  C   UNL     1      -8.713  13.291  65.013  1.00  0.00     2.602 C  
ENDROOT
BRANCH   5  26
HETATM   26  C   UNL     1      -6.606  18.221  71.527  1.00  0.00     3.017 C  
HETATM   27  O   UNL     1      -6.705  18.319  72.754  1.00  0.00     3.690 OA 
BRANCH  26  28
HETATM   28  C   UNL     1      -5.208  18.440  70.936  1.00  0.00    -0.274 C  
HETATM   29  O   UNL     1      -5.172  19.627  70.146  1.00  0.00    -0.190 OA 
HETATM   30  H   UNL     1      -4.306  19.763  69.779  1.00  0.00     0.000 HD 
ENDBRANCH  26  28
ENDBRANCH   5  26
TORSDOF 2
ENDMDL
MODEL      118
REMARK 921   NORMALIZED FREE ENERGY PREDICTED BY IDOCK:   49.11 KCAL/MOL
REMARK 922        TOTAL FREE ENERGY PREDICTED BY IDOCK:   55.53 KCAL/MOL
REMARK 923 INTER-LIGAND FREE ENERGY PREDICTED BY IDOCK:   49.11 KCAL/MOL
REMARK 924 INTRA-LIGAND FREE ENERGY PREDICTED BY IDOCK:    6.42 KCAL/MOL
REMARK 927      BINDING AFFINITY PREDICTED BY RF-SCORE:    0.00 PKD
ROOT
HETATM    1  C   UNL     1      -6.930  14.041  69.433  1.00  0.00    -0.050 C  
HETATM    2  C   UNL     1      -7.761  15.070  68.940  1.00  0.00    -0.152 C  
HETATM    3  C   UNL     1      -8.500  14.219  69.948  1.00  0.00     1.023 C  
HETATM    4  C   UNL     1      -9.770  15.220  70.373  1.00  0.00     0.439 C  
HETATM    5  C   UNL     1      -7.296  12.915  70.983  1.00  0.00     4.804 C  
HETATM    6  C   UNL     1      -7.690  14.195  71.185  1.00  0.00     3.535 C  
HETATM    7  O   UNL     1      -9.005   8.184  64.362  1.00  0.00     0.294 OA 
HETATM    8  C   UNL     1     -10.911  10.471  67.727  1.00  0.00    -0.347 C  
HETATM    9  C   UNL     1      -8.833   8.365  66.747  1.00  0.00    -0.156 C  
HETATM   10  C   UNL     1      -9.151  12.980  71.575  1.00  0.00    15.653 C  
HETATM   11  C   UNL     1      -7.183  15.366  72.009  1.00  0.00     4.058 C  
HETATM   12  C   UNL     1      -9.370  11.699  70.314  1.00  0.00     3.528 C  
HETATM   13  C   UNL     1      -9.326  10.620  67.695  1.00  0.00    -0.156 C  
HETATM   14  C   UNL     1      -8.943  11.872  68.645  1.00  0.00    -0.044 C  
HETATM   15  O   UNL     1      -8.690  10.526  70.820  1.00  0.00     0.423 OA 
HETATM   16  C   UNL     1      -8.908   9.155  67.850  1.00  0.00    -0.128 C  
HETATM   17  H   UNL     1      -8.805   9.854  70.159  1.00  0.00     0.000 HD 
HETATM   18  C   UNL     1      -7.368  12.492  68.519  1.00  0.00    -0.115 C  
HETATM   19 CL   UNL     1     -10.158  13.216  67.668  1.00  0.00    -0.218 Cl 
HETATM   20  C   UNL     1      -6.926  12.587  67.053  1.00  0.00     0.034 C  
HETATM   21  C   UNL     1      -7.267  11.322  66.272  1.00  0.00     0.007 C  
HETATM   22  C   UNL     1      -8.753  10.986  66.295  1.00  0.00    -0.178 C  
HETATM   23  F   UNL     1      -6.833  11.505  64.993  1.00  0.00     0.637 F  
HETATM   24  C   UNL     1      -9.297  10.390  65.215  1.00  0.00    -0.263 C  
HETATM   25  C   UNL     1      -9.019   8.911  65.346  1.00  0.00    -0.182 C  
ENDROOT
BRANCH   5  26
HETATM   26  C   UNL     1      -6.793  12.669  72.564  1.00  0.00     7.018 C  
HETATM   27  O   UNL     1      -6.786  11.607  73.194  1.00  0.00     5.102 OA 
BRANCH  26  28
HETATM   28  C   UNL     1      -6.241  13.899  73.293  1.00  0.00     1.114 C  
HETATM   29  O   UNL     1      -7.275  14.853  73.532  1.00  0.00     3.429 OA 
HETATM   30  H   UNL     1      -6.933  15.616  73.984  1.00  0.00     0.000 HD 
ENDBRANCH  26  28
ENDBRANCH   5  26
TORSDOF 2
ENDMDL
MODEL      119
REMARK 921   NORMALIZED FREE ENERGY PREDICTED BY IDOCK:   67.75 KCAL/MOL
REMARK 922        TOTAL FREE ENERGY PREDICTED BY IDOCK:   76.35 KCAL/MOL
REMARK 923 INTER-LIGAND FREE ENERGY PREDICTED BY IDOCK:   74.89 KCAL/MOL
REMARK 924 INTRA-LIGAND FREE ENERGY PREDICTED BY IDOCK:    1.46 KCAL/MOL
REMARK 927      BINDING AFFINITY PREDICTED BY RF-SCORE:    0.00 PKD
ROOT
HETATM    1  C   UNL     1      -9.041  12.791  71.259  1.00  0.00    14.001 C  
HETATM    2  C   UNL     1      -8.789  14.166  71.459  1.00  0.00     7.013 C  
HETATM    3  C   UNL     1     -10.276  13.891  71.427  1.00  0.00     5.015 C  
HETATM    4  C   UNL     1     -10.892  15.262  72.159  1.00  0.00     0.435 C  
HETATM    5  C   UNL     1     -10.758  11.895  71.490  1.00  0.00     6.442 C  
HETATM    6  C   UNL     1     -10.553  12.844  72.434  1.00  0.00    11.399 C  
HETATM    7  O   UNL     1      -9.816  12.782  63.276  1.00  0.00    -0.016 OA 
HETATM    8  C   UNL     1     -12.100  14.343  66.816  1.00  0.00    -0.393 C  
HETATM    9  C   UNL     1     -11.126  11.934  65.097  1.00  0.00    -0.360 C  
HETATM   10  C   UNL     1     -12.272  13.117  71.577  1.00  0.00     0.154 C  
HETATM   11  C   UNL     1     -10.220  12.843  73.916  1.00  0.00    17.319 C  
HETATM   12  C   UNL     1     -12.198  12.992  69.772  1.00  0.00    -0.177 C  
HETATM   13  C   UNL     1     -11.011  13.251  67.213  1.00  0.00    -0.284 C  
HETATM   14  C   UNL     1     -10.800  13.345  68.814  1.00  0.00    -0.275 C  
HETATM   15  O   UNL     1     -12.618  11.644  69.452  1.00  0.00    -0.037 OA 
HETATM   16  C   UNL     1     -11.509  12.056  66.395  1.00  0.00    -0.417 C  
HETATM   17  H   UNL     1     -12.580  11.578  68.506  1.00  0.00     0.000 HD 
HETATM   18  C   UNL     1      -9.445  12.559  69.467  1.00  0.00     1.457 C  
HETATM   19 CL   UNL     1     -10.343  15.352  68.816  1.00  0.00    -0.222 Cl 
HETATM   20  C   UNL     1      -8.200  12.787  68.599  1.00  0.00     0.012 C  
HETATM   21  C   UNL     1      -8.498  12.596  67.115  1.00  0.00    -0.186 C  
HETATM   22  C   UNL     1      -9.602  13.512  66.604  1.00  0.00    -0.282 C  
HETATM   23  F   UNL     1      -7.336  12.815  66.437  1.00  0.00     0.331 F  
HETATM   24  C   UNL     1      -9.538  13.955  65.332  1.00  0.00     0.044 C  
HETATM   25  C   UNL     1     -10.114  12.864  64.459  1.00  0.00    -0.235 C  
ENDROOT
BRANCH   5  26
HETATM   26  C   UNL     1     -11.546  10.833  72.522  1.00  0.00     4.216 C  
HETATM   27  O   UNL     1     -11.469  10.784  73.753  1.00  0.00    10.728 OA 
BRANCH  26  28
HETATM   28  C   UNL     1     -12.502   9.836  71.857  1.00  0.00    -0.366 C  
HETATM   29  O   UNL     1     -12.394   8.549  72.464  1.00  0.00    -0.426 OA 
HETATM   30  H   UNL     1     -12.987   7.931  72.053  1.00  0.00     0.000 HD 
ENDBRANCH  26  28
ENDBRANCH   5  26
TORSDOF 2
ENDMDL
MODEL      120
REMARK 921   NORMALIZED FREE ENERGY PREDICTED BY IDOCK:   75.70 KCAL/MOL
REMARK 922        TOTAL FREE ENERGY PREDICTED BY IDOCK:   85.23 KCAL/MOL
REMARK 923 INTER-LIGAND FREE ENERGY PREDICTED BY IDOCK:   84.55 KCAL/MOL
REMARK 924 INTRA-LIGAND FREE ENERGY PREDICTED BY IDOCK:    0.68 KCAL/MOL
REMARK 927      BINDING AFFINITY PREDICTED BY RF-SCORE:    0.00 PKD
ROOT
HETATM    1  C   UNL     1     -12.473  15.346  71.338  1.00  0.00    -0.457 C  
HETATM    2  C   UNL     1     -13.769  15.312  71.897  1.00  0.00    -0.601 C  
HETATM    3  C   UNL     1     -12.723  15.001  72.944  1.00  0.00    -0.524 C  
HETATM    4  C   UNL     1     -13.567  15.276  74.362  1.00  0.00     2.823 C  
HETATM    5  C   UNL     1     -10.796  15.361  72.333  1.00  0.00     0.662 C  
HETATM    6  C   UNL     1     -11.748  16.111  72.937  1.00  0.00    -0.410 C  
HETATM    7  O   UNL     1     -11.645   7.573  69.547  1.00  0.00     0.159 OA 
HETATM    8  C   UNL     1     -11.872  10.104  73.252  1.00  0.00     6.147 C  
HETATM    9  C   UNL     1     -10.310   9.183  70.718  1.00  0.00    -0.323 C  
HETATM   10  C   UNL     1     -10.991  14.849  74.202  1.00  0.00     2.848 C  
HETATM   11  C   UNL     1     -12.002  17.598  73.117  1.00  0.00     1.611 C  
HETATM   12  C   UNL     1     -10.837  13.174  73.533  1.00  0.00    11.333 C  
HETATM   13  C   UNL     1     -11.577  10.953  71.937  1.00  0.00     1.858 C  
HETATM   14  C   UNL     1     -11.851  12.506  72.298  1.00  0.00     3.204 C  
HETATM   15  O   UNL     1      -9.466  13.051  73.087  1.00  0.00    14.860 OA 
HETATM   16  C   UNL     1     -10.266  10.307  71.481  1.00  0.00     2.224 C  
HETATM   17  H   UNL     1      -9.385  12.172  72.736  1.00  0.00     0.000 HD 
HETATM   18  C   UNL     1     -11.969  13.597  71.003  1.00  0.00    -0.144 C  
HETATM   19 CL   UNL     1     -13.777  12.200  72.956  1.00  0.00     1.426 Cl 
HETATM   20  C   UNL     1     -12.799  13.006  69.856  1.00  0.00     0.492 C  
HETATM   21  C   UNL     1     -12.403  11.565  69.549  1.00  0.00    -0.124 C  
HETATM   22  C   UNL     1     -12.537  10.639  70.752  1.00  0.00    -0.479 C  
HETATM   23  F   UNL     1     -13.189  11.138  68.522  1.00  0.00     1.345 F  
HETATM   24  C   UNL     1     -12.879   9.353  70.542  1.00  0.00     0.231 C  
HETATM   25  C   UNL     1     -11.609   8.615  70.186  1.00  0.00     0.087 C  
ENDROOT
BRANCH   5  26
HETATM   26  C   UNL     1      -9.529  16.383  72.737  1.00  0.00    11.180 C  
HETATM   27  O   UNL     1      -9.272  16.862  73.846  1.00  0.00    14.037 OA 
BRANCH  26  28
HETATM   28  C   UNL     1      -8.556  16.727  71.603  1.00  0.00     9.860 C  
HETATM   29  O   UNL     1      -9.042  16.243  70.352  1.00  0.00     1.223 OA 
HETATM   30  H   UNL     1      -8.439  16.456  69.650  1.00  0.00     0.000 HD 
ENDBRANCH  26  28
ENDBRANCH   5  26
TORSDOF 2
ENDMDL
