MODEL        1
REMARK 921   NORMALIZED FREE ENERGY PREDICTED BY IDOCK:   -7.27 KCAL/MOL
REMARK 922        TOTAL FREE ENERGY PREDICTED BY IDOCK:   -8.62 KCAL/MOL
REMARK 923 INTER-LIGAND FREE ENERGY PREDICTED BY IDOCK:   -8.12 KCAL/MOL
REMARK 924 INTRA-LIGAND FREE ENERGY PREDICTED BY IDOCK:   -0.51 KCAL/MOL
REMARK 927      BINDING AFFINITY PREDICTED BY RF-SCORE:    0.00 PKD
ROOT
HETATM    1  C   UNL     1     -11.341  13.323  66.465  1.00  0.00    -0.322 C  
HETATM    2  F   UNL     1     -12.509  12.758  66.848  1.00  0.00    -0.312 F  
HETATM    3  C   UNL     1     -11.593  14.499  65.539  1.00  0.00    -0.350 C  
HETATM    4  O   UNL     1     -11.789  14.137  64.175  1.00  0.00    -0.565 OA 
HETATM    5  C   UNL     1     -10.312  15.302  65.731  1.00  0.00    -0.344 C  
HETATM    6  O   UNL     1      -9.964  15.176  67.127  1.00  0.00    -0.234 OA 
HETATM    7  C   UNL     1     -10.569  13.954  67.620  1.00  0.00    -0.245 C  
HETATM    8  H   UNL     1     -11.947  14.874  63.596  1.00  0.00     0.000 HD 
ENDROOT
BRANCH   5   9
HETATM    9  C   UNL     1     -10.438  16.772  65.335  1.00  0.00    -0.193 C  
HETATM   10  O   UNL     1     -11.211  16.921  64.147  1.00  0.00    -1.386 OA 
HETATM   11  H   UNL     1     -11.289  17.836  63.901  1.00  0.00     0.000 HD 
ENDBRANCH   5   9
BRANCH   7  12
HETATM   12  N   UNL     1     -11.378  14.257  68.784  1.00  0.00    -0.259 NA 
HETATM   13  C   UNL     1     -11.884  15.472  69.158  1.00  0.00    -0.354 A  
HETATM   14  N   UNL     1     -12.621  15.388  70.247  1.00  0.00    -0.371 NA 
HETATM   15  C   UNL     1     -12.603  14.052  70.583  1.00  0.00    -0.344 A  
HETATM   16  C   UNL     1     -13.219  13.326  71.617  1.00  0.00    -0.359 A  
HETATM   17  N   UNL     1     -14.060  13.909  72.553  1.00  0.00    -0.702 NA 
HETATM   18  N   UNL     1     -12.977  12.000  71.710  1.00  0.00    -0.389 NA 
HETATM   19  H1  UNL     1     -14.507  13.382  73.303  1.00  0.00     0.000 HD 
HETATM   20  C   UNL     1     -12.183  11.441  70.774  1.00  0.00    -0.376 A  
HETATM   21  H2  UNL     1     -14.797  14.395  72.040  1.00  0.00     0.000 HD 
HETATM   22 CL   UNL     1     -11.918   9.759  70.949  1.00  0.00    -0.387 Cl 
HETATM   23  N   UNL     1     -11.550  12.018  69.730  1.00  0.00    -0.297 NA 
HETATM   24  C   UNL     1     -11.813  13.334  69.698  1.00  0.00    -0.327 A  
ENDBRANCH   7  12
TORSDOF 2
ENDMDL
MODEL        2
REMARK 921   NORMALIZED FREE ENERGY PREDICTED BY IDOCK:   -7.19 KCAL/MOL
REMARK 922        TOTAL FREE ENERGY PREDICTED BY IDOCK:   -8.54 KCAL/MOL
REMARK 923 INTER-LIGAND FREE ENERGY PREDICTED BY IDOCK:   -7.89 KCAL/MOL
REMARK 924 INTRA-LIGAND FREE ENERGY PREDICTED BY IDOCK:   -0.65 KCAL/MOL
REMARK 927      BINDING AFFINITY PREDICTED BY RF-SCORE:    0.00 PKD
ROOT
HETATM    1  C   UNL     1     -11.477  12.669  65.499  1.00  0.00    -0.340 C  
HETATM    2  F   UNL     1     -12.583  12.009  65.911  1.00  0.00    -0.098 F  
HETATM    3  C   UNL     1     -11.850  13.995  64.863  1.00  0.00    -0.393 C  
HETATM    4  O   UNL     1     -12.225  13.900  63.491  1.00  0.00    -0.921 OA 
HETATM    5  C   UNL     1     -10.557  14.780  65.041  1.00  0.00    -0.429 C  
HETATM    6  O   UNL     1     -10.027  14.395  66.327  1.00  0.00    -0.282 OA 
HETATM    7  C   UNL     1     -10.559  13.083  66.646  1.00  0.00    -0.266 C  
HETATM    8  H   UNL     1     -12.459  14.731  63.093  1.00  0.00     0.000 HD 
ENDROOT
BRANCH   5   9
HETATM    9  C   UNL     1     -10.735  16.296  64.961  1.00  0.00    -0.298 C  
HETATM   10  O   UNL     1     -11.611  16.655  63.896  1.00  0.00    -1.582 OA 
HETATM   11  H   UNL     1     -11.722  17.597  63.846  1.00  0.00     0.000 HD 
ENDBRANCH   5   9
BRANCH   7  12
HETATM   12  N   UNL     1     -11.208  13.132  67.941  1.00  0.00    -0.256 NA 
HETATM   13  C   UNL     1     -11.901  14.176  68.491  1.00  0.00    -0.355 A  
HETATM   14  N   UNL     1     -12.406  13.870  69.668  1.00  0.00    -0.306 NA 
HETATM   15  C   UNL     1     -12.034  12.560  69.882  1.00  0.00    -0.301 A  
HETATM   16  C   UNL     1     -12.289  11.661  70.932  1.00  0.00    -0.336 A  
HETATM   17  N   UNL     1     -13.068  11.985  72.032  1.00  0.00    -0.427 NA 
HETATM   18  N   UNL     1     -11.745  10.425  70.873  1.00  0.00    -0.357 NA 
HETATM   19  H1  UNL     1     -13.253  11.333  72.794  1.00  0.00     0.000 HD 
HETATM   20  C   UNL     1     -11.016  10.114  69.782  1.00  0.00    -0.280 A  
HETATM   21  H2  UNL     1     -13.971  12.309  71.682  1.00  0.00     0.000 HD 
HETATM   22 CL   UNL     1     -10.357   8.534  69.769  1.00  0.00    -0.208 Cl 
HETATM   23  N   UNL     1     -10.713  10.873  68.706  1.00  0.00    -0.193 NA 
HETATM   24  C   UNL     1     -11.264  12.091  68.828  1.00  0.00    -0.263 A  
ENDBRANCH   7  12
TORSDOF 2
ENDMDL
MODEL        3
REMARK 921   NORMALIZED FREE ENERGY PREDICTED BY IDOCK:   -7.16 KCAL/MOL
REMARK 922        TOTAL FREE ENERGY PREDICTED BY IDOCK:   -8.50 KCAL/MOL
REMARK 923 INTER-LIGAND FREE ENERGY PREDICTED BY IDOCK:   -8.01 KCAL/MOL
REMARK 924 INTRA-LIGAND FREE ENERGY PREDICTED BY IDOCK:   -0.49 KCAL/MOL
REMARK 927      BINDING AFFINITY PREDICTED BY RF-SCORE:    0.00 PKD
ROOT
HETATM    1  C   UNL     1     -12.476  13.057  65.429  1.00  0.00    -0.476 C  
HETATM    2  F   UNL     1     -13.254  14.161  65.352  1.00  0.00    -0.521 F  
HETATM    3  C   UNL     1     -12.040  12.611  64.045  1.00  0.00    -0.462 C  
HETATM    4  O   UNL     1     -12.998  11.808  63.361  1.00  0.00    -0.699 OA 
HETATM    5  C   UNL     1     -10.778  11.825  64.375  1.00  0.00    -0.327 C  
HETATM    6  O   UNL     1     -10.132  12.535  65.454  1.00  0.00    -0.277 OA 
HETATM    7  C   UNL     1     -11.151  13.302  66.145  1.00  0.00    -0.285 C  
HETATM    8  H   UNL     1     -12.725  11.529  62.495  1.00  0.00     0.000 HD 
ENDROOT
BRANCH   5   9
HETATM    9  C   UNL     1      -9.826  11.655  63.192  1.00  0.00    -0.382 C  
HETATM   10  O   UNL     1     -10.188  10.529  62.398  1.00  0.00    -0.746 OA 
HETATM   11  H   UNL     1      -9.596  10.424  61.662  1.00  0.00     0.000 HD 
ENDBRANCH   5   9
BRANCH   7  12
HETATM   12  N   UNL     1     -10.748  14.693  66.197  1.00  0.00    -0.305 NA 
HETATM   13  C   UNL     1     -10.354  15.490  65.156  1.00  0.00    -0.356 A  
HETATM   14  N   UNL     1     -10.102  16.723  65.544  1.00  0.00    -0.596 NA 
HETATM   15  C   UNL     1     -10.362  16.728  66.897  1.00  0.00    -0.294 A  
HETATM   16  C   UNL     1     -10.313  17.741  67.870  1.00  0.00    -0.386 A  
HETATM   17  N   UNL     1      -9.981  19.055  67.575  1.00  0.00    -0.333 NA 
HETATM   18  N   UNL     1     -10.594  17.424  69.152  1.00  0.00    -0.265 NA 
HETATM   19  H1  UNL     1      -9.945  19.791  68.280  1.00  0.00     0.000 HD 
HETATM   20  C   UNL     1     -10.946  16.149  69.418  1.00  0.00    -0.333 A  
HETATM   21  H2  UNL     1     -10.611  19.371  66.836  1.00  0.00     0.000 HD 
HETATM   22 CL   UNL     1     -11.291  15.813  71.061  1.00  0.00    -0.404 Cl 
HETATM   23  N   UNL     1     -11.048  15.094  68.581  1.00  0.00    -0.257 NA 
HETATM   24  C   UNL     1     -10.741  15.465  67.328  1.00  0.00    -0.307 A  
ENDBRANCH   7  12
TORSDOF 2
ENDMDL
MODEL        4
REMARK 921   NORMALIZED FREE ENERGY PREDICTED BY IDOCK:   -7.06 KCAL/MOL
REMARK 922        TOTAL FREE ENERGY PREDICTED BY IDOCK:   -8.39 KCAL/MOL
REMARK 923 INTER-LIGAND FREE ENERGY PREDICTED BY IDOCK:   -7.76 KCAL/MOL
REMARK 924 INTRA-LIGAND FREE ENERGY PREDICTED BY IDOCK:   -0.62 KCAL/MOL
REMARK 927      BINDING AFFINITY PREDICTED BY RF-SCORE:    0.00 PKD
ROOT
HETATM    1  C   UNL     1     -10.325  14.304  65.030  1.00  0.00    -0.421 C  
HETATM    2  F   UNL     1      -9.313  14.190  65.921  1.00  0.00    -0.265 F  
HETATM    3  C   UNL     1     -10.666  12.953  64.430  1.00  0.00    -0.386 C  
HETATM    4  O   UNL     1      -9.834  12.573  63.337  1.00  0.00    -0.606 OA 
HETATM    5  C   UNL     1     -12.106  13.183  63.990  1.00  0.00    -0.446 C  
HETATM    6  O   UNL     1     -12.709  14.014  65.004  1.00  0.00    -0.632 OA 
HETATM    7  C   UNL     1     -11.642  14.740  65.667  1.00  0.00    -0.290 C  
HETATM    8  H   UNL     1     -10.048  11.727  62.961  1.00  0.00     0.000 HD 
ENDROOT
BRANCH   5   9
HETATM    9  C   UNL     1     -12.908  11.897  63.796  1.00  0.00    -0.278 C  
HETATM   10  O   UNL     1     -12.538  11.237  62.589  1.00  0.00    -0.821 OA 
HETATM   11  H   UNL     1     -13.037  10.437  62.469  1.00  0.00     0.000 HD 
ENDBRANCH   5   9
BRANCH   7  12
HETATM   12  N   UNL     1     -11.720  14.508  67.095  1.00  0.00    -0.392 NA 
HETATM   13  C   UNL     1     -12.128  13.370  67.737  1.00  0.00    -0.259 A  
HETATM   14  N   UNL     1     -12.031  13.477  69.046  1.00  0.00    -0.341 NA 
HETATM   15  C   UNL     1     -11.522  14.740  69.260  1.00  0.00    -0.296 A  
HETATM   16  C   UNL     1     -11.166  15.434  70.429  1.00  0.00    -0.323 A  
HETATM   17  N   UNL     1     -11.260  14.877  71.696  1.00  0.00    -0.543 NA 
HETATM   18  N   UNL     1     -10.718  16.704  70.318  1.00  0.00    -0.124 NA 
HETATM   19  H1  UNL     1     -11.003  15.381  72.545  1.00  0.00     0.000 HD 
HETATM   20  C   UNL     1     -10.602  17.220  69.078  1.00  0.00    -0.247 A  
HETATM   21  H2  UNL     1     -10.731  14.005  71.686  1.00  0.00     0.000 HD 
HETATM   22 CL   UNL     1     -10.028  18.832  69.007  1.00  0.00    -0.410 Cl 
HETATM   23  N   UNL     1     -10.891  16.659  67.883  1.00  0.00    -0.344 NA 
HETATM   24  C   UNL     1     -11.346  15.408  68.057  1.00  0.00    -0.341 A  
ENDBRANCH   7  12
TORSDOF 2
ENDMDL
MODEL        5
REMARK 921   NORMALIZED FREE ENERGY PREDICTED BY IDOCK:   -7.02 KCAL/MOL
REMARK 922        TOTAL FREE ENERGY PREDICTED BY IDOCK:   -8.34 KCAL/MOL
REMARK 923 INTER-LIGAND FREE ENERGY PREDICTED BY IDOCK:   -7.69 KCAL/MOL
REMARK 924 INTRA-LIGAND FREE ENERGY PREDICTED BY IDOCK:   -0.65 KCAL/MOL
REMARK 927      BINDING AFFINITY PREDICTED BY RF-SCORE:    0.00 PKD
ROOT
HETATM    1  C   UNL     1      -8.307  16.882  67.420  1.00  0.00    -0.186 C  
HETATM    2  F   UNL     1      -7.851  15.967  66.534  1.00  0.00    -0.260 F  
HETATM    3  C   UNL     1      -7.874  18.279  67.019  1.00  0.00    -0.223 C  
HETATM    4  O   UNL     1      -6.556  18.626  67.439  1.00  0.00    -0.195 OA 
HETATM    5  C   UNL     1      -8.930  19.126  67.718  1.00  0.00    -0.296 C  
HETATM    6  O   UNL     1     -10.167  18.389  67.618  1.00  0.00    -0.341 OA 
HETATM    7  C   UNL     1      -9.829  16.988  67.447  1.00  0.00    -0.262 C  
HETATM    8  H   UNL     1      -6.285  19.501  67.187  1.00  0.00     0.000 HD 
ENDROOT
BRANCH   5   9
HETATM    9  C   UNL     1      -9.087  20.529  67.133  1.00  0.00    -0.322 C  
HETATM   10  O   UNL     1      -7.861  21.253  67.197  1.00  0.00    -0.713 OA 
HETATM   11  H   UNL     1      -7.959  22.126  66.833  1.00  0.00     0.000 HD 
ENDBRANCH   5   9
BRANCH   7  12
HETATM   12  N   UNL     1     -10.484  16.480  66.258  1.00  0.00    -0.303 NA 
HETATM   13  C   UNL     1     -10.714  17.141  65.082  1.00  0.00     0.004 A  
HETATM   14  N   UNL     1     -11.291  16.369  64.185  1.00  0.00    -0.978 NA 
HETATM   15  C   UNL     1     -11.427  15.146  64.806  1.00  0.00    -0.383 A  
HETATM   16  C   UNL     1     -11.937  13.911  64.369  1.00  0.00    -0.450 A  
HETATM   17  N   UNL     1     -12.414  13.704  63.083  1.00  0.00    -1.045 NA 
HETATM   18  N   UNL     1     -11.971  12.879  65.240  1.00  0.00    -0.391 NA 
HETATM   19  H1  UNL     1     -12.784  12.808  62.765  1.00  0.00     0.000 HD 
HETATM   20  C   UNL     1     -11.475  13.088  66.476  1.00  0.00    -0.340 A  
HETATM   21  H2  UNL     1     -11.673  13.975  62.435  1.00  0.00     0.000 HD 
HETATM   22 CL   UNL     1     -11.548  11.740  67.530  1.00  0.00    -0.381 Cl 
HETATM   23  N   UNL     1     -10.946  14.210  67.012  1.00  0.00    -0.295 NA 
HETATM   24  C   UNL     1     -10.953  15.202  66.108  1.00  0.00    -0.331 A  
ENDBRANCH   7  12
TORSDOF 2
ENDMDL
MODEL        6
REMARK 921   NORMALIZED FREE ENERGY PREDICTED BY IDOCK:   -6.95 KCAL/MOL
REMARK 922        TOTAL FREE ENERGY PREDICTED BY IDOCK:   -8.27 KCAL/MOL
REMARK 923 INTER-LIGAND FREE ENERGY PREDICTED BY IDOCK:   -7.62 KCAL/MOL
REMARK 924 INTRA-LIGAND FREE ENERGY PREDICTED BY IDOCK:   -0.65 KCAL/MOL
REMARK 927      BINDING AFFINITY PREDICTED BY RF-SCORE:    0.00 PKD
ROOT
HETATM    1  C   UNL     1     -11.514  12.501  65.122  1.00  0.00    -0.328 C  
HETATM    2  F   UNL     1     -12.581  11.775  65.525  1.00  0.00     0.077 F  
HETATM    3  C   UNL     1     -11.953  13.862  64.612  1.00  0.00    -0.419 C  
HETATM    4  O   UNL     1     -12.386  13.865  63.254  1.00  0.00    -1.115 OA 
HETATM    5  C   UNL     1     -10.677  14.671  64.800  1.00  0.00    -0.377 C  
HETATM    6  O   UNL     1     -10.080  14.202  66.028  1.00  0.00    -0.294 OA 
HETATM    7  C   UNL     1     -10.559  12.853  66.260  1.00  0.00    -0.266 C  
HETATM    8  H   UNL     1     -12.661  14.717  62.935  1.00  0.00     0.000 HD 
ENDROOT
BRANCH   5   9
HETATM    9  C   UNL     1     -10.903  16.182  64.850  1.00  0.00    -0.334 C  
HETATM   10  O   UNL     1     -11.621  16.633  63.706  1.00  0.00    -1.506 OA 
HETATM   11  H   UNL     1     -11.761  17.573  63.738  1.00  0.00     0.000 HD 
ENDBRANCH   5   9
BRANCH   7  12
HETATM   12  N   UNL     1     -11.151  12.777  67.581  1.00  0.00    -0.247 NA 
HETATM   13  C   UNL     1     -11.828  13.758  68.252  1.00  0.00    -0.378 A  
HETATM   14  N   UNL     1     -12.279  13.341  69.417  1.00  0.00    -0.222 NA 
HETATM   15  C   UNL     1     -11.889  12.021  69.495  1.00  0.00    -0.326 A  
HETATM   16  C   UNL     1     -12.090  11.028  70.469  1.00  0.00    -0.377 A  
HETATM   17  N   UNL     1     -12.824  11.243  71.626  1.00  0.00    -0.425 NA 
HETATM   18  N   UNL     1     -11.540   9.810  70.275  1.00  0.00    -0.243 NA 
HETATM   19  H1  UNL     1     -12.970  10.522  72.333  1.00  0.00     0.000 HD 
HETATM   20  C   UNL     1     -10.856   9.607  69.130  1.00  0.00    -0.190 A  
HETATM   21  H2  UNL     1     -13.743  11.586  71.345  1.00  0.00     0.000 HD 
HETATM   22 CL   UNL     1     -10.186   8.042  68.946  1.00  0.00    -0.213 Cl 
HETATM   23  N   UNL     1     -10.606  10.463  68.116  1.00  0.00    -0.195 NA 
HETATM   24  C   UNL     1     -11.161  11.659  68.371  1.00  0.00    -0.249 A  
ENDBRANCH   7  12
TORSDOF 2
ENDMDL
MODEL        7
REMARK 921   NORMALIZED FREE ENERGY PREDICTED BY IDOCK:   -6.91 KCAL/MOL
REMARK 922        TOTAL FREE ENERGY PREDICTED BY IDOCK:   -8.22 KCAL/MOL
REMARK 923 INTER-LIGAND FREE ENERGY PREDICTED BY IDOCK:   -7.66 KCAL/MOL
REMARK 924 INTRA-LIGAND FREE ENERGY PREDICTED BY IDOCK:   -0.56 KCAL/MOL
REMARK 927      BINDING AFFINITY PREDICTED BY RF-SCORE:    0.00 PKD
ROOT
HETATM    1  C   UNL     1     -12.578  12.736  64.967  1.00  0.00    -0.468 C  
HETATM    2  F   UNL     1     -13.035  13.970  64.658  1.00  0.00    -0.271 F  
HETATM    3  C   UNL     1     -11.820  12.136  63.798  1.00  0.00    -0.500 C  
HETATM    4  O   UNL     1     -12.650  11.513  62.821  1.00  0.00    -0.905 OA 
HETATM    5  C   UNL     1     -10.932  11.125  64.511  1.00  0.00    -0.185 C  
HETATM    6  O   UNL     1     -10.538  11.743  65.755  1.00  0.00    -0.251 OA 
HETATM    7  C   UNL     1     -11.539  12.740  66.085  1.00  0.00    -0.379 C  
HETATM    8  H   UNL     1     -12.175  11.138  62.088  1.00  0.00     0.000 HD 
ENDROOT
BRANCH   5   9
HETATM    9  C   UNL     1      -9.705  10.700  63.705  1.00  0.00    -0.327 C  
HETATM   10  O   UNL     1     -10.050  10.420  62.352  1.00  0.00    -0.743 OA 
HETATM   11  H   UNL     1      -9.287  10.155  61.851  1.00  0.00     0.000 HD 
ENDBRANCH   5   9
BRANCH   7  12
HETATM   12  N   UNL     1     -10.890  14.019  66.292  1.00  0.00    -0.290 NA 
HETATM   13  C   UNL     1     -10.013  14.657  65.458  1.00  0.00    -0.352 A  
HETATM   14  N   UNL     1      -9.647  15.832  65.928  1.00  0.00    -0.340 NA 
HETATM   15  C   UNL     1     -10.333  15.966  67.116  1.00  0.00    -0.300 A  
HETATM   16  C   UNL     1     -10.394  17.000  68.065  1.00  0.00    -0.341 A  
HETATM   17  N   UNL     1      -9.711  18.199  67.921  1.00  0.00    -0.288 NA 
HETATM   18  N   UNL     1     -11.145  16.820  69.174  1.00  0.00    -0.219 NA 
HETATM   19  H1  UNL     1      -9.755  18.950  68.610  1.00  0.00     0.000 HD 
HETATM   20  C   UNL     1     -11.828  15.662  69.285  1.00  0.00    -0.363 A  
HETATM   21  H2  UNL     1      -9.979  18.596  67.019  1.00  0.00     0.000 HD 
HETATM   22 CL   UNL     1     -12.760  15.497  70.711  1.00  0.00    -0.499 Cl 
HETATM   23  N   UNL     1     -11.869  14.605  68.445  1.00  0.00    -0.313 NA 
HETATM   24  C   UNL     1     -11.093  14.834  67.373  1.00  0.00    -0.324 A  
ENDBRANCH   7  12
TORSDOF 2
ENDMDL
MODEL        8
REMARK 921   NORMALIZED FREE ENERGY PREDICTED BY IDOCK:   -6.79 KCAL/MOL
REMARK 922        TOTAL FREE ENERGY PREDICTED BY IDOCK:   -8.09 KCAL/MOL
REMARK 923 INTER-LIGAND FREE ENERGY PREDICTED BY IDOCK:   -7.61 KCAL/MOL
REMARK 924 INTRA-LIGAND FREE ENERGY PREDICTED BY IDOCK:   -0.49 KCAL/MOL
REMARK 927      BINDING AFFINITY PREDICTED BY RF-SCORE:    0.00 PKD
ROOT
HETATM    1  C   UNL     1     -10.508  13.724  66.726  1.00  0.00    -0.270 C  
HETATM    2  F   UNL     1     -10.912  14.533  67.732  1.00  0.00    -0.254 F  
HETATM    3  C   UNL     1     -11.703  13.111  66.019  1.00  0.00    -0.379 C  
HETATM    4  O   UNL     1     -12.225  11.948  66.657  1.00  0.00    -0.493 OA 
HETATM    5  C   UNL     1     -11.102  12.786  64.658  1.00  0.00    -0.318 C  
HETATM    6  O   UNL     1     -10.197  13.867  64.349  1.00  0.00    -0.337 OA 
HETATM    7  C   UNL     1      -9.790  14.469  65.605  1.00  0.00    -0.305 C  
HETATM    8  H   UNL     1     -12.973  11.564  66.214  1.00  0.00     0.000 HD 
ENDROOT
BRANCH   5   9
HETATM    9  C   UNL     1     -12.139  12.615  63.548  1.00  0.00    -0.561 C  
HETATM   10  O   UNL     1     -12.625  13.876  63.099  1.00  0.00    -1.057 OA 
HETATM   11  H   UNL     1     -13.270  13.769  62.409  1.00  0.00     0.000 HD 
ENDBRANCH   5   9
BRANCH   7  12
HETATM   12  N   UNL     1     -10.063  15.892  65.563  1.00  0.00    -0.404 NA 
HETATM   13  C   UNL     1     -11.021  16.540  64.830  1.00  0.00    -0.209 A  
HETATM   14  N   UNL     1     -11.031  17.836  65.063  1.00  0.00    -0.696 NA 
HETATM   15  C   UNL     1     -10.043  18.033  66.003  1.00  0.00    -0.266 A  
HETATM   16  C   UNL     1      -9.587  19.181  66.674  1.00  0.00    -0.346 A  
HETATM   17  N   UNL     1     -10.148  20.436  66.490  1.00  0.00    -0.528 NA 
HETATM   18  N   UNL     1      -8.551  19.062  67.533  1.00  0.00    -0.283 NA 
HETATM   19  H1  UNL     1      -9.817  21.270  66.976  1.00  0.00     0.000 HD 
HETATM   20  C   UNL     1      -8.037  17.830  67.725  1.00  0.00    -0.226 A  
HETATM   21  H2  UNL     1     -11.149  20.353  66.672  1.00  0.00     0.000 HD 
HETATM   22 CL   UNL     1      -6.728  17.747  68.826  1.00  0.00    -0.226 Cl 
HETATM   23  N   UNL     1      -8.390  16.654  67.162  1.00  0.00    -0.169 NA 
HETATM   24  C   UNL     1      -9.410  16.837  66.308  1.00  0.00    -0.279 A  
ENDBRANCH   7  12
TORSDOF 2
ENDMDL
MODEL        9
REMARK 921   NORMALIZED FREE ENERGY PREDICTED BY IDOCK:   -6.70 KCAL/MOL
REMARK 922        TOTAL FREE ENERGY PREDICTED BY IDOCK:   -7.99 KCAL/MOL
REMARK 923 INTER-LIGAND FREE ENERGY PREDICTED BY IDOCK:   -7.34 KCAL/MOL
REMARK 924 INTRA-LIGAND FREE ENERGY PREDICTED BY IDOCK:   -0.65 KCAL/MOL
REMARK 927      BINDING AFFINITY PREDICTED BY RF-SCORE:    0.00 PKD
ROOT
HETATM    1  C   UNL     1     -10.321  11.768  68.422  1.00  0.00    -0.214 C  
HETATM    2  F   UNL     1     -11.313  12.674  68.578  1.00  0.00    -0.250 F  
HETATM    3  C   UNL     1     -10.894  10.382  68.188  1.00  0.00    -0.264 C  
HETATM    4  O   UNL     1     -11.251   9.689  69.382  1.00  0.00    -0.384 OA 
HETATM    5  C   UNL     1      -9.736   9.704  67.467  1.00  0.00    -0.158 C  
HETATM    6  O   UNL     1      -9.152  10.709  66.610  1.00  0.00    -0.157 OA 
HETATM    7  C   UNL     1      -9.478  12.006  67.172  1.00  0.00    -0.187 C  
HETATM    8  H   UNL     1     -11.609   8.821  69.235  1.00  0.00     0.000 HD 
ENDROOT
BRANCH   5   9
HETATM    9  C   UNL     1     -10.144   8.474  66.658  1.00  0.00    -0.294 C  
HETATM   10  O   UNL     1     -11.152   7.726  67.333  1.00  0.00    -0.525 OA 
HETATM   11  H   UNL     1     -11.406   6.961  66.830  1.00  0.00     0.000 HD 
ENDBRANCH   5   9
BRANCH   7  12
HETATM   12  N   UNL     1     -10.125  12.817  66.160  1.00  0.00    -0.262 NA 
HETATM   13  C   UNL     1     -10.975  12.400  65.172  1.00  0.00    -0.302 A  
HETATM   14  N   UNL     1     -11.425  13.405  64.449  1.00  0.00    -0.369 NA 
HETATM   15  C   UNL     1     -10.850  14.527  65.007  1.00  0.00    -0.412 A  
HETATM   16  C   UNL     1     -10.958  15.896  64.710  1.00  0.00    -0.375 A  
HETATM   17  N   UNL     1     -11.780  16.388  63.706  1.00  0.00    -1.498 NA 
HETATM   18  N   UNL     1     -10.226  16.775  65.428  1.00  0.00    -0.623 NA 
HETATM   19  H1  UNL     1     -11.858  17.382  63.490  1.00  0.00     0.000 HD 
HETATM   20  C   UNL     1      -9.456  16.284  66.421  1.00  0.00    -0.294 A  
HETATM   21  H2  UNL     1     -12.722  16.039  63.884  1.00  0.00     0.000 HD 
HETATM   22 CL   UNL     1      -8.555  17.450  67.292  1.00  0.00    -0.216 Cl 
HETATM   23  N   UNL     1      -9.278  15.005  66.817  1.00  0.00    -0.240 NA 
HETATM   24  C   UNL     1     -10.016  14.178  66.059  1.00  0.00    -0.322 A  
ENDBRANCH   7  12
TORSDOF 2
ENDMDL
MODEL       10
REMARK 921   NORMALIZED FREE ENERGY PREDICTED BY IDOCK:   -6.68 KCAL/MOL
REMARK 922        TOTAL FREE ENERGY PREDICTED BY IDOCK:   -7.97 KCAL/MOL
REMARK 923 INTER-LIGAND FREE ENERGY PREDICTED BY IDOCK:   -7.43 KCAL/MOL
REMARK 924 INTRA-LIGAND FREE ENERGY PREDICTED BY IDOCK:   -0.54 KCAL/MOL
REMARK 927      BINDING AFFINITY PREDICTED BY RF-SCORE:    0.00 PKD
ROOT
HETATM    1  C   UNL     1     -10.591  14.524  64.962  1.00  0.00    -0.437 C  
HETATM    2  F   UNL     1     -11.576  13.605  64.846  1.00  0.00    -0.315 F  
HETATM    3  C   UNL     1     -11.170  15.926  65.015  1.00  0.00    -0.290 C  
HETATM    4  O   UNL     1     -11.454  16.489  63.736  1.00  0.00    -1.615 OA 
HETATM    5  C   UNL     1     -10.052  16.678  65.726  1.00  0.00    -0.277 C  
HETATM    6  O   UNL     1      -9.524  15.770  66.716  1.00  0.00    -0.221 OA 
HETATM    7  C   UNL     1      -9.822  14.420  66.276  1.00  0.00    -0.304 C  
HETATM    8  H   UNL     1     -11.817  17.367  63.769  1.00  0.00     0.000 HD 
ENDROOT
BRANCH   5   9
HETATM    9  C   UNL     1     -10.501  17.986  66.376  1.00  0.00    -0.339 C  
HETATM   10  O   UNL     1     -10.545  19.045  65.423  1.00  0.00    -0.517 OA 
HETATM   11  H   UNL     1     -10.824  19.859  65.828  1.00  0.00     0.000 HD 
ENDBRANCH   5   9
BRANCH   7  12
HETATM   12  N   UNL     1     -10.530  13.720  67.329  1.00  0.00    -0.263 NA 
HETATM   13  C   UNL     1     -11.290  14.261  68.330  1.00  0.00    -0.283 A  
HETATM   14  N   UNL     1     -11.836  13.337  69.093  1.00  0.00    -0.321 NA 
HETATM   15  C   UNL     1     -11.421  12.140  68.549  1.00  0.00    -0.300 A  
HETATM   16  C   UNL     1     -11.686  10.802  68.888  1.00  0.00    -0.267 A  
HETATM   17  N   UNL     1     -12.528  10.438  69.928  1.00  0.00    -0.543 NA 
HETATM   18  N   UNL     1     -11.091   9.823  68.172  1.00  0.00    -0.172 NA 
HETATM   19  H1  UNL     1     -12.721   9.467  70.174  1.00  0.00     0.000 HD 
HETATM   20  C   UNL     1     -10.300  10.192  67.144  1.00  0.00    -0.238 A  
HETATM   21  H2  UNL     1     -13.426  10.897  69.769  1.00  0.00     0.000 HD 
HETATM   22 CL   UNL     1      -9.577   8.903  66.279  1.00  0.00    -0.305 Cl 
HETATM   23  N   UNL     1      -9.979  11.429  66.708  1.00  0.00    -0.205 NA 
HETATM   24  C   UNL     1     -10.585  12.358  67.464  1.00  0.00    -0.219 A  
ENDBRANCH   7  12
TORSDOF 2
ENDMDL
MODEL       11
REMARK 921   NORMALIZED FREE ENERGY PREDICTED BY IDOCK:   -6.65 KCAL/MOL
REMARK 922        TOTAL FREE ENERGY PREDICTED BY IDOCK:   -7.94 KCAL/MOL
REMARK 923 INTER-LIGAND FREE ENERGY PREDICTED BY IDOCK:   -7.43 KCAL/MOL
REMARK 924 INTRA-LIGAND FREE ENERGY PREDICTED BY IDOCK:   -0.51 KCAL/MOL
REMARK 927      BINDING AFFINITY PREDICTED BY RF-SCORE:    0.00 PKD
ROOT
HETATM    1  C   UNL     1     -11.437  12.285  69.297  1.00  0.00    -0.292 C  
HETATM    2  F   UNL     1     -12.491  13.118  69.144  1.00  0.00    -0.256 F  
HETATM    3  C   UNL     1     -11.847  10.848  69.036  1.00  0.00    -0.299 C  
HETATM    4  O   UNL     1     -12.440  10.197  70.157  1.00  0.00    -0.499 OA 
HETATM    5  C   UNL     1     -10.508  10.224  68.664  1.00  0.00    -0.193 C  
HETATM    6  O   UNL     1      -9.798  11.221  67.900  1.00  0.00    -0.170 OA 
HETATM    7  C   UNL     1     -10.331  12.519  68.271  1.00  0.00    -0.236 C  
HETATM    8  H   UNL     1     -12.697   9.297  69.993  1.00  0.00     0.000 HD 
ENDROOT
BRANCH   5   9
HETATM    9  C   UNL     1     -10.630   8.921  67.873  1.00  0.00    -0.183 C  
HETATM   10  O   UNL     1     -11.140   7.870  68.689  1.00  0.00    -0.417 OA 
HETATM   11  H   UNL     1     -11.215   7.060  68.197  1.00  0.00     0.000 HD 
ENDBRANCH   5   9
BRANCH   7  12
HETATM   12  N   UNL     1     -10.762  13.218  67.077  1.00  0.00    -0.259 NA 
HETATM   13  C   UNL     1     -11.669  12.797  66.142  1.00  0.00    -0.403 A  
HETATM   14  N   UNL     1     -11.868  13.700  65.204  1.00  0.00    -0.333 NA 
HETATM   15  C   UNL     1     -11.062  14.760  65.557  1.00  0.00    -0.346 A  
HETATM   16  C   UNL     1     -10.851  16.025  64.982  1.00  0.00    -0.404 A  
HETATM   17  N   UNL     1     -11.524  16.461  63.850  1.00  0.00    -1.618 NA 
HETATM   18  N   UNL     1      -9.949  16.854  65.551  1.00  0.00    -0.584 NA 
HETATM   19  H1  UNL     1     -11.371  17.379  63.432  1.00  0.00     0.000 HD 
HETATM   20  C   UNL     1      -9.327  16.429  66.669  1.00  0.00    -0.259 A  
HETATM   21  H2  UNL     1     -12.524  16.373  64.035  1.00  0.00     0.000 HD 
HETATM   22 CL   UNL     1      -8.197  17.526  67.340  1.00  0.00    -0.211 Cl 
HETATM   23  N   UNL     1      -9.450  15.255  67.327  1.00  0.00    -0.205 NA 
HETATM   24  C   UNL     1     -10.345  14.468  66.708  1.00  0.00    -0.269 A  
ENDBRANCH   7  12
TORSDOF 2
ENDMDL
MODEL       12
REMARK 921   NORMALIZED FREE ENERGY PREDICTED BY IDOCK:   -6.63 KCAL/MOL
REMARK 922        TOTAL FREE ENERGY PREDICTED BY IDOCK:   -7.91 KCAL/MOL
REMARK 923 INTER-LIGAND FREE ENERGY PREDICTED BY IDOCK:   -7.53 KCAL/MOL
REMARK 924 INTRA-LIGAND FREE ENERGY PREDICTED BY IDOCK:   -0.39 KCAL/MOL
REMARK 927      BINDING AFFINITY PREDICTED BY RF-SCORE:    0.00 PKD
ROOT
HETATM    1  C   UNL     1     -10.164  15.368  67.897  1.00  0.00    -0.239 C  
HETATM    2  F   UNL     1      -9.430  14.827  68.896  1.00  0.00    -0.190 F  
HETATM    3  C   UNL     1      -9.759  14.784  66.557  1.00  0.00    -0.278 C  
HETATM    4  O   UNL     1      -8.619  15.407  65.969  1.00  0.00    -0.397 OA 
HETATM    5  C   UNL     1     -11.020  15.027  65.738  1.00  0.00    -0.350 C  
HETATM    6  O   UNL     1     -12.130  14.811  66.635  1.00  0.00    -0.278 OA 
HETATM    7  C   UNL     1     -11.649  15.027  67.987  1.00  0.00    -0.338 C  
HETATM    8  H   UNL     1      -8.366  15.041  65.129  1.00  0.00     0.000 HD 
ENDROOT
BRANCH   5   9
HETATM    9  C   UNL     1     -11.139  14.134  64.504  1.00  0.00    -0.330 C  
HETATM   10  O   UNL     1     -12.328  14.423  63.773  1.00  0.00    -0.990 OA 
HETATM   11  H   UNL     1     -12.402  13.867  63.005  1.00  0.00     0.000 HD 
ENDBRANCH   5   9
BRANCH   7  12
HETATM   12  N   UNL     1     -11.945  13.858  68.791  1.00  0.00    -0.356 NA 
HETATM   13  C   UNL     1     -11.718  12.546  68.478  1.00  0.00    -0.324 A  
HETATM   14  N   UNL     1     -12.062  11.735  69.457  1.00  0.00    -0.280 NA 
HETATM   15  C   UNL     1     -12.520  12.565  70.458  1.00  0.00    -0.185 A  
HETATM   16  C   UNL     1     -12.997  12.313  71.755  1.00  0.00    -0.325 A  
HETATM   17  N   UNL     1     -13.062  11.039  72.302  1.00  0.00    -0.474 NA 
HETATM   18  N   UNL     1     -13.418  13.355  72.505  1.00  0.00    -0.579 NA 
HETATM   19  H1  UNL     1     -13.408  10.856  73.244  1.00  0.00     0.000 HD 
HETATM   20  C   UNL     1     -13.319  14.589  71.972  1.00  0.00    -0.373 A  
HETATM   21  H2  UNL     1     -12.129  10.630  72.234  1.00  0.00     0.000 HD 
HETATM   22 CL   UNL     1     -13.868  15.865  72.974  1.00  0.00    -0.610 Cl 
HETATM   23  N   UNL     1     -12.867  14.966  70.756  1.00  0.00    -0.361 NA 
HETATM   24  C   UNL     1     -12.479  13.891  70.052  1.00  0.00    -0.266 A  
ENDBRANCH   7  12
TORSDOF 2
ENDMDL
MODEL       13
REMARK 921   NORMALIZED FREE ENERGY PREDICTED BY IDOCK:   -6.49 KCAL/MOL
REMARK 922        TOTAL FREE ENERGY PREDICTED BY IDOCK:   -7.76 KCAL/MOL
REMARK 923 INTER-LIGAND FREE ENERGY PREDICTED BY IDOCK:   -7.96 KCAL/MOL
REMARK 924 INTRA-LIGAND FREE ENERGY PREDICTED BY IDOCK:    0.21 KCAL/MOL
REMARK 927      BINDING AFFINITY PREDICTED BY RF-SCORE:    0.00 PKD
ROOT
HETATM    1  C   UNL     1     -11.045  13.963  64.584  1.00  0.00    -0.385 C  
HETATM    2  F   UNL     1     -12.225  13.306  64.514  1.00  0.00    -0.394 F  
HETATM    3  C   UNL     1     -11.266  15.431  64.899  1.00  0.00    -0.403 C  
HETATM    4  O   UNL     1     -11.571  16.233  63.761  1.00  0.00    -1.539 OA 
HETATM    5  C   UNL     1      -9.922  15.805  65.509  1.00  0.00    -0.306 C  
HETATM    6  O   UNL     1      -9.499  14.663  66.284  1.00  0.00    -0.286 OA 
HETATM    7  C   UNL     1     -10.160  13.493  65.735  1.00  0.00    -0.287 C  
HETATM    8  H   UNL     1     -11.710  17.152  63.958  1.00  0.00     0.000 HD 
ENDROOT
BRANCH   5   9
HETATM    9  C   UNL     1      -9.963  17.062  66.377  1.00  0.00    -0.307 C  
HETATM   10  O   UNL     1     -10.561  18.150  65.678  1.00  0.00    -0.611 OA 
HETATM   11  H   UNL     1     -10.587  18.932  66.218  1.00  0.00     0.000 HD 
ENDBRANCH   5   9
BRANCH   7  12
HETATM   12  N   UNL     1     -10.873  12.807  66.794  1.00  0.00    -0.260 NA 
HETATM   13  C   UNL     1     -11.305  11.508  66.807  1.00  0.00    -0.238 A  
HETATM   14  N   UNL     1     -11.878  11.188  67.949  1.00  0.00    -0.630 NA 
HETATM   15  C   UNL     1     -11.798  12.330  68.716  1.00  0.00    -0.306 A  
HETATM   16  C   UNL     1     -12.200  12.620  70.032  1.00  0.00    -0.197 A  
HETATM   17  N   UNL     1     -12.783  11.679  70.868  1.00  0.00    -0.300 NA 
HETATM   18  N   UNL     1     -12.017  13.872  70.505  1.00  0.00    -0.328 NA 
HETATM   19  H1  UNL     1     -13.075  11.888  71.822  1.00  0.00     0.000 HD 
HETATM   20  C   UNL     1     -11.421  14.767  69.691  1.00  0.00    -0.292 A  
HETATM   21  H2  UNL     1     -12.154  10.876  70.910  1.00  0.00     0.000 HD 
HETATM   22 CL   UNL     1     -11.218  16.334  70.352  1.00  0.00    -0.384 Cl 
HETATM   23  N   UNL     1     -10.976  14.614  68.425  1.00  0.00    -0.244 NA 
HETATM   24  C   UNL     1     -11.199  13.359  68.004  1.00  0.00    -0.268 A  
ENDBRANCH   7  12
TORSDOF 2
ENDMDL
MODEL       14
REMARK 921   NORMALIZED FREE ENERGY PREDICTED BY IDOCK:   -6.47 KCAL/MOL
REMARK 922        TOTAL FREE ENERGY PREDICTED BY IDOCK:   -7.73 KCAL/MOL
REMARK 923 INTER-LIGAND FREE ENERGY PREDICTED BY IDOCK:   -7.30 KCAL/MOL
REMARK 924 INTRA-LIGAND FREE ENERGY PREDICTED BY IDOCK:   -0.43 KCAL/MOL
REMARK 927      BINDING AFFINITY PREDICTED BY RF-SCORE:    0.00 PKD
ROOT
HETATM    1  C   UNL     1     -10.772  13.692  66.497  1.00  0.00    -0.284 C  
HETATM    2  F   UNL     1      -9.637  13.452  67.192  1.00  0.00    -0.214 F  
HETATM    3  C   UNL     1     -10.550  13.466  65.013  1.00  0.00    -0.358 C  
HETATM    4  O   UNL     1      -9.976  14.579  64.332  1.00  0.00    -0.540 OA 
HETATM    5  C   UNL     1     -11.973  13.190  64.543  1.00  0.00    -0.389 C  
HETATM    6  O   UNL     1     -12.602  12.426  65.593  1.00  0.00    -0.575 OA 
HETATM    7  C   UNL     1     -11.899  12.718  66.828  1.00  0.00    -0.382 C  
HETATM    8  H   UNL     1      -9.837  14.438  63.403  1.00  0.00     0.000 HD 
ENDROOT
BRANCH   5   9
HETATM    9  C   UNL     1     -12.051  12.446  63.210  1.00  0.00    -0.421 C  
HETATM   10  O   UNL     1     -11.316  11.226  63.258  1.00  0.00    -0.804 OA 
HETATM   11  H   UNL     1     -11.365  10.764  62.429  1.00  0.00     0.000 HD 
ENDBRANCH   5   9
BRANCH   7  12
HETATM   12  N   UNL     1     -11.458  11.476  67.431  1.00  0.00    -0.481 NA 
HETATM   13  C   UNL     1     -10.726  10.477  66.849  1.00  0.00    -0.219 A  
HETATM   14  N   UNL     1     -10.453   9.506  67.696  1.00  0.00    -0.248 NA 
HETATM   15  C   UNL     1     -11.022   9.904  68.886  1.00  0.00    -0.179 A  
HETATM   16  C   UNL     1     -11.054   9.321  70.165  1.00  0.00    -0.230 A  
HETATM   17  N   UNL     1     -10.416   8.126  70.466  1.00  0.00    -0.210 NA 
HETATM   18  N   UNL     1     -11.740   9.947  71.146  1.00  0.00    -0.368 NA 
HETATM   19  H1  UNL     1     -10.439   7.703  71.394  1.00  0.00     0.000 HD 
HETATM   20  C   UNL     1     -12.327  11.124  70.845  1.00  0.00    -0.399 A  
HETATM   21  H2  UNL     1      -9.436   8.228  70.200  1.00  0.00     0.000 HD 
HETATM   22 CL   UNL     1     -13.179  11.865  72.132  1.00  0.00    -0.528 Cl 
HETATM   23  N   UNL     1     -12.358  11.794  69.673  1.00  0.00    -0.145 NA 
HETATM   24  C   UNL     1     -11.676  11.118  68.735  1.00  0.00    -0.326 A  
ENDBRANCH   7  12
TORSDOF 2
ENDMDL
MODEL       15
REMARK 921   NORMALIZED FREE ENERGY PREDICTED BY IDOCK:   -6.33 KCAL/MOL
REMARK 922        TOTAL FREE ENERGY PREDICTED BY IDOCK:   -7.58 KCAL/MOL
REMARK 923 INTER-LIGAND FREE ENERGY PREDICTED BY IDOCK:   -6.93 KCAL/MOL
REMARK 924 INTRA-LIGAND FREE ENERGY PREDICTED BY IDOCK:   -0.65 KCAL/MOL
REMARK 927      BINDING AFFINITY PREDICTED BY RF-SCORE:    0.00 PKD
ROOT
HETATM    1  C   UNL     1     -13.019  13.703  70.709  1.00  0.00    -0.135 C  
HETATM    2  F   UNL     1     -12.120  12.809  70.239  1.00  0.00    -0.383 F  
HETATM    3  C   UNL     1     -12.811  13.943  72.193  1.00  0.00    -0.298 C  
HETATM    4  O   UNL     1     -13.433  12.974  73.034  1.00  0.00    -0.570 OA 
HETATM    5  C   UNL     1     -13.440  15.320  72.358  1.00  0.00    -0.463 C  
HETATM    6  O   UNL     1     -13.108  16.060  71.163  1.00  0.00    -0.414 OA 
HETATM    7  C   UNL     1     -12.853  15.096  70.109  1.00  0.00    -0.164 C  
HETATM    8  H   UNL     1     -13.302  13.125  73.963  1.00  0.00     0.000 HD 
ENDROOT
BRANCH   5   9
HETATM    9  C   UNL     1     -12.973  16.070  73.606  1.00  0.00    -0.562 C  
HETATM   10  O   UNL     1     -12.058  15.285  74.364  1.00  0.00    -0.652 OA 
HETATM   11  H   UNL     1     -11.768  15.751  75.140  1.00  0.00     0.000 HD 
ENDBRANCH   5   9
BRANCH   7  12
HETATM   12  N   UNL     1     -11.546  15.349  69.537  1.00  0.00    -0.308 NA 
HETATM   13  C   UNL     1     -10.451  15.888  70.156  1.00  0.00    -0.244 A  
HETATM   14  N   UNL     1      -9.403  15.935  69.359  1.00  0.00    -0.263 NA 
HETATM   15  C   UNL     1      -9.838  15.384  68.173  1.00  0.00    -0.213 A  
HETATM   16  C   UNL     1      -9.189  15.126  66.953  1.00  0.00    -0.238 A  
HETATM   17  N   UNL     1      -7.845  15.393  66.741  1.00  0.00    -0.282 NA 
HETATM   18  N   UNL     1      -9.906  14.599  65.936  1.00  0.00    -0.322 NA 
HETATM   19  H1  UNL     1      -7.374  15.206  65.856  1.00  0.00     0.000 HD 
HETATM   20  C   UNL     1     -11.204  14.316  66.168  1.00  0.00    -0.331 A  
HETATM   21  H2  UNL     1      -7.319  14.915  67.474  1.00  0.00     0.000 HD 
HETATM   22 CL   UNL     1     -12.055  13.650  64.839  1.00  0.00    -0.400 Cl 
HETATM   23  N   UNL     1     -11.937  14.497  67.288  1.00  0.00    -0.394 NA 
HETATM   24  C   UNL     1     -11.178  15.037  68.255  1.00  0.00    -0.299 A  
ENDBRANCH   7  12
TORSDOF 2
ENDMDL
MODEL       16
REMARK 921   NORMALIZED FREE ENERGY PREDICTED BY IDOCK:   -6.32 KCAL/MOL
REMARK 922        TOTAL FREE ENERGY PREDICTED BY IDOCK:   -7.57 KCAL/MOL
REMARK 923 INTER-LIGAND FREE ENERGY PREDICTED BY IDOCK:   -6.92 KCAL/MOL
REMARK 924 INTRA-LIGAND FREE ENERGY PREDICTED BY IDOCK:   -0.65 KCAL/MOL
REMARK 927      BINDING AFFINITY PREDICTED BY RF-SCORE:    0.00 PKD
ROOT
HETATM    1  C   UNL     1     -10.060  11.119  65.253  1.00  0.00    -0.276 C  
HETATM    2  F   UNL     1     -10.464   9.885  65.634  1.00  0.00    -0.315 F  
HETATM    3  C   UNL     1     -11.134  11.803  64.426  1.00  0.00    -0.334 C  
HETATM    4  O   UNL     1     -11.124  11.445  63.047  1.00  0.00    -0.803 OA 
HETATM    5  C   UNL     1     -10.772  13.268  64.632  1.00  0.00    -0.400 C  
HETATM    6  O   UNL     1     -10.330  13.385  66.001  1.00  0.00    -0.285 OA 
HETATM    7  C   UNL     1      -9.865  12.077  66.424  1.00  0.00    -0.220 C  
HETATM    8  H   UNL     1     -11.797  11.873  62.529  1.00  0.00     0.000 HD 
ENDROOT
BRANCH   5   9
HETATM    9  C   UNL     1     -11.921  14.235  64.349  1.00  0.00    -0.456 C  
HETATM   10  O   UNL     1     -12.519  13.969  63.084  1.00  0.00    -1.137 OA 
HETATM   11  H   UNL     1     -13.233  14.571  62.908  1.00  0.00     0.000 HD 
ENDBRANCH   5   9
BRANCH   7  12
HETATM   12  N   UNL     1     -10.562  11.691  67.635  1.00  0.00    -0.196 NA 
HETATM   13  C   UNL     1     -11.845  12.003  67.998  1.00  0.00    -0.269 A  
HETATM   14  N   UNL     1     -12.184  11.449  69.144  1.00  0.00    -0.378 NA 
HETATM   15  C   UNL     1     -11.072  10.733  69.532  1.00  0.00    -0.278 A  
HETATM   16  C   UNL     1     -10.815   9.908  70.641  1.00  0.00    -0.330 A  
HETATM   17  N   UNL     1     -11.763   9.635  71.615  1.00  0.00    -0.395 NA 
HETATM   18  N   UNL     1      -9.587   9.359  70.769  1.00  0.00    -0.269 NA 
HETATM   19  H1  UNL     1     -11.576   9.036  72.420  1.00  0.00     0.000 HD 
HETATM   20  C   UNL     1      -8.686   9.608  69.797  1.00  0.00    -0.208 A  
HETATM   21  H2  UNL     1     -12.588   9.263  71.143  1.00  0.00     0.000 HD 
HETATM   22 CL   UNL     1      -7.151   8.883  70.019  1.00  0.00    -0.046 Cl 
HETATM   23  N   UNL     1      -8.810  10.361  68.682  1.00  0.00    -0.134 NA 
HETATM   24  C   UNL     1     -10.042  10.892  68.617  1.00  0.00    -0.191 A  
ENDBRANCH   7  12
TORSDOF 2
ENDMDL
MODEL       17
REMARK 921   NORMALIZED FREE ENERGY PREDICTED BY IDOCK:   -6.27 KCAL/MOL
REMARK 922        TOTAL FREE ENERGY PREDICTED BY IDOCK:   -7.51 KCAL/MOL
REMARK 923 INTER-LIGAND FREE ENERGY PREDICTED BY IDOCK:   -7.08 KCAL/MOL
REMARK 924 INTRA-LIGAND FREE ENERGY PREDICTED BY IDOCK:   -0.42 KCAL/MOL
REMARK 927      BINDING AFFINITY PREDICTED BY RF-SCORE:    0.00 PKD
ROOT
HETATM    1  C   UNL     1     -10.537  19.111  66.784  1.00  0.00    -0.439 C  
HETATM    2  F   UNL     1     -11.405  19.077  67.820  1.00  0.00    -0.340 F  
HETATM    3  C   UNL     1      -9.289  19.890  67.156  1.00  0.00    -0.364 C  
HETATM    4  O   UNL     1      -9.417  21.303  67.010  1.00  0.00    -0.609 OA 
HETATM    5  C   UNL     1      -8.278  19.311  66.175  1.00  0.00    -0.282 C  
HETATM    6  O   UNL     1      -8.589  17.907  66.058  1.00  0.00    -0.494 OA 
HETATM    7  C   UNL     1      -9.986  17.737  66.413  1.00  0.00    -0.344 C  
HETATM    8  H   UNL     1      -8.635  21.790  67.244  1.00  0.00     0.000 HD 
ENDROOT
BRANCH   5   9
HETATM    9  C   UNL     1      -6.822  19.511  66.595  1.00  0.00    -0.196 C  
HETATM   10  O   UNL     1      -6.633  20.782  67.208  1.00  0.00    -0.261 OA 
HETATM   11  H   UNL     1      -5.728  20.906  67.469  1.00  0.00     0.000 HD 
ENDBRANCH   5   9
BRANCH   7  12
HETATM   12  N   UNL     1     -10.095  16.746  67.465  1.00  0.00    -0.268 NA 
HETATM   13  C   UNL     1      -9.610  16.825  68.742  1.00  0.00    -0.260 A  
HETATM   14  N   UNL     1      -9.928  15.766  69.459  1.00  0.00    -0.270 NA 
HETATM   15  C   UNL     1     -10.667  14.973  68.608  1.00  0.00    -0.244 A  
HETATM   16  C   UNL     1     -11.311  13.736  68.784  1.00  0.00    -0.283 A  
HETATM   17  N   UNL     1     -11.326  13.058  69.994  1.00  0.00    -0.504 NA 
HETATM   18  N   UNL     1     -11.940  13.177  67.727  1.00  0.00    -0.339 NA 
HETATM   19  H1  UNL     1     -11.794  12.160  70.122  1.00  0.00     0.000 HD 
HETATM   20  C   UNL     1     -11.944  13.863  66.566  1.00  0.00    -0.439 A  
HETATM   21  H2  UNL     1     -11.695  13.698  70.698  1.00  0.00     0.000 HD 
HETATM   22 CL   UNL     1     -12.758  13.100  65.268  1.00  0.00    -0.528 Cl 
HETATM   23  N   UNL     1     -11.383  15.056  66.272  1.00  0.00    -0.316 NA 
HETATM   24  C   UNL     1     -10.760  15.555  67.352  1.00  0.00    -0.301 A  
ENDBRANCH   7  12
TORSDOF 2
ENDMDL
MODEL       18
REMARK 921   NORMALIZED FREE ENERGY PREDICTED BY IDOCK:   -6.25 KCAL/MOL
REMARK 922        TOTAL FREE ENERGY PREDICTED BY IDOCK:   -7.49 KCAL/MOL
REMARK 923 INTER-LIGAND FREE ENERGY PREDICTED BY IDOCK:   -7.55 KCAL/MOL
REMARK 924 INTRA-LIGAND FREE ENERGY PREDICTED BY IDOCK:    0.06 KCAL/MOL
REMARK 927      BINDING AFFINITY PREDICTED BY RF-SCORE:    0.00 PKD
ROOT
HETATM    1  C   UNL     1      -9.622  12.775  66.139  1.00  0.00    -0.212 C  
HETATM    2  F   UNL     1      -9.509  11.475  66.495  1.00  0.00    -0.187 F  
HETATM    3  C   UNL     1     -10.537  12.925  64.938  1.00  0.00    -0.323 C  
HETATM    4  O   UNL     1      -9.896  12.705  63.684  1.00  0.00    -0.659 OA 
HETATM    5  C   UNL     1     -10.992  14.370  65.094  1.00  0.00    -0.373 C  
HETATM    6  O   UNL     1     -11.149  14.591  66.512  1.00  0.00    -0.318 OA 
HETATM    7  C   UNL     1     -10.305  13.633  67.201  1.00  0.00    -0.250 C  
HETATM    8  H   UNL     1     -10.469  12.799  62.932  1.00  0.00     0.000 HD 
ENDROOT
BRANCH   5   9
HETATM    9  C   UNL     1     -12.285  14.697  64.349  1.00  0.00    -0.452 C  
HETATM   10  O   UNL     1     -12.338  14.027  63.092  1.00  0.00    -1.133 OA 
HETATM   11  H   UNL     1     -13.143  14.230  62.629  1.00  0.00     0.000 HD 
ENDBRANCH   5   9
BRANCH   7  12
HETATM   12  N   UNL     1     -11.107  12.885  68.148  1.00  0.00    -0.239 NA 
HETATM   13  C   UNL     1     -11.537  11.590  68.043  1.00  0.00    -0.300 A  
HETATM   14  N   UNL     1     -12.207  11.202  69.108  1.00  0.00    -0.442 NA 
HETATM   15  C   UNL     1     -12.196  12.293  69.949  1.00  0.00    -0.163 A  
HETATM   16  C   UNL     1     -12.712  12.502  71.240  1.00  0.00    -0.252 A  
HETATM   17  N   UNL     1     -13.365  11.513  71.961  1.00  0.00    -0.511 NA 
HETATM   18  N   UNL     1     -12.572  13.721  71.805  1.00  0.00    -0.271 NA 
HETATM   19  H1  UNL     1     -13.739  11.664  72.898  1.00  0.00     0.000 HD 
HETATM   20  C   UNL     1     -11.907  14.662  71.104  1.00  0.00    -0.323 A  
HETATM   21  H2  UNL     1     -12.740  10.706  72.008  1.00  0.00     0.000 HD 
HETATM   22 CL   UNL     1     -11.765  16.184  71.876  1.00  0.00    -0.579 Cl 
HETATM   23  N   UNL     1     -11.354  14.587  69.874  1.00  0.00    -0.256 NA 
HETATM   24  C   UNL     1     -11.538  13.361  69.358  1.00  0.00    -0.307 A  
ENDBRANCH   7  12
TORSDOF 2
ENDMDL
MODEL       19
REMARK 921   NORMALIZED FREE ENERGY PREDICTED BY IDOCK:   -6.19 KCAL/MOL
REMARK 922        TOTAL FREE ENERGY PREDICTED BY IDOCK:   -7.43 KCAL/MOL
REMARK 923 INTER-LIGAND FREE ENERGY PREDICTED BY IDOCK:   -6.93 KCAL/MOL
REMARK 924 INTRA-LIGAND FREE ENERGY PREDICTED BY IDOCK:   -0.49 KCAL/MOL
REMARK 927      BINDING AFFINITY PREDICTED BY RF-SCORE:    0.00 PKD
ROOT
HETATM    1  C   UNL     1     -11.869  14.540  70.374  1.00  0.00    -0.311 C  
HETATM    2  F   UNL     1     -12.506  15.643  69.918  1.00  0.00    -0.376 F  
HETATM    3  C   UNL     1     -12.865  13.443  70.702  1.00  0.00    -0.087 C  
HETATM    4  O   UNL     1     -13.455  13.557  71.995  1.00  0.00    -0.421 OA 
HETATM    5  C   UNL     1     -11.985  12.205  70.591  1.00  0.00    -0.137 C  
HETATM    6  O   UNL     1     -11.084  12.449  69.490  1.00  0.00    -0.149 OA 
HETATM    7  C   UNL     1     -10.970  13.887  69.328  1.00  0.00    -0.183 C  
HETATM    8  H   UNL     1     -14.079  12.870  72.200  1.00  0.00     0.000 HD 
ENDROOT
BRANCH   5   9
HETATM    9  C   UNL     1     -12.763  10.908  70.376  1.00  0.00    -0.248 C  
HETATM   10  O   UNL     1     -12.760  10.527  69.004  1.00  0.00    -0.601 OA 
HETATM   11  H   UNL     1     -13.244   9.720  68.870  1.00  0.00     0.000 HD 
ENDBRANCH   5   9
BRANCH   7  12
HETATM   12  N   UNL     1     -11.292  14.240  67.960  1.00  0.00    -0.280 NA 
HETATM   13  C   UNL     1     -12.309  13.750  67.185  1.00  0.00    -0.204 A  
HETATM   14  N   UNL     1     -12.349  14.323  66.000  1.00  0.00    -0.423 NA 
HETATM   15  C   UNL     1     -11.318  15.238  66.015  1.00  0.00    -0.162 A  
HETATM   16  C   UNL     1     -10.864  16.172  65.067  1.00  0.00    -0.363 A  
HETATM   17  N   UNL     1     -11.476  16.356  63.836  1.00  0.00    -1.618 NA 
HETATM   18  N   UNL     1      -9.781  16.922  65.364  1.00  0.00    -0.359 NA 
HETATM   19  H1  UNL     1     -11.147  17.034  63.148  1.00  0.00     0.000 HD 
HETATM   20  C   UNL     1      -9.217  16.754  66.577  1.00  0.00    -0.268 A  
HETATM   21  H2  UNL     1     -12.462  16.552  64.011  1.00  0.00     0.000 HD 
HETATM   22 CL   UNL     1      -7.848  17.734  66.890  1.00  0.00    -0.236 Cl 
HETATM   23  N   UNL     1      -9.561  15.911  67.575  1.00  0.00    -0.220 NA 
HETATM   24  C   UNL     1     -10.631  15.183  67.219  1.00  0.00    -0.286 A  
ENDBRANCH   7  12
TORSDOF 2
ENDMDL
MODEL       20
REMARK 921   NORMALIZED FREE ENERGY PREDICTED BY IDOCK:   -6.17 KCAL/MOL
REMARK 922        TOTAL FREE ENERGY PREDICTED BY IDOCK:   -7.39 KCAL/MOL
REMARK 923 INTER-LIGAND FREE ENERGY PREDICTED BY IDOCK:   -7.02 KCAL/MOL
REMARK 924 INTRA-LIGAND FREE ENERGY PREDICTED BY IDOCK:   -0.37 KCAL/MOL
REMARK 927      BINDING AFFINITY PREDICTED BY RF-SCORE:    0.00 PKD
ROOT
HETATM    1  C   UNL     1     -11.212  11.596  67.557  1.00  0.00    -0.293 C  
HETATM    2  F   UNL     1     -12.140  10.612  67.580  1.00  0.00    -0.041 F  
HETATM    3  C   UNL     1     -11.824  12.900  67.081  1.00  0.00    -0.362 C  
HETATM    4  O   UNL     1     -11.899  13.027  65.663  1.00  0.00    -0.354 OA 
HETATM    5  C   UNL     1     -10.864  13.914  67.688  1.00  0.00    -0.254 C  
HETATM    6  O   UNL     1     -10.491  13.391  68.981  1.00  0.00    -0.160 OA 
HETATM    7  C   UNL     1     -10.677  11.953  68.941  1.00  0.00    -0.199 C  
HETATM    8  H   UNL     1     -12.283  13.843  65.365  1.00  0.00     0.000 HD 
ENDROOT
BRANCH   5   9
HETATM    9  C   UNL     1     -11.448  15.320  67.820  1.00  0.00    -0.303 C  
HETATM   10  O   UNL     1     -12.473  15.360  68.810  1.00  0.00    -0.573 OA 
HETATM   11  H   UNL     1     -12.836  16.234  68.892  1.00  0.00     0.000 HD 
ENDBRANCH   5   9
BRANCH   7  12
HETATM   12  N   UNL     1     -11.538  11.552  70.036  1.00  0.00    -0.302 NA 
HETATM   13  C   UNL     1     -12.397  12.338  70.756  1.00  0.00    -0.290 A  
HETATM   14  N   UNL     1     -13.069  11.645  71.652  1.00  0.00    -0.424 NA 
HETATM   15  C   UNL     1     -12.635  10.347  71.493  1.00  0.00    -0.439 A  
HETATM   16  C   UNL     1     -12.991   9.143  72.125  1.00  0.00    -0.425 A  
HETATM   17  N   UNL     1     -13.970   9.065  73.104  1.00  0.00    -1.215 NA 
HETATM   18  N   UNL     1     -12.347   8.009  71.769  1.00  0.00    -0.306 NA 
HETATM   19  H1  UNL     1     -14.229   8.191  73.563  1.00  0.00     0.000 HD 
HETATM   20  C   UNL     1     -11.420   8.096  70.794  1.00  0.00    -0.261 A  
HETATM   21  H2  UNL     1     -14.823   9.469  72.715  1.00  0.00     0.000 HD 
HETATM   22 CL   UNL     1     -10.643   6.624  70.391  1.00  0.00    -0.249 Cl 
HETATM   23  N   UNL     1     -11.001   9.177  70.101  1.00  0.00    -0.239 NA 
HETATM   24  C   UNL     1     -11.661  10.273  70.507  1.00  0.00    -0.331 A  
ENDBRANCH   7  12
TORSDOF 2
ENDMDL
MODEL       21
REMARK 921   NORMALIZED FREE ENERGY PREDICTED BY IDOCK:   -6.14 KCAL/MOL
REMARK 922        TOTAL FREE ENERGY PREDICTED BY IDOCK:   -7.36 KCAL/MOL
REMARK 923 INTER-LIGAND FREE ENERGY PREDICTED BY IDOCK:   -7.15 KCAL/MOL
REMARK 924 INTRA-LIGAND FREE ENERGY PREDICTED BY IDOCK:   -0.21 KCAL/MOL
REMARK 927      BINDING AFFINITY PREDICTED BY RF-SCORE:    0.00 PKD
ROOT
HETATM    1  C   UNL     1     -11.797  13.263  64.115  1.00  0.00    -0.443 C  
HETATM    2  F   UNL     1     -12.866  12.466  64.336  1.00  0.00    -0.529 F  
HETATM    3  C   UNL     1     -12.055  14.664  64.638  1.00  0.00    -0.454 C  
HETATM    4  O   UNL     1     -12.781  15.499  63.739  1.00  0.00    -0.751 OA 
HETATM    5  C   UNL     1     -10.632  15.165  64.849  1.00  0.00    -0.365 C  
HETATM    6  O   UNL     1      -9.875  14.035  65.332  1.00  0.00    -0.278 OA 
HETATM    7  C   UNL     1     -10.553  12.832  64.887  1.00  0.00    -0.314 C  
HETATM    8  H   UNL     1     -12.943  16.376  64.068  1.00  0.00     0.000 HD 
ENDROOT
BRANCH   5   9
HETATM    9  C   UNL     1     -10.527  16.342  65.819  1.00  0.00    -0.364 C  
HETATM   10  O   UNL     1      -9.310  17.057  65.629  1.00  0.00    -0.523 OA 
HETATM   11  H   UNL     1      -9.244  17.789  66.233  1.00  0.00     0.000 HD 
ENDBRANCH   5   9
BRANCH   7  12
HETATM   12  N   UNL     1     -10.824  11.985  66.031  1.00  0.00    -0.278 NA 
HETATM   13  C   UNL     1     -11.645  12.252  67.094  1.00  0.00    -0.353 A  
HETATM   14  N   UNL     1     -11.704  11.244  67.940  1.00  0.00    -0.592 NA 
HETATM   15  C   UNL     1     -10.895  10.273  67.389  1.00  0.00    -0.277 A  
HETATM   16  C   UNL     1     -10.570   8.967  67.793  1.00  0.00    -0.202 A  
HETATM   17  N   UNL     1     -11.100   8.375  68.930  1.00  0.00    -0.405 NA 
HETATM   18  N   UNL     1      -9.699   8.254  67.045  1.00  0.00    -0.191 NA 
HETATM   19  H1  UNL     1     -10.865   7.426  69.224  1.00  0.00     0.000 HD 
HETATM   20  C   UNL     1      -9.218   8.832  65.926  1.00  0.00    -0.220 A  
HETATM   21  H2  UNL     1     -12.117   8.428  68.857  1.00  0.00     0.000 HD 
HETATM   22 CL   UNL     1      -8.120   7.876  65.024  1.00  0.00    -0.140 Cl 
HETATM   23  N   UNL     1      -9.460  10.061  65.421  1.00  0.00    -0.229 NA 
HETATM   24  C   UNL     1     -10.317  10.726  66.212  1.00  0.00    -0.244 A  
ENDBRANCH   7  12
TORSDOF 2
ENDMDL
MODEL       22
REMARK 921   NORMALIZED FREE ENERGY PREDICTED BY IDOCK:   -6.13 KCAL/MOL
REMARK 922        TOTAL FREE ENERGY PREDICTED BY IDOCK:   -7.35 KCAL/MOL
REMARK 923 INTER-LIGAND FREE ENERGY PREDICTED BY IDOCK:   -6.96 KCAL/MOL
REMARK 924 INTRA-LIGAND FREE ENERGY PREDICTED BY IDOCK:   -0.39 KCAL/MOL
REMARK 927      BINDING AFFINITY PREDICTED BY RF-SCORE:    0.00 PKD
ROOT
HETATM    1  C   UNL     1     -12.002  14.545  65.823  1.00  0.00    -0.306 C  
HETATM    2  F   UNL     1     -11.439  15.143  64.748  1.00  0.00    -0.365 F  
HETATM    3  C   UNL     1     -11.905  13.035  65.708  1.00  0.00    -0.404 C  
HETATM    4  O   UNL     1     -12.935  12.442  64.921  1.00  0.00    -0.762 OA 
HETATM    5  C   UNL     1     -12.004  12.623  67.171  1.00  0.00    -0.256 C  
HETATM    6  O   UNL     1     -11.282  13.623  67.921  1.00  0.00    -0.255 OA 
HETATM    7  C   UNL     1     -11.268  14.839  67.128  1.00  0.00    -0.343 C  
HETATM    8  H   UNL     1     -12.874  11.496  64.850  1.00  0.00     0.000 HD 
ENDROOT
BRANCH   5   9
HETATM    9  C   UNL     1     -11.454  11.227  67.461  1.00  0.00    -0.246 C  
HETATM   10  O   UNL     1     -12.246  10.554  68.435  1.00  0.00    -0.787 OA 
HETATM   11  H   UNL     1     -11.903   9.686  68.615  1.00  0.00     0.000 HD 
ENDBRANCH   5   9
BRANCH   7  12
HETATM   12  N   UNL     1      -9.898  15.281  66.957  1.00  0.00    -0.227 NA 
HETATM   13  C   UNL     1      -8.761  14.521  66.997  1.00  0.00    -0.234 A  
HETATM   14  N   UNL     1      -7.680  15.232  66.753  1.00  0.00    -0.064 NA 
HETATM   15  C   UNL     1      -8.143  16.511  66.528  1.00  0.00    -0.306 A  
HETATM   16  C   UNL     1      -7.491  17.710  66.191  1.00  0.00    -0.299 A  
HETATM   17  N   UNL     1      -6.123  17.792  65.980  1.00  0.00    -0.219 NA 
HETATM   18  N   UNL     1      -8.228  18.836  66.071  1.00  0.00    -0.485 NA 
HETATM   19  H1  UNL     1      -5.650  18.662  65.735  1.00  0.00     0.000 HD 
HETATM   20  C   UNL     1      -9.561  18.734  66.247  1.00  0.00    -0.297 A  
HETATM   21  H2  UNL     1      -5.881  17.103  65.268  1.00  0.00     0.000 HD 
HETATM   22 CL   UNL     1     -10.435  20.196  66.081  1.00  0.00    -0.500 Cl 
HETATM   23  N   UNL     1     -10.305  17.650  66.555  1.00  0.00    -0.349 NA 
HETATM   24  C   UNL     1      -9.521  16.567  66.677  1.00  0.00    -0.258 A  
ENDBRANCH   7  12
TORSDOF 2
ENDMDL
MODEL       23
REMARK 921   NORMALIZED FREE ENERGY PREDICTED BY IDOCK:   -6.11 KCAL/MOL
REMARK 922        TOTAL FREE ENERGY PREDICTED BY IDOCK:   -7.34 KCAL/MOL
REMARK 923 INTER-LIGAND FREE ENERGY PREDICTED BY IDOCK:   -6.78 KCAL/MOL
REMARK 924 INTRA-LIGAND FREE ENERGY PREDICTED BY IDOCK:   -0.56 KCAL/MOL
REMARK 927      BINDING AFFINITY PREDICTED BY RF-SCORE:    0.00 PKD
ROOT
HETATM    1  C   UNL     1     -11.805  15.213  65.164  1.00  0.00    -0.116 C  
HETATM    2  F   UNL     1     -11.039  16.234  64.716  1.00  0.00    -0.424 F  
HETATM    3  C   UNL     1     -11.628  13.987  64.289  1.00  0.00    -0.329 C  
HETATM    4  O   UNL     1     -12.432  13.988  63.112  1.00  0.00    -1.137 OA 
HETATM    5  C   UNL     1     -12.037  12.879  65.251  1.00  0.00    -0.453 C  
HETATM    6  O   UNL     1     -11.539  13.269  66.548  1.00  0.00    -0.319 OA 
HETATM    7  C   UNL     1     -11.394  14.712  66.546  1.00  0.00    -0.353 C  
HETATM    8  H   UNL     1     -12.321  13.219  62.564  1.00  0.00     0.000 HD 
ENDROOT
BRANCH   5   9
HETATM    9  C   UNL     1     -11.513  11.496  64.863  1.00  0.00    -0.053 C  
HETATM   10  O   UNL     1     -11.568  11.302  63.452  1.00  0.00    -0.729 OA 
HETATM   11  H   UNL     1     -11.242  10.442  63.212  1.00  0.00     0.000 HD 
ENDBRANCH   5   9
BRANCH   7  12
HETATM   12  N   UNL     1     -10.039  15.057  66.927  1.00  0.00    -0.245 NA 
HETATM   13  C   UNL     1      -8.922  14.269  66.851  1.00  0.00    -0.236 A  
HETATM   14  N   UNL     1      -7.837  14.910  67.235  1.00  0.00    -0.202 NA 
HETATM   15  C   UNL     1      -8.272  16.177  67.560  1.00  0.00    -0.150 A  
HETATM   16  C   UNL     1      -7.596  17.327  68.003  1.00  0.00    -0.197 A  
HETATM   17  N   UNL     1      -6.221  17.375  68.177  1.00  0.00    -0.153 NA 
HETATM   18  N   UNL     1      -8.317  18.436  68.280  1.00  0.00    -0.295 NA 
HETATM   19  H1  UNL     1      -5.730  18.210  68.499  1.00  0.00     0.000 HD 
HETATM   20  C   UNL     1      -9.649  18.383  68.076  1.00  0.00    -0.298 A  
HETATM   21  H2  UNL     1      -5.791  17.090  67.296  1.00  0.00     0.000 HD 
HETATM   22 CL   UNL     1     -10.502  19.821  68.444  1.00  0.00    -0.500 Cl 
HETATM   23  N   UNL     1     -10.411  17.356  67.641  1.00  0.00    -0.361 NA 
HETATM   24  C   UNL     1      -9.645  16.280  67.399  1.00  0.00    -0.230 A  
ENDBRANCH   7  12
TORSDOF 2
ENDMDL
MODEL       24
REMARK 921   NORMALIZED FREE ENERGY PREDICTED BY IDOCK:   -6.10 KCAL/MOL
REMARK 922        TOTAL FREE ENERGY PREDICTED BY IDOCK:   -7.32 KCAL/MOL
REMARK 923 INTER-LIGAND FREE ENERGY PREDICTED BY IDOCK:   -7.25 KCAL/MOL
REMARK 924 INTRA-LIGAND FREE ENERGY PREDICTED BY IDOCK:   -0.07 KCAL/MOL
REMARK 927      BINDING AFFINITY PREDICTED BY RF-SCORE:    0.00 PKD
ROOT
HETATM    1  C   UNL     1     -11.657  11.951  63.989  1.00  0.00    -0.389 C  
HETATM    2  F   UNL     1     -11.922  13.092  63.313  1.00  0.00    -0.553 F  
HETATM    3  C   UNL     1     -10.352  11.338  63.515  1.00  0.00    -0.408 C  
HETATM    4  O   UNL     1     -10.476  10.536  62.342  1.00  0.00    -0.638 OA 
HETATM    5  C   UNL     1      -9.961  10.505  64.729  1.00  0.00    -0.345 C  
HETATM    6  O   UNL     1     -10.348  11.276  65.886  1.00  0.00    -0.239 OA 
HETATM    7  C   UNL     1     -11.409  12.177  65.478  1.00  0.00    -0.344 C  
HETATM    8  H   UNL     1      -9.659  10.152  62.046  1.00  0.00     0.000 HD 
ENDROOT
BRANCH   5   9
HETATM    9  C   UNL     1      -8.475  10.151  64.785  1.00  0.00    -0.174 C  
HETATM   10  O   UNL     1      -7.741  10.851  63.785  1.00  0.00    -0.340 OA 
HETATM   11  H   UNL     1      -6.817  10.631  63.820  1.00  0.00     0.000 HD 
ENDBRANCH   5   9
BRANCH   7  12
HETATM   12  N   UNL     1     -11.041  13.536  65.822  1.00  0.00    -0.286 NA 
HETATM   13  C   UNL     1     -10.416  14.461  65.030  1.00  0.00    -0.430 A  
HETATM   14  N   UNL     1     -10.273  15.620  65.639  1.00  0.00    -0.348 NA 
HETATM   15  C   UNL     1     -10.847  15.440  66.879  1.00  0.00    -0.313 A  
HETATM   16  C   UNL     1     -11.038  16.304  67.971  1.00  0.00    -0.299 A  
HETATM   17  N   UNL     1     -10.655  17.638  67.954  1.00  0.00    -0.395 NA 
HETATM   18  N   UNL     1     -11.614  15.817  69.091  1.00  0.00    -0.376 NA 
HETATM   19  H1  UNL     1     -10.793  18.265  68.746  1.00  0.00     0.000 HD 
HETATM   20  C   UNL     1     -12.009  14.527  69.080  1.00  0.00    -0.309 A  
HETATM   21  H2  UNL     1     -11.094  18.071  67.141  1.00  0.00     0.000 HD 
HETATM   22 CL   UNL     1     -12.732  13.972  70.530  1.00  0.00    -0.375 Cl 
HETATM   23  N   UNL     1     -11.901  13.604  68.101  1.00  0.00    -0.361 NA 
HETATM   24  C   UNL     1     -11.308  14.139  67.022  1.00  0.00    -0.332 A  
ENDBRANCH   7  12
TORSDOF 2
ENDMDL
MODEL       25
REMARK 921   NORMALIZED FREE ENERGY PREDICTED BY IDOCK:   -6.08 KCAL/MOL
REMARK 922        TOTAL FREE ENERGY PREDICTED BY IDOCK:   -7.30 KCAL/MOL
REMARK 923 INTER-LIGAND FREE ENERGY PREDICTED BY IDOCK:   -6.66 KCAL/MOL
REMARK 924 INTRA-LIGAND FREE ENERGY PREDICTED BY IDOCK:   -0.64 KCAL/MOL
REMARK 927      BINDING AFFINITY PREDICTED BY RF-SCORE:    0.00 PKD
ROOT
HETATM    1  C   UNL     1     -12.991   9.345  71.654  1.00  0.00    -0.391 C  
HETATM    2  F   UNL     1     -13.941   9.696  70.757  1.00  0.00    -0.336 F  
HETATM    3  C   UNL     1     -12.600   7.889  71.480  1.00  0.00    -0.321 C  
HETATM    4  O   UNL     1     -13.468   6.969  72.137  1.00  0.00    -0.538 OA 
HETATM    5  C   UNL     1     -11.205   7.885  72.091  1.00  0.00    -0.307 C  
HETATM    6  O   UNL     1     -10.599   9.140  71.718  1.00  0.00    -0.352 OA 
HETATM    7  C   UNL     1     -11.670  10.082  71.452  1.00  0.00    -0.334 C  
HETATM    8  H   UNL     1     -13.223   6.057  72.028  1.00  0.00     0.000 HD 
ENDROOT
BRANCH   5   9
HETATM    9  C   UNL     1     -10.336   6.710  71.644  1.00  0.00    -0.205 C  
HETATM   10  O   UNL     1     -10.989   5.941  70.637  1.00  0.00    -0.293 OA 
HETATM   11  H   UNL     1     -10.448   5.210  70.360  1.00  0.00     0.000 HD 
ENDBRANCH   5   9
BRANCH   7  12
HETATM   12  N   UNL     1     -11.495  10.642  70.127  1.00  0.00    -0.306 NA 
HETATM   13  C   UNL     1     -11.141   9.985  68.980  1.00  0.00    -0.180 A  
HETATM   14  N   UNL     1     -11.120  10.787  67.935  1.00  0.00    -0.287 NA 
HETATM   15  C   UNL     1     -11.493  12.019  68.428  1.00  0.00    -0.301 A  
HETATM   16  C   UNL     1     -11.686  13.268  67.814  1.00  0.00    -0.358 A  
HETATM   17  N   UNL     1     -11.539  13.469  66.449  1.00  0.00    -0.335 NA 
HETATM   18  N   UNL     1     -12.025  14.324  68.585  1.00  0.00    -0.332 NA 
HETATM   19  H1  UNL     1     -11.679  14.376  66.003  1.00  0.00     0.000 HD 
HETATM   20  C   UNL     1     -12.195  14.106  69.905  1.00  0.00    -0.359 A  
HETATM   21  H2  UNL     1     -12.145  12.798  65.975  1.00  0.00     0.000 HD 
HETATM   22 CL   UNL     1     -12.624  15.485  70.825  1.00  0.00    -0.481 Cl 
HETATM   23  N   UNL     1     -12.058  12.963  70.611  1.00  0.00    -0.314 NA 
HETATM   24  C   UNL     1     -11.706  11.955  69.798  1.00  0.00    -0.331 A  
ENDBRANCH   7  12
TORSDOF 2
ENDMDL
MODEL       26
REMARK 921   NORMALIZED FREE ENERGY PREDICTED BY IDOCK:   -6.07 KCAL/MOL
REMARK 922        TOTAL FREE ENERGY PREDICTED BY IDOCK:   -7.29 KCAL/MOL
REMARK 923 INTER-LIGAND FREE ENERGY PREDICTED BY IDOCK:   -7.30 KCAL/MOL
REMARK 924 INTRA-LIGAND FREE ENERGY PREDICTED BY IDOCK:    0.01 KCAL/MOL
REMARK 927      BINDING AFFINITY PREDICTED BY RF-SCORE:    0.00 PKD
ROOT
HETATM    1  C   UNL     1     -12.332  13.283  65.589  1.00  0.00    -0.465 C  
HETATM    2  F   UNL     1     -13.279  14.249  65.555  1.00  0.00    -0.541 F  
HETATM    3  C   UNL     1     -12.160  12.652  64.220  1.00  0.00    -0.426 C  
HETATM    4  O   UNL     1     -13.104  11.624  63.929  1.00  0.00    -0.350 OA 
HETATM    5  C   UNL     1     -10.743  12.103  64.327  1.00  0.00    -0.338 C  
HETATM    6  O   UNL     1      -9.993  13.072  65.089  1.00  0.00    -0.244 OA 
HETATM    7  C   UNL     1     -10.937  13.819  65.899  1.00  0.00    -0.283 C  
HETATM    8  H   UNL     1     -12.996  11.228  63.071  1.00  0.00     0.000 HD 
ENDROOT
BRANCH   5   9
HETATM    9  C   UNL     1     -10.077  11.841  62.977  1.00  0.00    -0.227 C  
HETATM   10  O   UNL     1     -10.232  10.482  62.581  1.00  0.00    -0.736 OA 
HETATM   11  H   UNL     1      -9.818  10.319  61.741  1.00  0.00     0.000 HD 
ENDBRANCH   5   9
BRANCH   7  12
HETATM   12  N   UNL     1     -10.770  15.235  65.643  1.00  0.00    -0.344 NA 
HETATM   13  C   UNL     1     -11.352  15.982  64.654  1.00  0.00    -0.306 A  
HETATM   14  N   UNL     1     -11.023  17.254  64.736  1.00  0.00    -0.911 NA 
HETATM   15  C   UNL     1     -10.203  17.337  65.840  1.00  0.00    -0.261 A  
HETATM   16  C   UNL     1      -9.558  18.419  66.464  1.00  0.00    -0.327 A  
HETATM   17  N   UNL     1      -9.686  19.729  66.026  1.00  0.00    -0.396 NA 
HETATM   18  N   UNL     1      -8.772  18.175  67.535  1.00  0.00    -0.247 NA 
HETATM   19  H1  UNL     1      -9.218  20.515  66.478  1.00  0.00     0.000 HD 
HETATM   20  C   UNL     1      -8.683  16.901  67.968  1.00  0.00    -0.215 A  
HETATM   21  H2  UNL     1     -10.683  19.945  65.995  1.00  0.00     0.000 HD 
HETATM   22 CL   UNL     1      -7.672  16.660  69.328  1.00  0.00    -0.183 Cl 
HETATM   23  N   UNL     1      -9.259  15.784  67.474  1.00  0.00    -0.203 NA 
HETATM   24  C   UNL     1     -10.012  16.085  66.404  1.00  0.00    -0.295 A  
ENDBRANCH   7  12
TORSDOF 2
ENDMDL
MODEL       27
REMARK 921   NORMALIZED FREE ENERGY PREDICTED BY IDOCK:   -6.07 KCAL/MOL
REMARK 922        TOTAL FREE ENERGY PREDICTED BY IDOCK:   -7.29 KCAL/MOL
REMARK 923 INTER-LIGAND FREE ENERGY PREDICTED BY IDOCK:   -7.38 KCAL/MOL
REMARK 924 INTRA-LIGAND FREE ENERGY PREDICTED BY IDOCK:    0.10 KCAL/MOL
REMARK 927      BINDING AFFINITY PREDICTED BY RF-SCORE:    0.00 PKD
ROOT
HETATM    1  C   UNL     1      -9.709  10.712  67.257  1.00  0.00    -0.168 C  
HETATM    2  F   UNL     1      -8.712  11.291  66.549  1.00  0.00    -0.154 F  
HETATM    3  C   UNL     1      -9.849  11.365  68.619  1.00  0.00    -0.193 C  
HETATM    4  O   UNL     1      -8.948  10.864  69.603  1.00  0.00    -0.379 OA 
HETATM    5  C   UNL     1     -11.297  11.031  68.957  1.00  0.00    -0.277 C  
HETATM    6  O   UNL     1     -12.030  11.122  67.717  1.00  0.00    -0.630 OA 
HETATM    7  C   UNL     1     -11.087  10.916  66.634  1.00  0.00    -0.085 C  
HETATM    8  H   UNL     1      -9.037  11.273  70.456  1.00  0.00     0.000 HD 
ENDROOT
BRANCH   5   9
HETATM    9  C   UNL     1     -11.912  11.942  70.018  1.00  0.00    -0.332 C  
HETATM   10  O   UNL     1     -11.198  13.171  70.118  1.00  0.00    -0.472 OA 
HETATM   11  H   UNL     1     -11.581  13.737  70.779  1.00  0.00     0.000 HD 
ENDBRANCH   5   9
BRANCH   7  12
HETATM   12  N   UNL     1     -11.167  12.031  65.712  1.00  0.00    -0.329 NA 
HETATM   13  C   UNL     1     -11.435  11.991  64.370  1.00  0.00    -0.343 A  
HETATM   14  N   UNL     1     -11.481  13.194  63.838  1.00  0.00    -0.406 NA 
HETATM   15  C   UNL     1     -11.247  14.055  64.889  1.00  0.00    -0.362 A  
HETATM   16  C   UNL     1     -11.199  15.457  64.975  1.00  0.00    -0.387 A  
HETATM   17  N   UNL     1     -11.435  16.288  63.890  1.00  0.00    -1.539 NA 
HETATM   18  N   UNL     1     -10.905  16.023  66.165  1.00  0.00    -0.237 NA 
HETATM   19  H1  UNL     1     -11.401  17.306  63.952  1.00  0.00     0.000 HD 
HETATM   20  C   UNL     1     -10.709  15.203  67.217  1.00  0.00    -0.305 A  
HETATM   21  H2  UNL     1     -12.347  16.037  63.505  1.00  0.00     0.000 HD 
HETATM   22 CL   UNL     1     -10.340  15.984  68.695  1.00  0.00    -0.232 Cl 
HETATM   23  N   UNL     1     -10.743  13.854  67.272  1.00  0.00    -0.282 NA 
HETATM   24  C   UNL     1     -11.023  13.347  66.061  1.00  0.00    -0.271 A  
ENDBRANCH   7  12
TORSDOF 2
ENDMDL
MODEL       28
REMARK 921   NORMALIZED FREE ENERGY PREDICTED BY IDOCK:   -6.05 KCAL/MOL
REMARK 922        TOTAL FREE ENERGY PREDICTED BY IDOCK:   -7.26 KCAL/MOL
REMARK 923 INTER-LIGAND FREE ENERGY PREDICTED BY IDOCK:   -7.49 KCAL/MOL
REMARK 924 INTRA-LIGAND FREE ENERGY PREDICTED BY IDOCK:    0.23 KCAL/MOL
REMARK 927      BINDING AFFINITY PREDICTED BY RF-SCORE:    0.00 PKD
ROOT
HETATM    1  C   UNL     1     -11.642  12.766  64.390  1.00  0.00    -0.361 C  
HETATM    2  F   UNL     1     -12.714  11.978  64.635  1.00  0.00    -0.442 F  
HETATM    3  C   UNL     1     -11.963  14.218  64.693  1.00  0.00    -0.455 C  
HETATM    4  O   UNL     1     -12.626  14.903  63.634  1.00  0.00    -1.006 OA 
HETATM    5  C   UNL     1     -10.569  14.779  64.944  1.00  0.00    -0.406 C  
HETATM    6  O   UNL     1      -9.837  13.746  65.635  1.00  0.00    -0.268 OA 
HETATM    7  C   UNL     1     -10.458  12.476  65.309  1.00  0.00    -0.287 C  
HETATM    8  H   UNL     1     -12.826  15.812  63.824  1.00  0.00     0.000 HD 
ENDROOT
BRANCH   5   9
HETATM    9  C   UNL     1     -10.560  16.079  65.747  1.00  0.00    -0.353 C  
HETATM   10  O   UNL     1     -10.732  17.210  64.898  1.00  0.00    -0.737 OA 
HETATM   11  H   UNL     1     -10.726  18.019  65.398  1.00  0.00     0.000 HD 
ENDBRANCH   5   9
BRANCH   7  12
HETATM   12  N   UNL     1     -10.809  11.787  66.535  1.00  0.00    -0.269 NA 
HETATM   13  C   UNL     1     -10.681  10.452  66.811  1.00  0.00    -0.168 A  
HETATM   14  N   UNL     1     -11.050  10.164  68.042  1.00  0.00    -0.270 NA 
HETATM   15  C   UNL     1     -11.419  11.372  68.593  1.00  0.00    -0.296 A  
HETATM   16  C   UNL     1     -11.872  11.732  69.874  1.00  0.00    -0.348 A  
HETATM   17  N   UNL     1     -12.007  10.821  70.911  1.00  0.00    -0.339 NA 
HETATM   18  N   UNL     1     -12.197  13.022  70.107  1.00  0.00    -0.305 NA 
HETATM   19  H1  UNL     1     -12.335  11.082  71.840  1.00  0.00     0.000 HD 
HETATM   20  C   UNL     1     -12.030  13.902  69.098  1.00  0.00    -0.363 A  
HETATM   21  H2  UNL     1     -11.107  10.353  71.025  1.00  0.00     0.000 HD 
HETATM   22 CL   UNL     1     -12.460  15.519  69.460  1.00  0.00    -0.186 Cl 
HETATM   23  N   UNL     1     -11.592  13.690  67.838  1.00  0.00    -0.320 NA 
HETATM   24  C   UNL     1     -11.300  12.392  67.660  1.00  0.00    -0.312 A  
ENDBRANCH   7  12
TORSDOF 2
ENDMDL
MODEL       29
REMARK 921   NORMALIZED FREE ENERGY PREDICTED BY IDOCK:   -6.00 KCAL/MOL
REMARK 922        TOTAL FREE ENERGY PREDICTED BY IDOCK:   -7.21 KCAL/MOL
REMARK 923 INTER-LIGAND FREE ENERGY PREDICTED BY IDOCK:   -6.57 KCAL/MOL
REMARK 924 INTRA-LIGAND FREE ENERGY PREDICTED BY IDOCK:   -0.64 KCAL/MOL
REMARK 927      BINDING AFFINITY PREDICTED BY RF-SCORE:    0.00 PKD
ROOT
HETATM    1  C   UNL     1     -11.309  14.686  66.985  1.00  0.00    -0.355 C  
HETATM    2  F   UNL     1     -10.306  14.987  66.129  1.00  0.00    -0.262 F  
HETATM    3  C   UNL     1     -11.290  13.210  67.336  1.00  0.00    -0.306 C  
HETATM    4  O   UNL     1     -11.941  12.375  66.382  1.00  0.00    -0.559 OA 
HETATM    5  C   UNL     1     -12.020  13.217  68.673  1.00  0.00    -0.284 C  
HETATM    6  O   UNL     1     -11.601  14.418  69.354  1.00  0.00    -0.268 OA 
HETATM    7  C   UNL     1     -11.164  15.364  68.345  1.00  0.00    -0.315 C  
HETATM    8  H   UNL     1     -11.929  11.450  66.602  1.00  0.00     0.000 HD 
ENDROOT
BRANCH   5   9
HETATM    9  C   UNL     1     -11.750  11.983  69.533  1.00  0.00    -0.342 C  
HETATM   10  O   UNL     1     -12.322  10.815  68.952  1.00  0.00    -0.788 OA 
HETATM   11  H   UNL     1     -12.153  10.048  69.487  1.00  0.00     0.000 HD 
ENDBRANCH   5   9
BRANCH   7  12
HETATM   12  N   UNL     1      -9.818  15.805  68.653  1.00  0.00    -0.204 NA 
HETATM   13  C   UNL     1      -8.782  15.054  69.138  1.00  0.00    -0.188 A  
HETATM   14  N   UNL     1      -7.675  15.757  69.260  1.00  0.00    -0.215 NA 
HETATM   15  C   UNL     1      -8.008  17.019  68.817  1.00  0.00    -0.248 A  
HETATM   16  C   UNL     1      -7.261  18.201  68.672  1.00  0.00    -0.281 A  
HETATM   17  N   UNL     1      -5.907  18.279  68.962  1.00  0.00    -0.205 NA 
HETATM   18  N   UNL     1      -7.889  19.315  68.237  1.00  0.00    -0.306 NA 
HETATM   19  H1  UNL     1      -5.365  19.137  68.857  1.00  0.00     0.000 HD 
HETATM   20  C   UNL     1      -9.198  19.215  67.929  1.00  0.00    -0.308 A  
HETATM   21  H2  UNL     1      -5.436  17.552  68.421  1.00  0.00     0.000 HD 
HETATM   22 CL   UNL     1      -9.934  20.661  67.382  1.00  0.00    -0.544 Cl 
HETATM   23  N   UNL     1     -10.020  18.145  68.006  1.00  0.00    -0.326 NA 
HETATM   24  C   UNL     1      -9.346  17.075  68.459  1.00  0.00    -0.265 A  
ENDBRANCH   7  12
TORSDOF 2
ENDMDL
MODEL       30
REMARK 921   NORMALIZED FREE ENERGY PREDICTED BY IDOCK:   -5.98 KCAL/MOL
REMARK 922        TOTAL FREE ENERGY PREDICTED BY IDOCK:   -7.19 KCAL/MOL
REMARK 923 INTER-LIGAND FREE ENERGY PREDICTED BY IDOCK:   -7.43 KCAL/MOL
REMARK 924 INTRA-LIGAND FREE ENERGY PREDICTED BY IDOCK:    0.24 KCAL/MOL
REMARK 927      BINDING AFFINITY PREDICTED BY RF-SCORE:    0.00 PKD
ROOT
HETATM    1  C   UNL     1     -10.183  13.700  65.944  1.00  0.00    -0.311 C  
HETATM    2  F   UNL     1      -9.283  14.665  66.236  1.00  0.00    -0.282 F  
HETATM    3  C   UNL     1      -9.716  12.355  66.468  1.00  0.00    -0.240 C  
HETATM    4  O   UNL     1      -8.806  11.676  65.606  1.00  0.00    -0.388 OA 
HETATM    5  C   UNL     1     -11.040  11.611  66.589  1.00  0.00    -0.307 C  
HETATM    6  O   UNL     1     -12.008  12.584  67.036  1.00  0.00    -0.498 OA 
HETATM    7  C   UNL     1     -11.525  13.895  66.644  1.00  0.00    -0.355 C  
HETATM    8  H   UNL     1      -8.514  10.833  65.935  1.00  0.00     0.000 HD 
ENDROOT
BRANCH   5   9
HETATM    9  C   UNL     1     -10.996  10.415  67.539  1.00  0.00    -0.295 C  
HETATM   10  O   UNL     1     -12.111  10.421  68.426  1.00  0.00    -0.769 OA 
HETATM   11  H   UNL     1     -12.083   9.677  69.017  1.00  0.00     0.000 HD 
ENDBRANCH   5   9
BRANCH   7  12
HETATM   12  N   UNL     1     -11.471  14.752  67.811  1.00  0.00    -0.333 NA 
HETATM   13  C   UNL     1     -11.112  16.072  67.864  1.00  0.00    -0.307 A  
HETATM   14  N   UNL     1     -11.219  16.566  69.080  1.00  0.00    -0.267 NA 
HETATM   15  C   UNL     1     -11.684  15.520  69.847  1.00  0.00    -0.352 A  
HETATM   16  C   UNL     1     -12.025  15.418  71.207  1.00  0.00    -0.374 A  
HETATM   17  N   UNL     1     -11.966  16.492  72.082  1.00  0.00    -0.636 NA 
HETATM   18  N   UNL     1     -12.425  14.220  71.687  1.00  0.00    -0.347 NA 
HETATM   19  H1  UNL     1     -12.214  16.418  73.069  1.00  0.00     0.000 HD 
HETATM   20  C   UNL     1     -12.508  13.193  70.816  1.00  0.00    -0.308 A  
HETATM   21  H2  UNL     1     -12.527  17.244  71.682  1.00  0.00     0.000 HD 
HETATM   22 CL   UNL     1     -13.021  11.704  71.488  1.00  0.00    -0.517 Cl 
HETATM   23  N   UNL     1     -12.228  13.163  69.495  1.00  0.00    -0.217 NA 
HETATM   24  C   UNL     1     -11.822  14.373  69.079  1.00  0.00    -0.323 A  
ENDBRANCH   7  12
TORSDOF 2
ENDMDL
MODEL       31
REMARK 921   NORMALIZED FREE ENERGY PREDICTED BY IDOCK:   -5.98 KCAL/MOL
REMARK 922        TOTAL FREE ENERGY PREDICTED BY IDOCK:   -7.19 KCAL/MOL
REMARK 923 INTER-LIGAND FREE ENERGY PREDICTED BY IDOCK:   -6.82 KCAL/MOL
REMARK 924 INTRA-LIGAND FREE ENERGY PREDICTED BY IDOCK:   -0.37 KCAL/MOL
REMARK 927      BINDING AFFINITY PREDICTED BY RF-SCORE:    0.00 PKD
ROOT
HETATM    1  C   UNL     1     -11.612  13.962  67.654  1.00  0.00    -0.348 C  
HETATM    2  F   UNL     1     -10.654  14.149  68.589  1.00  0.00    -0.222 F  
HETATM    3  C   UNL     1     -11.092  14.322  66.274  1.00  0.00    -0.323 C  
HETATM    4  O   UNL     1     -11.158  15.713  65.970  1.00  0.00    -0.261 OA 
HETATM    5  C   UNL     1     -12.024  13.505  65.388  1.00  0.00    -0.379 C  
HETATM    6  O   UNL     1     -12.254  12.262  66.083  1.00  0.00    -0.647 OA 
HETATM    7  C   UNL     1     -12.024  12.501  67.496  1.00  0.00    -0.219 C  
HETATM    8  H   UNL     1     -10.832  15.937  65.106  1.00  0.00     0.000 HD 
ENDROOT
BRANCH   5   9
HETATM    9  C   UNL     1     -11.477  13.248  63.984  1.00  0.00    -0.388 C  
HETATM   10  O   UNL     1     -12.311  13.837  62.991  1.00  0.00    -1.089 OA 
HETATM   11  H   UNL     1     -11.971  13.676  62.118  1.00  0.00     0.000 HD 
ENDBRANCH   5   9
BRANCH   7  12
HETATM   12  N   UNL     1     -11.049  11.549  67.990  1.00  0.00    -0.234 NA 
HETATM   13  C   UNL     1      -9.816  11.268  67.468  1.00  0.00    -0.178 A  
HETATM   14  N   UNL     1      -9.162  10.383  68.193  1.00  0.00    -0.143 NA 
HETATM   15  C   UNL     1     -10.008  10.090  69.241  1.00  0.00    -0.213 A  
HETATM   16  C   UNL     1      -9.877   9.248  70.358  1.00  0.00    -0.241 A  
HETATM   17  N   UNL     1      -8.729   8.517  70.623  1.00  0.00    -0.143 NA 
HETATM   18  N   UNL     1     -10.918   9.139  71.213  1.00  0.00    -0.301 NA 
HETATM   19  H1  UNL     1      -8.634   7.906  71.435  1.00  0.00     0.000 HD 
HETATM   20  C   UNL     1     -12.016   9.881  70.959  1.00  0.00    -0.365 A  
HETATM   21  H2  UNL     1      -7.947   9.173  70.642  1.00  0.00     0.000 HD 
HETATM   22 CL   UNL     1     -13.297   9.697  72.080  1.00  0.00    -0.533 Cl 
HETATM   23  N   UNL     1     -12.260  10.733  69.940  1.00  0.00    -0.328 NA 
HETATM   24  C   UNL     1     -11.200  10.788  69.118  1.00  0.00    -0.262 A  
ENDBRANCH   7  12
TORSDOF 2
ENDMDL
MODEL       32
REMARK 921   NORMALIZED FREE ENERGY PREDICTED BY IDOCK:   -5.95 KCAL/MOL
REMARK 922        TOTAL FREE ENERGY PREDICTED BY IDOCK:   -7.15 KCAL/MOL
REMARK 923 INTER-LIGAND FREE ENERGY PREDICTED BY IDOCK:   -6.79 KCAL/MOL
REMARK 924 INTRA-LIGAND FREE ENERGY PREDICTED BY IDOCK:   -0.36 KCAL/MOL
REMARK 927      BINDING AFFINITY PREDICTED BY RF-SCORE:    0.00 PKD
ROOT
HETATM    1  C   UNL     1     -11.864  12.398  65.843  1.00  0.00    -0.405 C  
HETATM    2  F   UNL     1     -12.120  11.818  67.037  1.00  0.00    -0.281 F  
HETATM    3  C   UNL     1     -12.207  13.876  65.879  1.00  0.00    -0.467 C  
HETATM    4  O   UNL     1     -13.585  14.161  65.648  1.00  0.00    -0.671 OA 
HETATM    5  C   UNL     1     -11.325  14.410  64.759  1.00  0.00    -0.388 C  
HETATM    6  O   UNL     1     -10.092  13.662  64.827  1.00  0.00    -0.349 OA 
HETATM    7  C   UNL     1     -10.382  12.399  65.479  1.00  0.00    -0.271 C  
HETATM    8  H   UNL     1     -13.800  15.086  65.671  1.00  0.00     0.000 HD 
ENDROOT
BRANCH   5   9
HETATM    9  C   UNL     1     -11.053  15.911  64.846  1.00  0.00    -0.389 C  
HETATM   10  O   UNL     1     -11.633  16.604  63.744  1.00  0.00    -1.506 OA 
HETATM   11  H   UNL     1     -11.463  17.537  63.799  1.00  0.00     0.000 HD 
ENDBRANCH   5   9
BRANCH   7  12
HETATM   12  N   UNL     1      -9.489  12.229  66.608  1.00  0.00    -0.221 NA 
HETATM   13  C   UNL     1      -8.810  13.200  67.293  1.00  0.00    -0.208 A  
HETATM   14  N   UNL     1      -8.122  12.707  68.301  1.00  0.00    -0.158 NA 
HETATM   15  C   UNL     1      -8.382  11.353  68.277  1.00  0.00    -0.152 A  
HETATM   16  C   UNL     1      -7.971  10.294  69.105  1.00  0.00    -0.135 A  
HETATM   17  N   UNL     1      -7.169  10.475  70.221  1.00  0.00    -0.447 NA 
HETATM   18  N   UNL     1      -8.370   9.040  68.798  1.00  0.00    -0.121 NA 
HETATM   19  H1  UNL     1      -6.871   9.706  70.822  1.00  0.00     0.000 HD 
HETATM   20  C   UNL     1      -9.176   8.884  67.728  1.00  0.00    -0.141 A  
HETATM   21  H2  UNL     1      -7.624  11.168  70.816  1.00  0.00     0.000 HD 
HETATM   22 CL   UNL     1      -9.646   7.272  67.395  1.00  0.00    -0.164 Cl 
HETATM   23  N   UNL     1      -9.652   9.812  66.869  1.00  0.00    -0.172 NA 
HETATM   24  C   UNL     1      -9.211  11.032  67.213  1.00  0.00    -0.148 A  
ENDBRANCH   7  12
TORSDOF 2
ENDMDL
MODEL       33
REMARK 921   NORMALIZED FREE ENERGY PREDICTED BY IDOCK:   -5.93 KCAL/MOL
REMARK 922        TOTAL FREE ENERGY PREDICTED BY IDOCK:   -7.13 KCAL/MOL
REMARK 923 INTER-LIGAND FREE ENERGY PREDICTED BY IDOCK:   -6.53 KCAL/MOL
REMARK 924 INTRA-LIGAND FREE ENERGY PREDICTED BY IDOCK:   -0.60 KCAL/MOL
REMARK 927      BINDING AFFINITY PREDICTED BY RF-SCORE:    0.00 PKD
ROOT
HETATM    1  C   UNL     1      -8.590  14.238  67.744  1.00  0.00    -0.177 C  
HETATM    2  F   UNL     1      -8.178  15.067  68.730  1.00  0.00    -0.134 F  
HETATM    3  C   UNL     1      -9.790  13.425  68.193  1.00  0.00    -0.234 C  
HETATM    4  O   UNL     1      -9.457  12.260  68.945  1.00  0.00    -0.401 OA 
HETATM    5  C   UNL     1     -10.423  13.071  66.854  1.00  0.00    -0.254 C  
HETATM    6  O   UNL     1     -10.252  14.229  66.010  1.00  0.00    -0.291 OA 
HETATM    7  C   UNL     1      -9.116  14.976  66.516  1.00  0.00    -0.286 C  
HETATM    8  H   UNL     1     -10.209  11.751  69.226  1.00  0.00     0.000 HD 
ENDROOT
BRANCH   5   9
HETATM    9  C   UNL     1     -11.898  12.682  66.949  1.00  0.00    -0.355 C  
HETATM   10  O   UNL     1     -12.059  11.435  67.617  1.00  0.00    -0.630 OA 
HETATM   11  H   UNL     1     -12.977  11.193  67.676  1.00  0.00     0.000 HD 
ENDBRANCH   5   9
BRANCH   7  12
HETATM   12  N   UNL     1      -9.518  16.345  66.769  1.00  0.00    -0.236 NA 
HETATM   13  C   UNL     1     -10.638  16.781  67.424  1.00  0.00    -0.291 A  
HETATM   14  N   UNL     1     -10.675  18.094  67.522  1.00  0.00    -0.397 NA 
HETATM   15  C   UNL     1      -9.515  18.526  66.916  1.00  0.00    -0.298 A  
HETATM   16  C   UNL     1      -8.964  19.805  66.726  1.00  0.00    -0.359 A  
HETATM   17  N   UNL     1      -9.562  20.963  67.200  1.00  0.00    -0.689 NA 
HETATM   18  N   UNL     1      -7.802  19.915  66.046  1.00  0.00    -0.338 NA 
HETATM   19  H1  UNL     1      -9.162  21.891  67.062  1.00  0.00     0.000 HD 
HETATM   20  C   UNL     1      -7.217  18.777  65.619  1.00  0.00    -0.139 A  
HETATM   21  H2  UNL     1      -9.712  20.841  68.202  1.00  0.00     0.000 HD 
HETATM   22 CL   UNL     1      -5.748  18.987  64.765  1.00  0.00    -0.282 Cl 
HETATM   23  N   UNL     1      -7.630  17.498  65.750  1.00  0.00    -0.491 NA 
HETATM   24  C   UNL     1      -8.793  17.452  66.417  1.00  0.00    -0.242 A  
ENDBRANCH   7  12
TORSDOF 2
ENDMDL
MODEL       34
REMARK 921   NORMALIZED FREE ENERGY PREDICTED BY IDOCK:   -5.90 KCAL/MOL
REMARK 922        TOTAL FREE ENERGY PREDICTED BY IDOCK:   -7.10 KCAL/MOL
REMARK 923 INTER-LIGAND FREE ENERGY PREDICTED BY IDOCK:   -7.39 KCAL/MOL
REMARK 924 INTRA-LIGAND FREE ENERGY PREDICTED BY IDOCK:    0.29 KCAL/MOL
REMARK 927      BINDING AFFINITY PREDICTED BY RF-SCORE:    0.00 PKD
ROOT
HETATM    1  C   UNL     1      -9.946  11.781  68.389  1.00  0.00    -0.202 C  
HETATM    2  F   UNL     1     -10.917  12.627  68.802  1.00  0.00    -0.235 F  
HETATM    3  C   UNL     1     -10.532  10.666  67.543  1.00  0.00    -0.230 C  
HETATM    4  O   UNL     1     -11.067   9.580  68.296  1.00  0.00    -0.474 OA 
HETATM    5  C   UNL     1      -9.314  10.243  66.731  1.00  0.00    -0.160 C  
HETATM    6  O   UNL     1      -8.588  11.455  66.435  1.00  0.00    -0.175 OA 
HETATM    7  C   UNL     1      -8.938  12.434  67.447  1.00  0.00    -0.185 C  
HETATM    8  H   UNL     1     -11.433   8.882  67.766  1.00  0.00     0.000 HD 
ENDROOT
BRANCH   5   9
HETATM    9  C   UNL     1      -9.656   9.489  65.447  1.00  0.00    -0.272 C  
HETATM   10  O   UNL     1      -9.906   8.111  65.710  1.00  0.00    -0.423 OA 
HETATM   11  H   UNL     1     -10.118   7.643  64.911  1.00  0.00     0.000 HD 
ENDBRANCH   5   9
BRANCH   7  12
HETATM   12  N   UNL     1      -9.418  13.639  66.801  1.00  0.00    -0.263 NA 
HETATM   13  C   UNL     1      -8.960  14.918  66.968  1.00  0.00    -0.236 A  
HETATM   14  N   UNL     1      -9.587  15.774  66.189  1.00  0.00    -0.304 NA 
HETATM   15  C   UNL     1     -10.482  15.010  65.472  1.00  0.00    -0.365 A  
HETATM   16  C   UNL     1     -11.411  15.329  64.466  1.00  0.00    -0.300 A  
HETATM   17  N   UNL     1     -11.566  16.612  63.962  1.00  0.00    -1.496 NA 
HETATM   18  N   UNL     1     -12.192  14.346  63.969  1.00  0.00    -0.647 NA 
HETATM   19  H1  UNL     1     -12.240  16.844  63.232  1.00  0.00     0.000 HD 
HETATM   20  C   UNL     1     -12.007  13.098  64.447  1.00  0.00    -0.397 A  
HETATM   21  H2  UNL     1     -10.650  16.929  63.643  1.00  0.00     0.000 HD 
HETATM   22 CL   UNL     1     -13.028  11.899  63.775  1.00  0.00    -0.440 Cl 
HETATM   23  N   UNL     1     -11.147  12.659  65.391  1.00  0.00    -0.285 NA 
HETATM   24  C   UNL     1     -10.410  13.680  65.858  1.00  0.00    -0.301 A  
ENDBRANCH   7  12
TORSDOF 2
ENDMDL
MODEL       35
REMARK 921   NORMALIZED FREE ENERGY PREDICTED BY IDOCK:   -5.90 KCAL/MOL
REMARK 922        TOTAL FREE ENERGY PREDICTED BY IDOCK:   -7.09 KCAL/MOL
REMARK 923 INTER-LIGAND FREE ENERGY PREDICTED BY IDOCK:   -6.54 KCAL/MOL
REMARK 924 INTRA-LIGAND FREE ENERGY PREDICTED BY IDOCK:   -0.55 KCAL/MOL
REMARK 927      BINDING AFFINITY PREDICTED BY RF-SCORE:    0.00 PKD
ROOT
HETATM    1  C   UNL     1     -11.632  13.831  68.468  1.00  0.00    -0.338 C  
HETATM    2  F   UNL     1     -10.787  14.019  69.507  1.00  0.00    -0.240 F  
HETATM    3  C   UNL     1     -10.971  14.229  67.161  1.00  0.00    -0.302 C  
HETATM    4  O   UNL     1     -11.034  15.624  66.876  1.00  0.00    -0.315 OA 
HETATM    5  C   UNL     1     -11.780  13.411  66.162  1.00  0.00    -0.368 C  
HETATM    6  O   UNL     1     -12.057  12.150  66.806  1.00  0.00    -0.609 OA 
HETATM    7  C   UNL     1     -11.991  12.365  68.239  1.00  0.00    -0.214 C  
HETATM    8  H   UNL     1     -10.619  15.873  66.057  1.00  0.00     0.000 HD 
ENDROOT
BRANCH   5   9
HETATM    9  C   UNL     1     -11.075  13.193  64.824  1.00  0.00    -0.330 C  
HETATM   10  O   UNL     1     -10.001  14.113  64.653  1.00  0.00    -0.572 OA 
HETATM   11  H   UNL     1      -9.563  13.977  63.820  1.00  0.00     0.000 HD 
ENDBRANCH   5   9
BRANCH   7  12
HETATM   12  N   UNL     1     -11.055  11.424  68.822  1.00  0.00    -0.215 NA 
HETATM   13  C   UNL     1      -9.751  11.212  68.466  1.00  0.00    -0.196 A  
HETATM   14  N   UNL     1      -9.168  10.315  69.234  1.00  0.00    -0.200 NA 
HETATM   15  C   UNL     1     -10.137   9.941  70.140  1.00  0.00    -0.255 A  
HETATM   16  C   UNL     1     -10.128   9.049  71.226  1.00  0.00    -0.314 A  
HETATM   17  N   UNL     1      -8.998   8.346  71.616  1.00  0.00    -0.179 NA 
HETATM   18  N   UNL     1     -11.271   8.862  71.920  1.00  0.00    -0.361 NA 
HETATM   19  H1  UNL     1      -8.991   7.698  72.404  1.00  0.00     0.000 HD 
HETATM   20  C   UNL     1     -12.353   9.577  71.549  1.00  0.00    -0.380 A  
HETATM   21  H2  UNL     1      -8.254   9.026  71.773  1.00  0.00     0.000 HD 
HETATM   22 CL   UNL     1     -13.768   9.293  72.470  1.00  0.00    -0.507 Cl 
HETATM   23  N   UNL     1     -12.489  10.470  70.545  1.00  0.00    -0.335 NA 
HETATM   24  C   UNL     1     -11.329  10.602  69.882  1.00  0.00    -0.313 A  
ENDBRANCH   7  12
TORSDOF 2
ENDMDL
MODEL       36
REMARK 921   NORMALIZED FREE ENERGY PREDICTED BY IDOCK:   -5.88 KCAL/MOL
REMARK 922        TOTAL FREE ENERGY PREDICTED BY IDOCK:   -7.08 KCAL/MOL
REMARK 923 INTER-LIGAND FREE ENERGY PREDICTED BY IDOCK:   -6.64 KCAL/MOL
REMARK 924 INTRA-LIGAND FREE ENERGY PREDICTED BY IDOCK:   -0.44 KCAL/MOL
REMARK 927      BINDING AFFINITY PREDICTED BY RF-SCORE:    0.00 PKD
ROOT
HETATM    1  C   UNL     1     -10.564  10.746  67.544  1.00  0.00    -0.237 C  
HETATM    2  F   UNL     1     -11.802  11.283  67.449  1.00  0.00    -0.318 F  
HETATM    3  C   UNL     1     -10.475   9.458  66.747  1.00  0.00    -0.195 C  
HETATM    4  O   UNL     1     -10.956   8.308  67.439  1.00  0.00    -0.496 OA 
HETATM    5  C   UNL     1      -8.976   9.376  66.489  1.00  0.00    -0.148 C  
HETATM    6  O   UNL     1      -8.532  10.731  66.265  1.00  0.00    -0.150 OA 
HETATM    7  C   UNL     1      -9.480  11.616  66.915  1.00  0.00    -0.185 C  
HETATM    8  H   UNL     1     -10.900   7.502  66.939  1.00  0.00     0.000 HD 
ENDROOT
BRANCH   5   9
HETATM    9  C   UNL     1      -8.598   8.480  65.311  1.00  0.00    -0.165 C  
HETATM   10  O   UNL     1      -7.824   9.193  64.350  1.00  0.00    -0.114 OA 
HETATM   11  H   UNL     1      -7.589   8.635  63.617  1.00  0.00     0.000 HD 
ENDBRANCH   5   9
BRANCH   7  12
HETATM   12  N   UNL     1      -9.972  12.580  65.951  1.00  0.00    -0.256 NA 
HETATM   13  C   UNL     1     -10.403  12.342  64.674  1.00  0.00    -0.301 A  
HETATM   14  N   UNL     1     -10.833  13.438  64.083  1.00  0.00    -0.358 NA 
HETATM   15  C   UNL     1     -10.687  14.429  65.029  1.00  0.00    -0.423 A  
HETATM   16  C   UNL     1     -10.993  15.801  65.021  1.00  0.00    -0.417 A  
HETATM   17  N   UNL     1     -11.584  16.436  63.939  1.00  0.00    -1.602 NA 
HETATM   18  N   UNL     1     -10.693  16.538  66.113  1.00  0.00    -0.217 NA 
HETATM   19  H1  UNL     1     -11.806  17.432  63.932  1.00  0.00     0.000 HD 
HETATM   20  C   UNL     1     -10.148  15.900  67.168  1.00  0.00    -0.264 A  
HETATM   21  H2  UNL     1     -12.443  15.931  63.719  1.00  0.00     0.000 HD 
HETATM   22 CL   UNL     1      -9.794  16.891  68.519  1.00  0.00    -0.254 Cl 
HETATM   23  N   UNL     1      -9.824  14.597  67.310  1.00  0.00    -0.229 NA 
HETATM   24  C   UNL     1     -10.128  13.919  66.192  1.00  0.00    -0.308 A  
ENDBRANCH   7  12
TORSDOF 2
ENDMDL
MODEL       37
REMARK 921   NORMALIZED FREE ENERGY PREDICTED BY IDOCK:   -5.87 KCAL/MOL
REMARK 922        TOTAL FREE ENERGY PREDICTED BY IDOCK:   -7.06 KCAL/MOL
REMARK 923 INTER-LIGAND FREE ENERGY PREDICTED BY IDOCK:   -6.43 KCAL/MOL
REMARK 924 INTRA-LIGAND FREE ENERGY PREDICTED BY IDOCK:   -0.64 KCAL/MOL
REMARK 927      BINDING AFFINITY PREDICTED BY RF-SCORE:    0.00 PKD
ROOT
HETATM    1  C   UNL     1      -9.949   9.679  67.544  1.00  0.00    -0.183 C  
HETATM    2  F   UNL     1     -10.901   8.725  67.657  1.00  0.00    -0.305 F  
HETATM    3  C   UNL     1     -10.361  10.730  66.530  1.00  0.00    -0.244 C  
HETATM    4  O   UNL     1     -10.078  10.379  65.177  1.00  0.00    -0.303 OA 
HETATM    5  C   UNL     1      -9.531  11.921  66.989  1.00  0.00    -0.188 C  
HETATM    6  O   UNL     1      -9.513  11.867  68.432  1.00  0.00    -0.200 OA 
HETATM    7  C   UNL     1      -9.754  10.491  68.821  1.00  0.00    -0.184 C  
HETATM    8  H   UNL     1     -10.336  11.037  64.543  1.00  0.00     0.000 HD 
ENDROOT
BRANCH   5   9
HETATM    9  C   UNL     1     -10.061  13.270  66.504  1.00  0.00    -0.275 C  
HETATM   10  O   UNL     1      -9.849  13.433  65.104  1.00  0.00    -0.528 OA 
HETATM   11  H   UNL     1     -10.179  14.272  64.803  1.00  0.00     0.000 HD 
ENDBRANCH   5   9
BRANCH   7  12
HETATM   12  N   UNL     1     -10.877  10.443  69.737  1.00  0.00    -0.274 NA 
HETATM   13  C   UNL     1     -12.020  11.194  69.700  1.00  0.00    -0.359 A  
HETATM   14  N   UNL     1     -12.862  10.863  70.657  1.00  0.00    -0.293 NA 
HETATM   15  C   UNL     1     -12.240   9.836  71.334  1.00  0.00    -0.397 A  
HETATM   16  C   UNL     1     -12.634   9.045  72.427  1.00  0.00    -0.333 A  
HETATM   17  N   UNL     1     -13.868   9.174  73.047  1.00  0.00    -1.083 NA 
HETATM   18  N   UNL     1     -11.771   8.120  72.902  1.00  0.00    -0.282 NA 
HETATM   19  H1  UNL     1     -14.154   8.599  73.840  1.00  0.00     0.000 HD 
HETATM   20  C   UNL     1     -10.588   7.985  72.269  1.00  0.00    -0.291 A  
HETATM   21  H2  UNL     1     -14.584   9.076  72.325  1.00  0.00     0.000 HD 
HETATM   22 CL   UNL     1      -9.542   6.796  72.920  1.00  0.00    -0.162 Cl 
HETATM   23  N   UNL     1     -10.099   8.664  71.209  1.00  0.00    -0.220 NA 
HETATM   24  C   UNL     1     -10.990   9.578  70.792  1.00  0.00    -0.321 A  
ENDBRANCH   7  12
TORSDOF 2
ENDMDL
MODEL       38
REMARK 921   NORMALIZED FREE ENERGY PREDICTED BY IDOCK:   -5.85 KCAL/MOL
REMARK 922        TOTAL FREE ENERGY PREDICTED BY IDOCK:   -7.05 KCAL/MOL
REMARK 923 INTER-LIGAND FREE ENERGY PREDICTED BY IDOCK:   -6.42 KCAL/MOL
REMARK 924 INTRA-LIGAND FREE ENERGY PREDICTED BY IDOCK:   -0.63 KCAL/MOL
REMARK 927      BINDING AFFINITY PREDICTED BY RF-SCORE:    0.00 PKD
ROOT
HETATM    1  C   UNL     1     -11.073  13.917  67.927  1.00  0.00    -0.258 C  
HETATM    2  F   UNL     1      -9.914  13.560  68.525  1.00  0.00    -0.223 F  
HETATM    3  C   UNL     1     -10.805  14.583  66.590  1.00  0.00    -0.311 C  
HETATM    4  O   UNL     1     -10.500  15.973  66.681  1.00  0.00    -0.300 OA 
HETATM    5  C   UNL     1     -12.125  14.341  65.871  1.00  0.00    -0.404 C  
HETATM    6  O   UNL     1     -12.564  13.024  66.269  1.00  0.00    -0.383 OA 
HETATM    7  C   UNL     1     -11.947  12.725  67.547  1.00  0.00    -0.281 C  
HETATM    8  H   UNL     1     -10.332  16.390  65.844  1.00  0.00     0.000 HD 
ENDROOT
BRANCH   5   9
HETATM    9  C   UNL     1     -12.031  14.444  64.349  1.00  0.00    -0.452 C  
HETATM   10  O   UNL     1     -11.897  15.799  63.933  1.00  0.00    -1.027 OA 
HETATM   11  H   UNL     1     -11.838  15.863  62.986  1.00  0.00     0.000 HD 
ENDBRANCH   5   9
BRANCH   7  12
HETATM   12  N   UNL     1     -11.233  11.467  67.450  1.00  0.00    -0.290 NA 
HETATM   13  C   UNL     1     -10.485  11.008  66.400  1.00  0.00    -0.258 A  
HETATM   14  N   UNL     1      -9.929   9.843  66.660  1.00  0.00    -0.205 NA 
HETATM   15  C   UNL     1     -10.323   9.542  67.946  1.00  0.00    -0.227 A  
HETATM   16  C   UNL     1     -10.040   8.460  68.797  1.00  0.00    -0.196 A  
HETATM   17  N   UNL     1      -9.197   7.419  68.439  1.00  0.00    -0.139 NA 
HETATM   18  N   UNL     1     -10.618   8.427  70.018  1.00  0.00    -0.232 NA 
HETATM   19  H1  UNL     1      -8.991   6.633  69.056  1.00  0.00     0.000 HD 
HETATM   20  C   UNL     1     -11.410   9.462  70.363  1.00  0.00    -0.248 A  
HETATM   21  H2  UNL     1      -8.305   7.829  68.160  1.00  0.00     0.000 HD 
HETATM   22 CL   UNL     1     -12.110   9.359  71.922  1.00  0.00    -0.441 Cl 
HETATM   23  N   UNL     1     -11.747  10.560  69.653  1.00  0.00    -0.264 NA 
HETATM   24  C   UNL     1     -11.158  10.531  68.446  1.00  0.00    -0.281 A  
ENDBRANCH   7  12
TORSDOF 2
ENDMDL
MODEL       39
REMARK 921   NORMALIZED FREE ENERGY PREDICTED BY IDOCK:   -5.79 KCAL/MOL
REMARK 922        TOTAL FREE ENERGY PREDICTED BY IDOCK:   -6.97 KCAL/MOL
REMARK 923 INTER-LIGAND FREE ENERGY PREDICTED BY IDOCK:   -7.03 KCAL/MOL
REMARK 924 INTRA-LIGAND FREE ENERGY PREDICTED BY IDOCK:    0.06 KCAL/MOL
REMARK 927      BINDING AFFINITY PREDICTED BY RF-SCORE:    0.00 PKD
ROOT
HETATM    1  C   UNL     1      -9.872  10.094  65.454  1.00  0.00    -0.307 C  
HETATM    2  F   UNL     1      -9.851  10.278  64.114  1.00  0.00    -0.339 F  
HETATM    3  C   UNL     1      -8.560  10.534  66.076  1.00  0.00    -0.160 C  
HETATM    4  O   UNL     1      -7.530   9.550  66.023  1.00  0.00    -0.097 OA 
HETATM    5  C   UNL     1      -8.995  10.819  67.508  1.00  0.00    -0.132 C  
HETATM    6  O   UNL     1     -10.312  11.403  67.419  1.00  0.00    -0.193 OA 
HETATM    7  C   UNL     1     -10.901  10.969  66.166  1.00  0.00    -0.146 C  
HETATM    8  H   UNL     1      -6.708   9.826  66.413  1.00  0.00     0.000 HD 
ENDROOT
BRANCH   5   9
HETATM    9  C   UNL     1      -8.045  11.739  68.273  1.00  0.00    -0.154 C  
HETATM   10  O   UNL     1      -8.746  12.834  68.854  1.00  0.00    -0.363 OA 
HETATM   11  H   UNL     1      -8.155  13.406  69.330  1.00  0.00     0.000 HD 
ENDBRANCH   5   9
BRANCH   7  12
HETATM   12  N   UNL     1     -11.324  12.130  65.409  1.00  0.00    -0.335 NA 
HETATM   13  C   UNL     1     -12.372  12.221  64.533  1.00  0.00    -0.384 A  
HETATM   14  N   UNL     1     -12.510  13.440  64.052  1.00  0.00    -0.674 NA 
HETATM   15  C   UNL     1     -11.514  14.174  64.658  1.00  0.00    -0.387 A  
HETATM   16  C   UNL     1     -11.157  15.532  64.585  1.00  0.00    -0.359 A  
HETATM   17  N   UNL     1     -11.855  16.455  63.820  1.00  0.00    -1.377 NA 
HETATM   18  N   UNL     1     -10.084  15.959  65.285  1.00  0.00    -0.464 NA 
HETATM   19  H1  UNL     1     -11.596  17.441  63.767  1.00  0.00     0.000 HD 
HETATM   20  C   UNL     1      -9.435  15.055  66.048  1.00  0.00    -0.302 A  
HETATM   21  H2  UNL     1     -12.834  16.411  64.106  1.00  0.00     0.000 HD 
HETATM   22 CL   UNL     1      -8.085  15.661  66.910  1.00  0.00    -0.275 Cl 
HETATM   23  N   UNL     1      -9.683  13.739  66.218  1.00  0.00    -0.293 NA 
HETATM   24  C   UNL     1     -10.747  13.369  65.488  1.00  0.00    -0.294 A  
ENDBRANCH   7  12
TORSDOF 2
ENDMDL
MODEL       40
REMARK 921   NORMALIZED FREE ENERGY PREDICTED BY IDOCK:   -5.74 KCAL/MOL
REMARK 922        TOTAL FREE ENERGY PREDICTED BY IDOCK:   -6.92 KCAL/MOL
REMARK 923 INTER-LIGAND FREE ENERGY PREDICTED BY IDOCK:   -6.48 KCAL/MOL
REMARK 924 INTRA-LIGAND FREE ENERGY PREDICTED BY IDOCK:   -0.44 KCAL/MOL
REMARK 927      BINDING AFFINITY PREDICTED BY RF-SCORE:    0.00 PKD
ROOT
HETATM    1  C   UNL     1      -8.822  15.782  68.404  1.00  0.00    -0.185 C  
HETATM    2  F   UNL     1      -8.081  15.053  67.538  1.00  0.00    -0.137 F  
HETATM    3  C   UNL     1      -8.579  17.265  68.200  1.00  0.00    -0.242 C  
HETATM    4  O   UNL     1      -7.424  17.766  68.870  1.00  0.00    -0.275 OA 
HETATM    5  C   UNL     1      -9.862  17.854  68.772  1.00  0.00    -0.352 C  
HETATM    6  O   UNL     1     -10.922  16.947  68.399  1.00  0.00    -0.356 OA 
HETATM    7  C   UNL     1     -10.325  15.644  68.174  1.00  0.00    -0.246 C  
HETATM    8  H   UNL     1      -7.273  18.695  68.742  1.00  0.00     0.000 HD 
ENDROOT
BRANCH   5   9
HETATM    9  C   UNL     1     -10.165  19.271  68.287  1.00  0.00    -0.418 C  
HETATM   10  O   UNL     1     -10.389  20.153  69.382  1.00  0.00    -0.557 OA 
HETATM   11  H   UNL     1     -10.577  21.035  69.080  1.00  0.00     0.000 HD 
ENDBRANCH   5   9
BRANCH   7  12
HETATM   12  N   UNL     1     -10.686  15.174  66.852  1.00  0.00    -0.303 NA 
HETATM   13  C   UNL     1     -10.903  15.923  65.727  1.00  0.00    -0.254 A  
HETATM   14  N   UNL     1     -11.168  15.174  64.677  1.00  0.00    -0.371 NA 
HETATM   15  C   UNL     1     -11.105  13.879  65.142  1.00  0.00    -0.334 A  
HETATM   16  C   UNL     1     -11.262  12.634  64.508  1.00  0.00    -0.333 A  
HETATM   17  N   UNL     1     -11.506  12.505  63.148  1.00  0.00    -0.753 NA 
HETATM   18  N   UNL     1     -11.177  11.511  65.254  1.00  0.00    -0.193 NA 
HETATM   19  H1  UNL     1     -11.620  11.602  62.688  1.00  0.00     0.000 HD 
HETATM   20  C   UNL     1     -10.907  11.652  66.567  1.00  0.00    -0.284 A  
HETATM   21  H2  UNL     1     -10.767  13.008  62.656  1.00  0.00     0.000 HD 
HETATM   22 CL   UNL     1     -10.813  10.191  67.455  1.00  0.00    -0.351 Cl 
HETATM   23  N   UNL     1     -10.720  12.778  67.290  1.00  0.00    -0.235 NA 
HETATM   24  C   UNL     1     -10.832  13.859  66.502  1.00  0.00    -0.295 A  
ENDBRANCH   7  12
TORSDOF 2
ENDMDL
MODEL       41
REMARK 921   NORMALIZED FREE ENERGY PREDICTED BY IDOCK:   -5.74 KCAL/MOL
REMARK 922        TOTAL FREE ENERGY PREDICTED BY IDOCK:   -6.92 KCAL/MOL
REMARK 923 INTER-LIGAND FREE ENERGY PREDICTED BY IDOCK:   -6.51 KCAL/MOL
REMARK 924 INTRA-LIGAND FREE ENERGY PREDICTED BY IDOCK:   -0.41 KCAL/MOL
REMARK 927      BINDING AFFINITY PREDICTED BY RF-SCORE:    0.00 PKD
ROOT
HETATM    1  C   UNL     1     -10.817   9.870  69.718  1.00  0.00    -0.269 C  
HETATM    2  F   UNL     1      -9.691  10.588  69.505  1.00  0.00    -0.221 F  
HETATM    3  C   UNL     1     -10.971   9.537  71.190  1.00  0.00    -0.368 C  
HETATM    4  O   UNL     1     -10.238   8.387  71.608  1.00  0.00    -0.203 OA 
HETATM    5  C   UNL     1     -12.475   9.313  71.285  1.00  0.00    -0.316 C  
HETATM    6  O   UNL     1     -13.082  10.283  70.405  1.00  0.00    -0.258 OA 
HETATM    7  C   UNL     1     -12.094  10.647  69.406  1.00  0.00    -0.178 C  
HETATM    8  H   UNL     1     -10.335   8.179  72.530  1.00  0.00     0.000 HD 
ENDROOT
BRANCH   5   9
HETATM    9  C   UNL     1     -13.033   9.443  72.702  1.00  0.00    -0.145 C  
HETATM   10  O   UNL     1     -14.254   8.724  72.841  1.00  0.00    -1.000 OA 
HETATM   11  H   UNL     1     -14.601   8.805  73.723  1.00  0.00     0.000 HD 
ENDBRANCH   5   9
BRANCH   7  12
HETATM   12  N   UNL     1     -11.930  12.087  69.399  1.00  0.00    -0.296 NA 
HETATM   13  C   UNL     1     -11.815  12.922  70.477  1.00  0.00    -0.067 A  
HETATM   14  N   UNL     1     -11.629  14.175  70.116  1.00  0.00    -0.252 NA 
HETATM   15  C   UNL     1     -11.607  14.145  68.738  1.00  0.00    -0.327 A  
HETATM   16  C   UNL     1     -11.416  15.147  67.771  1.00  0.00    -0.318 A  
HETATM   17  N   UNL     1     -11.162  16.471  68.095  1.00  0.00    -0.307 NA 
HETATM   18  N   UNL     1     -11.487  14.809  66.465  1.00  0.00    -0.349 NA 
HETATM   19  H1  UNL     1     -11.023  17.199  67.393  1.00  0.00     0.000 HD 
HETATM   20  C   UNL     1     -11.702  13.511  66.165  1.00  0.00    -0.365 A  
HETATM   21  H2  UNL     1     -10.350  16.485  68.713  1.00  0.00     0.000 HD 
HETATM   22 CL   UNL     1     -11.780  13.150  64.494  1.00  0.00    -0.391 Cl 
HETATM   23  N   UNL     1     -11.884  12.458  66.991  1.00  0.00    -0.546 NA 
HETATM   24  C   UNL     1     -11.819  12.856  68.272  1.00  0.00    -0.330 A  
ENDBRANCH   7  12
TORSDOF 2
ENDMDL
MODEL       42
REMARK 921   NORMALIZED FREE ENERGY PREDICTED BY IDOCK:   -5.71 KCAL/MOL
REMARK 922        TOTAL FREE ENERGY PREDICTED BY IDOCK:   -6.89 KCAL/MOL
REMARK 923 INTER-LIGAND FREE ENERGY PREDICTED BY IDOCK:   -7.04 KCAL/MOL
REMARK 924 INTRA-LIGAND FREE ENERGY PREDICTED BY IDOCK:    0.15 KCAL/MOL
REMARK 927      BINDING AFFINITY PREDICTED BY RF-SCORE:    0.00 PKD
ROOT
HETATM    1  C   UNL     1     -10.142   7.412  67.962  1.00  0.00    -0.179 C  
HETATM    2  F   UNL     1     -11.291   6.704  67.878  1.00  0.00    -0.319 F  
HETATM    3  C   UNL     1     -10.291   8.758  67.278  1.00  0.00    -0.290 C  
HETATM    4  O   UNL     1     -10.089   8.723  65.867  1.00  0.00    -0.448 OA 
HETATM    5  C   UNL     1      -9.209   9.566  67.983  1.00  0.00    -0.129 C  
HETATM    6  O   UNL     1      -9.214   9.131  69.359  1.00  0.00    -0.148 OA 
HETATM    7  C   UNL     1      -9.772   7.792  69.393  1.00  0.00    -0.169 C  
HETATM    8  H   UNL     1     -10.183   9.566  65.440  1.00  0.00     0.000 HD 
ENDROOT
BRANCH   5   9
HETATM    9  C   UNL     1      -9.407  11.079  67.892  1.00  0.00    -0.158 C  
HETATM   10  O   UNL     1      -9.378  11.680  69.184  1.00  0.00    -0.404 OA 
HETATM   11  H   UNL     1      -9.501  12.621  69.127  1.00  0.00     0.000 HD 
ENDBRANCH   5   9
BRANCH   7  12
HETATM   12  N   UNL     1     -10.880   7.759  70.325  1.00  0.00    -0.247 NA 
HETATM   13  C   UNL     1     -11.386   6.673  70.987  1.00  0.00    -0.315 A  
HETATM   14  N   UNL     1     -12.368   7.002  71.801  1.00  0.00    -0.343 NA 
HETATM   15  C   UNL     1     -12.493   8.368  71.670  1.00  0.00    -0.328 A  
HETATM   16  C   UNL     1     -13.334   9.308  72.290  1.00  0.00    -0.477 A  
HETATM   17  N   UNL     1     -14.260   8.966  73.265  1.00  0.00    -1.237 NA 
HETATM   18  N   UNL     1     -13.245  10.603  71.918  1.00  0.00    -0.462 NA 
HETATM   19  H1  UNL     1     -14.871   9.647  73.715  1.00  0.00     0.000 HD 
HETATM   20  C   UNL     1     -12.318  10.926  70.992  1.00  0.00    -0.393 A  
HETATM   21  H2  UNL     1     -13.757   8.472  74.003  1.00  0.00     0.000 HD 
HETATM   22 CL   UNL     1     -12.256  12.583  70.566  1.00  0.00    -0.434 Cl 
HETATM   23  N   UNL     1     -11.445  10.129  70.337  1.00  0.00    -0.299 NA 
HETATM   24  C   UNL     1     -11.591   8.856  70.735  1.00  0.00    -0.259 A  
ENDBRANCH   7  12
TORSDOF 2
ENDMDL
MODEL       43
REMARK 921   NORMALIZED FREE ENERGY PREDICTED BY IDOCK:   -5.71 KCAL/MOL
REMARK 922        TOTAL FREE ENERGY PREDICTED BY IDOCK:   -6.89 KCAL/MOL
REMARK 923 INTER-LIGAND FREE ENERGY PREDICTED BY IDOCK:   -6.25 KCAL/MOL
REMARK 924 INTRA-LIGAND FREE ENERGY PREDICTED BY IDOCK:   -0.64 KCAL/MOL
REMARK 927      BINDING AFFINITY PREDICTED BY RF-SCORE:    0.00 PKD
ROOT
HETATM    1  C   UNL     1     -10.300  13.675  66.817  1.00  0.00    -0.268 C  
HETATM    2  F   UNL     1      -9.012  13.268  66.871  1.00  0.00    -0.208 F  
HETATM    3  C   UNL     1     -10.483  14.734  65.745  1.00  0.00    -0.334 C  
HETATM    4  O   UNL     1     -10.151  16.055  66.167  1.00  0.00    -0.285 OA 
HETATM    5  C   UNL     1     -11.969  14.594  65.444  1.00  0.00    -0.275 C  
HETATM    6  O   UNL     1     -12.265  13.183  65.525  1.00  0.00    -0.411 OA 
HETATM    7  C   UNL     1     -11.263  12.574  66.379  1.00  0.00    -0.306 C  
HETATM    8  H   UNL     1     -10.266  16.718  65.495  1.00  0.00     0.000 HD 
ENDROOT
BRANCH   5   9
HETATM    9  C   UNL     1     -12.383  15.157  64.085  1.00  0.00    -0.094 C  
HETATM   10  O   UNL     1     -11.549  16.249  63.705  1.00  0.00    -1.539 OA 
HETATM   11  H   UNL     1     -11.807  16.599  62.860  1.00  0.00     0.000 HD 
ENDBRANCH   5   9
BRANCH   7  12
HETATM   12  N   UNL     1     -10.633  11.478  65.671  1.00  0.00    -0.267 NA 
HETATM   13  C   UNL     1     -10.243  11.443  64.359  1.00  0.00    -0.308 A  
HETATM   14  N   UNL     1      -9.656  10.306  64.047  1.00  0.00    -0.305 NA 
HETATM   15  C   UNL     1      -9.653   9.577  65.217  1.00  0.00    -0.243 A  
HETATM   16  C   UNL     1      -9.147   8.307  65.543  1.00  0.00    -0.006 A  
HETATM   17  N   UNL     1      -8.469   7.508  64.633  1.00  0.00    -0.369 NA 
HETATM   18  N   UNL     1      -9.334   7.836  66.795  1.00  0.00    -0.170 NA 
HETATM   19  H1  UNL     1      -8.102   6.586  64.869  1.00  0.00     0.000 HD 
HETATM   20  C   UNL     1      -9.967   8.637  67.676  1.00  0.00    -0.194 A  
HETATM   21  H2  UNL     1      -7.695   8.059  64.261  1.00  0.00     0.000 HD 
HETATM   22 CL   UNL     1     -10.170   7.982  69.245  1.00  0.00    -0.209 Cl 
HETATM   23  N   UNL     1     -10.481   9.874  67.498  1.00  0.00    -0.237 NA 
HETATM   24  C   UNL     1     -10.281  10.281  66.234  1.00  0.00    -0.221 A  
ENDBRANCH   7  12
TORSDOF 2
ENDMDL
MODEL       44
REMARK 921   NORMALIZED FREE ENERGY PREDICTED BY IDOCK:   -5.65 KCAL/MOL
REMARK 922        TOTAL FREE ENERGY PREDICTED BY IDOCK:   -6.82 KCAL/MOL
REMARK 923 INTER-LIGAND FREE ENERGY PREDICTED BY IDOCK:   -6.76 KCAL/MOL
REMARK 924 INTRA-LIGAND FREE ENERGY PREDICTED BY IDOCK:   -0.06 KCAL/MOL
REMARK 927      BINDING AFFINITY PREDICTED BY RF-SCORE:    0.00 PKD
ROOT
HETATM    1  C   UNL     1      -8.535  10.350  67.176  1.00  0.00    -0.126 C  
HETATM    2  F   UNL     1      -7.845  11.309  66.518  1.00  0.00    -0.142 F  
HETATM    3  C   UNL     1      -9.084  10.887  68.484  1.00  0.00    -0.173 C  
HETATM    4  O   UNL     1      -8.152  10.863  69.562  1.00  0.00    -0.364 OA 
HETATM    5  C   UNL     1     -10.249   9.936  68.725  1.00  0.00    -0.189 C  
HETATM    6  O   UNL     1     -10.824   9.667  67.428  1.00  0.00    -0.274 OA 
HETATM    7  C   UNL     1      -9.791   9.897  66.436  1.00  0.00    -0.227 C  
HETATM    8  H   UNL     1      -8.496  11.200  70.382  1.00  0.00     0.000 HD 
ENDROOT
BRANCH   5   9
HETATM    9  C   UNL     1     -11.307  10.483  69.683  1.00  0.00    -0.281 C  
HETATM   10  O   UNL     1     -11.085  11.862  69.963  1.00  0.00    -0.469 OA 
HETATM   11  H   UNL     1     -11.743  12.201  70.559  1.00  0.00     0.000 HD 
ENDBRANCH   5   9
BRANCH   7  12
HETATM   12  N   UNL     1     -10.277  10.842  65.450  1.00  0.00    -0.277 NA 
HETATM   13  C   UNL     1     -10.220  10.733  64.087  1.00  0.00    -0.344 A  
HETATM   14  N   UNL     1     -10.800  11.750  63.484  1.00  0.00    -0.413 NA 
HETATM   15  C   UNL     1     -11.268  12.547  64.507  1.00  0.00    -0.325 A  
HETATM   16  C   UNL     1     -11.994  13.750  64.516  1.00  0.00    -0.427 A  
HETATM   17  N   UNL     1     -12.427  14.380  63.358  1.00  0.00    -1.068 NA 
HETATM   18  N   UNL     1     -12.281  14.325  65.704  1.00  0.00    -0.407 NA 
HETATM   19  H1  UNL     1     -12.954  15.253  63.365  1.00  0.00     0.000 HD 
HETATM   20  C   UNL     1     -11.882  13.684  66.822  1.00  0.00    -0.413 A  
HETATM   21  H2  UNL     1     -12.969  13.700  62.825  1.00  0.00     0.000 HD 
HETATM   22 CL   UNL     1     -12.277  14.465  68.294  1.00  0.00    -0.247 Cl 
HETATM   23  N   UNL     1     -11.199  12.526  66.950  1.00  0.00    -0.285 NA 
HETATM   24  C   UNL     1     -10.929  12.010  65.740  1.00  0.00    -0.307 A  
ENDBRANCH   7  12
TORSDOF 2
ENDMDL
MODEL       45
REMARK 921   NORMALIZED FREE ENERGY PREDICTED BY IDOCK:   -5.62 KCAL/MOL
REMARK 922        TOTAL FREE ENERGY PREDICTED BY IDOCK:   -6.79 KCAL/MOL
REMARK 923 INTER-LIGAND FREE ENERGY PREDICTED BY IDOCK:   -6.85 KCAL/MOL
REMARK 924 INTRA-LIGAND FREE ENERGY PREDICTED BY IDOCK:    0.06 KCAL/MOL
REMARK 927      BINDING AFFINITY PREDICTED BY RF-SCORE:    0.00 PKD
ROOT
HETATM    1  C   UNL     1     -11.325  14.856  66.584  1.00  0.00    -0.326 C  
HETATM    2  F   UNL     1     -10.218  14.699  67.346  1.00  0.00    -0.235 F  
HETATM    3  C   UNL     1     -10.994  14.671  65.115  1.00  0.00    -0.386 C  
HETATM    4  O   UNL     1     -10.473  15.837  64.482  1.00  0.00    -0.658 OA 
HETATM    5  C   UNL     1     -12.357  14.287  64.554  1.00  0.00    -0.410 C  
HETATM    6  O   UNL     1     -12.985  13.458  65.556  1.00  0.00    -0.544 OA 
HETATM    7  C   UNL     1     -12.386  13.788  66.835  1.00  0.00    -0.285 C  
HETATM    8  H   UNL     1     -10.266  15.721  63.562  1.00  0.00     0.000 HD 
ENDROOT
BRANCH   5   9
HETATM    9  C   UNL     1     -12.292  13.558  63.212  1.00  0.00    -0.078 C  
HETATM   10  O   UNL     1     -12.674  12.193  63.349  1.00  0.00    -0.722 OA 
HETATM   11  H   UNL     1     -12.633  11.740  62.514  1.00  0.00     0.000 HD 
ENDBRANCH   5   9
BRANCH   7  12
HETATM   12  N   UNL     1     -11.881  12.578  67.452  1.00  0.00    -0.460 NA 
HETATM   13  C   UNL     1     -12.020  12.182  68.755  1.00  0.00    -0.239 A  
HETATM   14  N   UNL     1     -11.480  11.001  68.974  1.00  0.00    -0.272 NA 
HETATM   15  C   UNL     1     -10.982  10.608  67.750  1.00  0.00    -0.306 A  
HETATM   16  C   UNL     1     -10.324   9.441  67.324  1.00  0.00    -0.260 A  
HETATM   17  N   UNL     1     -10.071   8.367  68.164  1.00  0.00    -0.193 NA 
HETATM   18  N   UNL     1      -9.914   9.361  66.039  1.00  0.00    -0.300 NA 
HETATM   19  H1  UNL     1      -9.593   7.520  67.855  1.00  0.00     0.000 HD 
HETATM   20  C   UNL     1     -10.196  10.400  65.227  1.00  0.00    -0.262 A  
HETATM   21  H2  UNL     1     -10.961   8.083  68.574  1.00  0.00     0.000 HD 
HETATM   22 CL   UNL     1      -9.650  10.235  63.612  1.00  0.00    -0.350 Cl 
HETATM   23  N   UNL     1     -10.830  11.560  65.504  1.00  0.00    -0.276 NA 
HETATM   24  C   UNL     1     -11.199  11.590  66.795  1.00  0.00    -0.285 A  
ENDBRANCH   7  12
TORSDOF 2
ENDMDL
MODEL       46
REMARK 921   NORMALIZED FREE ENERGY PREDICTED BY IDOCK:   -5.61 KCAL/MOL
REMARK 922        TOTAL FREE ENERGY PREDICTED BY IDOCK:   -6.78 KCAL/MOL
REMARK 923 INTER-LIGAND FREE ENERGY PREDICTED BY IDOCK:   -6.64 KCAL/MOL
REMARK 924 INTRA-LIGAND FREE ENERGY PREDICTED BY IDOCK:   -0.14 KCAL/MOL
REMARK 927      BINDING AFFINITY PREDICTED BY RF-SCORE:    0.00 PKD
ROOT
HETATM    1  C   UNL     1      -8.749   6.985  69.695  1.00  0.00    -0.141 C  
HETATM    2  F   UNL     1      -8.692   6.749  71.025  1.00  0.00    -0.132 F  
HETATM    3  C   UNL     1      -8.859   5.683  68.923  1.00  0.00    -0.109 C  
HETATM    4  O   UNL     1      -7.611   5.035  68.689  1.00  0.00    -0.076 OA 
HETATM    5  C   UNL     1      -9.497   6.164  67.626  1.00  0.00    -0.111 C  
HETATM    6  O   UNL     1     -10.436   7.196  67.998  1.00  0.00    -0.185 OA 
HETATM    7  C   UNL     1     -10.003   7.744  69.270  1.00  0.00    -0.182 C  
HETATM    8  H   UNL     1      -7.680   4.220  68.205  1.00  0.00     0.000 HD 
ENDROOT
BRANCH   5   9
HETATM    9  C   UNL     1     -10.193   5.060  66.830  1.00  0.00    -0.229 C  
HETATM   10  O   UNL     1     -11.337   5.562  66.146  1.00  0.00    -0.751 OA 
HETATM   11  H   UNL     1     -11.769   4.875  65.652  1.00  0.00     0.000 HD 
ENDBRANCH   5   9
BRANCH   7  12
HETATM   12  N   UNL     1     -11.095   7.671  70.219  1.00  0.00    -0.260 NA 
HETATM   13  C   UNL     1     -11.605   6.554  70.824  1.00  0.00    -0.377 A  
HETATM   14  N   UNL     1     -12.568   6.847  71.673  1.00  0.00    -0.371 NA 
HETATM   15  C   UNL     1     -12.675   8.220  71.627  1.00  0.00    -0.327 A  
HETATM   16  C   UNL     1     -13.491   9.132  72.317  1.00  0.00    -0.486 A  
HETATM   17  N   UNL     1     -14.404   8.745  73.287  1.00  0.00    -1.130 NA 
HETATM   18  N   UNL     1     -13.389  10.446  72.022  1.00  0.00    -0.410 NA 
HETATM   19  H1  UNL     1     -14.997   9.407  73.788  1.00  0.00     0.000 HD 
HETATM   20  C   UNL     1     -12.474  10.811  71.100  1.00  0.00    -0.414 A  
HETATM   21  H2  UNL     1     -13.896   8.200  73.985  1.00  0.00     0.000 HD 
HETATM   22 CL   UNL     1     -12.394  12.489  70.772  1.00  0.00    -0.444 Cl 
HETATM   23  N   UNL     1     -11.624  10.043  70.383  1.00  0.00    -0.284 NA 
HETATM   24  C   UNL     1     -11.783   8.750  70.706  1.00  0.00    -0.219 A  
ENDBRANCH   7  12
TORSDOF 2
ENDMDL
MODEL       47
REMARK 921   NORMALIZED FREE ENERGY PREDICTED BY IDOCK:   -5.58 KCAL/MOL
REMARK 922        TOTAL FREE ENERGY PREDICTED BY IDOCK:   -6.74 KCAL/MOL
REMARK 923 INTER-LIGAND FREE ENERGY PREDICTED BY IDOCK:   -6.84 KCAL/MOL
REMARK 924 INTRA-LIGAND FREE ENERGY PREDICTED BY IDOCK:    0.10 KCAL/MOL
REMARK 927      BINDING AFFINITY PREDICTED BY RF-SCORE:    0.00 PKD
ROOT
HETATM    1  C   UNL     1     -11.151  10.700  69.080  1.00  0.00    -0.255 C  
HETATM    2  F   UNL     1     -12.471  10.992  69.046  1.00  0.00    -0.383 F  
HETATM    3  C   UNL     1     -10.879   9.365  68.412  1.00  0.00    -0.109 C  
HETATM    4  O   UNL     1     -11.084   8.236  69.257  1.00  0.00    -0.435 OA 
HETATM    5  C   UNL     1      -9.414   9.523  68.026  1.00  0.00    -0.132 C  
HETATM    6  O   UNL     1      -9.250  10.900  67.626  1.00  0.00    -0.150 OA 
HETATM    7  C   UNL     1     -10.297  11.671  68.269  1.00  0.00    -0.200 C  
HETATM    8  H   UNL     1     -10.914   7.400  68.838  1.00  0.00     0.000 HD 
ENDROOT
BRANCH   5   9
HETATM    9  C   UNL     1      -8.960   8.579  66.914  1.00  0.00    -0.143 C  
HETATM   10  O   UNL     1      -9.974   8.424  65.925  1.00  0.00    -0.465 OA 
HETATM   11  H   UNL     1      -9.691   7.837  65.233  1.00  0.00     0.000 HD 
ENDBRANCH   5   9
BRANCH   7  12
HETATM   12  N   UNL     1     -11.030  12.413  67.263  1.00  0.00    -0.249 NA 
HETATM   13  C   UNL     1     -11.882  13.467  67.455  1.00  0.00    -0.384 A  
HETATM   14  N   UNL     1     -12.345  13.944  66.317  1.00  0.00    -0.460 NA 
HETATM   15  C   UNL     1     -11.751  13.170  65.343  1.00  0.00    -0.350 A  
HETATM   16  C   UNL     1     -11.816  13.198  63.939  1.00  0.00    -0.472 A  
HETATM   17  N   UNL     1     -12.553  14.140  63.236  1.00  0.00    -0.991 NA 
HETATM   18  N   UNL     1     -11.134  12.265  63.240  1.00  0.00    -0.395 NA 
HETATM   19  H1  UNL     1     -12.600  14.160  62.217  1.00  0.00     0.000 HD 
HETATM   20  C   UNL     1     -10.397  11.376  63.937  1.00  0.00    -0.379 A  
HETATM   21  H2  UNL     1     -12.246  15.062  63.546  1.00  0.00     0.000 HD 
HETATM   22 CL   UNL     1      -9.558  10.221  62.992  1.00  0.00    -0.339 Cl 
HETATM   23  N   UNL     1     -10.238  11.252  65.273  1.00  0.00    -0.261 NA 
HETATM   24  C   UNL     1     -10.949  12.193  65.914  1.00  0.00    -0.292 A  
ENDBRANCH   7  12
TORSDOF 2
ENDMDL
MODEL       48
REMARK 921   NORMALIZED FREE ENERGY PREDICTED BY IDOCK:   -5.57 KCAL/MOL
REMARK 922        TOTAL FREE ENERGY PREDICTED BY IDOCK:   -6.73 KCAL/MOL
REMARK 923 INTER-LIGAND FREE ENERGY PREDICTED BY IDOCK:   -6.11 KCAL/MOL
REMARK 924 INTRA-LIGAND FREE ENERGY PREDICTED BY IDOCK:   -0.62 KCAL/MOL
REMARK 927      BINDING AFFINITY PREDICTED BY RF-SCORE:    0.00 PKD
ROOT
HETATM    1  C   UNL     1     -10.142   9.537  67.602  1.00  0.00    -0.205 C  
HETATM    2  F   UNL     1     -11.439   9.903  67.486  1.00  0.00    -0.277 F  
HETATM    3  C   UNL     1      -9.934   8.129  67.076  1.00  0.00    -0.259 C  
HETATM    4  O   UNL     1     -10.239   7.103  68.017  1.00  0.00    -0.168 OA 
HETATM    5  C   UNL     1      -8.449   8.159  66.737  1.00  0.00    -0.123 C  
HETATM    6  O   UNL     1      -8.183   9.478  66.213  1.00  0.00    -0.113 OA 
HETATM    7  C   UNL     1      -9.201  10.370  66.736  1.00  0.00    -0.155 C  
HETATM    8  H   UNL     1     -10.109   6.221  67.688  1.00  0.00     0.000 HD 
ENDROOT
BRANCH   5   9
HETATM    9  C   UNL     1      -8.019   7.084  65.740  1.00  0.00    -0.116 C  
HETATM   10  O   UNL     1      -9.131   6.302  65.314  1.00  0.00    -0.371 OA 
HETATM   11  H   UNL     1      -8.863   5.633  64.694  1.00  0.00     0.000 HD 
ENDBRANCH   5   9
BRANCH   7  12
HETATM   12  N   UNL     1      -9.850  11.052  65.634  1.00  0.00    -0.226 NA 
HETATM   13  C   UNL     1      -9.972  10.623  64.340  1.00  0.00    -0.350 A  
HETATM   14  N   UNL     1     -10.666  11.466  63.602  1.00  0.00    -0.392 NA 
HETATM   15  C   UNL     1     -11.022  12.480  64.465  1.00  0.00    -0.323 A  
HETATM   16  C   UNL     1     -11.786  13.647  64.294  1.00  0.00    -0.403 A  
HETATM   17  N   UNL     1     -12.392  13.983  63.092  1.00  0.00    -1.094 NA 
HETATM   18  N   UNL     1     -11.933  14.485  65.343  1.00  0.00    -0.354 NA 
HETATM   19  H1  UNL     1     -12.947  14.830  62.968  1.00  0.00     0.000 HD 
HETATM   20  C   UNL     1     -11.364  14.129  66.513  1.00  0.00    -0.341 A  
HETATM   21  H2  UNL     1     -12.975  13.193  62.813  1.00  0.00     0.000 HD 
HETATM   22 CL   UNL     1     -11.588  15.234  67.801  1.00  0.00    -0.320 Cl 
HETATM   23  N   UNL     1     -10.627  13.038  66.812  1.00  0.00    -0.261 NA 
HETATM   24  C   UNL     1     -10.501  12.252  65.730  1.00  0.00    -0.255 A  
ENDBRANCH   7  12
TORSDOF 2
ENDMDL
MODEL       49
REMARK 921   NORMALIZED FREE ENERGY PREDICTED BY IDOCK:   -5.50 KCAL/MOL
REMARK 922        TOTAL FREE ENERGY PREDICTED BY IDOCK:   -6.65 KCAL/MOL
REMARK 923 INTER-LIGAND FREE ENERGY PREDICTED BY IDOCK:   -6.56 KCAL/MOL
REMARK 924 INTRA-LIGAND FREE ENERGY PREDICTED BY IDOCK:   -0.09 KCAL/MOL
REMARK 927      BINDING AFFINITY PREDICTED BY RF-SCORE:    0.00 PKD
ROOT
HETATM    1  C   UNL     1     -11.426  11.862  64.122  1.00  0.00    -0.370 C  
HETATM    2  F   UNL     1     -10.718  12.459  63.136  1.00  0.00    -0.460 F  
HETATM    3  C   UNL     1     -10.497  11.264  65.162  1.00  0.00    -0.291 C  
HETATM    4  O   UNL     1      -9.999   9.971  64.826  1.00  0.00    -0.344 OA 
HETATM    5  C   UNL     1     -11.411  11.218  66.379  1.00  0.00     0.123 C  
HETATM    6  O   UNL     1     -12.220  12.413  66.321  1.00  0.00    -0.620 OA 
HETATM    7  C   UNL     1     -12.269  12.840  64.935  1.00  0.00    -0.463 C  
HETATM    8  H   UNL     1      -9.418   9.597  65.478  1.00  0.00     0.000 HD 
ENDROOT
BRANCH   5   9
HETATM    9  C   UNL     1     -10.667  11.133  67.711  1.00  0.00    -0.222 C  
HETATM   10  O   UNL     1      -9.267  11.328  67.531  1.00  0.00    -0.156 OA 
HETATM   11  H   UNL     1      -8.804  11.275  68.360  1.00  0.00     0.000 HD 
ENDBRANCH   5   9
BRANCH   7  12
HETATM   12  N   UNL     1     -11.836  14.220  64.846  1.00  0.00    -0.389 NA 
HETATM   13  C   UNL     1     -12.253  15.173  63.955  1.00  0.00    -0.045 A  
HETATM   14  N   UNL     1     -11.692  16.343  64.182  1.00  0.00    -0.976 NA 
HETATM   15  C   UNL     1     -10.887  16.141  65.282  1.00  0.00    -0.336 A  
HETATM   16  C   UNL     1     -10.059  17.002  66.023  1.00  0.00    -0.302 A  
HETATM   17  N   UNL     1      -9.933  18.354  65.743  1.00  0.00    -0.500 NA 
HETATM   18  N   UNL     1      -9.348  16.491  67.052  1.00  0.00    -0.224 NA 
HETATM   19  H1  UNL     1      -9.332  18.980  66.280  1.00  0.00     0.000 HD 
HETATM   20  C   UNL     1      -9.506  15.181  67.332  1.00  0.00    -0.204 A  
HETATM   21  H2  UNL     1     -10.871  18.756  65.745  1.00  0.00     0.000 HD 
HETATM   22 CL   UNL     1      -8.577  14.598  68.647  1.00  0.00    -0.170 Cl 
HETATM   23  N   UNL     1     -10.274  14.258  66.715  1.00  0.00    -0.268 NA 
HETATM   24  C   UNL     1     -10.943  14.817  65.695  1.00  0.00    -0.344 A  
ENDBRANCH   7  12
TORSDOF 2
ENDMDL
MODEL       50
REMARK 921   NORMALIZED FREE ENERGY PREDICTED BY IDOCK:   -5.49 KCAL/MOL
REMARK 922        TOTAL FREE ENERGY PREDICTED BY IDOCK:   -6.64 KCAL/MOL
REMARK 923 INTER-LIGAND FREE ENERGY PREDICTED BY IDOCK:   -6.07 KCAL/MOL
REMARK 924 INTRA-LIGAND FREE ENERGY PREDICTED BY IDOCK:   -0.57 KCAL/MOL
REMARK 927      BINDING AFFINITY PREDICTED BY RF-SCORE:    0.00 PKD
ROOT
HETATM    1  C   UNL     1      -8.976   9.176  70.026  1.00  0.00    -0.187 C  
HETATM    2  F   UNL     1      -8.446  10.388  69.741  1.00  0.00    -0.172 F  
HETATM    3  C   UNL     1      -9.502   9.142  71.449  1.00  0.00    -0.209 C  
HETATM    4  O   UNL     1      -8.508   8.866  72.432  1.00  0.00    -0.396 OA 
HETATM    5  C   UNL     1     -10.530   8.022  71.355  1.00  0.00    -0.215 C  
HETATM    6  O   UNL     1     -11.148   8.152  70.057  1.00  0.00    -0.233 OA 
HETATM    7  C   UNL     1     -10.214   8.849  69.194  1.00  0.00    -0.206 C  
HETATM    8  H   UNL     1      -8.837   8.844  73.323  1.00  0.00     0.000 HD 
ENDROOT
BRANCH   5   9
HETATM    9  C   UNL     1     -11.583   8.053  72.462  1.00  0.00    -0.403 C  
HETATM   10  O   UNL     1     -11.099   7.430  73.649  1.00  0.00    -0.576 OA 
HETATM   11  H   UNL     1     -11.754   7.449  74.337  1.00  0.00     0.000 HD 
ENDBRANCH   5   9
BRANCH   7  12
HETATM   12  N   UNL     1     -10.868  10.006  68.617  1.00  0.00    -0.231 NA 
HETATM   13  C   UNL     1     -11.676  10.913  69.249  1.00  0.00    -0.324 A  
HETATM   14  N   UNL     1     -12.068  11.875  68.440  1.00  0.00    -0.433 NA 
HETATM   15  C   UNL     1     -11.473  11.585  67.231  1.00  0.00    -0.263 A  
HETATM   16  C   UNL     1     -11.478  12.243  65.989  1.00  0.00    -0.381 A  
HETATM   17  N   UNL     1     -12.140  13.442  65.772  1.00  0.00    -0.410 NA 
HETATM   18  N   UNL     1     -10.813  11.681  64.956  1.00  0.00    -0.294 NA 
HETATM   19  H1  UNL     1     -12.143  13.919  64.870  1.00  0.00     0.000 HD 
HETATM   20  C   UNL     1     -10.148  10.531  65.191  1.00  0.00    -0.314 A  
HETATM   21  H2  UNL     1     -11.802  14.107  66.468  1.00  0.00     0.000 HD 
HETATM   22 CL   UNL     1      -9.326   9.872  63.840  1.00  0.00    -0.305 Cl 
HETATM   23  N   UNL     1     -10.050   9.813  66.330  1.00  0.00    -0.245 NA 
HETATM   24  C   UNL     1     -10.742  10.409  67.315  1.00  0.00    -0.273 A  
ENDBRANCH   7  12
TORSDOF 2
ENDMDL
MODEL       51
REMARK 921   NORMALIZED FREE ENERGY PREDICTED BY IDOCK:   -5.48 KCAL/MOL
REMARK 922        TOTAL FREE ENERGY PREDICTED BY IDOCK:   -6.63 KCAL/MOL
REMARK 923 INTER-LIGAND FREE ENERGY PREDICTED BY IDOCK:   -6.18 KCAL/MOL
REMARK 924 INTRA-LIGAND FREE ENERGY PREDICTED BY IDOCK:   -0.46 KCAL/MOL
REMARK 927      BINDING AFFINITY PREDICTED BY RF-SCORE:    0.00 PKD
ROOT
HETATM    1  C   UNL     1     -10.248  10.360  68.874  1.00  0.00    -0.205 C  
HETATM    2  F   UNL     1      -9.159  11.077  68.514  1.00  0.00    -0.144 F  
HETATM    3  C   UNL     1     -10.598  10.609  70.329  1.00  0.00     0.103 C  
HETATM    4  O   UNL     1      -9.853   9.819  71.253  1.00  0.00    -0.239 OA 
HETATM    5  C   UNL     1     -12.078  10.247  70.341  1.00  0.00    -0.286 C  
HETATM    6  O   UNL     1     -12.615  10.710  69.084  1.00  0.00    -0.252 OA 
HETATM    7  C   UNL     1     -11.517  10.780  68.138  1.00  0.00    -0.271 C  
HETATM    8  H   UNL     1     -10.073   9.976  72.164  1.00  0.00     0.000 HD 
ENDROOT
BRANCH   5   9
HETATM    9  C   UNL     1     -12.853  10.846  71.514  1.00  0.00    -0.454 C  
HETATM   10  O   UNL     1     -13.307   9.829  72.403  1.00  0.00    -0.562 OA 
HETATM   11  H   UNL     1     -13.790  10.201  73.132  1.00  0.00     0.000 HD 
ENDBRANCH   5   9
BRANCH   7  12
HETATM   12  N   UNL     1     -11.463  12.112  67.568  1.00  0.00    -0.321 NA 
HETATM   13  C   UNL     1     -11.728  13.301  68.191  1.00  0.00    -0.362 A  
HETATM   14  N   UNL     1     -11.536  14.332  67.394  1.00  0.00    -0.328 NA 
HETATM   15  C   UNL     1     -11.111  13.783  66.203  1.00  0.00    -0.296 A  
HETATM   16  C   UNL     1     -10.719  14.356  64.981  1.00  0.00    -0.423 A  
HETATM   17  N   UNL     1     -10.668  15.726  64.771  1.00  0.00    -0.709 NA 
HETATM   18  N   UNL     1     -10.382  13.538  63.961  1.00  0.00    -0.174 NA 
HETATM   19  H1  UNL     1     -10.383  16.142  63.884  1.00  0.00     0.000 HD 
HETATM   20  C   UNL     1     -10.406  12.209  64.190  1.00  0.00    -0.354 A  
HETATM   21  H2  UNL     1     -10.074  16.125  65.500  1.00  0.00     0.000 HD 
HETATM   22 CL   UNL     1      -9.967  11.228  62.856  1.00  0.00    -0.307 Cl 
HETATM   23  N   UNL     1     -10.744  11.537  65.312  1.00  0.00    -0.286 NA 
HETATM   24  C   UNL     1     -11.084  12.399  66.284  1.00  0.00    -0.303 A  
ENDBRANCH   7  12
TORSDOF 2
ENDMDL
MODEL       52
REMARK 921   NORMALIZED FREE ENERGY PREDICTED BY IDOCK:   -5.47 KCAL/MOL
REMARK 922        TOTAL FREE ENERGY PREDICTED BY IDOCK:   -6.61 KCAL/MOL
REMARK 923 INTER-LIGAND FREE ENERGY PREDICTED BY IDOCK:   -7.06 KCAL/MOL
REMARK 924 INTRA-LIGAND FREE ENERGY PREDICTED BY IDOCK:    0.45 KCAL/MOL
REMARK 927      BINDING AFFINITY PREDICTED BY RF-SCORE:    0.00 PKD
ROOT
HETATM    1  C   UNL     1     -11.056  12.511  65.594  1.00  0.00    -0.303 C  
HETATM    2  F   UNL     1     -12.054  11.710  66.032  1.00  0.00    -0.181 F  
HETATM    3  C   UNL     1     -11.616  13.690  64.820  1.00  0.00    -0.355 C  
HETATM    4  O   UNL     1     -11.901  13.407  63.452  1.00  0.00    -0.732 OA 
HETATM    5  C   UNL     1     -10.485  14.699  64.963  1.00  0.00    -0.421 C  
HETATM    6  O   UNL     1      -9.962  14.530  66.298  1.00  0.00    -0.279 OA 
HETATM    7  C   UNL     1     -10.281  13.181  66.726  1.00  0.00    -0.252 C  
HETATM    8  H   UNL     1     -12.252  14.145  62.967  1.00  0.00     0.000 HD 
ENDROOT
BRANCH   5   9
HETATM    9  C   UNL     1     -10.913  16.148  64.729  1.00  0.00    -0.313 C  
HETATM   10  O   UNL     1     -11.642  16.278  63.512  1.00  0.00    -1.238 OA 
HETATM   11  H   UNL     1     -11.908  17.179  63.366  1.00  0.00     0.000 HD 
ENDBRANCH   5   9
BRANCH   7  12
HETATM   12  N   UNL     1     -10.992  13.235  67.987  1.00  0.00    -0.237 NA 
HETATM   13  C   UNL     1     -11.667  12.221  68.612  1.00  0.00    -0.328 A  
HETATM   14  N   UNL     1     -12.160  12.596  69.774  1.00  0.00    -0.272 NA 
HETATM   15  C   UNL     1     -11.772  13.911  69.914  1.00  0.00    -0.291 A  
HETATM   16  C   UNL     1     -11.960  14.852  70.941  1.00  0.00    -0.316 A  
HETATM   17  N   UNL     1     -12.620  14.555  72.125  1.00  0.00    -0.325 NA 
HETATM   18  N   UNL     1     -11.483  16.104  70.770  1.00  0.00    -0.407 NA 
HETATM   19  H1  UNL     1     -12.756  15.237  72.871  1.00  0.00     0.000 HD 
HETATM   20  C   UNL     1     -10.816  16.368  69.627  1.00  0.00    -0.346 A  
HETATM   21  H2  UNL     1     -12.160  13.742  72.536  1.00  0.00     0.000 HD 
HETATM   22 CL   UNL     1     -10.237  17.972  69.473  1.00  0.00     0.029 Cl 
HETATM   23  N   UNL     1     -10.554  15.557  68.579  1.00  0.00    -0.239 NA 
HETATM   24  C   UNL     1     -11.065  14.336  68.798  1.00  0.00    -0.256 A  
ENDBRANCH   7  12
TORSDOF 2
ENDMDL
MODEL       53
REMARK 921   NORMALIZED FREE ENERGY PREDICTED BY IDOCK:   -5.47 KCAL/MOL
REMARK 922        TOTAL FREE ENERGY PREDICTED BY IDOCK:   -6.61 KCAL/MOL
REMARK 923 INTER-LIGAND FREE ENERGY PREDICTED BY IDOCK:   -6.38 KCAL/MOL
REMARK 924 INTRA-LIGAND FREE ENERGY PREDICTED BY IDOCK:   -0.23 KCAL/MOL
REMARK 927      BINDING AFFINITY PREDICTED BY RF-SCORE:    0.00 PKD
ROOT
HETATM    1  C   UNL     1     -11.843  14.803  69.179  1.00  0.00    -0.305 C  
HETATM    2  F   UNL     1     -11.505  13.630  69.762  1.00  0.00    -0.299 F  
HETATM    3  C   UNL     1     -10.977  15.932  69.705  1.00  0.00    -0.328 C  
HETATM    4  O   UNL     1     -11.430  16.490  70.937  1.00  0.00    -0.566 OA 
HETATM    5  C   UNL     1     -11.076  16.934  68.562  1.00  0.00    -0.213 C  
HETATM    6  O   UNL     1     -11.086  16.157  67.346  1.00  0.00    -0.258 OA 
HETATM    7  C   UNL     1     -11.570  14.830  67.678  1.00  0.00    -0.354 C  
HETATM    8  H   UNL     1     -10.887  17.197  71.266  1.00  0.00     0.000 HD 
ENDROOT
BRANCH   5   9
HETATM    9  C   UNL     1      -9.946  17.962  68.539  1.00  0.00    -0.379 C  
HETATM   10  O   UNL     1     -10.221  19.049  69.418  1.00  0.00    -0.491 OA 
HETATM   11  H   UNL     1      -9.518  19.689  69.404  1.00  0.00     0.000 HD 
ENDBRANCH   5   9
BRANCH   7  12
HETATM   12  N   UNL     1     -10.607  13.845  67.228  1.00  0.00    -0.274 NA 
HETATM   13  C   UNL     1      -9.401  13.533  67.795  1.00  0.00    -0.213 A  
HETATM   14  N   UNL     1      -8.794  12.552  67.160  1.00  0.00    -0.196 NA 
HETATM   15  C   UNL     1      -9.656  12.203  66.142  1.00  0.00    -0.240 A  
HETATM   16  C   UNL     1      -9.596  11.214  65.145  1.00  0.00    -0.234 A  
HETATM   17  N   UNL     1      -8.547  10.313  65.037  1.00  0.00    -0.172 NA 
HETATM   18  N   UNL     1     -10.601  11.139  64.246  1.00  0.00    -0.357 NA 
HETATM   19  H1  UNL     1      -8.503   9.596  64.313  1.00  0.00     0.000 HD 
HETATM   20  C   UNL     1     -11.629  12.001  64.383  1.00  0.00    -0.336 A  
HETATM   21  H2  UNL     1      -8.453   9.844  65.939  1.00  0.00     0.000 HD 
HETATM   22 CL   UNL     1     -12.870  11.852  63.213  1.00  0.00    -0.542 Cl 
HETATM   23  N   UNL     1     -11.815  12.977  65.298  1.00  0.00    -0.354 NA 
HETATM   24  C   UNL     1     -10.780  13.015  66.152  1.00  0.00    -0.273 A  
ENDBRANCH   7  12
TORSDOF 2
ENDMDL
MODEL       54
REMARK 921   NORMALIZED FREE ENERGY PREDICTED BY IDOCK:   -5.47 KCAL/MOL
REMARK 922        TOTAL FREE ENERGY PREDICTED BY IDOCK:   -6.61 KCAL/MOL
REMARK 923 INTER-LIGAND FREE ENERGY PREDICTED BY IDOCK:   -5.98 KCAL/MOL
REMARK 924 INTRA-LIGAND FREE ENERGY PREDICTED BY IDOCK:   -0.63 KCAL/MOL
REMARK 927      BINDING AFFINITY PREDICTED BY RF-SCORE:    0.00 PKD
ROOT
HETATM    1  C   UNL     1     -11.311  13.476  68.354  1.00  0.00    -0.292 C  
HETATM    2  F   UNL     1     -12.389  14.286  68.255  1.00  0.00    -0.350 F  
HETATM    3  C   UNL     1     -11.494  12.233  67.502  1.00  0.00    -0.347 C  
HETATM    4  O   UNL     1     -12.247  11.199  68.132  1.00  0.00    -0.708 OA 
HETATM    5  C   UNL     1     -10.046  11.818  67.274  1.00  0.00    -0.192 C  
HETATM    6  O   UNL     1      -9.297  13.042  67.119  1.00  0.00    -0.214 OA 
HETATM    7  C   UNL     1     -10.037  14.096  67.787  1.00  0.00    -0.239 C  
HETATM    8  H   UNL     1     -12.361  10.421  67.598  1.00  0.00     0.000 HD 
ENDROOT
BRANCH   5   9
HETATM    9  C   UNL     1      -9.847  10.904  66.066  1.00  0.00    -0.233 C  
HETATM   10  O   UNL     1     -10.329   9.590  66.329  1.00  0.00    -0.244 OA 
HETATM   11  H   UNL     1     -10.205   9.021  65.578  1.00  0.00     0.000 HD 
ENDBRANCH   5   9
BRANCH   7  12
HETATM   12  N   UNL     1     -10.265  15.183  66.856  1.00  0.00    -0.256 NA 
HETATM   13  C   UNL     1     -10.530  15.096  65.516  1.00  0.00    -0.379 A  
HETATM   14  N   UNL     1     -10.735  16.279  64.974  1.00  0.00    -0.656 NA 
HETATM   15  C   UNL     1     -10.612  17.171  66.017  1.00  0.00    -0.204 A  
HETATM   16  C   UNL     1     -10.747  18.569  66.091  1.00  0.00    -0.201 A  
HETATM   17  N   UNL     1     -11.094  19.353  65.000  1.00  0.00    -0.146 NA 
HETATM   18  N   UNL     1     -10.524  19.179  67.275  1.00  0.00    -0.428 NA 
HETATM   19  H1  UNL     1     -11.192  20.367  65.054  1.00  0.00     0.000 HD 
HETATM   20  C   UNL     1     -10.219  18.401  68.333  1.00  0.00    -0.378 A  
HETATM   21  H2  UNL     1     -11.966  18.981  64.622  1.00  0.00     0.000 HD 
HETATM   22 CL   UNL     1      -9.950  19.237  69.803  1.00  0.00     0.069 Cl 
HETATM   23  N   UNL     1     -10.077  17.059  68.399  1.00  0.00    -0.283 NA 
HETATM   24  C   UNL     1     -10.293  16.510  67.193  1.00  0.00    -0.298 A  
ENDBRANCH   7  12
TORSDOF 2
ENDMDL
MODEL       55
REMARK 921   NORMALIZED FREE ENERGY PREDICTED BY IDOCK:   -5.47 KCAL/MOL
REMARK 922        TOTAL FREE ENERGY PREDICTED BY IDOCK:   -6.61 KCAL/MOL
REMARK 923 INTER-LIGAND FREE ENERGY PREDICTED BY IDOCK:   -6.11 KCAL/MOL
REMARK 924 INTRA-LIGAND FREE ENERGY PREDICTED BY IDOCK:   -0.50 KCAL/MOL
REMARK 927      BINDING AFFINITY PREDICTED BY RF-SCORE:    0.00 PKD
ROOT
HETATM    1  C   UNL     1     -11.621  11.709  69.516  1.00  0.00    -0.331 C  
HETATM    2  F   UNL     1     -12.482  12.061  68.534  1.00  0.00    -0.189 F  
HETATM    3  C   UNL     1     -12.108  10.465  70.235  1.00  0.00    -0.286 C  
HETATM    4  O   UNL     1     -13.068  10.720  71.258  1.00  0.00    -0.371 OA 
HETATM    5  C   UNL     1     -10.803   9.928  70.808  1.00  0.00    -0.317 C  
HETATM    6  O   UNL     1      -9.791  10.181  69.810  1.00  0.00    -0.232 OA 
HETATM    7  C   UNL     1     -10.250  11.290  68.994  1.00  0.00    -0.150 C  
HETATM    8  H   UNL     1     -13.373   9.941  71.708  1.00  0.00     0.000 HD 
ENDROOT
BRANCH   5   9
HETATM    9  C   UNL     1     -10.849   8.443  71.168  1.00  0.00    -0.237 C  
HETATM   10  O   UNL     1     -12.192   7.972  71.237  1.00  0.00    -0.304 OA 
HETATM   11  H   UNL     1     -12.220   7.048  71.461  1.00  0.00     0.000 HD 
ENDBRANCH   5   9
BRANCH   7  12
HETATM   12  N   UNL     1     -10.237  10.894  67.600  1.00  0.00    -0.178 NA 
HETATM   13  C   UNL     1     -10.216   9.623  67.091  1.00  0.00    -0.243 A  
HETATM   14  N   UNL     1     -10.260   9.617  65.774  1.00  0.00    -0.207 NA 
HETATM   15  C   UNL     1     -10.328  10.946  65.416  1.00  0.00    -0.261 A  
HETATM   16  C   UNL     1     -10.426  11.589  64.171  1.00  0.00    -0.353 A  
HETATM   17  N   UNL     1     -10.506  10.901  62.969  1.00  0.00    -0.769 NA 
HETATM   18  N   UNL     1     -10.437  12.940  64.138  1.00  0.00    -0.420 NA 
HETATM   19  H1  UNL     1     -10.577  11.367  62.065  1.00  0.00     0.000 HD 
HETATM   20  C   UNL     1     -10.390  13.594  65.316  1.00  0.00    -0.348 A  
HETATM   21  H2  UNL     1     -11.291  10.252  63.041  1.00  0.00     0.000 HD 
HETATM   22 CL   UNL     1     -10.408  15.303  65.204  1.00  0.00    -0.418 Cl 
HETATM   23  N   UNL     1     -10.312  13.101  66.570  1.00  0.00    -0.278 NA 
HETATM   24  C   UNL     1     -10.288  11.759  66.540  1.00  0.00    -0.223 A  
ENDBRANCH   7  12
TORSDOF 2
ENDMDL
MODEL       56
REMARK 921   NORMALIZED FREE ENERGY PREDICTED BY IDOCK:   -5.42 KCAL/MOL
REMARK 922        TOTAL FREE ENERGY PREDICTED BY IDOCK:   -6.56 KCAL/MOL
REMARK 923 INTER-LIGAND FREE ENERGY PREDICTED BY IDOCK:   -6.00 KCAL/MOL
REMARK 924 INTRA-LIGAND FREE ENERGY PREDICTED BY IDOCK:   -0.56 KCAL/MOL
REMARK 927      BINDING AFFINITY PREDICTED BY RF-SCORE:    0.00 PKD
ROOT
HETATM    1  C   UNL     1     -10.188  17.327  67.122  1.00  0.00    -0.319 C  
HETATM    2  F   UNL     1     -11.282  16.923  67.808  1.00  0.00    -0.306 F  
HETATM    3  C   UNL     1      -9.145  17.898  68.064  1.00  0.00    -0.267 C  
HETATM    4  O   UNL     1      -9.353  19.265  68.407  1.00  0.00    -0.332 OA 
HETATM    5  C   UNL     1      -7.875  17.709  67.244  1.00  0.00    -0.205 C  
HETATM    6  O   UNL     1      -8.025  16.450  66.554  1.00  0.00    -0.260 OA 
HETATM    7  C   UNL     1      -9.446  16.180  66.442  1.00  0.00    -0.295 C  
HETATM    8  H   UNL     1      -8.700  19.623  68.997  1.00  0.00     0.000 HD 
ENDROOT
BRANCH   5   9
HETATM    9  C   UNL     1      -6.593  17.721  68.075  1.00  0.00    -0.192 C  
HETATM   10  O   UNL     1      -6.431  18.963  68.754  1.00  0.00    -0.235 OA 
HETATM   11  H   UNL     1      -5.633  18.970  69.271  1.00  0.00     0.000 HD 
ENDBRANCH   5   9
BRANCH   7  12
HETATM   12  N   UNL     1      -9.729  14.872  66.999  1.00  0.00    -0.230 NA 
HETATM   13  C   UNL     1      -9.382  14.395  68.234  1.00  0.00    -0.206 A  
HETATM   14  N   UNL     1      -9.839  13.178  68.442  1.00  0.00    -0.226 NA 
HETATM   15  C   UNL     1     -10.527  12.858  67.292  1.00  0.00    -0.234 A  
HETATM   16  C   UNL     1     -11.260  11.721  66.910  1.00  0.00    -0.327 A  
HETATM   17  N   UNL     1     -11.448  10.628  67.743  1.00  0.00    -0.598 NA 
HETATM   18  N   UNL     1     -11.803  11.686  65.673  1.00  0.00    -0.220 NA 
HETATM   19  H1  UNL     1     -11.980   9.803  67.466  1.00  0.00     0.000 HD 
HETATM   20  C   UNL     1     -11.639  12.769  64.887  1.00  0.00    -0.330 A  
HETATM   21  H2  UNL     1     -11.852  10.974  68.614  1.00  0.00     0.000 HD 
HETATM   22 CL   UNL     1     -12.353  12.659  63.334  1.00  0.00    -0.602 Cl 
HETATM   23  N   UNL     1     -10.979  13.920  65.137  1.00  0.00    -0.332 NA 
HETATM   24  C   UNL     1     -10.448  13.891  66.370  1.00  0.00    -0.284 A  
ENDBRANCH   7  12
TORSDOF 2
ENDMDL
MODEL       57
REMARK 921   NORMALIZED FREE ENERGY PREDICTED BY IDOCK:   -5.41 KCAL/MOL
REMARK 922        TOTAL FREE ENERGY PREDICTED BY IDOCK:   -6.55 KCAL/MOL
REMARK 923 INTER-LIGAND FREE ENERGY PREDICTED BY IDOCK:   -5.91 KCAL/MOL
REMARK 924 INTRA-LIGAND FREE ENERGY PREDICTED BY IDOCK:   -0.64 KCAL/MOL
REMARK 927      BINDING AFFINITY PREDICTED BY RF-SCORE:    0.00 PKD
ROOT
HETATM    1  C   UNL     1      -9.312   9.085  70.022  1.00  0.00    -0.183 C  
HETATM    2  F   UNL     1      -8.585  10.216  69.875  1.00  0.00    -0.188 F  
HETATM    3  C   UNL     1      -9.545   8.785  71.491  1.00  0.00    -0.284 C  
HETATM    4  O   UNL     1      -8.469   8.097  72.125  1.00  0.00    -0.131 OA 
HETATM    5  C   UNL     1     -10.800   7.925  71.420  1.00  0.00    -0.226 C  
HETATM    6  O   UNL     1     -11.613   8.486  70.367  1.00  0.00    -0.204 OA 
HETATM    7  C   UNL     1     -10.729   9.203  69.467  1.00  0.00    -0.215 C  
HETATM    8  H   UNL     1      -8.615   7.909  73.045  1.00  0.00     0.000 HD 
ENDROOT
BRANCH   5   9
HETATM    9  C   UNL     1     -11.582   7.859  72.731  1.00  0.00    -0.329 C  
HETATM   10  O   UNL     1     -10.827   7.209  73.749  1.00  0.00    -0.518 OA 
HETATM   11  H   UNL     1     -11.314   7.168  74.564  1.00  0.00     0.000 HD 
ENDBRANCH   5   9
BRANCH   7  12
HETATM   12  N   UNL     1     -11.201  10.566  69.319  1.00  0.00    -0.246 NA 
HETATM   13  C   UNL     1     -11.681  11.396  70.296  1.00  0.00    -0.306 A  
HETATM   14  N   UNL     1     -11.980  12.590  69.828  1.00  0.00    -0.311 NA 
HETATM   15  C   UNL     1     -11.663  12.534  68.488  1.00  0.00    -0.324 A  
HETATM   16  C   UNL     1     -11.724  13.488  67.457  1.00  0.00    -0.367 A  
HETATM   17  N   UNL     1     -12.136  14.796  67.663  1.00  0.00    -0.548 NA 
HETATM   18  N   UNL     1     -11.372  13.115  66.207  1.00  0.00    -0.305 NA 
HETATM   19  H1  UNL     1     -12.181  15.489  66.915  1.00  0.00     0.000 HD 
HETATM   20  C   UNL     1     -10.943  11.849  66.029  1.00  0.00    -0.309 A  
HETATM   21  H2  UNL     1     -11.556  15.186  68.406  1.00  0.00     0.000 HD 
HETATM   22 CL   UNL     1     -10.512  11.442  64.423  1.00  0.00    -0.361 Cl 
HETATM   23  N   UNL     1     -10.822  10.849  66.929  1.00  0.00    -0.266 NA 
HETATM   24  C   UNL     1     -11.201  11.272  68.146  1.00  0.00    -0.286 A  
ENDBRANCH   7  12
TORSDOF 2
ENDMDL
MODEL       58
REMARK 921   NORMALIZED FREE ENERGY PREDICTED BY IDOCK:   -5.40 KCAL/MOL
REMARK 922        TOTAL FREE ENERGY PREDICTED BY IDOCK:   -6.54 KCAL/MOL
REMARK 923 INTER-LIGAND FREE ENERGY PREDICTED BY IDOCK:   -5.89 KCAL/MOL
REMARK 924 INTRA-LIGAND FREE ENERGY PREDICTED BY IDOCK:   -0.66 KCAL/MOL
REMARK 927      BINDING AFFINITY PREDICTED BY RF-SCORE:    0.00 PKD
ROOT
HETATM    1  C   UNL     1      -8.671  16.913  68.407  1.00  0.00    -0.244 C  
HETATM    2  F   UNL     1      -7.705  16.171  67.818  1.00  0.00    -0.130 F  
HETATM    3  C   UNL     1      -8.660  18.332  67.869  1.00  0.00    -0.258 C  
HETATM    4  O   UNL     1      -7.709  19.188  68.498  1.00  0.00    -0.313 OA 
HETATM    5  C   UNL     1     -10.090  18.767  68.159  1.00  0.00    -0.379 C  
HETATM    6  O   UNL     1     -10.919  17.608  67.924  1.00  0.00    -0.316 OA 
HETATM    7  C   UNL     1     -10.082  16.433  68.081  1.00  0.00    -0.251 C  
HETATM    8  H   UNL     1      -7.703  20.076  68.161  1.00  0.00     0.000 HD 
ENDROOT
BRANCH   5   9
HETATM    9  C   UNL     1     -10.562  19.950  67.315  1.00  0.00    -0.386 C  
HETATM   10  O   UNL     1      -9.486  20.511  66.568  1.00  0.00    -0.612 OA 
HETATM   11  H   UNL     1      -9.780  21.247  66.044  1.00  0.00     0.000 HD 
ENDBRANCH   5   9
BRANCH   7  12
HETATM   12  N   UNL     1     -10.175  15.617  66.887  1.00  0.00    -0.274 NA 
HETATM   13  C   UNL     1     -10.363  16.037  65.598  1.00  0.00    -0.392 A  
HETATM   14  N   UNL     1     -10.351  15.036  64.743  1.00  0.00    -0.278 NA 
HETATM   15  C   UNL     1     -10.128  13.916  65.515  1.00  0.00    -0.298 A  
HETATM   16  C   UNL     1      -9.981  12.555  65.193  1.00  0.00    -0.192 A  
HETATM   17  N   UNL     1     -10.013  12.080  63.890  1.00  0.00    -0.485 NA 
HETATM   18  N   UNL     1      -9.805  11.667  66.196  1.00  0.00    -0.216 NA 
HETATM   19  H1  UNL     1      -9.905  11.093  63.656  1.00  0.00     0.000 HD 
HETATM   20  C   UNL     1      -9.744  12.149  67.454  1.00  0.00    -0.179 A  
HETATM   21  H2  UNL     1      -9.312  12.598  63.359  1.00  0.00     0.000 HD 
HETATM   22 CL   UNL     1      -9.519  10.972  68.677  1.00  0.00    -0.191 Cl 
HETATM   23  N   UNL     1      -9.853  13.421  67.893  1.00  0.00    -0.229 NA 
HETATM   24  C   UNL     1     -10.042  14.254  66.857  1.00  0.00    -0.264 A  
ENDBRANCH   7  12
TORSDOF 2
ENDMDL
MODEL       59
REMARK 921   NORMALIZED FREE ENERGY PREDICTED BY IDOCK:   -5.39 KCAL/MOL
REMARK 922        TOTAL FREE ENERGY PREDICTED BY IDOCK:   -6.52 KCAL/MOL
REMARK 923 INTER-LIGAND FREE ENERGY PREDICTED BY IDOCK:   -6.73 KCAL/MOL
REMARK 924 INTRA-LIGAND FREE ENERGY PREDICTED BY IDOCK:    0.21 KCAL/MOL
REMARK 927      BINDING AFFINITY PREDICTED BY RF-SCORE:    0.00 PKD
ROOT
HETATM    1  C   UNL     1     -10.831  14.609  67.733  1.00  0.00    -0.267 C  
HETATM    2  F   UNL     1      -9.659  14.177  68.253  1.00  0.00    -0.198 F  
HETATM    3  C   UNL     1     -10.646  15.064  66.297  1.00  0.00    -0.307 C  
HETATM    4  O   UNL     1     -10.170  16.401  66.164  1.00  0.00    -0.315 OA 
HETATM    5  C   UNL     1     -12.062  14.913  65.757  1.00  0.00     0.004 C  
HETATM    6  O   UNL     1     -12.604  13.726  66.375  1.00  0.00    -0.389 OA 
HETATM    7  C   UNL     1     -11.879  13.507  67.613  1.00  0.00    -0.363 C  
HETATM    8  H   UNL     1     -10.054  16.685  65.265  1.00  0.00     0.000 HD 
ENDROOT
BRANCH   5   9
HETATM    9  C   UNL     1     -12.138  14.814  64.234  1.00  0.00    -0.394 C  
HETATM   10  O   UNL     1     -12.056  16.101  63.630  1.00  0.00    -1.288 OA 
HETATM   11  H   UNL     1     -12.103  16.039  62.683  1.00  0.00     0.000 HD 
ENDBRANCH   5   9
BRANCH   7  12
HETATM   12  N   UNL     1     -11.336  12.163  67.617  1.00  0.00    -0.292 NA 
HETATM   13  C   UNL     1     -11.348  11.259  68.644  1.00  0.00    -0.273 A  
HETATM   14  N   UNL     1     -10.811  10.108  68.297  1.00  0.00    -0.242 NA 
HETATM   15  C   UNL     1     -10.449  10.271  66.977  1.00  0.00    -0.244 A  
HETATM   16  C   UNL     1      -9.860   9.403  66.041  1.00  0.00    -0.296 A  
HETATM   17  N   UNL     1      -9.541   8.085  66.329  1.00  0.00    -0.380 NA 
HETATM   18  N   UNL     1      -9.586   9.874  64.804  1.00  0.00    -0.298 NA 
HETATM   19  H1  UNL     1      -9.115   7.455  65.649  1.00  0.00     0.000 HD 
HETATM   20  C   UNL     1      -9.931  11.149  64.530  1.00  0.00    -0.296 A  
HETATM   21  H2  UNL     1     -10.390   7.633  66.672  1.00  0.00     0.000 HD 
HETATM   22 CL   UNL     1      -9.557  11.682  62.946  1.00  0.00    -0.347 Cl 
HETATM   23  N   UNL     1     -10.511  12.072  65.326  1.00  0.00    -0.273 NA 
HETATM   24  C   UNL     1     -10.744  11.554  66.543  1.00  0.00    -0.273 A  
ENDBRANCH   7  12
TORSDOF 2
ENDMDL
MODEL       60
REMARK 921   NORMALIZED FREE ENERGY PREDICTED BY IDOCK:   -5.36 KCAL/MOL
REMARK 922        TOTAL FREE ENERGY PREDICTED BY IDOCK:   -6.50 KCAL/MOL
REMARK 923 INTER-LIGAND FREE ENERGY PREDICTED BY IDOCK:   -6.17 KCAL/MOL
REMARK 924 INTRA-LIGAND FREE ENERGY PREDICTED BY IDOCK:   -0.33 KCAL/MOL
REMARK 927      BINDING AFFINITY PREDICTED BY RF-SCORE:    0.00 PKD
ROOT
HETATM    1  C   UNL     1      -8.692  17.576  69.172  1.00  0.00     0.102 C  
HETATM    2  F   UNL     1      -8.424  16.273  69.420  1.00  0.00    -0.240 F  
HETATM    3  C   UNL     1      -7.624  18.184  68.282  1.00  0.00    -0.274 C  
HETATM    4  O   UNL     1      -6.463  18.624  68.982  1.00  0.00    -0.242 OA 
HETATM    5  C   UNL     1      -8.386  19.349  67.664  1.00  0.00    -0.299 C  
HETATM    6  O   UNL     1      -9.732  18.876  67.441  1.00  0.00    -0.301 OA 
HETATM    7  C   UNL     1      -9.972  17.785  68.366  1.00  0.00    -0.362 C  
HETATM    8  H   UNL     1      -5.794  19.005  68.424  1.00  0.00     0.000 HD 
ENDROOT
BRANCH   5   9
HETATM    9  C   UNL     1      -7.774  19.871  66.365  1.00  0.00    -0.304 C  
HETATM   10  O   UNL     1      -8.775  20.400  65.500  1.00  0.00    -0.415 OA 
HETATM   11  H   UNL     1      -8.393  20.724  64.692  1.00  0.00     0.000 HD 
ENDBRANCH   5   9
BRANCH   7  12
HETATM   12  N   UNL     1     -10.408  16.618  67.626  1.00  0.00    -0.297 NA 
HETATM   13  C   UNL     1     -10.225  16.354  66.295  1.00  0.00    -0.330 A  
HETATM   14  N   UNL     1     -10.706  15.177  65.953  1.00  0.00    -0.321 NA 
HETATM   15  C   UNL     1     -11.209  14.647  67.121  1.00  0.00    -0.344 A  
HETATM   16  C   UNL     1     -11.820  13.417  67.420  1.00  0.00    -0.375 A  
HETATM   17  N   UNL     1     -12.008  12.419  66.476  1.00  0.00    -0.605 NA 
HETATM   18  N   UNL     1     -12.251  13.197  68.681  1.00  0.00    -0.164 NA 
HETATM   19  H1  UNL     1     -12.451  11.526  66.692  1.00  0.00     0.000 HD 
HETATM   20  C   UNL     1     -12.033  14.165  69.594  1.00  0.00    -0.336 A  
HETATM   21  H2  UNL     1     -11.097  12.215  66.062  1.00  0.00     0.000 HD 
HETATM   22 CL   UNL     1     -12.603  13.822  71.173  1.00  0.00    -0.435 Cl 
HETATM   23  N   UNL     1     -11.448  15.373  69.443  1.00  0.00    -0.300 NA 
HETATM   24  C   UNL     1     -11.056  15.542  68.170  1.00  0.00    -0.325 A  
ENDBRANCH   7  12
TORSDOF 2
ENDMDL
MODEL       61
REMARK 921   NORMALIZED FREE ENERGY PREDICTED BY IDOCK:   -5.34 KCAL/MOL
REMARK 922        TOTAL FREE ENERGY PREDICTED BY IDOCK:   -6.48 KCAL/MOL
REMARK 923 INTER-LIGAND FREE ENERGY PREDICTED BY IDOCK:   -6.51 KCAL/MOL
REMARK 924 INTRA-LIGAND FREE ENERGY PREDICTED BY IDOCK:    0.03 KCAL/MOL
REMARK 927      BINDING AFFINITY PREDICTED BY RF-SCORE:    0.00 PKD
ROOT
HETATM    1  C   UNL     1     -12.244  14.079  69.598  1.00  0.00    -0.332 C  
HETATM    2  F   UNL     1     -11.318  13.295  69.003  1.00  0.00    -0.257 F  
HETATM    3  C   UNL     1     -12.317  13.788  71.086  1.00  0.00    -0.345 C  
HETATM    4  O   UNL     1     -13.140  12.674  71.423  1.00  0.00    -0.327 OA 
HETATM    5  C   UNL     1     -12.895  15.096  71.612  1.00  0.00    -0.364 C  
HETATM    6  O   UNL     1     -12.299  16.146  70.822  1.00  0.00    -0.261 OA 
HETATM    7  C   UNL     1     -11.893  15.564  69.556  1.00  0.00    -0.372 C  
HETATM    8  H   UNL     1     -13.186  12.492  72.354  1.00  0.00     0.000 HD 
ENDROOT
BRANCH   5   9
HETATM    9  C   UNL     1     -12.642  15.329  73.101  1.00  0.00    -0.463 C  
HETATM   10  O   UNL     1     -13.673  16.125  73.679  1.00  0.00    -0.884 OA 
HETATM   11  H   UNL     1     -13.516  16.270  74.605  1.00  0.00     0.000 HD 
ENDBRANCH   5   9
BRANCH   7  12
HETATM   12  N   UNL     1     -10.488  15.840  69.332  1.00  0.00    -0.236 NA 
HETATM   13  C   UNL     1      -9.412  15.133  69.797  1.00  0.00    -0.032 A  
HETATM   14  N   UNL     1      -8.270  15.629  69.365  1.00  0.00    -0.249 NA 
HETATM   15  C   UNL     1      -8.627  16.697  68.571  1.00  0.00    -0.234 A  
HETATM   16  C   UNL     1      -7.873  17.605  67.808  1.00  0.00    -0.210 A  
HETATM   17  N   UNL     1      -6.491  17.539  67.704  1.00  0.00    -0.148 NA 
HETATM   18  N   UNL     1      -8.519  18.591  67.149  1.00  0.00    -0.260 NA 
HETATM   19  H1  UNL     1      -5.943  18.198  67.150  1.00  0.00     0.000 HD 
HETATM   20  C   UNL     1      -9.865  18.623  67.234  1.00  0.00    -0.318 A  
HETATM   21  H2  UNL     1      -6.253  16.600  67.384  1.00  0.00     0.000 HD 
HETATM   22 CL   UNL     1     -10.622  19.896  66.376  1.00  0.00    -0.571 Cl 
HETATM   23  N   UNL     1     -10.702  17.808  67.912  1.00  0.00    -0.372 NA 
HETATM   24  C   UNL     1     -10.004  16.861  68.559  1.00  0.00    -0.275 A  
ENDBRANCH   7  12
TORSDOF 2
ENDMDL
MODEL       62
REMARK 921   NORMALIZED FREE ENERGY PREDICTED BY IDOCK:   -5.29 KCAL/MOL
REMARK 922        TOTAL FREE ENERGY PREDICTED BY IDOCK:   -6.42 KCAL/MOL
REMARK 923 INTER-LIGAND FREE ENERGY PREDICTED BY IDOCK:   -5.78 KCAL/MOL
REMARK 924 INTRA-LIGAND FREE ENERGY PREDICTED BY IDOCK:   -0.64 KCAL/MOL
REMARK 927      BINDING AFFINITY PREDICTED BY RF-SCORE:    0.00 PKD
ROOT
HETATM    1  C   UNL     1      -8.628  16.154  66.632  1.00  0.00    -0.276 C  
HETATM    2  F   UNL     1      -9.241  15.361  65.724  1.00  0.00    -0.343 F  
HETATM    3  C   UNL     1      -9.317  17.502  66.719  1.00  0.00    -0.265 C  
HETATM    4  O   UNL     1      -8.904  18.435  65.724  1.00  0.00    -0.433 OA 
HETATM    5  C   UNL     1      -8.908  17.951  68.117  1.00  0.00    -0.265 C  
HETATM    6  O   UNL     1      -8.913  16.763  68.938  1.00  0.00    -0.255 OA 
HETATM    7  C   UNL     1      -8.727  15.623  68.060  1.00  0.00    -0.167 C  
HETATM    8  H   UNL     1      -9.337  19.280  65.779  1.00  0.00     0.000 HD 
ENDROOT
BRANCH   5   9
HETATM    9  C   UNL     1      -9.816  19.026  68.713  1.00  0.00    -0.425 C  
HETATM   10  O   UNL     1     -10.538  19.713  67.695  1.00  0.00    -0.437 OA 
HETATM   11  H   UNL     1     -11.102  20.381  68.066  1.00  0.00     0.000 HD 
ENDBRANCH   5   9
BRANCH   7  12
HETATM   12  N   UNL     1      -9.804  14.676  68.271  1.00  0.00    -0.216 NA 
HETATM   13  C   UNL     1     -11.136  14.945  68.433  1.00  0.00    -0.273 A  
HETATM   14  N   UNL     1     -11.852  13.847  68.556  1.00  0.00    -0.351 NA 
HETATM   15  C   UNL     1     -10.940  12.818  68.453  1.00  0.00    -0.254 A  
HETATM   16  C   UNL     1     -11.082  11.420  68.474  1.00  0.00    -0.235 A  
HETATM   17  N   UNL     1     -12.311  10.787  68.587  1.00  0.00    -0.786 NA 
HETATM   18  N   UNL     1      -9.972  10.655  68.386  1.00  0.00    -0.158 NA 
HETATM   19  H1  UNL     1     -12.414   9.772  68.603  1.00  0.00     0.000 HD 
HETATM   20  C   UNL     1      -8.788  11.285  68.245  1.00  0.00    -0.158 A  
HETATM   21  H2  UNL     1     -12.908  11.143  67.840  1.00  0.00     0.000 HD 
HETATM   22 CL   UNL     1      -7.421  10.258  68.139  1.00  0.00    -0.085 Cl 
HETATM   23  N   UNL     1      -8.519  12.607  68.194  1.00  0.00    -0.172 NA 
HETATM   24  C   UNL     1      -9.655  13.316  68.302  1.00  0.00    -0.221 A  
ENDBRANCH   7  12
TORSDOF 2
ENDMDL
MODEL       63
REMARK 921   NORMALIZED FREE ENERGY PREDICTED BY IDOCK:   -5.28 KCAL/MOL
REMARK 922        TOTAL FREE ENERGY PREDICTED BY IDOCK:   -6.40 KCAL/MOL
REMARK 923 INTER-LIGAND FREE ENERGY PREDICTED BY IDOCK:   -5.89 KCAL/MOL
REMARK 924 INTRA-LIGAND FREE ENERGY PREDICTED BY IDOCK:   -0.51 KCAL/MOL
REMARK 927      BINDING AFFINITY PREDICTED BY RF-SCORE:    0.00 PKD
ROOT
HETATM    1  C   UNL     1      -9.668  14.440  65.923  1.00  0.00    -0.276 C  
HETATM    2  F   UNL     1      -8.580  15.154  66.291  1.00  0.00    -0.302 F  
HETATM    3  C   UNL     1      -9.678  13.086  66.607  1.00  0.00    -0.256 C  
HETATM    4  O   UNL     1      -8.888  12.096  65.953  1.00  0.00    -0.413 OA 
HETATM    5  C   UNL     1     -11.162  12.745  66.561  1.00  0.00    -0.307 C  
HETATM    6  O   UNL     1     -11.867  13.986  66.777  1.00  0.00    -0.380 OA 
HETATM    7  C   UNL     1     -10.983  15.066  66.381  1.00  0.00    -0.336 C  
HETATM    8  H   UNL     1      -8.894  11.247  66.381  1.00  0.00     0.000 HD 
ENDROOT
BRANCH   5   9
HETATM    9  C   UNL     1     -11.588  11.694  67.585  1.00  0.00    -0.279 C  
HETATM   10  O   UNL     1     -11.897  12.294  68.840  1.00  0.00    -0.305 OA 
HETATM   11  H   UNL     1     -12.162  11.640  69.477  1.00  0.00     0.000 HD 
ENDBRANCH   5   9
BRANCH   7  12
HETATM   12  N   UNL     1     -10.848  16.001  67.480  1.00  0.00    -0.313 NA 
HETATM   13  C   UNL     1     -10.838  15.722  68.820  1.00  0.00    -0.274 A  
HETATM   14  N   UNL     1     -10.648  16.803  69.549  1.00  0.00    -0.320 NA 
HETATM   15  C   UNL     1     -10.514  17.826  68.636  1.00  0.00    -0.292 A  
HETATM   16  C   UNL     1     -10.266  19.202  68.782  1.00  0.00    -0.288 A  
HETATM   17  N   UNL     1     -10.066  19.806  70.014  1.00  0.00    -0.248 NA 
HETATM   18  N   UNL     1     -10.224  19.974  67.675  1.00  0.00    -0.414 NA 
HETATM   19  H1  UNL     1      -9.885  20.805  70.121  1.00  0.00     0.000 HD 
HETATM   20  C   UNL     1     -10.388  19.367  66.482  1.00  0.00    -0.469 A  
HETATM   21  H2  UNL     1      -9.307  19.307  70.480  1.00  0.00     0.000 HD 
HETATM   22 CL   UNL     1     -10.324  20.402  65.119  1.00  0.00     0.147 Cl 
HETATM   23  N   UNL     1     -10.615  18.064  66.205  1.00  0.00    -0.314 NA 
HETATM   24  C   UNL     1     -10.662  17.351  67.341  1.00  0.00    -0.251 A  
ENDBRANCH   7  12
TORSDOF 2
ENDMDL
MODEL       64
REMARK 921   NORMALIZED FREE ENERGY PREDICTED BY IDOCK:   -5.24 KCAL/MOL
REMARK 922        TOTAL FREE ENERGY PREDICTED BY IDOCK:   -6.36 KCAL/MOL
REMARK 923 INTER-LIGAND FREE ENERGY PREDICTED BY IDOCK:   -6.16 KCAL/MOL
REMARK 924 INTRA-LIGAND FREE ENERGY PREDICTED BY IDOCK:   -0.20 KCAL/MOL
REMARK 927      BINDING AFFINITY PREDICTED BY RF-SCORE:    0.00 PKD
ROOT
HETATM    1  C   UNL     1      -8.478  11.082  66.457  1.00  0.00    -0.161 C  
HETATM    2  F   UNL     1      -8.598  11.351  65.137  1.00  0.00    -0.084 F  
HETATM    3  C   UNL     1      -7.067  11.368  66.936  1.00  0.00    -0.142 C  
HETATM    4  O   UNL     1      -6.144  10.307  66.703  1.00  0.00    -0.058 OA 
HETATM    5  C   UNL     1      -7.303  11.594  68.424  1.00  0.00    -0.096 C  
HETATM    6  O   UNL     1      -8.562  12.291  68.531  1.00  0.00    -0.150 OA 
HETATM    7  C   UNL     1      -9.331  11.991  67.338  1.00  0.00    -0.178 C  
HETATM    8  H   UNL     1      -5.261  10.486  67.003  1.00  0.00     0.000 HD 
ENDROOT
BRANCH   5   9
HETATM    9  C   UNL     1      -6.189  12.378  69.117  1.00  0.00    -0.090 C  
HETATM   10  O   UNL     1      -6.635  12.920  70.356  1.00  0.00    -0.391 OA 
HETATM   11  H   UNL     1      -5.942  13.408  70.787  1.00  0.00     0.000 HD 
ENDBRANCH   5   9
BRANCH   7  12
HETATM   12  N   UNL     1      -9.733  13.230  66.703  1.00  0.00    -0.263 NA 
HETATM   13  C   UNL     1      -9.229  14.484  66.921  1.00  0.00    -0.250 A  
HETATM   14  N   UNL     1      -9.787  15.385  66.139  1.00  0.00    -0.288 NA 
HETATM   15  C   UNL     1     -10.684  14.677  65.369  1.00  0.00    -0.369 A  
HETATM   16  C   UNL     1     -11.557  15.060  64.336  1.00  0.00    -0.276 A  
HETATM   17  N   UNL     1     -11.638  16.360  63.859  1.00  0.00    -1.602 NA 
HETATM   18  N   UNL     1     -12.360  14.123  63.785  1.00  0.00    -0.759 NA 
HETATM   19  H1  UNL     1     -12.271  16.638  63.109  1.00  0.00     0.000 HD 
HETATM   20  C   UNL     1     -12.247  12.858  64.238  1.00  0.00    -0.410 A  
HETATM   21  H2  UNL     1     -10.697  16.644  63.584  1.00  0.00     0.000 HD 
HETATM   22 CL   UNL     1     -13.291  11.721  63.498  1.00  0.00     0.004 Cl 
HETATM   23  N   UNL     1     -11.444  12.360  65.203  1.00  0.00    -0.323 NA 
HETATM   24  C   UNL     1     -10.684  13.336  65.724  1.00  0.00    -0.277 A  
ENDBRANCH   7  12
TORSDOF 2
ENDMDL
MODEL       65
REMARK 921   NORMALIZED FREE ENERGY PREDICTED BY IDOCK:   -5.24 KCAL/MOL
REMARK 922        TOTAL FREE ENERGY PREDICTED BY IDOCK:   -6.36 KCAL/MOL
REMARK 923 INTER-LIGAND FREE ENERGY PREDICTED BY IDOCK:   -6.43 KCAL/MOL
REMARK 924 INTRA-LIGAND FREE ENERGY PREDICTED BY IDOCK:    0.08 KCAL/MOL
REMARK 927      BINDING AFFINITY PREDICTED BY RF-SCORE:    0.00 PKD
ROOT
HETATM    1  C   UNL     1     -10.121   9.899  67.169  1.00  0.00    -0.215 C  
HETATM    2  F   UNL     1     -11.018   8.904  66.986  1.00  0.00    -0.307 F  
HETATM    3  C   UNL     1     -10.735  11.244  66.830  1.00  0.00    -0.273 C  
HETATM    4  O   UNL     1     -10.709  11.565  65.442  1.00  0.00    -0.280 OA 
HETATM    5  C   UNL     1      -9.852  12.183  67.643  1.00  0.00    -0.194 C  
HETATM    6  O   UNL     1      -9.560  11.493  68.877  1.00  0.00    -0.146 OA 
HETATM    7  C   UNL     1      -9.700  10.071  68.626  1.00  0.00    -0.159 C  
HETATM    8  H   UNL     1     -11.094  12.408  65.230  1.00  0.00     0.000 HD 
ENDROOT
BRANCH   5   9
HETATM    9  C   UNL     1     -10.487  13.545  67.921  1.00  0.00    -0.250 C  
HETATM   10  O   UNL     1     -11.903  13.438  68.042  1.00  0.00    -0.337 OA 
HETATM   11  H   UNL     1     -12.297  14.285  68.215  1.00  0.00     0.000 HD 
ENDBRANCH   5   9
BRANCH   7  12
HETATM   12  N   UNL     1     -10.627   9.505  69.586  1.00  0.00    -0.218 NA 
HETATM   13  C   UNL     1     -10.758   8.193  69.950  1.00  0.00    -0.241 A  
HETATM   14  N   UNL     1     -11.668   8.027  70.889  1.00  0.00    -0.279 NA 
HETATM   15  C   UNL     1     -12.135   9.296  71.155  1.00  0.00    -0.316 A  
HETATM   16  C   UNL     1     -13.084   9.785  72.069  1.00  0.00    -0.452 A  
HETATM   17  N   UNL     1     -13.754   8.971  72.970  1.00  0.00    -1.040 NA 
HETATM   18  N   UNL     1     -13.362  11.107  72.070  1.00  0.00    -0.401 NA 
HETATM   19  H1  UNL     1     -14.442   9.326  73.634  1.00  0.00     0.000 HD 
HETATM   20  C   UNL     1     -12.679  11.890  71.210  1.00  0.00    -0.298 A  
HETATM   21  H2  UNL     1     -13.049   8.461  73.504  1.00  0.00     0.000 HD 
HETATM   22 CL   UNL     1     -13.078  13.555  71.262  1.00  0.00    -0.371 Cl 
HETATM   23  N   UNL     1     -11.740  11.552  70.301  1.00  0.00    -0.320 NA 
HETATM   24  C   UNL     1     -11.517  10.228  70.334  1.00  0.00    -0.335 A  
ENDBRANCH   7  12
TORSDOF 2
ENDMDL
MODEL       66
REMARK 921   NORMALIZED FREE ENERGY PREDICTED BY IDOCK:   -5.21 KCAL/MOL
REMARK 922        TOTAL FREE ENERGY PREDICTED BY IDOCK:   -6.33 KCAL/MOL
REMARK 923 INTER-LIGAND FREE ENERGY PREDICTED BY IDOCK:   -6.02 KCAL/MOL
REMARK 924 INTRA-LIGAND FREE ENERGY PREDICTED BY IDOCK:   -0.31 KCAL/MOL
REMARK 927      BINDING AFFINITY PREDICTED BY RF-SCORE:    0.00 PKD
ROOT
HETATM    1  C   UNL     1      -8.824  11.751  67.832  1.00  0.00    -0.165 C  
HETATM    2  F   UNL     1      -8.152  11.088  68.801  1.00  0.00    -0.117 F  
HETATM    3  C   UNL     1      -8.692  11.034  66.502  1.00  0.00    -0.168 C  
HETATM    4  O   UNL     1      -7.495  11.340  65.790  1.00  0.00    -0.368 OA 
HETATM    5  C   UNL     1      -9.928  11.541  65.771  1.00  0.00    -0.233 C  
HETATM    6  O   UNL     1     -10.972  11.634  66.764  1.00  0.00    -0.264 OA 
HETATM    7  C   UNL     1     -10.333  11.780  68.058  1.00  0.00    -0.198 C  
HETATM    8  H   UNL     1      -7.413  10.891  64.956  1.00  0.00     0.000 HD 
ENDROOT
BRANCH   5   9
HETATM    9  C   UNL     1     -10.367  10.655  64.606  1.00  0.00    -0.283 C  
HETATM   10  O   UNL     1      -9.326   9.762  64.218  1.00  0.00    -0.315 OA 
HETATM   11  H   UNL     1      -9.599   9.211  63.493  1.00  0.00     0.000 HD 
ENDBRANCH   5   9
BRANCH   7  12
HETATM   12  N   UNL     1     -10.824  10.750  68.952  1.00  0.00    -0.210 NA 
HETATM   13  C   UNL     1     -10.516   9.417  68.942  1.00  0.00    -0.216 A  
HETATM   14  N   UNL     1     -11.100   8.766  69.927  1.00  0.00    -0.180 NA 
HETATM   15  C   UNL     1     -11.806   9.728  70.616  1.00  0.00    -0.281 A  
HETATM   16  C   UNL     1     -12.603   9.674  71.772  1.00  0.00    -0.409 A  
HETATM   17  N   UNL     1     -12.802   8.509  72.499  1.00  0.00    -0.579 NA 
HETATM   18  N   UNL     1     -13.210  10.805  72.195  1.00  0.00    -0.402 NA 
HETATM   19  H1  UNL     1     -13.381   8.469  73.338  1.00  0.00     0.000 HD 
HETATM   20  C   UNL     1     -12.981  11.936  71.497  1.00  0.00    -0.323 A  
HETATM   21  H2  UNL     1     -11.882   8.141  72.744  1.00  0.00     0.000 HD 
HETATM   22 CL   UNL     1     -13.778  13.332  72.086  1.00  0.00    -0.621 Cl 
HETATM   23  N   UNL     1     -12.230  12.125  70.391  1.00  0.00    -0.330 NA 
HETATM   24  C   UNL     1     -11.667  10.967  70.009  1.00  0.00    -0.355 A  
ENDBRANCH   7  12
TORSDOF 2
ENDMDL
MODEL       67
REMARK 921   NORMALIZED FREE ENERGY PREDICTED BY IDOCK:   -5.16 KCAL/MOL
REMARK 922        TOTAL FREE ENERGY PREDICTED BY IDOCK:   -6.27 KCAL/MOL
REMARK 923 INTER-LIGAND FREE ENERGY PREDICTED BY IDOCK:   -6.16 KCAL/MOL
REMARK 924 INTRA-LIGAND FREE ENERGY PREDICTED BY IDOCK:   -0.11 KCAL/MOL
REMARK 927      BINDING AFFINITY PREDICTED BY RF-SCORE:    0.00 PKD
ROOT
HETATM    1  C   UNL     1     -10.963  11.424  66.461  1.00  0.00    -0.272 C  
HETATM    2  F   UNL     1     -11.750  12.500  66.235  1.00  0.00    -0.372 F  
HETATM    3  C   UNL     1      -9.504  11.767  66.224  1.00  0.00    -0.224 C  
HETATM    4  O   UNL     1      -9.101  11.692  64.858  1.00  0.00    -0.417 OA 
HETATM    5  C   UNL     1      -8.812  10.710  67.075  1.00  0.00    -0.137 C  
HETATM    6  O   UNL     1      -9.628  10.546  68.254  1.00  0.00    -0.150 OA 
HETATM    7  C   UNL     1     -10.975  10.963  67.916  1.00  0.00    -0.271 C  
HETATM    8  H   UNL     1      -8.188  11.907  64.710  1.00  0.00     0.000 HD 
ENDROOT
BRANCH   5   9
HETATM    9  C   UNL     1      -7.375  11.063  67.455  1.00  0.00    -0.105 C  
HETATM   10  O   UNL     1      -7.045  12.387  67.044  1.00  0.00    -0.323 OA 
HETATM   11  H   UNL     1      -6.151  12.607  67.281  1.00  0.00     0.000 HD 
ENDBRANCH   5   9
BRANCH   7  12
HETATM   12  N   UNL     1     -11.413  11.973  68.859  1.00  0.00    -0.275 NA 
HETATM   13  C   UNL     1     -11.277  13.331  68.754  1.00  0.00    -0.276 A  
HETATM   14  N   UNL     1     -11.832  13.964  69.767  1.00  0.00    -0.309 NA 
HETATM   15  C   UNL     1     -12.366  12.968  70.556  1.00  0.00    -0.287 A  
HETATM   16  C   UNL     1     -13.104  12.998  71.752  1.00  0.00    -0.373 A  
HETATM   17  N   UNL     1     -13.475  14.177  72.381  1.00  0.00    -0.473 NA 
HETATM   18  N   UNL     1     -13.465  11.827  72.320  1.00  0.00    -0.275 NA 
HETATM   19  H1  UNL     1     -14.011  14.199  73.249  1.00  0.00     0.000 HD 
HETATM   20  C   UNL     1     -13.124  10.690  71.680  1.00  0.00    -0.450 A  
HETATM   21  H2  UNL     1     -13.979  14.743  71.697  1.00  0.00     0.000 HD 
HETATM   22 CL   UNL     1     -13.612   9.241  72.453  1.00  0.00    -0.525 Cl 
HETATM   23  N   UNL     1     -12.438  10.525  70.529  1.00  0.00    -0.335 NA 
HETATM   24  C   UNL     1     -12.093  11.718  70.020  1.00  0.00    -0.310 A  
ENDBRANCH   7  12
TORSDOF 2
ENDMDL
MODEL       68
REMARK 921   NORMALIZED FREE ENERGY PREDICTED BY IDOCK:   -5.15 KCAL/MOL
REMARK 922        TOTAL FREE ENERGY PREDICTED BY IDOCK:   -6.26 KCAL/MOL
REMARK 923 INTER-LIGAND FREE ENERGY PREDICTED BY IDOCK:   -6.38 KCAL/MOL
REMARK 924 INTRA-LIGAND FREE ENERGY PREDICTED BY IDOCK:    0.13 KCAL/MOL
REMARK 927      BINDING AFFINITY PREDICTED BY RF-SCORE:    0.00 PKD
ROOT
HETATM    1  C   UNL     1     -10.991  11.478  64.783  1.00  0.00    -0.273 C  
HETATM    2  F   UNL     1     -10.099  11.905  63.860  1.00  0.00    -0.291 F  
HETATM    3  C   UNL     1     -10.278  10.859  65.971  1.00  0.00    -0.254 C  
HETATM    4  O   UNL     1      -9.915   9.493  65.787  1.00  0.00    -0.300 OA 
HETATM    5  C   UNL     1     -11.330  11.021  67.061  1.00  0.00    -0.085 C  
HETATM    6  O   UNL     1     -11.965  12.295  66.821  1.00  0.00    -0.586 OA 
HETATM    7  C   UNL     1     -11.792  12.613  65.416  1.00  0.00    -0.427 C  
HETATM    8  H   UNL     1      -9.469   9.106  66.531  1.00  0.00     0.000 HD 
ENDROOT
BRANCH   5   9
HETATM    9  C   UNL     1     -10.768  10.955  68.480  1.00  0.00    -0.204 C  
HETATM   10  O   UNL     1     -10.507  12.259  68.992  1.00  0.00    -0.392 OA 
HETATM   11  H   UNL     1     -10.157  12.218  69.874  1.00  0.00     0.000 HD 
ENDBRANCH   5   9
BRANCH   7  12
HETATM   12  N   UNL     1     -11.177  13.919  65.293  1.00  0.00    -0.304 NA 
HETATM   13  C   UNL     1     -11.634  14.997  64.583  1.00  0.00    -0.386 A  
HETATM   14  N   UNL     1     -10.856  16.050  64.725  1.00  0.00    -0.629 NA 
HETATM   15  C   UNL     1      -9.857  15.638  65.580  1.00  0.00    -0.333 A  
HETATM   16  C   UNL     1      -8.751  16.302  66.137  1.00  0.00    -0.318 A  
HETATM   17  N   UNL     1      -8.479  17.643  65.904  1.00  0.00    -0.537 NA 
HETATM   18  N   UNL     1      -7.908  15.606  66.931  1.00  0.00    -0.233 NA 
HETATM   19  H1  UNL     1      -7.676  18.125  66.308  1.00  0.00     0.000 HD 
HETATM   20  C   UNL     1      -8.203  14.313  67.173  1.00  0.00    -0.160 A  
HETATM   21  H2  UNL     1      -9.314  18.172  66.159  1.00  0.00     0.000 HD 
HETATM   22 CL   UNL     1      -7.097  13.488  68.187  1.00  0.00    -0.101 Cl 
HETATM   23  N   UNL     1      -9.233  13.567  66.719  1.00  0.00    -0.251 NA 
HETATM   24  C   UNL     1     -10.025  14.305  65.925  1.00  0.00    -0.319 A  
ENDBRANCH   7  12
TORSDOF 2
ENDMDL
MODEL       69
REMARK 921   NORMALIZED FREE ENERGY PREDICTED BY IDOCK:   -5.14 KCAL/MOL
REMARK 922        TOTAL FREE ENERGY PREDICTED BY IDOCK:   -6.25 KCAL/MOL
REMARK 923 INTER-LIGAND FREE ENERGY PREDICTED BY IDOCK:   -6.66 KCAL/MOL
REMARK 924 INTRA-LIGAND FREE ENERGY PREDICTED BY IDOCK:    0.40 KCAL/MOL
REMARK 927      BINDING AFFINITY PREDICTED BY RF-SCORE:    0.00 PKD
ROOT
HETATM    1  C   UNL     1      -9.334  14.734  67.725  1.00  0.00    -0.199 C  
HETATM    2  F   UNL     1      -8.828  14.758  68.979  1.00  0.00    -0.178 F  
HETATM    3  C   UNL     1      -9.316  13.323  67.167  1.00  0.00    -0.240 C  
HETATM    4  O   UNL     1      -8.066  12.935  66.600  1.00  0.00    -0.401 OA 
HETATM    5  C   UNL     1     -10.411  13.410  66.112  1.00  0.00    -0.295 C  
HETATM    6  O   UNL     1     -11.438  14.259  66.668  1.00  0.00    -0.336 OA 
HETATM    7  C   UNL     1     -10.812  15.108  67.664  1.00  0.00    -0.295 C  
HETATM    8  H   UNL     1      -8.055  12.051  66.251  1.00  0.00     0.000 HD 
ENDROOT
BRANCH   5   9
HETATM    9  C   UNL     1     -10.989  12.055  65.705  1.00  0.00    -0.297 C  
HETATM   10  O   UNL     1     -12.411  12.106  65.625  1.00  0.00    -0.560 OA 
HETATM   11  H   UNL     1     -12.770  11.263  65.372  1.00  0.00     0.000 HD 
ENDBRANCH   5   9
BRANCH   7  12
HETATM   12  N   UNL     1     -11.517  14.967  68.923  1.00  0.00    -0.297 NA 
HETATM   13  C   UNL     1     -12.059  15.959  69.694  1.00  0.00    -0.201 A  
HETATM   14  N   UNL     1     -12.674  15.480  70.756  1.00  0.00    -0.456 NA 
HETATM   15  C   UNL     1     -12.536  14.113  70.657  1.00  0.00    -0.362 A  
HETATM   16  C   UNL     1     -12.994  13.052  71.459  1.00  0.00    -0.305 A  
HETATM   17  N   UNL     1     -13.771  13.243  72.591  1.00  0.00    -0.695 NA 
HETATM   18  N   UNL     1     -12.659  11.789  71.116  1.00  0.00    -0.361 NA 
HETATM   19  H1  UNL     1     -14.104  12.474  73.173  1.00  0.00     0.000 HD 
HETATM   20  C   UNL     1     -11.929  11.618  69.995  1.00  0.00    -0.351 A  
HETATM   21  H2  UNL     1     -14.587  13.791  72.314  1.00  0.00     0.000 HD 
HETATM   22 CL   UNL     1     -11.539   9.994  69.617  1.00  0.00    -0.201 Cl 
HETATM   23  N   UNL     1     -11.445  12.541  69.136  1.00  0.00    -0.288 NA 
HETATM   24  C   UNL     1     -11.795  13.774  69.535  1.00  0.00    -0.339 A  
ENDBRANCH   7  12
TORSDOF 2
ENDMDL
MODEL       70
REMARK 921   NORMALIZED FREE ENERGY PREDICTED BY IDOCK:   -5.14 KCAL/MOL
REMARK 922        TOTAL FREE ENERGY PREDICTED BY IDOCK:   -6.25 KCAL/MOL
REMARK 923 INTER-LIGAND FREE ENERGY PREDICTED BY IDOCK:   -6.40 KCAL/MOL
REMARK 924 INTRA-LIGAND FREE ENERGY PREDICTED BY IDOCK:    0.15 KCAL/MOL
REMARK 927      BINDING AFFINITY PREDICTED BY RF-SCORE:    0.00 PKD
ROOT
HETATM    1  C   UNL     1      -8.930  10.159  68.732  1.00  0.00    -0.147 C  
HETATM    2  F   UNL     1      -8.582  10.331  70.027  1.00  0.00    -0.191 F  
HETATM    3  C   UNL     1      -8.786   8.704  68.327  1.00  0.00    -0.142 C  
HETATM    4  O   UNL     1      -7.463   8.330  67.953  1.00  0.00    -0.094 OA 
HETATM    5  C   UNL     1      -9.748   8.631  67.147  1.00  0.00    -0.190 C  
HETATM    6  O   UNL     1     -10.869   9.474  67.490  1.00  0.00    -0.280 OA 
HETATM    7  C   UNL     1     -10.404  10.447  68.460  1.00  0.00    -0.176 C  
HETATM    8  H   UNL     1      -7.373   7.418  67.699  1.00  0.00     0.000 HD 
ENDROOT
BRANCH   5   9
HETATM    9  C   UNL     1     -10.216   7.215  66.816  1.00  0.00    -0.219 C  
HETATM   10  O   UNL     1     -11.469   6.930  67.431  1.00  0.00    -0.666 OA 
HETATM   11  H   UNL     1     -11.760   6.049  67.225  1.00  0.00     0.000 HD 
ENDBRANCH   5   9
BRANCH   7  12
HETATM   12  N   UNL     1     -11.250  10.391  69.635  1.00  0.00    -0.259 NA 
HETATM   13  C   UNL     1     -11.958  11.414  70.207  1.00  0.00    -0.373 A  
HETATM   14  N   UNL     1     -12.666  11.009  71.241  1.00  0.00    -0.417 NA 
HETATM   15  C   UNL     1     -12.415   9.657  71.333  1.00  0.00    -0.373 A  
HETATM   16  C   UNL     1     -12.892   8.661  72.202  1.00  0.00    -0.391 A  
HETATM   17  N   UNL     1     -13.819   8.912  73.203  1.00  0.00    -1.176 NA 
HETATM   18  N   UNL     1     -12.423   7.401  72.064  1.00  0.00    -0.279 NA 
HETATM   19  H1  UNL     1     -14.165   8.189  73.834  1.00  0.00     0.000 HD 
HETATM   20  C   UNL     1     -11.546   7.166  71.066  1.00  0.00    -0.309 A  
HETATM   21  H2  UNL     1     -14.630   9.348  72.765  1.00  0.00     0.000 HD 
HETATM   22 CL   UNL     1     -10.992   5.551  70.945  1.00  0.00    -0.254 Cl 
HETATM   23  N   UNL     1     -11.027   8.023  70.160  1.00  0.00    -0.246 NA 
HETATM   24  C   UNL     1     -11.514   9.258  70.357  1.00  0.00    -0.213 A  
ENDBRANCH   7  12
TORSDOF 2
ENDMDL
MODEL       71
REMARK 921   NORMALIZED FREE ENERGY PREDICTED BY IDOCK:   -5.14 KCAL/MOL
REMARK 922        TOTAL FREE ENERGY PREDICTED BY IDOCK:   -6.25 KCAL/MOL
REMARK 923 INTER-LIGAND FREE ENERGY PREDICTED BY IDOCK:   -5.63 KCAL/MOL
REMARK 924 INTRA-LIGAND FREE ENERGY PREDICTED BY IDOCK:   -0.62 KCAL/MOL
REMARK 927      BINDING AFFINITY PREDICTED BY RF-SCORE:    0.00 PKD
ROOT
HETATM    1  C   UNL     1      -8.428   8.639  69.745  1.00  0.00    -0.129 C  
HETATM    2  F   UNL     1      -8.423   8.740  71.093  1.00  0.00    -0.142 F  
HETATM    3  C   UNL     1      -7.963   7.263  69.308  1.00  0.00    -0.118 C  
HETATM    4  O   UNL     1      -6.546   7.117  69.248  1.00  0.00    -0.042 OA 
HETATM    5  C   UNL     1      -8.599   7.163  67.927  1.00  0.00    -0.123 C  
HETATM    6  O   UNL     1      -9.889   7.803  68.032  1.00  0.00    -0.153 OA 
HETATM    7  C   UNL     1      -9.825   8.739  69.138  1.00  0.00    -0.181 C  
HETATM    8  H   UNL     1      -6.255   6.255  68.974  1.00  0.00     0.000 HD 
ENDROOT
BRANCH   5   9
HETATM    9  C   UNL     1      -8.744   5.731  67.414  1.00  0.00    -0.107 C  
HETATM   10  O   UNL     1      -7.551   4.983  67.629  1.00  0.00    -0.085 OA 
HETATM   11  H   UNL     1      -7.642   4.093  67.310  1.00  0.00     0.000 HD 
ENDBRANCH   5   9
BRANCH   7  12
HETATM   12  N   UNL     1     -10.901   8.455  70.067  1.00  0.00    -0.240 NA 
HETATM   13  C   UNL     1     -11.301   7.234  70.536  1.00  0.00    -0.280 A  
HETATM   14  N   UNL     1     -12.283   7.336  71.409  1.00  0.00    -0.330 NA 
HETATM   15  C   UNL     1     -12.517   8.689  71.520  1.00  0.00    -0.323 A  
HETATM   16  C   UNL     1     -13.411   9.436  72.307  1.00  0.00    -0.461 A  
HETATM   17  N   UNL     1     -14.278   8.856  73.221  1.00  0.00    -1.237 NA 
HETATM   18  N   UNL     1     -13.432  10.779  72.166  1.00  0.00    -0.280 NA 
HETATM   19  H1  UNL     1     -14.927   9.398  73.792  1.00  0.00     0.000 HD 
HETATM   20  C   UNL     1     -12.561  11.331  71.297  1.00  0.00    -0.382 A  
HETATM   21  H2  UNL     1     -13.718   8.284  73.854  1.00  0.00     0.000 HD 
HETATM   22 CL   UNL     1     -12.639  13.036  71.165  1.00  0.00    -0.440 Cl 
HETATM   23  N   UNL     1     -11.647  10.734  70.501  1.00  0.00    -0.332 NA 
HETATM   24  C   UNL     1     -11.683   9.403  70.672  1.00  0.00    -0.240 A  
ENDBRANCH   7  12
TORSDOF 2
ENDMDL
MODEL       72
REMARK 921   NORMALIZED FREE ENERGY PREDICTED BY IDOCK:   -5.13 KCAL/MOL
REMARK 922        TOTAL FREE ENERGY PREDICTED BY IDOCK:   -6.24 KCAL/MOL
REMARK 923 INTER-LIGAND FREE ENERGY PREDICTED BY IDOCK:   -6.14 KCAL/MOL
REMARK 924 INTRA-LIGAND FREE ENERGY PREDICTED BY IDOCK:   -0.10 KCAL/MOL
REMARK 927      BINDING AFFINITY PREDICTED BY RF-SCORE:    0.00 PKD
ROOT
HETATM    1  C   UNL     1     -11.971  13.470  64.145  1.00  0.00    -0.448 C  
HETATM    2  F   UNL     1     -12.586  12.424  63.549  1.00  0.00    -0.543 F  
HETATM    3  C   UNL     1     -12.584  13.750  65.505  1.00  0.00    -0.512 C  
HETATM    4  O   UNL     1     -13.762  14.552  65.461  1.00  0.00    -0.367 OA 
HETATM    5  C   UNL     1     -11.437  14.469  66.202  1.00  0.00    -0.357 C  
HETATM    6  O   UNL     1     -10.226  13.820  65.759  1.00  0.00    -0.294 OA 
HETATM    7  C   UNL     1     -10.506  13.198  64.478  1.00  0.00    -0.405 C  
HETATM    8  H   UNL     1     -14.145  14.726  66.312  1.00  0.00     0.000 HD 
ENDROOT
BRANCH   5   9
HETATM    9  C   UNL     1     -11.532  14.456  67.727  1.00  0.00    -0.336 C  
HETATM   10  O   UNL     1     -12.615  13.642  68.168  1.00  0.00    -0.181 OA 
HETATM   11  H   UNL     1     -12.674  13.634  69.116  1.00  0.00     0.000 HD 
ENDBRANCH   5   9
BRANCH   7  12
HETATM   12  N   UNL     1     -10.160  11.793  64.543  1.00  0.00    -0.265 NA 
HETATM   13  C   UNL     1      -9.478  11.055  63.614  1.00  0.00    -0.272 A  
HETATM   14  N   UNL     1      -9.289   9.813  64.009  1.00  0.00    -0.228 NA 
HETATM   15  C   UNL     1      -9.863   9.749  65.261  1.00  0.00    -0.265 A  
HETATM   16  C   UNL     1      -9.965   8.715  66.207  1.00  0.00    -0.217 A  
HETATM   17  N   UNL     1      -9.412   7.457  66.013  1.00  0.00    -0.403 NA 
HETATM   18  N   UNL     1     -10.635   8.951  67.356  1.00  0.00    -0.273 NA 
HETATM   19  H1  UNL     1      -9.486   6.706  66.700  1.00  0.00     0.000 HD 
HETATM   20  C   UNL     1     -11.139  10.188  67.543  1.00  0.00    -0.181 A  
HETATM   21  H2  UNL     1      -8.421   7.587  65.808  1.00  0.00     0.000 HD 
HETATM   22 CL   UNL     1     -11.975  10.421  69.019  1.00  0.00    -0.111 Cl 
HETATM   23  N   UNL     1     -11.096  11.265  66.730  1.00  0.00    -0.278 NA 
HETATM   24  C   UNL     1     -10.434  10.967  65.600  1.00  0.00    -0.208 A  
ENDBRANCH   7  12
TORSDOF 2
ENDMDL
MODEL       73
REMARK 921   NORMALIZED FREE ENERGY PREDICTED BY IDOCK:   -5.09 KCAL/MOL
REMARK 922        TOTAL FREE ENERGY PREDICTED BY IDOCK:   -6.19 KCAL/MOL
REMARK 923 INTER-LIGAND FREE ENERGY PREDICTED BY IDOCK:   -6.17 KCAL/MOL
REMARK 924 INTRA-LIGAND FREE ENERGY PREDICTED BY IDOCK:   -0.02 KCAL/MOL
REMARK 927      BINDING AFFINITY PREDICTED BY RF-SCORE:    0.00 PKD
ROOT
HETATM    1  C   UNL     1     -10.134   7.628  71.637  1.00  0.00    -0.180 C  
HETATM    2  F   UNL     1      -9.139   8.528  71.807  1.00  0.00    -0.199 F  
HETATM    3  C   UNL     1     -11.300   7.938  72.557  1.00  0.00    -0.390 C  
HETATM    4  O   UNL     1     -11.153   7.428  73.880  1.00  0.00    -0.488 OA 
HETATM    5  C   UNL     1     -12.446   7.262  71.815  1.00  0.00    -0.343 C  
HETATM    6  O   UNL     1     -12.192   7.466  70.409  1.00  0.00    -0.066 OA 
HETATM    7  C   UNL     1     -10.766   7.683  70.249  1.00  0.00    -0.239 C  
HETATM    8  H   UNL     1     -11.884   7.622  74.455  1.00  0.00     0.000 HD 
ENDROOT
BRANCH   5   9
HETATM    9  C   UNL     1     -13.829   7.789  72.198  1.00  0.00    -0.112 C  
HETATM   10  O   UNL     1     -13.732   8.848  73.145  1.00  0.00    -1.009 OA 
HETATM   11  H   UNL     1     -14.592   9.176  73.383  1.00  0.00     0.000 HD 
ENDBRANCH   5   9
BRANCH   7  12
HETATM   12  N   UNL     1     -10.548   8.930  69.543  1.00  0.00    -0.232 NA 
HETATM   13  C   UNL     1      -9.794   9.135  68.420  1.00  0.00    -0.164 A  
HETATM   14  N   UNL     1      -9.849  10.384  68.007  1.00  0.00    -0.149 NA 
HETATM   15  C   UNL     1     -10.692  11.013  68.897  1.00  0.00    -0.211 A  
HETATM   16  C   UNL     1     -11.173  12.332  68.980  1.00  0.00    -0.265 A  
HETATM   17  N   UNL     1     -10.855  13.311  68.051  1.00  0.00    -0.237 NA 
HETATM   18  N   UNL     1     -11.976  12.665  70.014  1.00  0.00    -0.341 NA 
HETATM   19  H1  UNL     1     -11.203  14.268  68.110  1.00  0.00     0.000 HD 
HETATM   20  C   UNL     1     -12.302  11.694  70.891  1.00  0.00    -0.336 A  
HETATM   21  H2  UNL     1     -11.107  12.951  67.129  1.00  0.00     0.000 HD 
HETATM   22 CL   UNL     1     -13.323  12.182  72.176  1.00  0.00    -0.571 Cl 
HETATM   23  N   UNL     1     -11.926  10.397  70.916  1.00  0.00    -0.348 NA 
HETATM   24  C   UNL     1     -11.118  10.129  69.878  1.00  0.00    -0.293 A  
ENDBRANCH   7  12
TORSDOF 2
ENDMDL
MODEL       74
REMARK 921   NORMALIZED FREE ENERGY PREDICTED BY IDOCK:   -5.07 KCAL/MOL
REMARK 922        TOTAL FREE ENERGY PREDICTED BY IDOCK:   -6.17 KCAL/MOL
REMARK 923 INTER-LIGAND FREE ENERGY PREDICTED BY IDOCK:   -6.37 KCAL/MOL
REMARK 924 INTRA-LIGAND FREE ENERGY PREDICTED BY IDOCK:    0.20 KCAL/MOL
REMARK 927      BINDING AFFINITY PREDICTED BY RF-SCORE:    0.00 PKD
ROOT
HETATM    1  C   UNL     1     -12.647   8.848  72.118  1.00  0.00    -0.399 C  
HETATM    2  F   UNL     1     -13.719   9.637  71.881  1.00  0.00    -0.401 F  
HETATM    3  C   UNL     1     -12.809   7.504  71.432  1.00  0.00    -0.342 C  
HETATM    4  O   UNL     1     -13.583   6.561  72.169  1.00  0.00    -0.483 OA 
HETATM    5  C   UNL     1     -11.356   7.063  71.304  1.00  0.00    -0.274 C  
HETATM    6  O   UNL     1     -10.598   8.256  71.012  1.00  0.00    -0.199 OA 
HETATM    7  C   UNL     1     -11.354   9.389  71.513  1.00  0.00    -0.394 C  
HETATM    8  H   UNL     1     -13.685   5.720  71.739  1.00  0.00     0.000 HD 
ENDROOT
BRANCH   5   9
HETATM    9  C   UNL     1     -11.123   5.998  70.233  1.00  0.00    -0.345 C  
HETATM   10  O   UNL     1     -11.577   6.443  68.958  1.00  0.00    -0.597 OA 
HETATM   11  H   UNL     1     -11.432   5.781  68.292  1.00  0.00     0.000 HD 
ENDBRANCH   5   9
BRANCH   7  12
HETATM   12  N   UNL     1     -11.551  10.344  70.441  1.00  0.00    -0.312 NA 
HETATM   13  C   UNL     1     -12.175  11.560  70.506  1.00  0.00    -0.377 A  
HETATM   14  N   UNL     1     -12.136  12.200  69.356  1.00  0.00    -0.237 NA 
HETATM   15  C   UNL     1     -11.440  11.364  68.510  1.00  0.00    -0.297 A  
HETATM   16  C   UNL     1     -11.042  11.489  67.168  1.00  0.00    -0.297 A  
HETATM   17  N   UNL     1     -11.297  12.620  66.407  1.00  0.00    -0.313 NA 
HETATM   18  N   UNL     1     -10.386  10.460  66.588  1.00  0.00    -0.236 NA 
HETATM   19  H1  UNL     1     -11.009  12.711  65.433  1.00  0.00     0.000 HD 
HETATM   20  C   UNL     1     -10.117   9.380  67.350  1.00  0.00    -0.215 A  
HETATM   21  H2  UNL     1     -10.919  13.421  66.914  1.00  0.00     0.000 HD 
HETATM   22 CL   UNL     1      -9.284   8.114  66.555  1.00  0.00    -0.218 Cl 
HETATM   23  N   UNL     1     -10.426   9.144  68.643  1.00  0.00    -0.216 NA 
HETATM   24  C   UNL     1     -11.089  10.190  69.161  1.00  0.00    -0.212 A  
ENDBRANCH   7  12
TORSDOF 2
ENDMDL
MODEL       75
REMARK 921   NORMALIZED FREE ENERGY PREDICTED BY IDOCK:   -5.04 KCAL/MOL
REMARK 922        TOTAL FREE ENERGY PREDICTED BY IDOCK:   -6.13 KCAL/MOL
REMARK 923 INTER-LIGAND FREE ENERGY PREDICTED BY IDOCK:   -6.61 KCAL/MOL
REMARK 924 INTRA-LIGAND FREE ENERGY PREDICTED BY IDOCK:    0.47 KCAL/MOL
REMARK 927      BINDING AFFINITY PREDICTED BY RF-SCORE:    0.00 PKD
ROOT
HETATM    1  C   UNL     1     -12.232  12.686  64.890  1.00  0.00    -0.471 C  
HETATM    2  F   UNL     1     -12.765  13.892  64.587  1.00  0.00    -0.375 F  
HETATM    3  C   UNL     1     -11.753  11.981  63.634  1.00  0.00    -0.493 C  
HETATM    4  O   UNL     1     -12.777  11.278  62.933  1.00  0.00    -0.876 OA 
HETATM    5  C   UNL     1     -10.710  11.032  64.210  1.00  0.00    -0.278 C  
HETATM    6  O   UNL     1     -10.050  11.756  65.271  1.00  0.00    -0.246 OA 
HETATM    7  C   UNL     1     -10.964  12.784  65.734  1.00  0.00    -0.277 C  
HETATM    8  H   UNL     1     -12.477  10.837  62.147  1.00  0.00     0.000 HD 
ENDROOT
BRANCH   5   9
HETATM    9  C   UNL     1      -9.695  10.530  63.184  1.00  0.00    -0.305 C  
HETATM   10  O   UNL     1      -8.936  11.607  62.642  1.00  0.00    -0.577 OA 
HETATM   11  H   UNL     1      -8.305  11.294  62.004  1.00  0.00     0.000 HD 
ENDBRANCH   5   9
BRANCH   7  12
HETATM   12  N   UNL     1     -10.303  14.072  65.673  1.00  0.00    -0.315 NA 
HETATM   13  C   UNL     1     -10.737  15.207  65.042  1.00  0.00    -0.430 A  
HETATM   14  N   UNL     1      -9.917  16.220  65.225  1.00  0.00    -0.482 NA 
HETATM   15  C   UNL     1      -8.912  15.721  66.026  1.00  0.00    -0.287 A  
HETATM   16  C   UNL     1      -7.767  16.310  66.590  1.00  0.00    -0.251 A  
HETATM   17  N   UNL     1      -7.452  17.651  66.430  1.00  0.00    -0.262 NA 
HETATM   18  N   UNL     1      -6.931  15.537  67.316  1.00  0.00    -0.199 NA 
HETATM   19  H1  UNL     1      -6.621  18.079  66.840  1.00  0.00     0.000 HD 
HETATM   20  C   UNL     1      -7.268  14.242  67.489  1.00  0.00    -0.176 A  
HETATM   21  H2  UNL     1      -8.259  18.194  66.740  1.00  0.00     0.000 HD 
HETATM   22 CL   UNL     1      -6.168  13.318  68.419  1.00  0.00    -0.077 Cl 
HETATM   23  N   UNL     1      -8.338  13.563  67.019  1.00  0.00    -0.135 NA 
HETATM   24  C   UNL     1      -9.121  14.376  66.294  1.00  0.00    -0.095 A  
ENDBRANCH   7  12
TORSDOF 2
ENDMDL
MODEL       76
REMARK 921   NORMALIZED FREE ENERGY PREDICTED BY IDOCK:   -5.03 KCAL/MOL
REMARK 922        TOTAL FREE ENERGY PREDICTED BY IDOCK:   -6.12 KCAL/MOL
REMARK 923 INTER-LIGAND FREE ENERGY PREDICTED BY IDOCK:   -5.69 KCAL/MOL
REMARK 924 INTRA-LIGAND FREE ENERGY PREDICTED BY IDOCK:   -0.43 KCAL/MOL
REMARK 927      BINDING AFFINITY PREDICTED BY RF-SCORE:    0.00 PKD
ROOT
HETATM    1  C   UNL     1      -8.820   8.710  67.900  1.00  0.00    -0.137 C  
HETATM    2  F   UNL     1      -8.220   9.816  68.397  1.00  0.00    -0.101 F  
HETATM    3  C   UNL     1      -8.987   7.658  68.980  1.00  0.00    -0.137 C  
HETATM    4  O   UNL     1      -7.830   6.854  69.195  1.00  0.00    -0.107 OA 
HETATM    5  C   UNL     1     -10.145   6.843  68.419  1.00  0.00    -0.168 C  
HETATM    6  O   UNL     1     -11.036   7.789  67.791  1.00  0.00    -0.088 OA 
HETATM    7  C   UNL     1     -10.253   8.959  67.438  1.00  0.00    -0.249 C  
HETATM    8  H   UNL     1      -7.934   6.195  69.872  1.00  0.00     0.000 HD 
ENDROOT
BRANCH   5   9
HETATM    9  C   UNL     1     -10.886   6.016  69.469  1.00  0.00    -0.369 C  
HETATM   10  O   UNL     1     -12.071   6.677  69.903  1.00  0.00    -0.641 OA 
HETATM   11  H   UNL     1     -12.532   6.162  70.555  1.00  0.00     0.000 HD 
ENDBRANCH   5   9
BRANCH   7  12
HETATM   12  N   UNL     1     -10.870  10.137  68.012  1.00  0.00    -0.258 NA 
HETATM   13  C   UNL     1     -11.255  10.332  69.311  1.00  0.00    -0.228 A  
HETATM   14  N   UNL     1     -11.740  11.540  69.509  1.00  0.00    -0.316 NA 
HETATM   15  C   UNL     1     -11.650  12.162  68.282  1.00  0.00    -0.325 A  
HETATM   16  C   UNL     1     -11.974  13.459  67.849  1.00  0.00    -0.323 A  
HETATM   17  N   UNL     1     -12.467  14.438  68.700  1.00  0.00    -0.550 NA 
HETATM   18  N   UNL     1     -11.803  13.770  66.546  1.00  0.00    -0.383 NA 
HETATM   19  H1  UNL     1     -12.702  15.380  68.386  1.00  0.00     0.000 HD 
HETATM   20  C   UNL     1     -11.292  12.818  65.738  1.00  0.00    -0.320 A  
HETATM   21  H2  UNL     1     -11.809  14.529  69.475  1.00  0.00     0.000 HD 
HETATM   22 CL   UNL     1     -11.101  13.275  64.099  1.00  0.00    -0.404 Cl 
HETATM   23  N   UNL     1     -10.927  11.550  66.028  1.00  0.00    -0.284 NA 
HETATM   24  C   UNL     1     -11.134  11.295  67.330  1.00  0.00    -0.305 A  
ENDBRANCH   7  12
TORSDOF 2
ENDMDL
MODEL       77
REMARK 921   NORMALIZED FREE ENERGY PREDICTED BY IDOCK:   -5.01 KCAL/MOL
REMARK 922        TOTAL FREE ENERGY PREDICTED BY IDOCK:   -6.10 KCAL/MOL
REMARK 923 INTER-LIGAND FREE ENERGY PREDICTED BY IDOCK:   -5.93 KCAL/MOL
REMARK 924 INTRA-LIGAND FREE ENERGY PREDICTED BY IDOCK:   -0.17 KCAL/MOL
REMARK 927      BINDING AFFINITY PREDICTED BY RF-SCORE:    0.00 PKD
ROOT
HETATM    1  C   UNL     1      -9.283  15.092  67.283  1.00  0.00    -0.201 C  
HETATM    2  F   UNL     1      -8.213  14.276  67.420  1.00  0.00    -0.154 F  
HETATM    3  C   UNL     1      -9.391  15.601  65.858  1.00  0.00    -0.321 C  
HETATM    4  O   UNL     1      -8.574  16.736  65.581  1.00  0.00    -0.415 OA 
HETATM    5  C   UNL     1     -10.874  15.941  65.780  1.00  0.00    -0.254 C  
HETATM    6  O   UNL     1     -11.560  14.923  66.538  1.00  0.00    -0.339 OA 
HETATM    7  C   UNL     1     -10.615  14.377  67.495  1.00  0.00    -0.265 C  
HETATM    8  H   UNL     1      -8.642  17.055  64.688  1.00  0.00     0.000 HD 
ENDROOT
BRANCH   5   9
HETATM    9  C   UNL     1     -11.419  16.014  64.354  1.00  0.00    -0.242 C  
HETATM   10  O   UNL     1     -12.167  14.846  64.028  1.00  0.00    -0.835 OA 
HETATM   11  H   UNL     1     -12.505  14.891  63.141  1.00  0.00     0.000 HD 
ENDBRANCH   5   9
BRANCH   7  12
HETATM   12  N   UNL     1     -10.553  12.938  67.337  1.00  0.00    -0.232 NA 
HETATM   13  C   UNL     1      -9.985  12.232  66.312  1.00  0.00    -0.232 A  
HETATM   14  N   UNL     1     -10.061  10.931  66.504  1.00  0.00    -0.215 NA 
HETATM   15  C   UNL     1     -10.694  10.791  67.720  1.00  0.00    -0.251 A  
HETATM   16  C   UNL     1     -11.040   9.663  68.485  1.00  0.00    -0.041 A  
HETATM   17  N   UNL     1     -10.735   8.366  68.099  1.00  0.00    -0.438 NA 
HETATM   18  N   UNL     1     -11.705   9.847  69.647  1.00  0.00    -0.047 NA 
HETATM   19  H1  UNL     1     -10.985   7.548  68.655  1.00  0.00     0.000 HD 
HETATM   20  C   UNL     1     -11.966  11.115  70.024  1.00  0.00    -0.367 A  
HETATM   21  H2  UNL     1      -9.729   8.326  67.933  1.00  0.00     0.000 HD 
HETATM   22 CL   UNL     1     -12.809  11.279  71.505  1.00  0.00    -0.531 Cl 
HETATM   23  N   UNL     1     -11.676  12.275  69.395  1.00  0.00    -0.316 NA 
HETATM   24  C   UNL     1     -11.033  12.030  68.243  1.00  0.00    -0.234 A  
ENDBRANCH   7  12
TORSDOF 2
ENDMDL
MODEL       78
REMARK 921   NORMALIZED FREE ENERGY PREDICTED BY IDOCK:   -4.98 KCAL/MOL
REMARK 922        TOTAL FREE ENERGY PREDICTED BY IDOCK:   -6.07 KCAL/MOL
REMARK 923 INTER-LIGAND FREE ENERGY PREDICTED BY IDOCK:   -6.39 KCAL/MOL
REMARK 924 INTRA-LIGAND FREE ENERGY PREDICTED BY IDOCK:    0.32 KCAL/MOL
REMARK 927      BINDING AFFINITY PREDICTED BY RF-SCORE:    0.00 PKD
ROOT
HETATM    1  C   UNL     1     -11.769  12.336  66.065  1.00  0.00    -0.388 C  
HETATM    2  F   UNL     1     -11.944  11.901  67.333  1.00  0.00    -0.375 F  
HETATM    3  C   UNL     1     -12.256  13.766  65.917  1.00  0.00    -0.466 C  
HETATM    4  O   UNL     1     -13.659  13.885  65.695  1.00  0.00    -0.593 OA 
HETATM    5  C   UNL     1     -11.452  14.226  64.708  1.00  0.00    -0.393 C  
HETATM    6  O   UNL     1     -10.150  13.615  64.834  1.00  0.00    -0.343 OA 
HETATM    7  C   UNL     1     -10.301  12.429  65.656  1.00  0.00    -0.258 C  
HETATM    8  H   UNL     1     -13.963  14.780  65.602  1.00  0.00     0.000 HD 
ENDROOT
BRANCH   5   9
HETATM    9  C   UNL     1     -11.328  15.744  64.587  1.00  0.00    -0.337 C  
HETATM   10  O   UNL     1     -12.325  16.275  63.718  1.00  0.00    -1.081 OA 
HETATM   11  H   UNL     1     -12.247  17.219  63.643  1.00  0.00     0.000 HD 
ENDBRANCH   5   9
BRANCH   7  12
HETATM   12  N   UNL     1      -9.375  12.499  66.769  1.00  0.00    -0.225 NA 
HETATM   13  C   UNL     1      -8.647  11.477  67.317  1.00  0.00    -0.150 A  
HETATM   14  N   UNL     1      -7.862  11.895  68.290  1.00  0.00    -0.134 NA 
HETATM   15  C   UNL     1      -8.082  13.253  68.362  1.00  0.00    -0.134 A  
HETATM   16  C   UNL     1      -7.530  14.262  69.170  1.00  0.00    -0.067 A  
HETATM   17  N   UNL     1      -6.540  14.018  70.111  1.00  0.00    -0.372 NA 
HETATM   18  N   UNL     1      -7.985  15.526  69.031  1.00  0.00    -0.186 NA 
HETATM   19  H1  UNL     1      -6.139  14.750  70.698  1.00  0.00     0.000 HD 
HETATM   20  C   UNL     1      -8.924  15.752  68.090  1.00  0.00    -0.180 A  
HETATM   21  H2  UNL     1      -5.768  13.555  69.630  1.00  0.00     0.000 HD 
HETATM   22 CL   UNL     1      -9.457  17.375  67.964  1.00  0.00    -0.273 Cl 
HETATM   23  N   UNL     1      -9.520  14.884  67.245  1.00  0.00    -0.209 NA 
HETATM   24  C   UNL     1      -9.041  13.645  67.440  1.00  0.00    -0.222 A  
ENDBRANCH   7  12
TORSDOF 2
ENDMDL
MODEL       79
REMARK 921   NORMALIZED FREE ENERGY PREDICTED BY IDOCK:   -4.97 KCAL/MOL
REMARK 922        TOTAL FREE ENERGY PREDICTED BY IDOCK:   -6.06 KCAL/MOL
REMARK 923 INTER-LIGAND FREE ENERGY PREDICTED BY IDOCK:   -6.30 KCAL/MOL
REMARK 924 INTRA-LIGAND FREE ENERGY PREDICTED BY IDOCK:    0.23 KCAL/MOL
REMARK 927      BINDING AFFINITY PREDICTED BY RF-SCORE:    0.00 PKD
ROOT
HETATM    1  C   UNL     1     -10.201  11.038  66.160  1.00  0.00    -0.247 C  
HETATM    2  F   UNL     1      -9.101  11.593  65.601  1.00  0.00    -0.212 F  
HETATM    3  C   UNL     1      -9.949  10.700  67.617  1.00  0.00    -0.169 C  
HETATM    4  O   UNL     1      -9.295   9.450  67.822  1.00  0.00    -0.129 OA 
HETATM    5  C   UNL     1     -11.371  10.689  68.165  1.00  0.00    -0.284 C  
HETATM    6  O   UNL     1     -12.072  11.753  67.486  1.00  0.00    -0.599 OA 
HETATM    7  C   UNL     1     -11.389  11.994  66.229  1.00  0.00    -0.357 C  
HETATM    8  H   UNL     1      -9.138   9.238  68.735  1.00  0.00     0.000 HD 
ENDROOT
BRANCH   5   9
HETATM    9  C   UNL     1     -11.452  10.868  69.681  1.00  0.00    -0.305 C  
HETATM   10  O   UNL     1     -10.292  10.348  70.323  1.00  0.00    -0.434 OA 
HETATM   11  H   UNL     1     -10.343  10.459  71.266  1.00  0.00     0.000 HD 
ENDBRANCH   5   9
BRANCH   7  12
HETATM   12  N   UNL     1     -11.034  13.396  66.139  1.00  0.00    -0.276 NA 
HETATM   13  C   UNL     1     -10.667  14.097  65.022  1.00  0.00    -0.416 A  
HETATM   14  N   UNL     1     -10.457  15.371  65.284  1.00  0.00    -0.398 NA 
HETATM   15  C   UNL     1     -10.716  15.502  66.631  1.00  0.00    -0.306 A  
HETATM   16  C   UNL     1     -10.700  16.610  67.496  1.00  0.00    -0.278 A  
HETATM   17  N   UNL     1     -10.414  17.898  67.069  1.00  0.00    -0.358 NA 
HETATM   18  N   UNL     1     -10.971  16.413  68.805  1.00  0.00    -0.332 NA 
HETATM   19  H1  UNL     1     -10.402  18.702  67.697  1.00  0.00     0.000 HD 
HETATM   20  C   UNL     1     -11.279  15.160  69.199  1.00  0.00    -0.279 A  
HETATM   21  H2  UNL     1     -11.054  18.116  66.306  1.00  0.00     0.000 HD 
HETATM   22 CL   UNL     1     -11.611  14.980  70.869  1.00  0.00    -0.347 Cl 
HETATM   23  N   UNL     1     -11.345  14.024  68.473  1.00  0.00    -0.260 NA 
HETATM   24  C   UNL     1     -11.052  14.277  67.187  1.00  0.00    -0.311 A  
ENDBRANCH   7  12
TORSDOF 2
ENDMDL
MODEL       80
REMARK 921   NORMALIZED FREE ENERGY PREDICTED BY IDOCK:   -4.93 KCAL/MOL
REMARK 922        TOTAL FREE ENERGY PREDICTED BY IDOCK:   -6.02 KCAL/MOL
REMARK 923 INTER-LIGAND FREE ENERGY PREDICTED BY IDOCK:   -5.59 KCAL/MOL
REMARK 924 INTRA-LIGAND FREE ENERGY PREDICTED BY IDOCK:   -0.42 KCAL/MOL
REMARK 927      BINDING AFFINITY PREDICTED BY RF-SCORE:    0.00 PKD
ROOT
HETATM    1  C   UNL     1      -9.358   8.830  69.988  1.00  0.00    -0.168 C  
HETATM    2  F   UNL     1      -9.040   9.886  70.770  1.00  0.00    -0.219 F  
HETATM    3  C   UNL     1      -9.159   7.527  70.740  1.00  0.00    -0.154 C  
HETATM    4  O   UNL     1      -7.817   7.046  70.730  1.00  0.00    -0.094 OA 
HETATM    5  C   UNL     1     -10.096   6.601  69.975  1.00  0.00    -0.177 C  
HETATM    6  O   UNL     1     -11.250   7.394  69.626  1.00  0.00    -0.171 OA 
HETATM    7  C   UNL     1     -10.836   8.785  69.608  1.00  0.00    -0.169 C  
HETATM    8  H   UNL     1      -7.692   6.230  71.201  1.00  0.00     0.000 HD 
ENDROOT
BRANCH   5   9
HETATM    9  C   UNL     1     -10.511   5.355  70.757  1.00  0.00    -0.247 C  
HETATM   10  O   UNL     1      -9.975   4.175  70.167  1.00  0.00    -0.209 OA 
HETATM   11  H   UNL     1     -10.233   3.400  70.653  1.00  0.00     0.000 HD 
ENDBRANCH   5   9
BRANCH   7  12
HETATM   12  N   UNL     1     -11.701   9.553  70.481  1.00  0.00    -0.251 NA 
HETATM   13  C   UNL     1     -12.393   9.109  71.575  1.00  0.00    -0.347 A  
HETATM   14  N   UNL     1     -13.048  10.081  72.176  1.00  0.00    -0.426 NA 
HETATM   15  C   UNL     1     -12.751  11.211  71.444  1.00  0.00    -0.418 A  
HETATM   16  C   UNL     1     -13.116  12.560  71.592  1.00  0.00    -0.315 A  
HETATM   17  N   UNL     1     -13.901  13.020  72.638  1.00  0.00    -0.742 NA 
HETATM   18  N   UNL     1     -12.688  13.452  70.671  1.00  0.00    -0.226 NA 
HETATM   19  H1  UNL     1     -14.166  13.999  72.746  1.00  0.00     0.000 HD 
HETATM   20  C   UNL     1     -11.899  12.995  69.677  1.00  0.00    -0.319 A  
HETATM   21  H2  UNL     1     -13.454  12.727  73.508  1.00  0.00     0.000 HD 
HETATM   22 CL   UNL     1     -11.391  14.175  68.546  1.00  0.00    -0.291 Cl 
HETATM   23  N   UNL     1     -11.465  11.739  69.433  1.00  0.00    -0.288 NA 
HETATM   24  C   UNL     1     -11.934  10.897  70.368  1.00  0.00    -0.362 A  
ENDBRANCH   7  12
TORSDOF 2
ENDMDL
MODEL       81
REMARK 921   NORMALIZED FREE ENERGY PREDICTED BY IDOCK:   -4.93 KCAL/MOL
REMARK 922        TOTAL FREE ENERGY PREDICTED BY IDOCK:   -6.02 KCAL/MOL
REMARK 923 INTER-LIGAND FREE ENERGY PREDICTED BY IDOCK:   -5.76 KCAL/MOL
REMARK 924 INTRA-LIGAND FREE ENERGY PREDICTED BY IDOCK:   -0.26 KCAL/MOL
REMARK 927      BINDING AFFINITY PREDICTED BY RF-SCORE:    0.00 PKD
ROOT
HETATM    1  C   UNL     1     -10.185  16.971  67.480  1.00  0.00    -0.323 C  
HETATM    2  F   UNL     1     -11.388  17.513  67.776  1.00  0.00    -0.220 F  
HETATM    3  C   UNL     1      -9.060  17.889  67.920  1.00  0.00    -0.260 C  
HETATM    4  O   UNL     1      -8.751  18.923  66.988  1.00  0.00    -0.280 OA 
HETATM    5  C   UNL     1      -7.913  16.898  68.065  1.00  0.00    -0.185 C  
HETATM    6  O   UNL     1      -8.491  15.689  68.599  1.00  0.00    -0.159 OA 
HETATM    7  C   UNL     1      -9.899  15.684  68.247  1.00  0.00    -0.209 C  
HETATM    8  H   UNL     1      -8.047  19.497  67.264  1.00  0.00     0.000 HD 
ENDROOT
BRANCH   5   9
HETATM    9  C   UNL     1      -6.774  17.394  68.956  1.00  0.00    -0.243 C  
HETATM   10  O   UNL     1      -6.879  18.795  69.193  1.00  0.00    -0.283 OA 
HETATM   11  H   UNL     1      -6.171  19.103  69.747  1.00  0.00     0.000 HD 
ENDBRANCH   5   9
BRANCH   7  12
HETATM   12  N   UNL     1     -10.691  15.516  69.449  1.00  0.00    -0.232 NA 
HETATM   13  C   UNL     1     -11.001  16.464  70.387  1.00  0.00    -0.207 A  
HETATM   14  N   UNL     1     -11.784  15.987  71.333  1.00  0.00    -0.454 NA 
HETATM   15  C   UNL     1     -12.003  14.673  70.981  1.00  0.00    -0.339 A  
HETATM   16  C   UNL     1     -12.771  13.650  71.564  1.00  0.00    -0.332 A  
HETATM   17  N   UNL     1     -13.539  13.839  72.704  1.00  0.00    -0.689 NA 
HETATM   18  N   UNL     1     -12.759  12.426  70.995  1.00  0.00    -0.291 NA 
HETATM   19  H1  UNL     1     -14.097  13.097  73.127  1.00  0.00     0.000 HD 
HETATM   20  C   UNL     1     -12.033  12.266  69.869  1.00  0.00    -0.306 A  
HETATM   21  H2  UNL     1     -14.164  14.626  72.524  1.00  0.00     0.000 HD 
HETATM   22 CL   UNL     1     -12.060  10.691  69.198  1.00  0.00    -0.245 Cl 
HETATM   23  N   UNL     1     -11.272  13.162  69.204  1.00  0.00    -0.263 NA 
HETATM   24  C   UNL     1     -11.309  14.353  69.824  1.00  0.00    -0.237 A  
ENDBRANCH   7  12
TORSDOF 2
ENDMDL
MODEL       82
REMARK 921   NORMALIZED FREE ENERGY PREDICTED BY IDOCK:   -4.92 KCAL/MOL
REMARK 922        TOTAL FREE ENERGY PREDICTED BY IDOCK:   -6.01 KCAL/MOL
REMARK 923 INTER-LIGAND FREE ENERGY PREDICTED BY IDOCK:   -5.35 KCAL/MOL
REMARK 924 INTRA-LIGAND FREE ENERGY PREDICTED BY IDOCK:   -0.66 KCAL/MOL
REMARK 927      BINDING AFFINITY PREDICTED BY RF-SCORE:    0.00 PKD
ROOT
HETATM    1  C   UNL     1      -7.885   8.450  71.207  1.00  0.00    -0.111 C  
HETATM    2  F   UNL     1      -8.241   8.880  72.438  1.00  0.00    -0.161 F  
HETATM    3  C   UNL     1      -7.249   7.075  71.283  1.00  0.00    -0.075 C  
HETATM    4  O   UNL     1      -5.861   7.090  71.607  1.00  0.00    -0.036 OA 
HETATM    5  C   UNL     1      -7.492   6.561  69.869  1.00  0.00    -0.088 C  
HETATM    6  O   UNL     1      -8.796   7.046  69.484  1.00  0.00    -0.134 OA 
HETATM    7  C   UNL     1      -9.075   8.228  70.278  1.00  0.00    -0.150 C  
HETATM    8  H   UNL     1      -5.463   6.228  71.654  1.00  0.00     0.000 HD 
ENDROOT
BRANCH   5   9
HETATM    9  C   UNL     1      -7.421   5.039  69.742  1.00  0.00    -0.056 C  
HETATM   10  O   UNL     1      -7.155   4.430  71.002  1.00  0.00    -0.035 OA 
HETATM   11  H   UNL     1      -7.111   3.484  70.922  1.00  0.00     0.000 HD 
ENDBRANCH   5   9
BRANCH   7  12
HETATM   12  N   UNL     1     -10.342   8.055  70.962  1.00  0.00    -0.201 NA 
HETATM   13  C   UNL     1     -10.828   6.919  71.549  1.00  0.00    -0.230 A  
HETATM   14  N   UNL     1     -11.994   7.120  72.127  1.00  0.00    -0.286 NA 
HETATM   15  C   UNL     1     -12.267   8.454  71.917  1.00  0.00    -0.343 A  
HETATM   16  C   UNL     1     -13.336   9.277  72.310  1.00  0.00    -0.477 A  
HETATM   17  N   UNL     1     -14.393   8.824  73.086  1.00  0.00    -1.126 NA 
HETATM   18  N   UNL     1     -13.341  10.568  71.911  1.00  0.00    -0.403 NA 
HETATM   19  H1  UNL     1     -15.169   9.421  73.371  1.00  0.00     0.000 HD 
HETATM   20  C   UNL     1     -12.292  11.002  71.184  1.00  0.00    -0.359 A  
HETATM   21  H2  UNL     1     -13.997   8.413  73.932  1.00  0.00     0.000 HD 
HETATM   22 CL   UNL     1     -12.359  12.647  70.712  1.00  0.00    -0.439 Cl 
HETATM   23  N   UNL     1     -11.203  10.325  70.758  1.00  0.00    -0.334 NA 
HETATM   24  C   UNL     1     -11.261   9.048  71.170  1.00  0.00    -0.305 A  
ENDBRANCH   7  12
TORSDOF 2
ENDMDL
MODEL       83
REMARK 921   NORMALIZED FREE ENERGY PREDICTED BY IDOCK:   -4.91 KCAL/MOL
REMARK 922        TOTAL FREE ENERGY PREDICTED BY IDOCK:   -5.99 KCAL/MOL
REMARK 923 INTER-LIGAND FREE ENERGY PREDICTED BY IDOCK:   -5.56 KCAL/MOL
REMARK 924 INTRA-LIGAND FREE ENERGY PREDICTED BY IDOCK:   -0.43 KCAL/MOL
REMARK 927      BINDING AFFINITY PREDICTED BY RF-SCORE:    0.00 PKD
ROOT
HETATM    1  C   UNL     1      -9.598   7.760  71.251  1.00  0.00    -0.157 C  
HETATM    2  F   UNL     1      -9.231   8.956  71.764  1.00  0.00    -0.290 F  
HETATM    3  C   UNL     1      -9.626   6.698  72.335  1.00  0.00    -0.147 C  
HETATM    4  O   UNL     1      -8.355   6.115  72.614  1.00  0.00    -0.121 OA 
HETATM    5  C   UNL     1     -10.590   5.686  71.729  1.00  0.00    -0.238 C  
HETATM    6  O   UNL     1     -11.604   6.454  71.048  1.00  0.00    -0.324 OA 
HETATM    7  C   UNL     1     -11.028   7.745  70.719  1.00  0.00    -0.252 C  
HETATM    8  H   UNL     1      -8.373   5.450  73.293  1.00  0.00     0.000 HD 
ENDROOT
BRANCH   5   9
HETATM    9  C   UNL     1     -11.221   4.742  72.752  1.00  0.00    -0.135 C  
HETATM   10  O   UNL     1     -12.526   5.180  73.119  1.00  0.00    -0.374 OA 
HETATM   11  H   UNL     1     -12.919   4.593  73.755  1.00  0.00     0.000 HD 
ENDBRANCH   5   9
BRANCH   7  12
HETATM   12  N   UNL     1     -11.874   8.795  71.250  1.00  0.00    -0.293 NA 
HETATM   13  C   UNL     1     -12.765   8.710  72.285  1.00  0.00    -0.391 A  
HETATM   14  N   UNL     1     -13.337   9.868  72.544  1.00  0.00    -0.217 NA 
HETATM   15  C   UNL     1     -12.778  10.747  71.642  1.00  0.00    -0.414 A  
HETATM   16  C   UNL     1     -12.949  12.126  71.430  1.00  0.00    -0.257 A  
HETATM   17  N   UNL     1     -13.787  12.911  72.208  1.00  0.00    -0.467 NA 
HETATM   18  N   UNL     1     -12.272  12.715  70.420  1.00  0.00    -0.335 NA 
HETATM   19  H1  UNL     1     -13.911  13.912  72.054  1.00  0.00     0.000 HD 
HETATM   20  C   UNL     1     -11.438  11.945  69.693  1.00  0.00    -0.266 A  
HETATM   21  H2  UNL     1     -13.508  12.784  73.181  1.00  0.00     0.000 HD 
HETATM   22 CL   UNL     1     -10.611  12.753  68.430  1.00  0.00    -0.253 Cl 
HETATM   23  N   UNL     1     -11.172  10.625  69.803  1.00  0.00    -0.275 NA 
HETATM   24  C   UNL     1     -11.882  10.091  70.809  1.00  0.00    -0.346 A  
ENDBRANCH   7  12
TORSDOF 2
ENDMDL
MODEL       84
REMARK 921   NORMALIZED FREE ENERGY PREDICTED BY IDOCK:   -4.88 KCAL/MOL
REMARK 922        TOTAL FREE ENERGY PREDICTED BY IDOCK:   -5.95 KCAL/MOL
REMARK 923 INTER-LIGAND FREE ENERGY PREDICTED BY IDOCK:   -5.44 KCAL/MOL
REMARK 924 INTRA-LIGAND FREE ENERGY PREDICTED BY IDOCK:   -0.51 KCAL/MOL
REMARK 927      BINDING AFFINITY PREDICTED BY RF-SCORE:    0.00 PKD
ROOT
HETATM    1  C   UNL     1      -9.657   8.152  66.984  1.00  0.00    -0.196 C  
HETATM    2  F   UNL     1     -11.008   8.099  66.992  1.00  0.00    -0.374 F  
HETATM    3  C   UNL     1      -9.166   9.178  65.979  1.00  0.00    -0.215 C  
HETATM    4  O   UNL     1      -9.090   8.695  64.640  1.00  0.00    -0.417 OA 
HETATM    5  C   UNL     1      -7.788   9.502  66.541  1.00  0.00    -0.101 C  
HETATM    6  O   UNL     1      -7.925   9.487  67.978  1.00  0.00    -0.091 OA 
HETATM    7  C   UNL     1      -9.065   8.648  68.300  1.00  0.00    -0.141 C  
HETATM    8  H   UNL     1      -8.783   9.338  64.012  1.00  0.00     0.000 HD 
ENDROOT
BRANCH   5   9
HETATM    9  C   UNL     1      -7.224  10.841  66.065  1.00  0.00    -0.105 C  
HETATM   10  O   UNL     1      -8.250  11.823  65.958  1.00  0.00    -0.378 OA 
HETATM   11  H   UNL     1      -7.899  12.655  65.662  1.00  0.00     0.000 HD 
ENDBRANCH   5   9
BRANCH   7  12
HETATM   12  N   UNL     1      -9.990   9.397  69.126  1.00  0.00    -0.175 NA 
HETATM   13  C   UNL     1     -10.347  10.712  69.003  1.00  0.00    -0.218 A  
HETATM   14  N   UNL     1     -11.253  11.065  69.892  1.00  0.00    -0.270 NA 
HETATM   15  C   UNL     1     -11.505   9.918  70.614  1.00  0.00    -0.334 A  
HETATM   16  C   UNL     1     -12.387   9.638  71.672  1.00  0.00    -0.404 A  
HETATM   17  N   UNL     1     -13.262  10.578  72.195  1.00  0.00    -0.573 NA 
HETATM   18  N   UNL     1     -12.380   8.398  72.210  1.00  0.00    -0.368 NA 
HETATM   19  H1  UNL     1     -13.903  10.374  72.963  1.00  0.00     0.000 HD 
HETATM   20  C   UNL     1     -11.546   7.487  71.670  1.00  0.00    -0.268 A  
HETATM   21  H2  UNL     1     -13.820  10.940  71.420  1.00  0.00     0.000 HD 
HETATM   22 CL   UNL     1     -11.587   5.937  72.397  1.00  0.00    -0.360 Cl 
HETATM   23  N   UNL     1     -10.669   7.622  70.651  1.00  0.00    -0.227 NA 
HETATM   24  C   UNL     1     -10.708   8.874  70.169  1.00  0.00    -0.225 A  
ENDBRANCH   7  12
TORSDOF 2
ENDMDL
MODEL       85
REMARK 921   NORMALIZED FREE ENERGY PREDICTED BY IDOCK:   -4.87 KCAL/MOL
REMARK 922        TOTAL FREE ENERGY PREDICTED BY IDOCK:   -5.94 KCAL/MOL
REMARK 923 INTER-LIGAND FREE ENERGY PREDICTED BY IDOCK:   -5.40 KCAL/MOL
REMARK 924 INTRA-LIGAND FREE ENERGY PREDICTED BY IDOCK:   -0.54 KCAL/MOL
REMARK 927      BINDING AFFINITY PREDICTED BY RF-SCORE:    0.00 PKD
ROOT
HETATM    1  C   UNL     1     -10.494   6.523  71.468  1.00  0.00    -0.215 C  
HETATM    2  F   UNL     1      -9.204   6.899  71.310  1.00  0.00    -0.153 F  
HETATM    3  C   UNL     1     -11.280   7.599  72.194  1.00  0.00    -0.284 C  
HETATM    4  O   UNL     1     -11.161   7.551  73.614  1.00  0.00    -0.583 OA 
HETATM    5  C   UNL     1     -12.698   7.284  71.736  1.00  0.00    -0.335 C  
HETATM    6  O   UNL     1     -12.594   6.873  70.356  1.00  0.00    -0.136 OA 
HETATM    7  C   UNL     1     -11.245   6.380  70.148  1.00  0.00    -0.390 C  
HETATM    8  H   UNL     1     -11.654   8.225  74.068  1.00  0.00     0.000 HD 
ENDROOT
BRANCH   5   9
HETATM    9  C   UNL     1     -13.670   8.455  71.880  1.00  0.00    -0.394 C  
HETATM   10  O   UNL     1     -13.806   8.846  73.243  1.00  0.00    -1.163 OA 
HETATM   11  H   UNL     1     -14.411   9.574  73.332  1.00  0.00     0.000 HD 
ENDBRANCH   5   9
BRANCH   7  12
HETATM   12  N   UNL     1     -10.643   7.090  69.037  1.00  0.00    -0.213 NA 
HETATM   13  C   UNL     1     -10.511   8.443  68.881  1.00  0.00    -0.189 A  
HETATM   14  N   UNL     1      -9.869   8.754  67.774  1.00  0.00    -0.165 NA 
HETATM   15  C   UNL     1      -9.556   7.543  67.195  1.00  0.00    -0.161 A  
HETATM   16  C   UNL     1      -8.855   7.204  66.025  1.00  0.00    -0.131 A  
HETATM   17  N   UNL     1      -8.278   8.149  65.190  1.00  0.00    -0.149 NA 
HETATM   18  N   UNL     1      -8.741   5.899  65.693  1.00  0.00    -0.154 NA 
HETATM   19  H1  UNL     1      -7.769   7.903  64.340  1.00  0.00     0.000 HD 
HETATM   20  C   UNL     1      -9.280   4.991  66.532  1.00  0.00    -0.135 A  
HETATM   21  H2  UNL     1      -7.658   8.724  65.761  1.00  0.00     0.000 HD 
HETATM   22 CL   UNL     1      -9.100   3.357  66.054  1.00  0.00    -0.147 Cl 
HETATM   23  N   UNL     1      -9.958   5.182  67.685  1.00  0.00    -0.161 NA 
HETATM   24  C   UNL     1     -10.053   6.494  67.954  1.00  0.00    -0.147 A  
ENDBRANCH   7  12
TORSDOF 2
ENDMDL
MODEL       86
REMARK 921   NORMALIZED FREE ENERGY PREDICTED BY IDOCK:   -4.83 KCAL/MOL
REMARK 922        TOTAL FREE ENERGY PREDICTED BY IDOCK:   -5.90 KCAL/MOL
REMARK 923 INTER-LIGAND FREE ENERGY PREDICTED BY IDOCK:   -5.48 KCAL/MOL
REMARK 924 INTRA-LIGAND FREE ENERGY PREDICTED BY IDOCK:   -0.42 KCAL/MOL
REMARK 927      BINDING AFFINITY PREDICTED BY RF-SCORE:    0.00 PKD
ROOT
HETATM    1  C   UNL     1      -9.052  11.032  68.012  1.00  0.00    -0.152 C  
HETATM    2  F   UNL     1      -8.512  12.140  68.568  1.00  0.00    -0.153 F  
HETATM    3  C   UNL     1      -8.827   9.822  68.900  1.00  0.00    -0.140 C  
HETATM    4  O   UNL     1      -7.552   9.205  68.734  1.00  0.00    -0.081 OA 
HETATM    5  C   UNL     1      -9.959   8.910  68.446  1.00  0.00    -0.178 C  
HETATM    6  O   UNL     1     -11.089   9.770  68.187  1.00  0.00    -0.215 OA 
HETATM    7  C   UNL     1     -10.573  11.095  67.897  1.00  0.00    -0.198 C  
HETATM    8  H   UNL     1      -7.412   8.447  69.290  1.00  0.00     0.000 HD 
ENDROOT
BRANCH   5   9
HETATM    9  C   UNL     1     -10.326   7.826  69.459  1.00  0.00    -0.219 C  
HETATM   10  O   UNL     1     -11.558   8.123  70.108  1.00  0.00    -0.470 OA 
HETATM   11  H   UNL     1     -11.786   7.449  70.738  1.00  0.00     0.000 HD 
ENDBRANCH   5   9
BRANCH   7  12
HETATM   12  N   UNL     1     -11.199  12.055  68.784  1.00  0.00    -0.243 NA 
HETATM   13  C   UNL     1     -11.789  11.816  69.995  1.00  0.00    -0.342 A  
HETATM   14  N   UNL     1     -12.219  12.923  70.565  1.00  0.00    -0.361 NA 
HETATM   15  C   UNL     1     -11.875  13.928  69.686  1.00  0.00    -0.327 A  
HETATM   16  C   UNL     1     -12.032  15.324  69.734  1.00  0.00    -0.347 A  
HETATM   17  N   UNL     1     -12.598  15.984  70.814  1.00  0.00    -0.532 NA 
HETATM   18  N   UNL     1     -11.617  16.059  68.678  1.00  0.00    -0.384 NA 
HETATM   19  H1  UNL     1     -12.711  16.998  70.849  1.00  0.00     0.000 HD 
HETATM   20  C   UNL     1     -11.040  15.406  67.649  1.00  0.00    -0.316 A  
HETATM   21  H2  UNL     1     -12.079  15.706  71.648  1.00  0.00     0.000 HD 
HETATM   22 CL   UNL     1     -10.537  16.394  66.345  1.00  0.00    -0.277 Cl 
HETATM   23  N   UNL     1     -10.817  14.083  67.489  1.00  0.00    -0.267 NA 
HETATM   24  C   UNL     1     -11.262  13.404  68.558  1.00  0.00    -0.283 A  
ENDBRANCH   7  12
TORSDOF 2
ENDMDL
MODEL       87
REMARK 921   NORMALIZED FREE ENERGY PREDICTED BY IDOCK:   -4.79 KCAL/MOL
REMARK 922        TOTAL FREE ENERGY PREDICTED BY IDOCK:   -5.86 KCAL/MOL
REMARK 923 INTER-LIGAND FREE ENERGY PREDICTED BY IDOCK:   -5.95 KCAL/MOL
REMARK 924 INTRA-LIGAND FREE ENERGY PREDICTED BY IDOCK:    0.09 KCAL/MOL
REMARK 927      BINDING AFFINITY PREDICTED BY RF-SCORE:    0.00 PKD
ROOT
HETATM    1  C   UNL     1     -10.551  16.363  65.021  1.00  0.00    -0.193 C  
HETATM    2  F   UNL     1     -11.806  15.919  64.781  1.00  0.00    -0.224 F  
HETATM    3  C   UNL     1     -10.531  17.294  66.220  1.00  0.00    -0.268 C  
HETATM    4  O   UNL     1     -10.880  18.642  65.917  1.00  0.00    -0.321 OA 
HETATM    5  C   UNL     1      -9.079  17.172  66.661  1.00  0.00    -0.258 C  
HETATM    6  O   UNL     1      -8.709  15.792  66.453  1.00  0.00    -0.290 OA 
HETATM    7  C   UNL     1      -9.587  15.253  65.432  1.00  0.00    -0.115 C  
HETATM    8  H   UNL     1     -10.868  19.225  66.668  1.00  0.00     0.000 HD 
ENDROOT
BRANCH   5   9
HETATM    9  C   UNL     1      -8.835  17.585  68.113  1.00  0.00    -0.263 C  
HETATM   10  O   UNL     1      -8.710  16.445  68.958  1.00  0.00    -0.248 OA 
HETATM   11  H   UNL     1      -8.559  16.702  69.860  1.00  0.00     0.000 HD 
ENDBRANCH   5   9
BRANCH   7  12
HETATM   12  N   UNL     1     -10.234  14.059  65.939  1.00  0.00    -0.310 NA 
HETATM   13  C   UNL     1     -10.312  12.831  65.340  1.00  0.00    -0.293 A  
HETATM   14  N   UNL     1     -10.930  11.949  66.098  1.00  0.00    -0.297 NA 
HETATM   15  C   UNL     1     -11.254  12.636  67.248  1.00  0.00    -0.298 A  
HETATM   16  C   UNL     1     -11.890  12.246  68.439  1.00  0.00    -0.304 A  
HETATM   17  N   UNL     1     -12.316  10.947  68.678  1.00  0.00    -0.777 NA 
HETATM   18  N   UNL     1     -12.103  13.176  69.395  1.00  0.00    -0.271 NA 
HETATM   19  H1  UNL     1     -12.778  10.664  69.542  1.00  0.00     0.000 HD 
HETATM   20  C   UNL     1     -11.655  14.427  69.161  1.00  0.00    -0.307 A  
HETATM   21  H2  UNL     1     -11.512  10.333  68.546  1.00  0.00     0.000 HD 
HETATM   22 CL   UNL     1     -11.956  15.557  70.412  1.00  0.00    -0.359 Cl 
HETATM   23  N   UNL     1     -11.020  14.923  68.077  1.00  0.00    -0.270 NA 
HETATM   24  C   UNL     1     -10.851  13.960  67.158  1.00  0.00    -0.284 A  
ENDBRANCH   7  12
TORSDOF 2
ENDMDL
MODEL       88
REMARK 921   NORMALIZED FREE ENERGY PREDICTED BY IDOCK:   -4.79 KCAL/MOL
REMARK 922        TOTAL FREE ENERGY PREDICTED BY IDOCK:   -5.85 KCAL/MOL
REMARK 923 INTER-LIGAND FREE ENERGY PREDICTED BY IDOCK:   -5.22 KCAL/MOL
REMARK 924 INTRA-LIGAND FREE ENERGY PREDICTED BY IDOCK:   -0.63 KCAL/MOL
REMARK 927      BINDING AFFINITY PREDICTED BY RF-SCORE:    0.00 PKD
ROOT
HETATM    1  C   UNL     1     -11.649   9.717  71.291  1.00  0.00    -0.393 C  
HETATM    2  F   UNL     1     -12.713  10.130  70.567  1.00  0.00    -0.350 F  
HETATM    3  C   UNL     1     -11.708   8.218  71.523  1.00  0.00    -0.292 C  
HETATM    4  O   UNL     1     -12.525   7.830  72.625  1.00  0.00    -0.556 OA 
HETATM    5  C   UNL     1     -10.239   7.902  71.771  1.00  0.00    -0.196 C  
HETATM    6  O   UNL     1      -9.488   8.752  70.879  1.00  0.00    -0.179 OA 
HETATM    7  C   UNL     1     -10.318   9.900  70.565  1.00  0.00    -0.232 C  
HETATM    8  H   UNL     1     -12.562   6.892  72.770  1.00  0.00     0.000 HD 
ENDROOT
BRANCH   5   9
HETATM    9  C   UNL     1      -9.876   6.433  71.554  1.00  0.00    -0.168 C  
HETATM   10  O   UNL     1     -10.921   5.739  70.879  1.00  0.00    -0.276 OA 
HETATM   11  H   UNL     1     -10.695   4.826  70.744  1.00  0.00     0.000 HD 
ENDBRANCH   5   9
BRANCH   7  12
HETATM   12  N   UNL     1     -10.436  10.026  69.126  1.00  0.00    -0.206 NA 
HETATM   13  C   UNL     1     -10.455   9.021  68.196  1.00  0.00    -0.207 A  
HETATM   14  N   UNL     1     -10.623   9.481  66.974  1.00  0.00    -0.231 NA 
HETATM   15  C   UNL     1     -10.733  10.847  67.122  1.00  0.00    -0.270 A  
HETATM   16  C   UNL     1     -10.953  11.886  66.202  1.00  0.00    -0.308 A  
HETATM   17  N   UNL     1     -11.143  11.667  64.845  1.00  0.00    -0.283 NA 
HETATM   18  N   UNL     1     -10.976  13.159  66.655  1.00  0.00    -0.280 NA 
HETATM   19  H1  UNL     1     -11.302  12.421  64.177  1.00  0.00     0.000 HD 
HETATM   20  C   UNL     1     -10.822  13.353  67.980  1.00  0.00    -0.247 A  
HETATM   21  H2  UNL     1     -11.913  11.004  64.748  1.00  0.00     0.000 HD 
HETATM   22 CL   UNL     1     -10.861  14.988  68.489  1.00  0.00    -0.242 Cl 
HETATM   23  N   UNL     1     -10.622  12.449  68.964  1.00  0.00    -0.115 NA 
HETATM   24  C   UNL     1     -10.593  11.208  68.454  1.00  0.00    -0.193 A  
ENDBRANCH   7  12
TORSDOF 2
ENDMDL
MODEL       89
REMARK 921   NORMALIZED FREE ENERGY PREDICTED BY IDOCK:   -4.76 KCAL/MOL
REMARK 922        TOTAL FREE ENERGY PREDICTED BY IDOCK:   -5.83 KCAL/MOL
REMARK 923 INTER-LIGAND FREE ENERGY PREDICTED BY IDOCK:   -5.31 KCAL/MOL
REMARK 924 INTRA-LIGAND FREE ENERGY PREDICTED BY IDOCK:   -0.51 KCAL/MOL
REMARK 927      BINDING AFFINITY PREDICTED BY RF-SCORE:    0.00 PKD
ROOT
HETATM    1  C   UNL     1      -9.545   7.752  70.145  1.00  0.00    -0.168 C  
HETATM    2  F   UNL     1      -8.857   8.910  70.262  1.00  0.00    -0.131 F  
HETATM    3  C   UNL     1      -9.482   6.958  71.437  1.00  0.00    -0.160 C  
HETATM    4  O   UNL     1      -8.305   6.167  71.579  1.00  0.00    -0.124 OA 
HETATM    5  C   UNL     1     -10.730   6.094  71.311  1.00  0.00    -0.256 C  
HETATM    6  O   UNL     1     -11.734   6.924  70.689  1.00  0.00    -0.338 OA 
HETATM    7  C   UNL     1     -11.044   7.959  69.942  1.00  0.00    -0.120 C  
HETATM    8  H   UNL     1      -8.266   5.670  72.388  1.00  0.00     0.000 HD 
ENDROOT
BRANCH   5   9
HETATM    9  C   UNL     1     -11.236   5.538  72.641  1.00  0.00    -0.295 C  
HETATM   10  O   UNL     1     -11.167   6.521  73.670  1.00  0.00    -0.431 OA 
HETATM   11  H   UNL     1     -11.481   6.175  74.497  1.00  0.00     0.000 HD 
ENDBRANCH   5   9
BRANCH   7  12
HETATM   12  N   UNL     1     -11.530   9.258  70.364  1.00  0.00    -0.246 NA 
HETATM   13  C   UNL     1     -11.997   9.616  71.599  1.00  0.00    -0.394 A  
HETATM   14  N   UNL     1     -12.314  10.892  71.658  1.00  0.00    -0.230 NA 
HETATM   15  C   UNL     1     -12.023  11.387  70.405  1.00  0.00    -0.374 A  
HETATM   16  C   UNL     1     -12.113  12.674  69.849  1.00  0.00    -0.252 A  
HETATM   17  N   UNL     1     -12.531  13.782  70.572  1.00  0.00    -0.347 NA 
HETATM   18  N   UNL     1     -11.782  12.844  68.550  1.00  0.00    -0.320 NA 
HETATM   19  H1  UNL     1     -12.596  14.717  70.168  1.00  0.00     0.000 HD 
HETATM   20  C   UNL     1     -11.347  11.764  67.869  1.00  0.00    -0.292 A  
HETATM   21  H2  UNL     1     -11.939  13.848  71.400  1.00  0.00     0.000 HD 
HETATM   22 CL   UNL     1     -10.944  12.046  66.229  1.00  0.00    -0.322 Cl 
HETATM   23  N   UNL     1     -11.200  10.488  68.287  1.00  0.00    -0.294 NA 
HETATM   24  C   UNL     1     -11.558  10.377  69.576  1.00  0.00    -0.219 A  
ENDBRANCH   7  12
TORSDOF 2
ENDMDL
MODEL       90
REMARK 921   NORMALIZED FREE ENERGY PREDICTED BY IDOCK:   -4.76 KCAL/MOL
REMARK 922        TOTAL FREE ENERGY PREDICTED BY IDOCK:   -5.82 KCAL/MOL
REMARK 923 INTER-LIGAND FREE ENERGY PREDICTED BY IDOCK:   -6.02 KCAL/MOL
REMARK 924 INTRA-LIGAND FREE ENERGY PREDICTED BY IDOCK:    0.20 KCAL/MOL
REMARK 927      BINDING AFFINITY PREDICTED BY RF-SCORE:    0.00 PKD
ROOT
HETATM    1  C   UNL     1      -7.432  14.833  68.685  1.00  0.00    -0.126 C  
HETATM    2  F   UNL     1      -7.190  13.947  67.693  1.00  0.00    -0.118 F  
HETATM    3  C   UNL     1      -6.682  16.130  68.441  1.00  0.00    -0.127 C  
HETATM    4  O   UNL     1      -5.326  16.111  68.878  1.00  0.00    -0.109 OA 
HETATM    5  C   UNL     1      -7.522  17.111  69.249  1.00  0.00    -0.061 C  
HETATM    6  O   UNL     1      -8.895  16.697  69.084  1.00  0.00    -0.235 OA 
HETATM    7  C   UNL     1      -8.889  15.285  68.748  1.00  0.00    -0.192 C  
HETATM    8  H   UNL     1      -4.856  16.923  68.724  1.00  0.00     0.000 HD 
ENDROOT
BRANCH   5   9
HETATM    9  C   UNL     1      -7.342  18.570  68.832  1.00  0.00    -0.266 C  
HETATM   10  O   UNL     1      -8.551  19.306  69.002  1.00  0.00    -0.334 OA 
HETATM   11  H   UNL     1      -8.439  20.213  68.743  1.00  0.00     0.000 HD 
ENDBRANCH   5   9
BRANCH   7  12
HETATM   12  N   UNL     1      -9.630  15.084  67.519  1.00  0.00    -0.203 NA 
HETATM   13  C   UNL     1     -10.078  13.901  66.996  1.00  0.00    -0.256 A  
HETATM   14  N   UNL     1     -10.763  14.079  65.885  1.00  0.00    -0.288 NA 
HETATM   15  C   UNL     1     -10.771  15.443  65.689  1.00  0.00    -0.369 A  
HETATM   16  C   UNL     1     -11.357  16.257  64.705  1.00  0.00    -0.232 A  
HETATM   17  N   UNL     1     -12.133  15.753  63.671  1.00  0.00    -1.012 NA 
HETATM   18  N   UNL     1     -11.153  17.592  64.761  1.00  0.00    -0.812 NA 
HETATM   19  H1  UNL     1     -12.558  16.343  62.957  1.00  0.00     0.000 HD 
HETATM   20  C   UNL     1     -10.424  18.070  65.790  1.00  0.00    -0.198 A  
HETATM   21  H2  UNL     1     -12.878  15.197  64.092  1.00  0.00     0.000 HD 
HETATM   22 CL   UNL     1     -10.204  19.768  65.803  1.00  0.00    -0.520 Cl 
HETATM   23  N   UNL     1      -9.825  17.404  66.801  1.00  0.00    -0.283 NA 
HETATM   24  C   UNL     1     -10.047  16.085  66.684  1.00  0.00    -0.279 A  
ENDBRANCH   7  12
TORSDOF 2
ENDMDL
MODEL       91
REMARK 921   NORMALIZED FREE ENERGY PREDICTED BY IDOCK:   -4.72 KCAL/MOL
REMARK 922        TOTAL FREE ENERGY PREDICTED BY IDOCK:   -5.78 KCAL/MOL
REMARK 923 INTER-LIGAND FREE ENERGY PREDICTED BY IDOCK:   -6.29 KCAL/MOL
REMARK 924 INTRA-LIGAND FREE ENERGY PREDICTED BY IDOCK:    0.51 KCAL/MOL
REMARK 927      BINDING AFFINITY PREDICTED BY RF-SCORE:    0.00 PKD
ROOT
HETATM    1  C   UNL     1     -12.531  14.250  65.263  1.00  0.00    -0.421 C  
HETATM    2  F   UNL     1     -12.121  14.959  64.187  1.00  0.00    -0.464 F  
HETATM    3  C   UNL     1     -12.116  12.795  65.136  1.00  0.00    -0.450 C  
HETATM    4  O   UNL     1     -13.005  12.001  64.354  1.00  0.00    -0.600 OA 
HETATM    5  C   UNL     1     -12.109  12.364  66.596  1.00  0.00    -0.075 C  
HETATM    6  O   UNL     1     -11.608  13.491  67.346  1.00  0.00    -0.317 OA 
HETATM    7  C   UNL     1     -11.862  14.685  66.563  1.00  0.00    -0.304 C  
HETATM    8  H   UNL     1     -12.745  11.090  64.275  1.00  0.00     0.000 HD 
ENDROOT
BRANCH   5   9
HETATM    9  C   UNL     1     -11.271  11.115  66.870  1.00  0.00    -0.186 C  
HETATM   10  O   UNL     1     -11.880  10.295  67.863  1.00  0.00    -0.647 OA 
HETATM   11  H   UNL     1     -11.358   9.518  68.033  1.00  0.00     0.000 HD 
ENDBRANCH   5   9
BRANCH   7  12
HETATM   12  N   UNL     1     -10.620  15.411  66.382  1.00  0.00    -0.302 NA 
HETATM   13  C   UNL     1     -10.448  16.652  65.833  1.00  0.00    -0.313 A  
HETATM   14  N   UNL     1      -9.189  17.038  65.865  1.00  0.00    -0.530 NA 
HETATM   15  C   UNL     1      -8.518  16.003  66.478  1.00  0.00    -0.313 A  
HETATM   16  C   UNL     1      -7.169  15.823  66.830  1.00  0.00    -0.093 A  
HETATM   17  N   UNL     1      -6.197  16.788  66.612  1.00  0.00    -0.283 NA 
HETATM   18  N   UNL     1      -6.798  14.657  67.402  1.00  0.00    -0.261 NA 
HETATM   19  H1  UNL     1      -5.218  16.658  66.868  1.00  0.00     0.000 HD 
HETATM   20  C   UNL     1      -7.761  13.741  67.636  1.00  0.00    -0.179 A  
HETATM   21  H2  UNL     1      -6.516  17.650  67.057  1.00  0.00     0.000 HD 
HETATM   22 CL   UNL     1      -7.224  12.286  68.362  1.00  0.00    -0.095 Cl 
HETATM   23  N   UNL     1      -9.083  13.796  67.364  1.00  0.00    -0.211 NA 
HETATM   24  C   UNL     1      -9.389  14.967  66.784  1.00  0.00    -0.251 A  
ENDBRANCH   7  12
TORSDOF 2
ENDMDL
MODEL       92
REMARK 921   NORMALIZED FREE ENERGY PREDICTED BY IDOCK:   -4.72 KCAL/MOL
REMARK 922        TOTAL FREE ENERGY PREDICTED BY IDOCK:   -5.77 KCAL/MOL
REMARK 923 INTER-LIGAND FREE ENERGY PREDICTED BY IDOCK:   -6.17 KCAL/MOL
REMARK 924 INTRA-LIGAND FREE ENERGY PREDICTED BY IDOCK:    0.40 KCAL/MOL
REMARK 927      BINDING AFFINITY PREDICTED BY RF-SCORE:    0.00 PKD
ROOT
HETATM    1  C   UNL     1     -12.247  14.974  64.557  1.00  0.00    -0.331 C  
HETATM    2  F   UNL     1     -11.805  16.129  64.011  1.00  0.00    -0.508 F  
HETATM    3  C   UNL     1     -11.813  13.785  63.720  1.00  0.00    -0.262 C  
HETATM    4  O   UNL     1     -12.665  13.510  62.610  1.00  0.00    -0.501 OA 
HETATM    5  C   UNL     1     -11.856  12.667  64.753  1.00  0.00    -0.380 C  
HETATM    6  O   UNL     1     -11.395  13.247  65.992  1.00  0.00    -0.295 OA 
HETATM    7  C   UNL     1     -11.631  14.676  65.921  1.00  0.00    -0.327 C  
HETATM    8  H   UNL     1     -12.393  12.766  62.085  1.00  0.00     0.000 HD 
ENDROOT
BRANCH   5   9
HETATM    9  C   UNL     1     -11.017  11.446  64.381  1.00  0.00    -0.302 C  
HETATM   10  O   UNL     1     -11.144  11.137  62.996  1.00  0.00    -0.822 OA 
HETATM   11  H   UNL     1     -10.621  10.377  62.765  1.00  0.00     0.000 HD 
ENDBRANCH   5   9
BRANCH   7  12
HETATM   12  N   UNL     1     -10.391  15.379  66.183  1.00  0.00    -0.296 NA 
HETATM   13  C   UNL     1     -10.161  16.726  66.110  1.00  0.00    -0.345 A  
HETATM   14  N   UNL     1      -8.930  17.038  66.460  1.00  0.00    -0.254 NA 
HETATM   15  C   UNL     1      -8.341  15.837  66.789  1.00  0.00    -0.274 A  
HETATM   16  C   UNL     1      -7.060  15.506  67.263  1.00  0.00    -0.190 A  
HETATM   17  N   UNL     1      -6.085  16.456  67.529  1.00  0.00    -0.142 NA 
HETATM   18  N   UNL     1      -6.759  14.205  67.464  1.00  0.00    -0.252 NA 
HETATM   19  H1  UNL     1      -5.155  16.217  67.873  1.00  0.00     0.000 HD 
HETATM   20  C   UNL     1      -7.728  13.295  67.232  1.00  0.00    -0.088 A  
HETATM   21  H2  UNL     1      -6.486  17.132  68.180  1.00  0.00     0.000 HD 
HETATM   22 CL   UNL     1      -7.282  11.665  67.507  1.00  0.00    -0.110 Cl 
HETATM   23  N   UNL     1      -8.993  13.481  66.796  1.00  0.00    -0.213 NA 
HETATM   24  C   UNL     1      -9.228  14.787  66.598  1.00  0.00    -0.275 A  
ENDBRANCH   7  12
TORSDOF 2
ENDMDL
MODEL       93
REMARK 921   NORMALIZED FREE ENERGY PREDICTED BY IDOCK:   -4.71 KCAL/MOL
REMARK 922        TOTAL FREE ENERGY PREDICTED BY IDOCK:   -5.77 KCAL/MOL
REMARK 923 INTER-LIGAND FREE ENERGY PREDICTED BY IDOCK:   -5.17 KCAL/MOL
REMARK 924 INTRA-LIGAND FREE ENERGY PREDICTED BY IDOCK:   -0.60 KCAL/MOL
REMARK 927      BINDING AFFINITY PREDICTED BY RF-SCORE:    0.00 PKD
ROOT
HETATM    1  C   UNL     1     -10.249   5.966  67.439  1.00  0.00    -0.194 C  
HETATM    2  F   UNL     1     -11.512   6.445  67.515  1.00  0.00    -0.399 F  
HETATM    3  C   UNL     1      -9.995   5.336  66.082  1.00  0.00    -0.165 C  
HETATM    4  O   UNL     1     -10.443   3.987  65.972  1.00  0.00    -0.424 OA 
HETATM    5  C   UNL     1      -8.478   5.436  65.991  1.00  0.00    -0.123 C  
HETATM    6  O   UNL     1      -8.121   6.696  66.597  1.00  0.00    -0.107 OA 
HETATM    7  C   UNL     1      -9.185   7.058  67.515  1.00  0.00    -0.124 C  
HETATM    8  H   UNL     1     -10.284   3.593  65.122  1.00  0.00     0.000 HD 
ENDROOT
BRANCH   5   9
HETATM    9  C   UNL     1      -7.935   5.347  64.566  1.00  0.00    -0.116 C  
HETATM   10  O   UNL     1      -8.994   5.281  63.615  1.00  0.00    -0.343 OA 
HETATM   11  H   UNL     1      -8.656   5.226  62.728  1.00  0.00     0.000 HD 
ENDBRANCH   5   9
BRANCH   7  12
HETATM   12  N   UNL     1      -9.667   8.385  67.189  1.00  0.00    -0.173 NA 
HETATM   13  C   UNL     1      -9.590   9.031  65.985  1.00  0.00    -0.272 A  
HETATM   14  N   UNL     1     -10.172  10.212  66.019  1.00  0.00    -0.243 NA 
HETATM   15  C   UNL     1     -10.662  10.328  67.302  1.00  0.00    -0.263 A  
HETATM   16  C   UNL     1     -11.400  11.335  67.948  1.00  0.00    -0.299 A  
HETATM   17  N   UNL     1     -11.823  12.490  67.308  1.00  0.00    -0.475 NA 
HETATM   18  N   UNL     1     -11.710  11.175  69.253  1.00  0.00    -0.303 NA 
HETATM   19  H1  UNL     1     -12.359  13.221  67.777  1.00  0.00     0.000 HD 
HETATM   20  C   UNL     1     -11.319  10.031  69.853  1.00  0.00    -0.250 A  
HETATM   21  H2  UNL     1     -12.351  12.207  66.482  1.00  0.00     0.000 HD 
HETATM   22 CL   UNL     1     -11.743   9.891  71.506  1.00  0.00    -0.445 Cl 
HETATM   23  N   UNL     1     -10.627   8.988  69.346  1.00  0.00    -0.228 NA 
HETATM   24  C   UNL     1     -10.334   9.210  68.054  1.00  0.00    -0.222 A  
ENDBRANCH   7  12
TORSDOF 2
ENDMDL
MODEL       94
REMARK 921   NORMALIZED FREE ENERGY PREDICTED BY IDOCK:   -4.62 KCAL/MOL
REMARK 922        TOTAL FREE ENERGY PREDICTED BY IDOCK:   -5.66 KCAL/MOL
REMARK 923 INTER-LIGAND FREE ENERGY PREDICTED BY IDOCK:   -5.25 KCAL/MOL
REMARK 924 INTRA-LIGAND FREE ENERGY PREDICTED BY IDOCK:   -0.42 KCAL/MOL
REMARK 927      BINDING AFFINITY PREDICTED BY RF-SCORE:    0.00 PKD
ROOT
HETATM    1  C   UNL     1     -10.027   9.947  65.981  1.00  0.00    -0.268 C  
HETATM    2  F   UNL     1     -11.110  10.644  65.569  1.00  0.00    -0.139 F  
HETATM    3  C   UNL     1      -8.876  10.119  65.008  1.00  0.00    -0.181 C  
HETATM    4  O   UNL     1      -8.928   9.246  63.882  1.00  0.00    -0.384 OA 
HETATM    5  C   UNL     1      -7.685   9.811  65.906  1.00  0.00    -0.105 C  
HETATM    6  O   UNL     1      -8.001  10.370  67.199  1.00  0.00    -0.112 OA 
HETATM    7  C   UNL     1      -9.445  10.458  67.296  1.00  0.00    -0.154 C  
HETATM    8  H   UNL     1      -8.207   9.355  63.272  1.00  0.00     0.000 HD 
ENDROOT
BRANCH   5   9
HETATM    9  C   UNL     1      -6.358  10.364  65.386  1.00  0.00    -0.122 C  
HETATM   10  O   UNL     1      -6.027  11.593  66.027  1.00  0.00    -0.487 OA 
HETATM   11  H   UNL     1      -5.201  11.936  65.704  1.00  0.00     0.000 HD 
ENDBRANCH   5   9
BRANCH   7  12
HETATM   12  N   UNL     1      -9.819  11.819  67.625  1.00  0.00    -0.182 NA 
HETATM   13  C   UNL     1      -9.437  12.970  66.989  1.00  0.00    -0.237 A  
HETATM   14  N   UNL     1      -9.999  14.037  67.517  1.00  0.00    -0.234 NA 
HETATM   15  C   UNL     1     -10.796  13.552  68.531  1.00  0.00    -0.264 A  
HETATM   16  C   UNL     1     -11.665  14.182  69.439  1.00  0.00    -0.313 A  
HETATM   17  N   UNL     1     -11.904  15.548  69.431  1.00  0.00    -0.366 NA 
HETATM   18  N   UNL     1     -12.295  13.426  70.364  1.00  0.00    -0.333 NA 
HETATM   19  H1  UNL     1     -12.535  16.006  70.089  1.00  0.00     0.000 HD 
HETATM   20  C   UNL     1     -12.077  12.095  70.338  1.00  0.00    -0.309 A  
HETATM   21  H2  UNL     1     -12.209  15.800  68.490  1.00  0.00     0.000 HD 
HETATM   22 CL   UNL     1     -12.905  11.195  71.537  1.00  0.00    -0.545 Cl 
HETATM   23  N   UNL     1     -11.287  11.370  69.517  1.00  0.00    -0.276 NA 
HETATM   24  C   UNL     1     -10.677  12.174  68.632  1.00  0.00    -0.233 A  
ENDBRANCH   7  12
TORSDOF 2
ENDMDL
MODEL       95
REMARK 921   NORMALIZED FREE ENERGY PREDICTED BY IDOCK:   -4.60 KCAL/MOL
REMARK 922        TOTAL FREE ENERGY PREDICTED BY IDOCK:   -5.64 KCAL/MOL
REMARK 923 INTER-LIGAND FREE ENERGY PREDICTED BY IDOCK:   -4.99 KCAL/MOL
REMARK 924 INTRA-LIGAND FREE ENERGY PREDICTED BY IDOCK:   -0.65 KCAL/MOL
REMARK 927      BINDING AFFINITY PREDICTED BY RF-SCORE:    0.00 PKD
ROOT
HETATM    1  C   UNL     1      -9.675   7.913  67.034  1.00  0.00    -0.206 C  
HETATM    2  F   UNL     1     -11.016   7.995  66.881  1.00  0.00    -0.387 F  
HETATM    3  C   UNL     1      -9.070   7.000  65.984  1.00  0.00    -0.069 C  
HETATM    4  O   UNL     1      -9.127   5.614  66.311  1.00  0.00    -0.140 OA 
HETATM    5  C   UNL     1      -7.635   7.512  65.942  1.00  0.00    -0.088 C  
HETATM    6  O   UNL     1      -7.714   8.944  66.106  1.00  0.00    -0.096 OA 
HETATM    7  C   UNL     1      -8.958   9.238  66.793  1.00  0.00    -0.131 C  
HETATM    8  H   UNL     1      -8.748   5.043  65.653  1.00  0.00     0.000 HD 
ENDROOT
BRANCH   5   9
HETATM    9  C   UNL     1      -6.887   7.154  64.659  1.00  0.00    -0.050 C  
HETATM   10  O   UNL     1      -7.385   5.945  64.092  1.00  0.00    -0.056 OA 
HETATM   11  H   UNL     1      -6.919   5.723  63.294  1.00  0.00     0.000 HD 
ENDBRANCH   5   9
BRANCH   7  12
HETATM   12  N   UNL     1      -9.718  10.196  66.015  1.00  0.00    -0.211 NA 
HETATM   13  C   UNL     1      -9.836  10.263  64.653  1.00  0.00    -0.327 A  
HETATM   14  N   UNL     1     -10.647  11.229  64.273  1.00  0.00    -0.342 NA 
HETATM   15  C   UNL     1     -11.086  11.803  65.446  1.00  0.00    -0.279 A  
HETATM   16  C   UNL     1     -11.983  12.852  65.711  1.00  0.00    -0.443 A  
HETATM   17  N   UNL     1     -12.666  13.532  64.713  1.00  0.00    -0.680 NA 
HETATM   18  N   UNL     1     -12.188  13.221  66.994  1.00  0.00    -0.314 NA 
HETATM   19  H1  UNL     1     -13.318  14.293  64.905  1.00  0.00     0.000 HD 
HETATM   20  C   UNL     1     -11.541  12.530  67.955  1.00  0.00    -0.347 A  
HETATM   21  H2  UNL     1     -13.165  12.837  64.156  1.00  0.00     0.000 HD 
HETATM   22 CL   UNL     1     -11.845  13.047  69.558  1.00  0.00    -0.380 Cl 
HETATM   23  N   UNL     1     -10.674  11.501  67.836  1.00  0.00    -0.191 NA 
HETATM   24  C   UNL     1     -10.498  11.190  66.542  1.00  0.00    -0.255 A  
ENDBRANCH   7  12
TORSDOF 2
ENDMDL
MODEL       96
REMARK 921   NORMALIZED FREE ENERGY PREDICTED BY IDOCK:   -4.59 KCAL/MOL
REMARK 922        TOTAL FREE ENERGY PREDICTED BY IDOCK:   -5.64 KCAL/MOL
REMARK 923 INTER-LIGAND FREE ENERGY PREDICTED BY IDOCK:   -4.99 KCAL/MOL
REMARK 924 INTRA-LIGAND FREE ENERGY PREDICTED BY IDOCK:   -0.65 KCAL/MOL
REMARK 927      BINDING AFFINITY PREDICTED BY RF-SCORE:    0.00 PKD
ROOT
HETATM    1  C   UNL     1     -11.406   6.193  72.726  1.00  0.00    -0.222 C  
HETATM    2  F   UNL     1     -12.420   6.216  71.831  1.00  0.00    -0.373 F  
HETATM    3  C   UNL     1     -10.523   4.978  72.505  1.00  0.00    -0.215 C  
HETATM    4  O   UNL     1     -11.006   3.786  73.121  1.00  0.00    -0.183 OA 
HETATM    5  C   UNL     1      -9.217   5.448  73.132  1.00  0.00    -0.132 C  
HETATM    6  O   UNL     1      -9.097   6.850  72.810  1.00  0.00    -0.134 OA 
HETATM    7  C   UNL     1     -10.433   7.358  72.565  1.00  0.00    -0.236 C  
HETATM    8  H   UNL     1     -10.453   3.026  72.982  1.00  0.00     0.000 HD 
ENDROOT
BRANCH   5   9
HETATM    9  C   UNL     1      -7.988   4.675  72.654  1.00  0.00    -0.092 C  
HETATM   10  O   UNL     1      -8.233   3.272  72.645  1.00  0.00    -0.073 OA 
HETATM   11  H   UNL     1      -7.469   2.792  72.348  1.00  0.00     0.000 HD 
ENDBRANCH   5   9
BRANCH   7  12
HETATM   12  N   UNL     1     -10.472   7.992  71.262  1.00  0.00    -0.199 NA 
HETATM   13  C   UNL     1      -9.858   7.578  70.111  1.00  0.00    -0.180 A  
HETATM   14  N   UNL     1     -10.140   8.360  69.090  1.00  0.00    -0.198 NA 
HETATM   15  C   UNL     1     -10.989   9.317  69.602  1.00  0.00    -0.175 A  
HETATM   16  C   UNL     1     -11.657  10.405  69.015  1.00  0.00    -0.150 A  
HETATM   17  N   UNL     1     -11.575  10.701  67.662  1.00  0.00    -0.616 NA 
HETATM   18  N   UNL     1     -12.410  11.205  69.801  1.00  0.00    -0.283 NA 
HETATM   19  H1  UNL     1     -12.060  11.491  67.235  1.00  0.00     0.000 HD 
HETATM   20  C   UNL     1     -12.505  10.886  71.108  1.00  0.00    -0.405 A  
HETATM   21  H2  UNL     1     -11.848   9.862  67.149  1.00  0.00     0.000 HD 
HETATM   22 CL   UNL     1     -13.474  11.939  72.049  1.00  0.00    -0.473 Cl 
HETATM   23  N   UNL     1     -11.934   9.869  71.788  1.00  0.00    -0.339 NA 
HETATM   24  C   UNL     1     -11.187   9.120  70.961  1.00  0.00    -0.312 A  
ENDBRANCH   7  12
TORSDOF 2
ENDMDL
MODEL       97
REMARK 921   NORMALIZED FREE ENERGY PREDICTED BY IDOCK:   -4.58 KCAL/MOL
REMARK 922        TOTAL FREE ENERGY PREDICTED BY IDOCK:   -5.62 KCAL/MOL
REMARK 923 INTER-LIGAND FREE ENERGY PREDICTED BY IDOCK:   -5.60 KCAL/MOL
REMARK 924 INTRA-LIGAND FREE ENERGY PREDICTED BY IDOCK:   -0.03 KCAL/MOL
REMARK 927      BINDING AFFINITY PREDICTED BY RF-SCORE:    0.00 PKD
ROOT
HETATM    1  C   UNL     1      -7.367  12.681  67.679  1.00  0.00    -0.139 C  
HETATM    2  F   UNL     1      -6.923  11.893  66.674  1.00  0.00    -0.126 F  
HETATM    3  C   UNL     1      -7.175  14.147  67.336  1.00  0.00    -0.101 C  
HETATM    4  O   UNL     1      -5.868  14.645  67.611  1.00  0.00    -0.293 OA 
HETATM    5  C   UNL     1      -8.226  14.797  68.227  1.00  0.00    -0.142 C  
HETATM    6  O   UNL     1      -9.360  13.904  68.228  1.00  0.00    -0.201 OA 
HETATM    7  C   UNL     1      -8.873  12.576  67.908  1.00  0.00    -0.185 C  
HETATM    8  H   UNL     1      -5.748  15.563  67.396  1.00  0.00     0.000 HD 
ENDROOT
BRANCH   5   9
HETATM    9  C   UNL     1      -8.639  16.198  67.778  1.00  0.00    -0.167 C  
HETATM   10  O   UNL     1      -8.310  16.417  66.409  1.00  0.00    -0.274 OA 
HETATM   11  H   UNL     1      -8.567  17.289  66.130  1.00  0.00     0.000 HD 
ENDBRANCH   5   9
BRANCH   7  12
HETATM   12  N   UNL     1      -9.613  12.056  66.776  1.00  0.00    -0.203 NA 
HETATM   13  C   UNL     1      -9.791  10.745  66.422  1.00  0.00    -0.209 A  
HETATM   14  N   UNL     1     -10.562  10.618  65.362  1.00  0.00    -0.175 NA 
HETATM   15  C   UNL     1     -10.913  11.907  65.024  1.00  0.00    -0.312 A  
HETATM   16  C   UNL     1     -11.736  12.432  64.013  1.00  0.00    -0.420 A  
HETATM   17  N   UNL     1     -12.425  11.636  63.110  1.00  0.00    -0.949 NA 
HETATM   18  N   UNL     1     -11.859  13.774  63.909  1.00  0.00    -0.371 NA 
HETATM   19  H1  UNL     1     -13.022  12.017  62.376  1.00  0.00     0.000 HD 
HETATM   20  C   UNL     1     -11.208  14.534  64.814  1.00  0.00    -0.390 A  
HETATM   21  H2  UNL     1     -12.987  10.978  63.651  1.00  0.00     0.000 HD 
HETATM   22 CL   UNL     1     -11.407  16.224  64.626  1.00  0.00    -0.355 Cl 
HETATM   23  N   UNL     1     -10.408  14.158  65.834  1.00  0.00    -0.304 NA 
HETATM   24  C   UNL     1     -10.310  12.819  65.878  1.00  0.00    -0.283 A  
ENDBRANCH   7  12
TORSDOF 2
ENDMDL
MODEL       98
REMARK 921   NORMALIZED FREE ENERGY PREDICTED BY IDOCK:   -4.58 KCAL/MOL
REMARK 922        TOTAL FREE ENERGY PREDICTED BY IDOCK:   -5.62 KCAL/MOL
REMARK 923 INTER-LIGAND FREE ENERGY PREDICTED BY IDOCK:   -5.19 KCAL/MOL
REMARK 924 INTRA-LIGAND FREE ENERGY PREDICTED BY IDOCK:   -0.43 KCAL/MOL
REMARK 927      BINDING AFFINITY PREDICTED BY RF-SCORE:    0.00 PKD
ROOT
HETATM    1  C   UNL     1      -7.389  17.331  66.411  1.00  0.00    -0.301 C  
HETATM    2  F   UNL     1      -8.466  16.907  65.712  1.00  0.00    -0.289 F  
HETATM    3  C   UNL     1      -7.334  18.848  66.442  1.00  0.00    -0.246 C  
HETATM    4  O   UNL     1      -6.734  19.433  65.288  1.00  0.00    -0.307 OA 
HETATM    5  C   UNL     1      -6.499  19.085  67.694  1.00  0.00    -0.202 C  
HETATM    6  O   UNL     1      -6.901  18.074  68.643  1.00  0.00    -0.229 OA 
HETATM    7  C   UNL     1      -7.446  16.960  67.891  1.00  0.00    -0.169 C  
HETATM    8  H   UNL     1      -6.700  20.383  65.308  1.00  0.00     0.000 HD 
ENDROOT
BRANCH   5   9
HETATM    9  C   UNL     1      -6.661  20.483  68.290  1.00  0.00    -0.280 C  
HETATM   10  O   UNL     1      -5.697  20.721  69.312  1.00  0.00    -0.347 OA 
HETATM   11  H   UNL     1      -5.798  21.590  69.683  1.00  0.00     0.000 HD 
ENDBRANCH   5   9
BRANCH   7  12
HETATM   12  N   UNL     1      -8.776  16.658  68.380  1.00  0.00    -0.217 NA 
HETATM   13  C   UNL     1      -9.731  17.541  68.807  1.00  0.00    -0.298 A  
HETATM   14  N   UNL     1     -10.852  16.935  69.141  1.00  0.00    -0.289 NA 
HETATM   15  C   UNL     1     -10.614  15.598  68.904  1.00  0.00    -0.228 A  
HETATM   16  C   UNL     1     -11.421  14.454  69.034  1.00  0.00    -0.283 A  
HETATM   17  N   UNL     1     -12.745  14.505  69.442  1.00  0.00    -0.507 NA 
HETATM   18  N   UNL     1     -10.882  13.247  68.754  1.00  0.00    -0.249 NA 
HETATM   19  H1  UNL     1     -13.330  13.675  69.536  1.00  0.00     0.000 HD 
HETATM   20  C   UNL     1      -9.603  13.216  68.328  1.00  0.00    -0.218 A  
HETATM   21  H2  UNL     1     -13.231  15.153  68.821  1.00  0.00     0.000 HD 
HETATM   22 CL   UNL     1      -8.982  11.656  67.990  1.00  0.00    -0.169 Cl 
HETATM   23  N   UNL     1      -8.734  14.233  68.146  1.00  0.00    -0.167 NA 
HETATM   24  C   UNL     1      -9.317  15.403  68.454  1.00  0.00    -0.193 A  
ENDBRANCH   7  12
TORSDOF 2
ENDMDL
MODEL       99
REMARK 921   NORMALIZED FREE ENERGY PREDICTED BY IDOCK:   -4.57 KCAL/MOL
REMARK 922        TOTAL FREE ENERGY PREDICTED BY IDOCK:   -5.61 KCAL/MOL
REMARK 923 INTER-LIGAND FREE ENERGY PREDICTED BY IDOCK:   -5.83 KCAL/MOL
REMARK 924 INTRA-LIGAND FREE ENERGY PREDICTED BY IDOCK:    0.22 KCAL/MOL
REMARK 927      BINDING AFFINITY PREDICTED BY RF-SCORE:    0.00 PKD
ROOT
HETATM    1  C   UNL     1      -9.398   9.441  69.653  1.00  0.00    -0.189 C  
HETATM    2  F   UNL     1      -8.415  10.368  69.590  1.00  0.00    -0.162 F  
HETATM    3  C   UNL     1      -9.921   9.310  71.071  1.00  0.00    -0.293 C  
HETATM    4  O   UNL     1      -9.147   8.449  71.902  1.00  0.00    -0.177 OA 
HETATM    5  C   UNL     1     -11.314   8.748  70.819  1.00  0.00    -0.272 C  
HETATM    6  O   UNL     1     -11.799   9.396  69.624  1.00  0.00     0.184 OA 
HETATM    7  C   UNL     1     -10.644   9.830  68.862  1.00  0.00    -0.218 C  
HETATM    8  H   UNL     1      -9.475   8.367  72.790  1.00  0.00     0.000 HD 
ENDROOT
BRANCH   5   9
HETATM    9  C   UNL     1     -12.286   8.955  71.980  1.00  0.00    -0.390 C  
HETATM   10  O   UNL     1     -12.093   7.973  72.994  1.00  0.00    -0.646 OA 
HETATM   11  H   UNL     1     -12.697   8.102  73.716  1.00  0.00     0.000 HD 
ENDBRANCH   5   9
BRANCH   7  12
HETATM   12  N   UNL     1     -10.758  11.248  68.587  1.00  0.00    -0.194 NA 
HETATM   13  C   UNL     1     -10.262  11.936  67.512  1.00  0.00    -0.196 A  
HETATM   14  N   UNL     1     -10.589  13.211  67.546  1.00  0.00    -0.233 NA 
HETATM   15  C   UNL     1     -11.345  13.352  68.689  1.00  0.00    -0.286 A  
HETATM   16  C   UNL     1     -12.005  14.453  69.261  1.00  0.00    -0.324 A  
HETATM   17  N   UNL     1     -12.020  15.711  68.677  1.00  0.00    -0.537 NA 
HETATM   18  N   UNL     1     -12.650  14.284  70.436  1.00  0.00    -0.351 NA 
HETATM   19  H1  UNL     1     -12.499  16.511  69.091  1.00  0.00     0.000 HD 
HETATM   20  C   UNL     1     -12.653  13.048  70.975  1.00  0.00    -0.299 A  
HETATM   21  H2  UNL     1     -12.375  15.602  67.726  1.00  0.00     0.000 HD 
HETATM   22 CL   UNL     1     -13.488  12.902  72.463  1.00  0.00    -0.584 Cl 
HETATM   23  N   UNL     1     -12.078  11.912  70.524  1.00  0.00    -0.372 NA 
HETATM   24  C   UNL     1     -11.440  12.144  69.366  1.00  0.00    -0.290 A  
ENDBRANCH   7  12
TORSDOF 2
ENDMDL
MODEL      100
REMARK 921   NORMALIZED FREE ENERGY PREDICTED BY IDOCK:   -4.57 KCAL/MOL
REMARK 922        TOTAL FREE ENERGY PREDICTED BY IDOCK:   -5.61 KCAL/MOL
REMARK 923 INTER-LIGAND FREE ENERGY PREDICTED BY IDOCK:   -5.04 KCAL/MOL
REMARK 924 INTRA-LIGAND FREE ENERGY PREDICTED BY IDOCK:   -0.57 KCAL/MOL
REMARK 927      BINDING AFFINITY PREDICTED BY RF-SCORE:    0.00 PKD
ROOT
HETATM    1  C   UNL     1     -11.127  10.337  70.495  1.00  0.00    -0.306 C  
HETATM    2  F   UNL     1     -11.334  11.144  69.430  1.00  0.00    -0.237 F  
HETATM    3  C   UNL     1     -12.407   9.621  70.882  1.00  0.00    -0.263 C  
HETATM    4  O   UNL     1     -13.276  10.386  71.714  1.00  0.00    -0.420 OA 
HETATM    5  C   UNL     1     -11.854   8.404  71.612  1.00  0.00    -0.304 C  
HETATM    6  O   UNL     1     -10.660   8.016  70.899  1.00  0.00    -0.209 OA 
HETATM    7  C   UNL     1     -10.166   9.188  70.202  1.00  0.00    -0.205 C  
HETATM    8  H   UNL     1     -14.078   9.937  71.956  1.00  0.00     0.000 HD 
ENDROOT
BRANCH   5   9
HETATM    9  C   UNL     1     -12.835   7.236  71.703  1.00  0.00    -0.375 C  
HETATM   10  O   UNL     1     -13.989   7.470  70.900  1.00  0.00    -0.639 OA 
HETATM   11  H   UNL     1     -14.599   6.743  70.957  1.00  0.00     0.000 HD 
ENDBRANCH   5   9
BRANCH   7  12
HETATM   12  N   UNL     1     -10.015   8.879  68.794  1.00  0.00    -0.178 NA 
HETATM   13  C   UNL     1     -10.650   7.899  68.080  1.00  0.00    -0.132 A  
HETATM   14  N   UNL     1     -10.320   7.923  66.805  1.00  0.00    -0.316 NA 
HETATM   15  C   UNL     1      -9.442   8.979  66.687  1.00  0.00    -0.194 A  
HETATM   16  C   UNL     1      -8.767   9.533  65.586  1.00  0.00    -0.149 A  
HETATM   17  N   UNL     1      -8.920   9.061  64.290  1.00  0.00    -0.426 NA 
HETATM   18  N   UNL     1      -7.925  10.568  65.796  1.00  0.00    -0.156 NA 
HETATM   19  H1  UNL     1      -8.430   9.463  63.491  1.00  0.00     0.000 HD 
HETATM   20  C   UNL     1      -7.810  11.036  67.055  1.00  0.00    -0.137 A  
HETATM   21  H2  UNL     1      -9.918   9.077  64.076  1.00  0.00     0.000 HD 
HETATM   22 CL   UNL     1      -6.728  12.348  67.253  1.00  0.00    -0.152 Cl 
HETATM   23  N   UNL     1      -8.410  10.609  68.188  1.00  0.00    -0.117 NA 
HETATM   24  C   UNL     1      -9.220   9.572  67.921  1.00  0.00    -0.125 A  
ENDBRANCH   7  12
TORSDOF 2
ENDMDL
MODEL      101
REMARK 921   NORMALIZED FREE ENERGY PREDICTED BY IDOCK:   -4.56 KCAL/MOL
REMARK 922        TOTAL FREE ENERGY PREDICTED BY IDOCK:   -5.60 KCAL/MOL
REMARK 923 INTER-LIGAND FREE ENERGY PREDICTED BY IDOCK:   -4.96 KCAL/MOL
REMARK 924 INTRA-LIGAND FREE ENERGY PREDICTED BY IDOCK:   -0.63 KCAL/MOL
REMARK 927      BINDING AFFINITY PREDICTED BY RF-SCORE:    0.00 PKD
ROOT
HETATM    1  C   UNL     1     -10.091   8.174  71.662  1.00  0.00    -0.199 C  
HETATM    2  F   UNL     1      -9.441   9.300  72.035  1.00  0.00    -0.306 F  
HETATM    3  C   UNL     1     -11.422   8.060  72.383  1.00  0.00    -0.389 C  
HETATM    4  O   UNL     1     -11.332   7.497  73.689  1.00  0.00    -0.561 OA 
HETATM    5  C   UNL     1     -12.194   7.156  71.431  1.00  0.00    -0.362 C  
HETATM    6  O   UNL     1     -11.803   7.548  70.098  1.00  0.00    -0.044 OA 
HETATM    7  C   UNL     1     -10.496   8.171  70.191  1.00  0.00    -0.225 C  
HETATM    8  H   UNL     1     -12.166   7.425  74.140  1.00  0.00     0.000 HD 
ENDROOT
BRANCH   5   9
HETATM    9  C   UNL     1     -13.712   7.235  71.595  1.00  0.00    -0.347 C  
HETATM   10  O   UNL     1     -14.070   8.133  72.641  1.00  0.00    -0.587 OA 
HETATM   11  H   UNL     1     -15.014   8.182  72.742  1.00  0.00     0.000 HD 
ENDBRANCH   5   9
BRANCH   7  12
HETATM   12  N   UNL     1     -10.549   9.486  69.584  1.00  0.00    -0.218 NA 
HETATM   13  C   UNL     1     -11.518  10.440  69.738  1.00  0.00    -0.280 A  
HETATM   14  N   UNL     1     -11.233  11.546  69.081  1.00  0.00    -0.254 NA 
HETATM   15  C   UNL     1     -10.015  11.299  68.486  1.00  0.00    -0.202 A  
HETATM   16  C   UNL     1      -9.173  12.089  67.684  1.00  0.00    -0.182 A  
HETATM   17  N   UNL     1      -9.463  13.404  67.352  1.00  0.00    -0.214 NA 
HETATM   18  N   UNL     1      -8.032  11.544  67.209  1.00  0.00    -0.145 NA 
HETATM   19  H1  UNL     1      -8.853  13.978  66.769  1.00  0.00     0.000 HD 
HETATM   20  C   UNL     1      -7.748  10.275  67.567  1.00  0.00    -0.094 A  
HETATM   21  H2  UNL     1      -9.620  13.912  68.223  1.00  0.00     0.000 HD 
HETATM   22 CL   UNL     1      -6.288   9.646  66.932  1.00  0.00    -0.065 Cl 
HETATM   23  N   UNL     1      -8.456   9.422  68.338  1.00  0.00    -0.119 NA 
HETATM   24  C   UNL     1      -9.584  10.011  68.766  1.00  0.00    -0.168 A  
ENDBRANCH   7  12
TORSDOF 2
ENDMDL
MODEL      102
REMARK 921   NORMALIZED FREE ENERGY PREDICTED BY IDOCK:   -4.55 KCAL/MOL
REMARK 922        TOTAL FREE ENERGY PREDICTED BY IDOCK:   -5.59 KCAL/MOL
REMARK 923 INTER-LIGAND FREE ENERGY PREDICTED BY IDOCK:   -5.10 KCAL/MOL
REMARK 924 INTRA-LIGAND FREE ENERGY PREDICTED BY IDOCK:   -0.49 KCAL/MOL
REMARK 927      BINDING AFFINITY PREDICTED BY RF-SCORE:    0.00 PKD
ROOT
HETATM    1  C   UNL     1     -11.353  12.594  67.689  1.00  0.00    -0.310 C  
HETATM    2  F   UNL     1     -10.291  12.728  68.515  1.00  0.00    -0.222 F  
HETATM    3  C   UNL     1     -11.236  13.540  66.508  1.00  0.00    -0.306 C  
HETATM    4  O   UNL     1     -11.692  14.864  66.773  1.00  0.00    -0.335 OA 
HETATM    5  C   UNL     1     -12.113  12.836  65.481  1.00  0.00    -0.465 C  
HETATM    6  O   UNL     1     -11.889  11.421  65.663  1.00  0.00    -0.073 OA 
HETATM    7  C   UNL     1     -11.430  11.222  67.025  1.00  0.00    -0.096 C  
HETATM    8  H   UNL     1     -11.619  15.456  66.033  1.00  0.00     0.000 HD 
ENDROOT
BRANCH   5   9
HETATM    9  C   UNL     1     -11.830  13.248  64.037  1.00  0.00    -0.455 C  
HETATM   10  O   UNL     1     -12.528  14.442  63.696  1.00  0.00    -1.066 OA 
HETATM   11  H   UNL     1     -12.351  14.698  62.798  1.00  0.00     0.000 HD 
ENDBRANCH   5   9
BRANCH   7  12
HETATM   12  N   UNL     1     -10.176  10.497  67.005  1.00  0.00    -0.216 NA 
HETATM   13  C   UNL     1      -9.039  10.809  66.310  1.00  0.00    -0.175 A  
HETATM   14  N   UNL     1      -8.060   9.963  66.555  1.00  0.00    -0.116 NA 
HETATM   15  C   UNL     1      -8.585   9.069  67.464  1.00  0.00    -0.120 A  
HETATM   16  C   UNL     1      -8.036   7.960  68.129  1.00  0.00    -0.125 A  
HETATM   17  N   UNL     1      -6.715   7.565  67.975  1.00  0.00    -0.057 NA 
HETATM   18  N   UNL     1      -8.829   7.240  68.953  1.00  0.00    -0.128 NA 
HETATM   19  H1  UNL     1      -6.316   6.759  68.458  1.00  0.00     0.000 HD 
HETATM   20  C   UNL     1     -10.101   7.656  69.117  1.00  0.00    -0.194 A  
HETATM   21  H2  UNL     1      -6.128   8.371  68.190  1.00  0.00     0.000 HD 
HETATM   22 CL   UNL     1     -11.052   6.701  70.173  1.00  0.00    -0.351 Cl 
HETATM   23  N   UNL     1     -10.742   8.704  68.555  1.00  0.00    -0.107 NA 
HETATM   24  C   UNL     1      -9.911   9.370  67.737  1.00  0.00    -0.184 A  
ENDBRANCH   7  12
TORSDOF 2
ENDMDL
MODEL      103
REMARK 921   NORMALIZED FREE ENERGY PREDICTED BY IDOCK:   -4.52 KCAL/MOL
REMARK 922        TOTAL FREE ENERGY PREDICTED BY IDOCK:   -5.56 KCAL/MOL
REMARK 923 INTER-LIGAND FREE ENERGY PREDICTED BY IDOCK:   -4.90 KCAL/MOL
REMARK 924 INTRA-LIGAND FREE ENERGY PREDICTED BY IDOCK:   -0.66 KCAL/MOL
REMARK 927      BINDING AFFINITY PREDICTED BY RF-SCORE:    0.00 PKD
ROOT
HETATM    1  C   UNL     1      -9.735  10.842  69.225  1.00  0.00    -0.120 C  
HETATM    2  F   UNL     1      -8.668  10.067  69.527  1.00  0.00    -0.141 F  
HETATM    3  C   UNL     1      -9.421  11.754  68.054  1.00  0.00    -0.188 C  
HETATM    4  O   UNL     1      -8.736  12.951  68.414  1.00  0.00    -0.240 OA 
HETATM    5  C   UNL     1     -10.819  12.042  67.524  1.00  0.00    -0.241 C  
HETATM    6  O   UNL     1     -11.566  10.816  67.671  1.00  0.00    -0.523 OA 
HETATM    7  C   UNL     1     -10.937  10.045  68.728  1.00  0.00    -0.202 C  
HETATM    8  H   UNL     1      -8.539  13.522  67.680  1.00  0.00     0.000 HD 
ENDROOT
BRANCH   5   9
HETATM    9  C   UNL     1     -10.846  12.521  66.073  1.00  0.00    -0.276 C  
HETATM   10  O   UNL     1      -9.545  12.902  65.633  1.00  0.00    -0.443 OA 
HETATM   11  H   UNL     1      -9.562  13.200  64.731  1.00  0.00     0.000 HD 
ENDBRANCH   5   9
BRANCH   7  12
HETATM   12  N   UNL     1     -10.613   8.724  68.227  1.00  0.00    -0.184 NA 
HETATM   13  C   UNL     1     -10.175   8.388  66.974  1.00  0.00    -0.307 A  
HETATM   14  N   UNL     1      -9.925   7.099  66.866  1.00  0.00    -0.210 NA 
HETATM   15  C   UNL     1     -10.200   6.581  68.113  1.00  0.00    -0.168 A  
HETATM   16  C   UNL     1     -10.103   5.282  68.643  1.00  0.00    -0.168 A  
HETATM   17  N   UNL     1      -9.634   4.201  67.911  1.00  0.00    -0.166 NA 
HETATM   18  N   UNL     1     -10.489   5.073  69.921  1.00  0.00    -0.238 NA 
HETATM   19  H1  UNL     1      -9.564   3.259  68.296  1.00  0.00     0.000 HD 
HETATM   20  C   UNL     1     -10.913   6.140  70.629  1.00  0.00    -0.311 A  
HETATM   21  H2  UNL     1      -8.714   4.453  67.550  1.00  0.00     0.000 HD 
HETATM   22 CL   UNL     1     -11.386   5.807  72.240  1.00  0.00    -0.341 Cl 
HETATM   23  N   UNL     1     -11.036   7.430  70.247  1.00  0.00    -0.253 NA 
HETATM   24  C   UNL     1     -10.655   7.574  68.968  1.00  0.00    -0.180 A  
ENDBRANCH   7  12
TORSDOF 2
ENDMDL
MODEL      104
REMARK 921   NORMALIZED FREE ENERGY PREDICTED BY IDOCK:   -4.51 KCAL/MOL
REMARK 922        TOTAL FREE ENERGY PREDICTED BY IDOCK:   -5.54 KCAL/MOL
REMARK 923 INTER-LIGAND FREE ENERGY PREDICTED BY IDOCK:   -6.05 KCAL/MOL
REMARK 924 INTRA-LIGAND FREE ENERGY PREDICTED BY IDOCK:    0.51 KCAL/MOL
REMARK 927      BINDING AFFINITY PREDICTED BY RF-SCORE:    0.00 PKD
ROOT
HETATM    1  C   UNL     1     -11.859  12.730  70.068  1.00  0.00    -0.281 C  
HETATM    2  F   UNL     1     -12.950  13.500  69.850  1.00  0.00    -0.122 F  
HETATM    3  C   UNL     1     -12.259  11.280  70.272  1.00  0.00    -0.345 C  
HETATM    4  O   UNL     1     -12.665  10.968  71.602  1.00  0.00    -0.402 OA 
HETATM    5  C   UNL     1     -10.969  10.565  69.893  1.00  0.00    -0.298 C  
HETATM    6  O   UNL     1     -10.406  11.307  68.791  1.00  0.00    -0.195 OA 
HETATM    7  C   UNL     1     -10.919  12.662  68.868  1.00  0.00    -0.229 C  
HETATM    8  H   UNL     1     -12.916  10.060  71.729  1.00  0.00     0.000 HD 
ENDROOT
BRANCH   5   9
HETATM    9  C   UNL     1     -11.163   9.097  69.515  1.00  0.00     0.040 C  
HETATM   10  O   UNL     1     -11.963   8.418  70.478  1.00  0.00    -0.488 OA 
HETATM   11  H   UNL     1     -12.083   7.505  70.242  1.00  0.00     0.000 HD 
ENDBRANCH   5   9
BRANCH   7  12
HETATM   12  N   UNL     1     -11.537  13.011  67.605  1.00  0.00    -0.333 NA 
HETATM   13  C   UNL     1     -12.524  13.933  67.382  1.00  0.00     0.071 A  
HETATM   14  N   UNL     1     -12.824  14.038  66.104  1.00  0.00    -0.286 NA 
HETATM   15  C   UNL     1     -11.980  13.154  65.469  1.00  0.00    -0.412 A  
HETATM   16  C   UNL     1     -11.791  12.828  64.114  1.00  0.00    -0.413 A  
HETATM   17  N   UNL     1     -12.491  13.441  63.086  1.00  0.00    -0.904 NA 
HETATM   18  N   UNL     1     -10.892  11.871  63.797  1.00  0.00    -0.376 NA 
HETATM   19  H1  UNL     1     -12.355  13.205  62.103  1.00  0.00     0.000 HD 
HETATM   20  C   UNL     1     -10.197  11.307  64.806  1.00  0.00    -0.292 A  
HETATM   21  H2  UNL     1     -12.353  14.448  63.180  1.00  0.00     0.000 HD 
HETATM   22 CL   UNL     1      -9.074  10.102  64.336  1.00  0.00    -0.255 Cl 
HETATM   23  N   UNL     1     -10.270  11.539  66.134  1.00  0.00    -0.225 NA 
HETATM   24  C   UNL     1     -11.188  12.485  66.390  1.00  0.00    -0.306 A  
ENDBRANCH   7  12
TORSDOF 2
ENDMDL
MODEL      105
REMARK 921   NORMALIZED FREE ENERGY PREDICTED BY IDOCK:   -4.50 KCAL/MOL
REMARK 922        TOTAL FREE ENERGY PREDICTED BY IDOCK:   -5.53 KCAL/MOL
REMARK 923 INTER-LIGAND FREE ENERGY PREDICTED BY IDOCK:   -5.68 KCAL/MOL
REMARK 924 INTRA-LIGAND FREE ENERGY PREDICTED BY IDOCK:    0.15 KCAL/MOL
REMARK 927      BINDING AFFINITY PREDICTED BY RF-SCORE:    0.00 PKD
ROOT
HETATM    1  C   UNL     1     -11.598  12.963  69.001  1.00  0.00    -0.322 C  
HETATM    2  F   UNL     1     -11.424  13.356  70.283  1.00  0.00    -0.276 F  
HETATM    3  C   UNL     1     -10.260  12.808  68.301  1.00  0.00    -0.244 C  
HETATM    4  O   UNL     1      -9.726  14.026  67.787  1.00  0.00    -0.218 OA 
HETATM    5  C   UNL     1     -10.623  11.835  67.187  1.00  0.00    -0.231 C  
HETATM    6  O   UNL     1     -11.573  10.910  67.755  1.00  0.00    -0.523 OA 
HETATM    7  C   UNL     1     -12.214  11.572  68.875  1.00  0.00    -0.064 C  
HETATM    8  H   UNL     1      -8.889  13.929  67.349  1.00  0.00     0.000 HD 
ENDROOT
BRANCH   5   9
HETATM    9  C   UNL     1      -9.424  11.090  66.601  1.00  0.00    -0.184 C  
HETATM   10  O   UNL     1      -8.480  11.996  66.037  1.00  0.00    -0.391 OA 
HETATM   11  H   UNL     1      -7.735  11.532  65.673  1.00  0.00     0.000 HD 
ENDBRANCH   5   9
BRANCH   7  12
HETATM   12  N   UNL     1     -12.075  10.748  70.060  1.00  0.00    -0.325 NA 
HETATM   13  C   UNL     1     -13.014  10.506  71.026  1.00  0.00    -0.383 A  
HETATM   14  N   UNL     1     -12.576   9.670  71.944  1.00  0.00    -0.393 NA 
HETATM   15  C   UNL     1     -11.299   9.343  71.543  1.00  0.00    -0.394 A  
HETATM   16  C   UNL     1     -10.328   8.480  72.080  1.00  0.00    -0.338 A  
HETATM   17  N   UNL     1     -10.544   7.712  73.214  1.00  0.00    -0.375 NA 
HETATM   18  N   UNL     1      -9.126   8.395  71.467  1.00  0.00    -0.176 NA 
HETATM   19  H1  UNL     1      -9.839   7.085  73.604  1.00  0.00     0.000 HD 
HETATM   20  C   UNL     1      -8.942   9.124  70.347  1.00  0.00    -0.229 A  
HETATM   21  H2  UNL     1     -11.388   7.161  73.054  1.00  0.00     0.000 HD 
HETATM   22 CL   UNL     1      -7.399   8.971  69.621  1.00  0.00    -0.061 Cl 
HETATM   23  N   UNL     1      -9.791   9.970  69.725  1.00  0.00    -0.238 NA 
HETATM   24  C   UNL     1     -10.958  10.026  70.385  1.00  0.00    -0.320 A  
ENDBRANCH   7  12
TORSDOF 2
ENDMDL
MODEL      106
REMARK 921   NORMALIZED FREE ENERGY PREDICTED BY IDOCK:   -4.47 KCAL/MOL
REMARK 922        TOTAL FREE ENERGY PREDICTED BY IDOCK:   -5.50 KCAL/MOL
REMARK 923 INTER-LIGAND FREE ENERGY PREDICTED BY IDOCK:   -5.69 KCAL/MOL
REMARK 924 INTRA-LIGAND FREE ENERGY PREDICTED BY IDOCK:    0.19 KCAL/MOL
REMARK 927      BINDING AFFINITY PREDICTED BY RF-SCORE:    0.00 PKD
ROOT
HETATM    1  C   UNL     1     -10.592   6.683  71.408  1.00  0.00    -0.224 C  
HETATM    2  F   UNL     1      -9.299   7.067  71.306  1.00  0.00    -0.157 F  
HETATM    3  C   UNL     1     -11.403   7.723  72.158  1.00  0.00    -0.302 C  
HETATM    4  O   UNL     1     -11.326   7.611  73.577  1.00  0.00    -0.604 OA 
HETATM    5  C   UNL     1     -12.806   7.429  71.644  1.00  0.00    -0.367 C  
HETATM    6  O   UNL     1     -12.659   7.081  70.250  1.00  0.00    -0.016 OA 
HETATM    7  C   UNL     1     -11.303   6.599  70.060  1.00  0.00    -0.382 C  
HETATM    8  H   UNL     1     -11.834   8.263  74.047  1.00  0.00     0.000 HD 
ENDROOT
BRANCH   5   9
HETATM    9  C   UNL     1     -13.785   8.590  71.812  1.00  0.00    -0.407 C  
HETATM   10  O   UNL     1     -13.912   8.961  73.181  1.00  0.00    -1.118 OA 
HETATM   11  H   UNL     1     -14.521   9.684  73.286  1.00  0.00     0.000 HD 
ENDBRANCH   5   9
BRANCH   7  12
HETATM   12  N   UNL     1     -10.670   7.360  69.002  1.00  0.00    -0.187 NA 
HETATM   13  C   UNL     1      -9.982   6.879  67.921  1.00  0.00    -0.147 A  
HETATM   14  N   UNL     1      -9.575   7.844  67.123  1.00  0.00    -0.159 NA 
HETATM   15  C   UNL     1     -10.036   9.004  67.708  1.00  0.00    -0.208 A  
HETATM   16  C   UNL     1      -9.955  10.355  67.328  1.00  0.00    -0.188 A  
HETATM   17  N   UNL     1      -9.351  10.774  66.152  1.00  0.00    -0.177 NA 
HETATM   18  N   UNL     1     -10.484  11.291  68.146  1.00  0.00    -0.182 NA 
HETATM   19  H1  UNL     1      -9.292  11.755  65.877  1.00  0.00     0.000 HD 
HETATM   20  C   UNL     1     -11.097  10.865  69.270  1.00  0.00    -0.248 A  
HETATM   21  H2  UNL     1      -9.792  10.267  65.384  1.00  0.00     0.000 HD 
HETATM   22 CL   UNL     1     -11.746  12.100  70.262  1.00  0.00    -0.315 Cl 
HETATM   23  N   UNL     1     -11.256   9.608  69.738  1.00  0.00    -0.211 NA 
HETATM   24  C   UNL     1     -10.698   8.725  68.894  1.00  0.00    -0.087 A  
ENDBRANCH   7  12
TORSDOF 2
ENDMDL
MODEL      107
REMARK 921   NORMALIZED FREE ENERGY PREDICTED BY IDOCK:   -4.47 KCAL/MOL
REMARK 922        TOTAL FREE ENERGY PREDICTED BY IDOCK:   -5.50 KCAL/MOL
REMARK 923 INTER-LIGAND FREE ENERGY PREDICTED BY IDOCK:   -5.41 KCAL/MOL
REMARK 924 INTRA-LIGAND FREE ENERGY PREDICTED BY IDOCK:   -0.09 KCAL/MOL
REMARK 927      BINDING AFFINITY PREDICTED BY RF-SCORE:    0.00 PKD
ROOT
HETATM    1  C   UNL     1     -10.557  17.164  67.717  1.00  0.00    -0.360 C  
HETATM    2  F   UNL     1     -11.199  16.569  68.748  1.00  0.00    -0.316 F  
HETATM    3  C   UNL     1      -9.067  17.250  67.992  1.00  0.00    -0.249 C  
HETATM    4  O   UNL     1      -8.683  18.367  68.790  1.00  0.00    -0.301 OA 
HETATM    5  C   UNL     1      -8.513  17.352  66.577  1.00  0.00    -0.264 C  
HETATM    6  O   UNL     1      -9.338  16.493  65.760  1.00  0.00    -0.487 OA 
HETATM    7  C   UNL     1     -10.622  16.361  66.422  1.00  0.00    -0.236 C  
HETATM    8  H   UNL     1      -7.750  18.420  68.962  1.00  0.00     0.000 HD 
ENDROOT
BRANCH   5   9
HETATM    9  C   UNL     1      -7.040  16.962  66.457  1.00  0.00    -0.246 C  
HETATM   10  O   UNL     1      -6.521  16.524  67.710  1.00  0.00    -0.125 OA 
HETATM   11  H   UNL     1      -5.605  16.281  67.635  1.00  0.00     0.000 HD 
ENDBRANCH   5   9
BRANCH   7  12
HETATM   12  N   UNL     1     -10.921  14.954  66.605  1.00  0.00    -0.321 NA 
HETATM   13  C   UNL     1     -12.136  14.335  66.487  1.00  0.00    -0.429 A  
HETATM   14  N   UNL     1     -12.048  13.034  66.672  1.00  0.00    -0.398 NA 
HETATM   15  C   UNL     1     -10.710  12.800  66.906  1.00  0.00    -0.253 A  
HETATM   16  C   UNL     1      -9.980  11.622  67.144  1.00  0.00    -0.199 A  
HETATM   17  N   UNL     1     -10.561  10.362  67.151  1.00  0.00    -0.256 NA 
HETATM   18  N   UNL     1      -8.654  11.718  67.380  1.00  0.00    -0.154 NA 
HETATM   19  H1  UNL     1     -10.031   9.507  67.323  1.00  0.00     0.000 HD 
HETATM   20  C   UNL     1      -8.098  12.946  67.338  1.00  0.00    -0.181 A  
HETATM   21  H2  UNL     1     -11.049  10.245  66.263  1.00  0.00     0.000 HD 
HETATM   22 CL   UNL     1      -6.415  12.999  67.646  1.00  0.00    -0.151 Cl 
HETATM   23  N   UNL     1      -8.679  14.144  67.107  1.00  0.00    -0.219 NA 
HETATM   24  C   UNL     1      -9.995  13.988  66.895  1.00  0.00    -0.263 A  
ENDBRANCH   7  12
TORSDOF 2
ENDMDL
MODEL      108
REMARK 921   NORMALIZED FREE ENERGY PREDICTED BY IDOCK:   -4.44 KCAL/MOL
REMARK 922        TOTAL FREE ENERGY PREDICTED BY IDOCK:   -5.47 KCAL/MOL
REMARK 923 INTER-LIGAND FREE ENERGY PREDICTED BY IDOCK:   -4.85 KCAL/MOL
REMARK 924 INTRA-LIGAND FREE ENERGY PREDICTED BY IDOCK:   -0.62 KCAL/MOL
REMARK 927      BINDING AFFINITY PREDICTED BY RF-SCORE:    0.00 PKD
ROOT
HETATM    1  C   UNL     1     -11.985  12.908  68.731  1.00  0.00    -0.253 C  
HETATM    2  F   UNL     1     -11.658  12.035  69.710  1.00  0.00    -0.328 F  
HETATM    3  C   UNL     1     -11.795  14.338  69.202  1.00  0.00    -0.330 C  
HETATM    4  O   UNL     1     -12.895  14.860  69.944  1.00  0.00    -0.593 OA 
HETATM    5  C   UNL     1     -11.616  15.063  67.874  1.00  0.00    -0.333 C  
HETATM    6  O   UNL     1     -10.856  14.173  67.029  1.00  0.00    -0.289 OA 
HETATM    7  C   UNL     1     -11.067  12.822  67.515  1.00  0.00    -0.263 C  
HETATM    8  H   UNL     1     -12.775  15.756  70.238  1.00  0.00     0.000 HD 
ENDROOT
BRANCH   5   9
HETATM    9  C   UNL     1     -10.921  16.418  67.996  1.00  0.00    -0.327 C  
HETATM   10  O   UNL     1     -10.414  16.620  69.312  1.00  0.00    -0.300 OA 
HETATM   11  H   UNL     1      -9.982  17.463  69.388  1.00  0.00     0.000 HD 
ENDBRANCH   5   9
BRANCH   7  12
HETATM   12  N   UNL     1      -9.783  12.203  67.779  1.00  0.00    -0.192 NA 
HETATM   13  C   UNL     1      -8.609  12.821  68.117  1.00  0.00    -0.185 A  
HETATM   14  N   UNL     1      -7.640  11.957  68.336  1.00  0.00    -0.114 NA 
HETATM   15  C   UNL     1      -8.219  10.721  68.146  1.00  0.00    -0.119 A  
HETATM   16  C   UNL     1      -7.720   9.412  68.259  1.00  0.00    -0.083 A  
HETATM   17  N   UNL     1      -6.420   9.131  68.654  1.00  0.00    -0.053 NA 
HETATM   18  N   UNL     1      -8.539   8.378  67.966  1.00  0.00    -0.134 NA 
HETATM   19  H1  UNL     1      -6.058   8.181  68.737  1.00  0.00     0.000 HD 
HETATM   20  C   UNL     1      -9.808   8.666  67.615  1.00  0.00    -0.180 A  
HETATM   21  H2  UNL     1      -6.266   9.595  69.550  1.00  0.00     0.000 HD 
HETATM   22 CL   UNL     1     -10.793   7.312  67.257  1.00  0.00    -0.376 Cl 
HETATM   23  N   UNL     1     -10.412   9.868  67.485  1.00  0.00    -0.237 NA 
HETATM   24  C   UNL     1      -9.548  10.854  67.772  1.00  0.00    -0.164 A  
ENDBRANCH   7  12
TORSDOF 2
ENDMDL
MODEL      109
REMARK 921   NORMALIZED FREE ENERGY PREDICTED BY IDOCK:   -4.44 KCAL/MOL
REMARK 922        TOTAL FREE ENERGY PREDICTED BY IDOCK:   -5.47 KCAL/MOL
REMARK 923 INTER-LIGAND FREE ENERGY PREDICTED BY IDOCK:   -4.82 KCAL/MOL
REMARK 924 INTRA-LIGAND FREE ENERGY PREDICTED BY IDOCK:   -0.65 KCAL/MOL
REMARK 927      BINDING AFFINITY PREDICTED BY RF-SCORE:    0.00 PKD
ROOT
HETATM    1  C   UNL     1     -12.294   8.624  71.647  1.00  0.00    -0.333 C  
HETATM    2  F   UNL     1     -11.893   8.138  72.844  1.00  0.00    -0.452 F  
HETATM    3  C   UNL     1     -12.412  10.136  71.695  1.00  0.00    -0.409 C  
HETATM    4  O   UNL     1     -13.648  10.608  72.227  1.00  0.00    -0.542 OA 
HETATM    5  C   UNL     1     -12.260  10.489  70.221  1.00  0.00    -0.311 C  
HETATM    6  O   UNL     1     -11.280   9.573  69.687  1.00  0.00    -0.206 OA 
HETATM    7  C   UNL     1     -11.277   8.394  70.533  1.00  0.00    -0.238 C  
HETATM    8  H   UNL     1     -13.722  11.555  72.257  1.00  0.00     0.000 HD 
ENDROOT
BRANCH   5   9
HETATM    9  C   UNL     1     -11.842  11.937  69.971  1.00  0.00    -0.328 C  
HETATM   10  O   UNL     1     -12.185  12.770  71.074  1.00  0.00    -0.401 OA 
HETATM   11  H   UNL     1     -11.924  13.671  70.918  1.00  0.00     0.000 HD 
ENDBRANCH   5   9
BRANCH   7  12
HETATM   12  N   UNL     1      -9.927   8.143  70.998  1.00  0.00    -0.185 NA 
HETATM   13  C   UNL     1      -8.962   9.065  71.300  1.00  0.00    -0.211 A  
HETATM   14  N   UNL     1      -7.858   8.499  71.743  1.00  0.00    -0.145 NA 
HETATM   15  C   UNL     1      -8.130   7.148  71.742  1.00  0.00    -0.101 A  
HETATM   16  C   UNL     1      -7.374   6.028  72.130  1.00  0.00    -0.094 A  
HETATM   17  N   UNL     1      -6.097   6.126  72.663  1.00  0.00    -0.044 NA 
HETATM   18  N   UNL     1      -7.910   4.798  71.973  1.00  0.00    -0.098 NA 
HETATM   19  H1  UNL     1      -5.548   5.313  72.944  1.00  0.00     0.000 HD 
HETATM   20  C   UNL     1      -9.165   4.720  71.484  1.00  0.00    -0.142 A  
HETATM   21  H2  UNL     1      -6.148   6.753  73.466  1.00  0.00     0.000 HD 
HETATM   22 CL   UNL     1      -9.785   3.134  71.311  1.00  0.00    -0.231 Cl 
HETATM   23  N   UNL     1      -9.997   5.710  71.093  1.00  0.00    -0.183 NA 
HETATM   24  C   UNL     1      -9.406   6.904  71.256  1.00  0.00    -0.164 A  
ENDBRANCH   7  12
TORSDOF 2
ENDMDL
MODEL      110
REMARK 921   NORMALIZED FREE ENERGY PREDICTED BY IDOCK:   -4.43 KCAL/MOL
REMARK 922        TOTAL FREE ENERGY PREDICTED BY IDOCK:   -5.46 KCAL/MOL
REMARK 923 INTER-LIGAND FREE ENERGY PREDICTED BY IDOCK:   -5.81 KCAL/MOL
REMARK 924 INTRA-LIGAND FREE ENERGY PREDICTED BY IDOCK:    0.35 KCAL/MOL
REMARK 927      BINDING AFFINITY PREDICTED BY RF-SCORE:    0.00 PKD
ROOT
HETATM    1  C   UNL     1     -10.827  10.212  70.349  1.00  0.00    -0.301 C  
HETATM    2  F   UNL     1     -10.751  10.761  69.115  1.00  0.00    -0.184 F  
HETATM    3  C   UNL     1     -12.261  10.205  70.845  1.00  0.00    -0.356 C  
HETATM    4  O   UNL     1     -12.680  11.432  71.437  1.00  0.00    -0.401 OA 
HETATM    5  C   UNL     1     -12.213   9.074  71.864  1.00  0.00    -0.381 C  
HETATM    6  O   UNL     1     -11.336   8.070  71.311  1.00  0.00    -0.254 OA 
HETATM    7  C   UNL     1     -10.447   8.734  70.375  1.00  0.00    -0.209 C  
HETATM    8  H   UNL     1     -13.578  11.427  71.748  1.00  0.00     0.000 HD 
ENDROOT
BRANCH   5   9
HETATM    9  C   UNL     1     -13.581   8.476  72.192  1.00  0.00    -0.364 C  
HETATM   10  O   UNL     1     -14.330   9.340  73.041  1.00  0.00    -1.004 OA 
HETATM   11  H   UNL     1     -15.181   8.968  73.245  1.00  0.00     0.000 HD 
ENDBRANCH   5   9
BRANCH   7  12
HETATM   12  N   UNL     1     -10.529   8.073  69.088  1.00  0.00    -0.220 NA 
HETATM   13  C   UNL     1     -10.785   8.642  67.870  1.00  0.00    -0.093 A  
HETATM   14  N   UNL     1     -10.740   7.761  66.892  1.00  0.00    -0.298 NA 
HETATM   15  C   UNL     1     -10.424   6.568  67.506  1.00  0.00    -0.240 A  
HETATM   16  C   UNL     1     -10.204   5.273  67.006  1.00  0.00    -0.234 A  
HETATM   17  N   UNL     1     -10.250   4.967  65.654  1.00  0.00    -0.417 NA 
HETATM   18  N   UNL     1      -9.941   4.277  67.880  1.00  0.00    -0.056 NA 
HETATM   19  H1  UNL     1     -10.090   4.028  65.291  1.00  0.00     0.000 HD 
HETATM   20  C   UNL     1      -9.868   4.596  69.188  1.00  0.00    -0.172 A  
HETATM   21  H2  UNL     1      -9.600   5.593  65.177  1.00  0.00     0.000 HD 
HETATM   22 CL   UNL     1      -9.531   3.289  70.242  1.00  0.00    -0.242 Cl 
HETATM   23  N   UNL     1     -10.040   5.792  69.791  1.00  0.00    -0.191 NA 
HETATM   24  C   UNL     1     -10.314   6.737  68.878  1.00  0.00    -0.192 A  
ENDBRANCH   7  12
TORSDOF 2
ENDMDL
MODEL      111
REMARK 921   NORMALIZED FREE ENERGY PREDICTED BY IDOCK:   -4.41 KCAL/MOL
REMARK 922        TOTAL FREE ENERGY PREDICTED BY IDOCK:   -5.43 KCAL/MOL
REMARK 923 INTER-LIGAND FREE ENERGY PREDICTED BY IDOCK:   -4.87 KCAL/MOL
REMARK 924 INTRA-LIGAND FREE ENERGY PREDICTED BY IDOCK:   -0.56 KCAL/MOL
REMARK 927      BINDING AFFINITY PREDICTED BY RF-SCORE:    0.00 PKD
ROOT
HETATM    1  C   UNL     1     -10.697   9.767  69.254  1.00  0.00    -0.224 C  
HETATM    2  F   UNL     1     -11.694   9.487  68.385  1.00  0.00     0.108 F  
HETATM    3  C   UNL     1     -10.045   8.491  69.752  1.00  0.00    -0.197 C  
HETATM    4  O   UNL     1     -10.729   7.871  70.839  1.00  0.00    -0.216 OA 
HETATM    5  C   UNL     1      -8.673   9.005  70.169  1.00  0.00    -0.173 C  
HETATM    6  O   UNL     1      -8.308  10.008  69.197  1.00  0.00    -0.123 OA 
HETATM    7  C   UNL     1      -9.534  10.520  68.614  1.00  0.00    -0.172 C  
HETATM    8  H   UNL     1     -10.321   7.072  71.150  1.00  0.00     0.000 HD 
ENDROOT
BRANCH   5   9
HETATM    9  C   UNL     1      -7.603   7.918  70.253  1.00  0.00    -0.086 C  
HETATM   10  O   UNL     1      -7.893   6.991  71.295  1.00  0.00    -0.097 OA 
HETATM   11  H   UNL     1      -7.227   6.315  71.348  1.00  0.00     0.000 HD 
ENDBRANCH   5   9
BRANCH   7  12
HETATM   12  N   UNL     1      -9.464  10.397  67.171  1.00  0.00    -0.157 NA 
HETATM   13  C   UNL     1      -8.678   9.548  66.440  1.00  0.00    -0.135 A  
HETATM   14  N   UNL     1      -8.898   9.660  65.146  1.00  0.00    -0.167 NA 
HETATM   15  C   UNL     1      -9.884  10.617  65.037  1.00  0.00    -0.293 A  
HETATM   16  C   UNL     1     -10.565  11.155  63.932  1.00  0.00    -0.364 A  
HETATM   17  N   UNL     1     -10.341  10.735  62.629  1.00  0.00    -0.759 NA 
HETATM   18  N   UNL     1     -11.477  12.129  64.144  1.00  0.00    -0.360 NA 
HETATM   19  H1  UNL     1     -10.836  11.126  61.827  1.00  0.00     0.000 HD 
HETATM   20  C   UNL     1     -11.706  12.504  65.419  1.00  0.00    -0.398 A  
HETATM   21  H2  UNL     1     -10.474   9.724  62.607  1.00  0.00     0.000 HD 
HETATM   22 CL   UNL     1     -12.872  13.742  65.619  1.00  0.00    -0.519 Cl 
HETATM   23  N   UNL     1     -11.138  12.059  66.561  1.00  0.00    -0.299 NA 
HETATM   24  C   UNL     1     -10.232  11.107  66.287  1.00  0.00    -0.239 A  
ENDBRANCH   7  12
TORSDOF 2
ENDMDL
MODEL      112
REMARK 921   NORMALIZED FREE ENERGY PREDICTED BY IDOCK:   -4.37 KCAL/MOL
REMARK 922        TOTAL FREE ENERGY PREDICTED BY IDOCK:   -5.39 KCAL/MOL
REMARK 923 INTER-LIGAND FREE ENERGY PREDICTED BY IDOCK:   -5.53 KCAL/MOL
REMARK 924 INTRA-LIGAND FREE ENERGY PREDICTED BY IDOCK:    0.14 KCAL/MOL
REMARK 927      BINDING AFFINITY PREDICTED BY RF-SCORE:    0.00 PKD
ROOT
HETATM    1  C   UNL     1     -10.344  18.335  67.302  1.00  0.00    -0.390 C  
HETATM    2  F   UNL     1     -11.236  17.544  67.940  1.00  0.00    -0.320 F  
HETATM    3  C   UNL     1      -9.051  18.430  68.090  1.00  0.00    -0.309 C  
HETATM    4  O   UNL     1      -9.070  19.404  69.130  1.00  0.00    -0.315 OA 
HETATM    5  C   UNL     1      -8.064  18.799  66.990  1.00  0.00    -0.258 C  
HETATM    6  O   UNL     1      -8.476  18.066  65.816  1.00  0.00    -0.499 OA 
HETATM    7  C   UNL     1      -9.889  17.769  65.960  1.00  0.00    -0.168 C  
HETATM    8  H   UNL     1      -8.260  19.462  69.623  1.00  0.00     0.000 HD 
ENDROOT
BRANCH   5   9
HETATM    9  C   UNL     1      -6.607  18.494  67.335  1.00  0.00    -0.196 C  
HETATM   10  O   UNL     1      -6.193  17.254  66.768  1.00  0.00    -0.162 OA 
HETATM   11  H   UNL     1      -5.287  17.065  66.983  1.00  0.00     0.000 HD 
ENDBRANCH   5   9
BRANCH   7  12
HETATM   12  N   UNL     1     -10.094  16.342  65.813  1.00  0.00    -0.460 NA 
HETATM   13  C   UNL     1     -10.922  15.702  64.931  1.00  0.00    -0.431 A  
HETATM   14  N   UNL     1     -10.833  14.391  65.029  1.00  0.00    -0.382 NA 
HETATM   15  C   UNL     1      -9.891  14.175  66.011  1.00  0.00    -0.309 A  
HETATM   16  C   UNL     1      -9.336  13.002  66.552  1.00  0.00    -0.217 A  
HETATM   17  N   UNL     1      -9.673  11.732  66.106  1.00  0.00    -0.223 NA 
HETATM   18  N   UNL     1      -8.438  13.112  67.555  1.00  0.00    -0.185 NA 
HETATM   19  H1  UNL     1      -9.271  10.880  66.498  1.00  0.00     0.000 HD 
HETATM   20  C   UNL     1      -8.097  14.353  67.955  1.00  0.00    -0.142 A  
HETATM   21  H2  UNL     1      -9.513  11.709  65.098  1.00  0.00     0.000 HD 
HETATM   22 CL   UNL     1      -6.954  14.423  69.228  1.00  0.00    -0.126 Cl 
HETATM   23  N   UNL     1      -8.538  15.550  67.512  1.00  0.00    -0.164 NA 
HETATM   24  C   UNL     1      -9.438  15.378  66.530  1.00  0.00    -0.273 A  
ENDBRANCH   7  12
TORSDOF 2
ENDMDL
MODEL      113
REMARK 921   NORMALIZED FREE ENERGY PREDICTED BY IDOCK:   -4.35 KCAL/MOL
REMARK 922        TOTAL FREE ENERGY PREDICTED BY IDOCK:   -5.37 KCAL/MOL
REMARK 923 INTER-LIGAND FREE ENERGY PREDICTED BY IDOCK:   -5.10 KCAL/MOL
REMARK 924 INTRA-LIGAND FREE ENERGY PREDICTED BY IDOCK:   -0.27 KCAL/MOL
REMARK 927      BINDING AFFINITY PREDICTED BY RF-SCORE:    0.00 PKD
ROOT
HETATM    1  C   UNL     1     -10.942  11.497  66.540  1.00  0.00    -0.293 C  
HETATM    2  F   UNL     1      -9.849  11.271  65.777  1.00  0.00    -0.223 F  
HETATM    3  C   UNL     1     -10.940  10.596  67.761  1.00  0.00    -0.306 C  
HETATM    4  O   UNL     1     -11.457   9.289  67.523  1.00  0.00    -0.090 OA 
HETATM    5  C   UNL     1     -11.826  11.389  68.713  1.00  0.00    -0.323 C  
HETATM    6  O   UNL     1     -11.513  12.780  68.489  1.00  0.00    -0.263 OA 
HETATM    7  C   UNL     1     -10.975  12.897  67.147  1.00  0.00    -0.262 C  
HETATM    8  H   UNL     1     -11.455   8.725  68.288  1.00  0.00     0.000 HD 
ENDROOT
BRANCH   5   9
HETATM    9  C   UNL     1     -11.639  11.021  70.184  1.00  0.00    -0.334 C  
HETATM   10  O   UNL     1     -11.354   9.634  70.336  1.00  0.00    -0.251 OA 
HETATM   11  H   UNL     1     -11.238   9.406  71.252  1.00  0.00     0.000 HD 
ENDBRANCH   5   9
BRANCH   7  12
HETATM   12  N   UNL     1      -9.684  13.553  67.205  1.00  0.00    -0.238 NA 
HETATM   13  C   UNL     1      -8.488  13.014  67.597  1.00  0.00    -0.187 A  
HETATM   14  N   UNL     1      -7.497  13.874  67.483  1.00  0.00    -0.175 NA 
HETATM   15  C   UNL     1      -8.077  15.017  66.979  1.00  0.00    -0.190 A  
HETATM   16  C   UNL     1      -7.548  16.267  66.613  1.00  0.00    -0.232 A  
HETATM   17  N   UNL     1      -6.196  16.566  66.686  1.00  0.00    -0.295 NA 
HETATM   18  N   UNL     1      -8.394  17.225  66.174  1.00  0.00    -0.484 NA 
HETATM   19  H1  UNL     1      -5.812  17.473  66.420  1.00  0.00     0.000 HD 
HETATM   20  C   UNL     1      -9.701  16.909  66.079  1.00  0.00    -0.233 A  
HETATM   21  H2  UNL     1      -5.696  15.855  66.151  1.00  0.00     0.000 HD 
HETATM   22 CL   UNL     1     -10.718  18.167  65.516  1.00  0.00    -0.177 Cl 
HETATM   23  N   UNL     1     -10.330  15.752  66.379  1.00  0.00    -0.289 NA 
HETATM   24  C   UNL     1      -9.444  14.846  66.823  1.00  0.00    -0.252 A  
ENDBRANCH   7  12
TORSDOF 2
ENDMDL
MODEL      114
REMARK 921   NORMALIZED FREE ENERGY PREDICTED BY IDOCK:   -4.35 KCAL/MOL
REMARK 922        TOTAL FREE ENERGY PREDICTED BY IDOCK:   -5.36 KCAL/MOL
REMARK 923 INTER-LIGAND FREE ENERGY PREDICTED BY IDOCK:   -4.93 KCAL/MOL
REMARK 924 INTRA-LIGAND FREE ENERGY PREDICTED BY IDOCK:   -0.43 KCAL/MOL
REMARK 927      BINDING AFFINITY PREDICTED BY RF-SCORE:    0.00 PKD
ROOT
HETATM    1  C   UNL     1     -10.495   9.663  70.338  1.00  0.00    -0.293 C  
HETATM    2  F   UNL     1     -10.030   9.235  69.142  1.00  0.00    -0.163 F  
HETATM    3  C   UNL     1     -11.997   9.870  70.286  1.00  0.00    -0.138 C  
HETATM    4  O   UNL     1     -12.395  11.132  69.753  1.00  0.00    -0.303 OA 
HETATM    5  C   UNL     1     -12.363   9.740  71.759  1.00  0.00    -0.386 C  
HETATM    6  O   UNL     1     -11.508   8.708  72.295  1.00  0.00    -0.365 OA 
HETATM    7  C   UNL     1     -10.328   8.635  71.453  1.00  0.00    -0.261 C  
HETATM    8  H   UNL     1     -13.336  11.261  69.720  1.00  0.00     0.000 HD 
ENDROOT
BRANCH   5   9
HETATM    9  C   UNL     1     -13.834   9.407  72.005  1.00  0.00    -0.340 C  
HETATM   10  O   UNL     1     -14.042   8.953  73.340  1.00  0.00    -1.256 OA 
HETATM   11  H   UNL     1     -14.957   8.746  73.493  1.00  0.00     0.000 HD 
ENDBRANCH   5   9
BRANCH   7  12
HETATM   12  N   UNL     1     -10.156   7.273  70.989  1.00  0.00    -0.192 NA 
HETATM   13  C   UNL     1     -11.127   6.398  70.583  1.00  0.00    -0.317 A  
HETATM   14  N   UNL     1     -10.622   5.252  70.175  1.00  0.00    -0.274 NA 
HETATM   15  C   UNL     1      -9.258   5.400  70.308  1.00  0.00    -0.148 A  
HETATM   16  C   UNL     1      -8.178   4.550  70.013  1.00  0.00    -0.066 A  
HETATM   17  N   UNL     1      -8.339   3.292  69.450  1.00  0.00    -0.058 NA 
HETATM   18  N   UNL     1      -6.926   4.971  70.294  1.00  0.00    -0.050 NA 
HETATM   19  H1  UNL     1      -7.556   2.675  69.236  1.00  0.00     0.000 HD 
HETATM   20  C   UNL     1      -6.784   6.208  70.812  1.00  0.00    -0.061 A  
HETATM   21  H2  UNL     1      -8.880   3.408  68.592  1.00  0.00     0.000 HD 
HETATM   22 CL   UNL     1      -5.172   6.681  71.145  1.00  0.00    -0.022 Cl 
HETATM   23  N   UNL     1      -7.728   7.123  71.124  1.00  0.00    -0.089 NA 
HETATM   24  C   UNL     1      -8.949   6.644  70.838  1.00  0.00    -0.147 A  
ENDBRANCH   7  12
TORSDOF 2
ENDMDL
MODEL      115
REMARK 921   NORMALIZED FREE ENERGY PREDICTED BY IDOCK:   -4.34 KCAL/MOL
REMARK 922        TOTAL FREE ENERGY PREDICTED BY IDOCK:   -5.36 KCAL/MOL
REMARK 923 INTER-LIGAND FREE ENERGY PREDICTED BY IDOCK:   -5.65 KCAL/MOL
REMARK 924 INTRA-LIGAND FREE ENERGY PREDICTED BY IDOCK:    0.29 KCAL/MOL
REMARK 927      BINDING AFFINITY PREDICTED BY RF-SCORE:    0.00 PKD
ROOT
HETATM    1  C   UNL     1      -9.558  10.301  67.384  1.00  0.00    -0.158 C  
HETATM    2  F   UNL     1     -10.453   9.860  68.296  1.00  0.00    -0.191 F  
HETATM    3  C   UNL     1     -10.083  10.096  65.975  1.00  0.00    -0.248 C  
HETATM    4  O   UNL     1      -9.867   8.785  65.456  1.00  0.00    -0.436 OA 
HETATM    5  C   UNL     1      -9.286  11.144  65.209  1.00  0.00    -0.219 C  
HETATM    6  O   UNL     1      -9.177  12.286  66.085  1.00  0.00    -0.214 OA 
HETATM    7  C   UNL     1      -9.325  11.808  67.447  1.00  0.00    -0.174 C  
HETATM    8  H   UNL     1     -10.196   8.657  64.574  1.00  0.00     0.000 HD 
ENDROOT
BRANCH   5   9
HETATM    9  C   UNL     1      -9.911  11.544  63.873  1.00  0.00    -0.296 C  
HETATM   10  O   UNL     1      -8.913  11.941  62.937  1.00  0.00    -0.643 OA 
HETATM   11  H   UNL     1      -9.302  12.190  62.106  1.00  0.00     0.000 HD 
ENDBRANCH   5   9
BRANCH   7  12
HETATM   12  N   UNL     1     -10.386  12.549  68.101  1.00  0.00    -0.225 NA 
HETATM   13  C   UNL     1     -11.639  12.106  68.427  1.00  0.00    -0.327 A  
HETATM   14  N   UNL     1     -12.340  13.024  69.060  1.00  0.00    -0.012 NA 
HETATM   15  C   UNL     1     -11.494  14.107  69.161  1.00  0.00    -0.296 A  
HETATM   16  C   UNL     1     -11.641  15.374  69.752  1.00  0.00    -0.323 A  
HETATM   17  N   UNL     1     -12.788  15.763  70.427  1.00  0.00    -0.663 NA 
HETATM   18  N   UNL     1     -10.623  16.257  69.653  1.00  0.00    -0.310 NA 
HETATM   19  H1  UNL     1     -12.895  16.683  70.856  1.00  0.00     0.000 HD 
HETATM   20  C   UNL     1      -9.503  15.852  69.021  1.00  0.00    -0.247 A  
HETATM   21  H2  UNL     1     -12.968  15.066  71.151  1.00  0.00     0.000 HD 
HETATM   22 CL   UNL     1      -8.252  17.018  68.932  1.00  0.00    -0.239 Cl 
HETATM   23  N   UNL     1      -9.230  14.668  68.431  1.00  0.00    -0.191 NA 
HETATM   24  C   UNL     1     -10.280  13.840  68.546  1.00  0.00    -0.235 A  
ENDBRANCH   7  12
TORSDOF 2
ENDMDL
MODEL      116
REMARK 921   NORMALIZED FREE ENERGY PREDICTED BY IDOCK:   -4.33 KCAL/MOL
REMARK 922        TOTAL FREE ENERGY PREDICTED BY IDOCK:   -5.35 KCAL/MOL
REMARK 923 INTER-LIGAND FREE ENERGY PREDICTED BY IDOCK:   -4.76 KCAL/MOL
REMARK 924 INTRA-LIGAND FREE ENERGY PREDICTED BY IDOCK:   -0.59 KCAL/MOL
REMARK 927      BINDING AFFINITY PREDICTED BY RF-SCORE:    0.00 PKD
ROOT
HETATM    1  C   UNL     1      -8.446  11.243  68.342  1.00  0.00    -0.153 C  
HETATM    2  F   UNL     1      -9.777  11.476  68.384  1.00  0.00    -0.175 F  
HETATM    3  C   UNL     1      -8.134   9.827  68.789  1.00  0.00    -0.102 C  
HETATM    4  O   UNL     1      -8.051   9.667  70.203  1.00  0.00    -0.160 OA 
HETATM    5  C   UNL     1      -6.788   9.596  68.115  1.00  0.00    -0.069 C  
HETATM    6  O   UNL     1      -6.864  10.251  66.831  1.00  0.00    -0.081 OA 
HETATM    7  C   UNL     1      -7.870  11.292  66.929  1.00  0.00    -0.156 C  
HETATM    8  H   UNL     1      -7.856   8.780  70.483  1.00  0.00     0.000 HD 
ENDROOT
BRANCH   5   9
HETATM    9  C   UNL     1      -6.423   8.121  67.950  1.00  0.00    -0.053 C  
HETATM   10  O   UNL     1      -7.457   7.276  68.446  1.00  0.00    -0.100 OA 
HETATM   11  H   UNL     1      -7.229   6.359  68.343  1.00  0.00     0.000 HD 
ENDBRANCH   5   9
BRANCH   7  12
HETATM   12  N   UNL     1      -8.851  11.108  65.878  1.00  0.00    -0.192 NA 
HETATM   13  C   UNL     1      -9.152   9.955  65.206  1.00  0.00    -0.211 A  
HETATM   14  N   UNL     1     -10.131  10.126  64.342  1.00  0.00    -0.191 NA 
HETATM   15  C   UNL     1     -10.491  11.450  64.473  1.00  0.00    -0.322 A  
HETATM   16  C   UNL     1     -11.483  12.229  63.855  1.00  0.00    -0.435 A  
HETATM   17  N   UNL     1     -12.377  11.716  62.926  1.00  0.00    -0.861 NA 
HETATM   18  N   UNL     1     -11.569  13.540  64.172  1.00  0.00    -0.387 NA 
HETATM   19  H1  UNL     1     -13.098  12.282  62.477  1.00  0.00     0.000 HD 
HETATM   20  C   UNL     1     -10.714  14.017  65.099  1.00  0.00    -0.382 A  
HETATM   21  H2  UNL     1     -12.842  10.917  63.359  1.00  0.00     0.000 HD 
HETATM   22 CL   UNL     1     -10.877  15.683  65.456  1.00  0.00    -0.356 Cl 
HETATM   23  N   UNL     1      -9.735  13.376  65.775  1.00  0.00    -0.187 NA 
HETATM   24  C   UNL     1      -9.686  12.086  65.407  1.00  0.00    -0.184 A  
ENDBRANCH   7  12
TORSDOF 2
ENDMDL
MODEL      117
REMARK 921   NORMALIZED FREE ENERGY PREDICTED BY IDOCK:   -4.33 KCAL/MOL
REMARK 922        TOTAL FREE ENERGY PREDICTED BY IDOCK:   -5.35 KCAL/MOL
REMARK 923 INTER-LIGAND FREE ENERGY PREDICTED BY IDOCK:   -5.43 KCAL/MOL
REMARK 924 INTRA-LIGAND FREE ENERGY PREDICTED BY IDOCK:    0.08 KCAL/MOL
REMARK 927      BINDING AFFINITY PREDICTED BY RF-SCORE:    0.00 PKD
ROOT
HETATM    1  C   UNL     1      -9.284   7.588  70.696  1.00  0.00    -0.159 C  
HETATM    2  F   UNL     1      -8.443   8.632  70.516  1.00  0.00    -0.113 F  
HETATM    3  C   UNL     1     -10.358   7.934  71.711  1.00  0.00    -0.209 C  
HETATM    4  O   UNL     1      -9.956   7.760  73.068  1.00  0.00    -0.243 OA 
HETATM    5  C   UNL     1     -11.458   6.957  71.318  1.00  0.00    -0.296 C  
HETATM    6  O   UNL     1     -11.426   6.873  69.878  1.00  0.00    -0.288 OA 
HETATM    7  C   UNL     1     -10.091   7.242  69.447  1.00  0.00    -0.183 C  
HETATM    8  H   UNL     1     -10.629   7.977  73.703  1.00  0.00     0.000 HD 
ENDROOT
BRANCH   5   9
HETATM    9  C   UNL     1     -12.849   7.361  71.806  1.00  0.00    -0.329 C  
HETATM   10  O   UNL     1     -12.803   8.583  72.537  1.00  0.00    -0.524 OA 
HETATM   11  H   UNL     1     -13.668   8.834  72.841  1.00  0.00     0.000 HD 
ENDBRANCH   5   9
BRANCH   7  12
HETATM   12  N   UNL     1     -10.181   8.315  68.478  1.00  0.00    -0.205 NA 
HETATM   13  C   UNL     1      -9.705   8.326  67.194  1.00  0.00    -0.195 A  
HETATM   14  N   UNL     1     -10.000   9.446  66.566  1.00  0.00    -0.251 NA 
HETATM   15  C   UNL     1     -10.714  10.187  67.483  1.00  0.00    -0.290 A  
HETATM   16  C   UNL     1     -11.329  11.449  67.410  1.00  0.00    -0.288 A  
HETATM   17  N   UNL     1     -11.334  12.221  66.257  1.00  0.00    -0.327 NA 
HETATM   18  N   UNL     1     -11.938  11.938  68.512  1.00  0.00    -0.422 NA 
HETATM   19  H1  UNL     1     -11.779  13.137  66.204  1.00  0.00     0.000 HD 
HETATM   20  C   UNL     1     -11.952  11.162  69.615  1.00  0.00    -0.359 A  
HETATM   21  H2  UNL     1     -11.723  11.649  65.508  1.00  0.00     0.000 HD 
HETATM   22 CL   UNL     1     -12.740  11.840  70.976  1.00  0.00    -0.420 Cl 
HETATM   23  N   UNL     1     -11.419   9.936  69.810  1.00  0.00    -0.189 NA 
HETATM   24  C   UNL     1     -10.815   9.510  68.689  1.00  0.00    -0.139 A  
ENDBRANCH   7  12
TORSDOF 2
ENDMDL
MODEL      118
REMARK 921   NORMALIZED FREE ENERGY PREDICTED BY IDOCK:   -4.33 KCAL/MOL
REMARK 922        TOTAL FREE ENERGY PREDICTED BY IDOCK:   -5.34 KCAL/MOL
REMARK 923 INTER-LIGAND FREE ENERGY PREDICTED BY IDOCK:   -5.07 KCAL/MOL
REMARK 924 INTRA-LIGAND FREE ENERGY PREDICTED BY IDOCK:   -0.27 KCAL/MOL
REMARK 927      BINDING AFFINITY PREDICTED BY RF-SCORE:    0.00 PKD
ROOT
HETATM    1  C   UNL     1     -11.698  13.768  68.260  1.00  0.00    -0.359 C  
HETATM    2  F   UNL     1     -11.439  12.708  69.059  1.00  0.00    -0.265 F  
HETATM    3  C   UNL     1     -11.532  15.068  69.025  1.00  0.00    -0.304 C  
HETATM    4  O   UNL     1     -12.676  15.447  69.787  1.00  0.00    -0.615 OA 
HETATM    5  C   UNL     1     -11.264  16.045  67.887  1.00  0.00    -0.276 C  
HETATM    6  O   UNL     1     -10.454  15.333  66.928  1.00  0.00    -0.277 OA 
HETATM    7  C   UNL     1     -10.702  13.915  67.112  1.00  0.00    -0.282 C  
HETATM    8  H   UNL     1     -12.572  16.261  70.266  1.00  0.00     0.000 HD 
ENDROOT
BRANCH   5   9
HETATM    9  C   UNL     1     -10.573  17.335  68.328  1.00  0.00    -0.383 C  
HETATM   10  O   UNL     1     -10.719  18.358  67.348  1.00  0.00    -0.416 OA 
HETATM   11  H   UNL     1     -10.289  19.160  67.622  1.00  0.00     0.000 HD 
ENDBRANCH   5   9
BRANCH   7  12
HETATM   12  N   UNL     1      -9.441  13.233  67.324  1.00  0.00    -0.225 NA 
HETATM   13  C   UNL     1      -8.526  13.455  68.317  1.00  0.00    -0.166 A  
HETATM   14  N   UNL     1      -7.507  12.623  68.247  1.00  0.00    -0.114 NA 
HETATM   15  C   UNL     1      -7.785  11.815  67.166  1.00  0.00    -0.162 A  
HETATM   16  C   UNL     1      -7.106  10.724  66.598  1.00  0.00    -0.133 A  
HETATM   17  N   UNL     1      -5.924  10.216  67.117  1.00  0.00    -0.050 NA 
HETATM   18  N   UNL     1      -7.622  10.144  65.492  1.00  0.00    -0.140 NA 
HETATM   19  H1  UNL     1      -5.431   9.424  66.705  1.00  0.00     0.000 HD 
HETATM   20  C   UNL     1      -8.787  10.628  65.017  1.00  0.00    -0.197 A  
HETATM   21  H2  UNL     1      -6.093   9.993  68.099  1.00  0.00     0.000 HD 
HETATM   22 CL   UNL     1      -9.386   9.849  63.615  1.00  0.00    -0.296 Cl 
HETATM   23  N   UNL     1      -9.543  11.650  65.475  1.00  0.00    -0.227 NA 
HETATM   24  C   UNL     1      -8.974  12.196  66.562  1.00  0.00    -0.179 A  
ENDBRANCH   7  12
TORSDOF 2
ENDMDL
MODEL      119
REMARK 921   NORMALIZED FREE ENERGY PREDICTED BY IDOCK:   -4.32 KCAL/MOL
REMARK 922        TOTAL FREE ENERGY PREDICTED BY IDOCK:   -5.33 KCAL/MOL
REMARK 923 INTER-LIGAND FREE ENERGY PREDICTED BY IDOCK:   -5.85 KCAL/MOL
REMARK 924 INTRA-LIGAND FREE ENERGY PREDICTED BY IDOCK:    0.52 KCAL/MOL
REMARK 927      BINDING AFFINITY PREDICTED BY RF-SCORE:    0.00 PKD
ROOT
HETATM    1  C   UNL     1     -12.065  10.572  71.401  1.00  0.00    -0.282 C  
HETATM    2  F   UNL     1     -12.409  11.714  70.764  1.00  0.00    -0.413 F  
HETATM    3  C   UNL     1     -13.269   9.663  71.560  1.00  0.00    -0.399 C  
HETATM    4  O   UNL     1     -14.086   9.967  72.687  1.00  0.00    -0.482 OA 
HETATM    5  C   UNL     1     -12.594   8.305  71.703  1.00  0.00    -0.327 C  
HETATM    6  O   UNL     1     -11.459   8.324  70.811  1.00  0.00    -0.271 OA 
HETATM    7  C   UNL     1     -11.086   9.711  70.607  1.00  0.00    -0.319 C  
HETATM    8  H   UNL     1     -14.841   9.397  72.787  1.00  0.00     0.000 HD 
ENDROOT
BRANCH   5   9
HETATM    9  C   UNL     1     -13.509   7.121  71.389  1.00  0.00    -0.291 C  
HETATM   10  O   UNL     1     -13.414   6.117  72.395  1.00  0.00    -0.406 OA 
HETATM   11  H   UNL     1     -13.983   5.381  72.199  1.00  0.00     0.000 HD 
ENDBRANCH   5   9
BRANCH   7  12
HETATM   12  N   UNL     1     -11.059   9.994  69.186  1.00  0.00    -0.215 NA 
HETATM   13  C   UNL     1     -11.723  10.986  68.517  1.00  0.00    -0.278 A  
HETATM   14  N   UNL     1     -11.438  10.994  67.231  1.00  0.00    -0.481 NA 
HETATM   15  C   UNL     1     -10.533   9.967  67.064  1.00  0.00    -0.238 A  
HETATM   16  C   UNL     1      -9.837   9.490  65.941  1.00  0.00    -0.290 A  
HETATM   17  N   UNL     1      -9.946  10.066  64.684  1.00  0.00    -0.391 NA 
HETATM   18  N   UNL     1      -9.028   8.418  66.087  1.00  0.00    -0.167 NA 
HETATM   19  H1  UNL     1      -9.440   9.720  63.868  1.00  0.00     0.000 HD 
HETATM   20  C   UNL     1      -8.908   7.888  67.322  1.00  0.00    -0.127 A  
HETATM   21  H2  UNL     1      -9.724  11.057  64.782  1.00  0.00     0.000 HD 
HETATM   22 CL   UNL     1      -7.868   6.533  67.438  1.00  0.00    -0.111 Cl 
HETATM   23  N   UNL     1      -9.503   8.259  68.476  1.00  0.00    -0.146 NA 
HETATM   24  C   UNL     1     -10.304   9.315  68.267  1.00  0.00    -0.217 A  
ENDBRANCH   7  12
TORSDOF 2
ENDMDL
MODEL      120
REMARK 921   NORMALIZED FREE ENERGY PREDICTED BY IDOCK:   -4.30 KCAL/MOL
REMARK 922        TOTAL FREE ENERGY PREDICTED BY IDOCK:   -5.32 KCAL/MOL
REMARK 923 INTER-LIGAND FREE ENERGY PREDICTED BY IDOCK:   -5.16 KCAL/MOL
REMARK 924 INTRA-LIGAND FREE ENERGY PREDICTED BY IDOCK:   -0.15 KCAL/MOL
REMARK 927      BINDING AFFINITY PREDICTED BY RF-SCORE:    0.00 PKD
ROOT
HETATM    1  C   UNL     1     -10.578  11.853  65.771  1.00  0.00    -0.267 C  
HETATM    2  F   UNL     1     -11.176  12.721  64.923  1.00  0.00    -0.302 F  
HETATM    3  C   UNL     1      -9.293  11.316  65.169  1.00  0.00    -0.189 C  
HETATM    4  O   UNL     1      -9.479  10.217  64.280  1.00  0.00    -0.262 OA 
HETATM    5  C   UNL     1      -8.533  10.903  66.423  1.00  0.00    -0.163 C  
HETATM    6  O   UNL     1      -8.836  11.900  67.423  1.00  0.00    -0.160 OA 
HETATM    7  C   UNL     1     -10.105  12.505  67.067  1.00  0.00    -0.216 C  
HETATM    8  H   UNL     1      -8.674   9.881  63.903  1.00  0.00     0.000 HD 
ENDROOT
BRANCH   5   9
HETATM    9  C   UNL     1      -7.023  10.781  66.220  1.00  0.00    -0.134 C  
HETATM   10  O   UNL     1      -6.643  11.206  64.915  1.00  0.00    -0.167 OA 
HETATM   11  H   UNL     1      -5.704  11.130  64.789  1.00  0.00     0.000 HD 
ENDBRANCH   5   9
BRANCH   7  12
HETATM   12  N   UNL     1      -9.942  13.943  66.987  1.00  0.00    -0.253 NA 
HETATM   13  C   UNL     1      -9.542  14.682  65.907  1.00  0.00    -0.268 A  
HETATM   14  N   UNL     1      -9.548  15.974  66.161  1.00  0.00    -0.308 NA 
HETATM   15  C   UNL     1      -9.988  16.076  67.463  1.00  0.00    -0.240 A  
HETATM   16  C   UNL     1     -10.235  17.180  68.297  1.00  0.00    -0.334 A  
HETATM   17  N   UNL     1     -10.082  18.494  67.877  1.00  0.00    -0.350 NA 
HETATM   18  N   UNL     1     -10.635  16.956  69.567  1.00  0.00    -0.305 NA 
HETATM   19  H1  UNL     1     -10.262  19.295  68.482  1.00  0.00     0.000 HD 
HETATM   20  C   UNL     1     -10.810  15.675  69.951  1.00  0.00    -0.318 A  
HETATM   21  H2  UNL     1     -10.648  18.613  67.036  1.00  0.00     0.000 HD 
HETATM   22 CL   UNL     1     -11.318  15.460  71.572  1.00  0.00    -0.458 Cl 
HETATM   23  N   UNL     1     -10.626  14.536  69.250  1.00  0.00    -0.240 NA 
HETATM   24  C   UNL     1     -10.214  14.819  68.004  1.00  0.00    -0.226 A  
ENDBRANCH   7  12
TORSDOF 2
ENDMDL
MODEL      121
REMARK 921   NORMALIZED FREE ENERGY PREDICTED BY IDOCK:   -4.26 KCAL/MOL
REMARK 922        TOTAL FREE ENERGY PREDICTED BY IDOCK:   -5.27 KCAL/MOL
REMARK 923 INTER-LIGAND FREE ENERGY PREDICTED BY IDOCK:   -4.68 KCAL/MOL
REMARK 924 INTRA-LIGAND FREE ENERGY PREDICTED BY IDOCK:   -0.58 KCAL/MOL
REMARK 927      BINDING AFFINITY PREDICTED BY RF-SCORE:    0.00 PKD
ROOT
HETATM    1  C   UNL     1      -9.952  17.215  66.823  1.00  0.00    -0.291 C  
HETATM    2  F   UNL     1     -10.482  16.491  67.834  1.00  0.00    -0.269 F  
HETATM    3  C   UNL     1      -9.628  18.624  67.285  1.00  0.00    -0.297 C  
HETATM    4  O   UNL     1     -10.738  19.518  67.257  1.00  0.00    -0.471 OA 
HETATM    5  C   UNL     1      -8.556  19.023  66.279  1.00  0.00    -0.274 C  
HETATM    6  O   UNL     1      -7.769  17.837  66.038  1.00  0.00    -0.439 OA 
HETATM    7  C   UNL     1      -8.601  16.689  66.348  1.00  0.00    -0.310 C  
HETATM    8  H   UNL     1     -10.534  20.400  67.547  1.00  0.00     0.000 HD 
ENDROOT
BRANCH   5   9
HETATM    9  C   UNL     1      -7.668  20.177  66.744  1.00  0.00    -0.299 C  
HETATM   10  O   UNL     1      -7.689  20.302  68.163  1.00  0.00    -0.239 OA 
HETATM   11  H   UNL     1      -7.136  21.020  68.452  1.00  0.00     0.000 HD 
ENDBRANCH   5   9
BRANCH   7  12
HETATM   12  N   UNL     1      -7.916  15.849  67.310  1.00  0.00    -0.164 NA 
HETATM   13  C   UNL     1      -7.080  16.242  68.320  1.00  0.00    -0.136 A  
HETATM   14  N   UNL     1      -6.664  15.224  69.044  1.00  0.00    -0.114 NA 
HETATM   15  C   UNL     1      -7.272  14.121  68.484  1.00  0.00    -0.110 A  
HETATM   16  C   UNL     1      -7.254  12.756  68.818  1.00  0.00    -0.077 A  
HETATM   17  N   UNL     1      -6.559  12.254  69.908  1.00  0.00    -0.357 NA 
HETATM   18  N   UNL     1      -7.938  11.889  68.039  1.00  0.00    -0.138 NA 
HETATM   19  H1  UNL     1      -6.545  11.263  70.151  1.00  0.00     0.000 HD 
HETATM   20  C   UNL     1      -8.634  12.396  67.002  1.00  0.00    -0.191 A  
HETATM   21  H2  UNL     1      -6.874  12.766  70.733  1.00  0.00     0.000 HD 
HETATM   22 CL   UNL     1      -9.479  11.245  66.056  1.00  0.00    -0.229 Cl 
HETATM   23  N   UNL     1      -8.748  13.676  66.587  1.00  0.00    -0.075 NA 
HETATM   24  C   UNL     1      -8.036  14.487  67.386  1.00  0.00    -0.200 A  
ENDBRANCH   7  12
TORSDOF 2
ENDMDL
MODEL      122
REMARK 921   NORMALIZED FREE ENERGY PREDICTED BY IDOCK:   -4.24 KCAL/MOL
REMARK 922        TOTAL FREE ENERGY PREDICTED BY IDOCK:   -5.24 KCAL/MOL
REMARK 923 INTER-LIGAND FREE ENERGY PREDICTED BY IDOCK:   -5.82 KCAL/MOL
REMARK 924 INTRA-LIGAND FREE ENERGY PREDICTED BY IDOCK:    0.58 KCAL/MOL
REMARK 927      BINDING AFFINITY PREDICTED BY RF-SCORE:    0.00 PKD
ROOT
HETATM    1  C   UNL     1     -10.171   9.176  70.797  1.00  0.00    -0.260 C  
HETATM    2  F   UNL     1     -11.033  10.089  71.298  1.00  0.00    -0.402 F  
HETATM    3  C   UNL     1     -10.849   7.828  70.637  1.00  0.00    -0.237 C  
HETATM    4  O   UNL     1     -10.883   7.046  71.828  1.00  0.00    -0.220 OA 
HETATM    5  C   UNL     1      -9.977   7.186  69.565  1.00  0.00    -0.164 C  
HETATM    6  O   UNL     1      -9.616   8.245  68.653  1.00  0.00    -0.147 OA 
HETATM    7  C   UNL     1      -9.707   9.498  69.379  1.00  0.00    -0.183 C  
HETATM    8  H   UNL     1     -11.308   6.202  71.728  1.00  0.00     0.000 HD 
ENDROOT
BRANCH   5   9
HETATM    9  C   UNL     1     -10.656   6.038  68.820  1.00  0.00    -0.282 C  
HETATM   10  O   UNL     1     -11.680   6.520  67.954  1.00  0.00    -0.531 OA 
HETATM   11  H   UNL     1     -12.101   5.805  67.491  1.00  0.00     0.000 HD 
ENDBRANCH   5   9
BRANCH   7  12
HETATM   12  N   UNL     1     -10.578  10.405  68.658  1.00  0.00    -0.196 NA 
HETATM   13  C   UNL     1     -11.569  11.198  69.170  1.00  0.00    -0.324 A  
HETATM   14  N   UNL     1     -12.138  11.941  68.243  1.00  0.00    -0.462 NA 
HETATM   15  C   UNL     1     -11.471  11.624  67.079  1.00  0.00    -0.262 A  
HETATM   16  C   UNL     1     -11.589  12.096  65.760  1.00  0.00    -0.355 A  
HETATM   17  N   UNL     1     -12.483  13.090  65.390  1.00  0.00    -0.487 NA 
HETATM   18  N   UNL     1     -10.802  11.553  64.805  1.00  0.00    -0.308 NA 
HETATM   19  H1  UNL     1     -12.568  13.432  64.433  1.00  0.00     0.000 HD 
HETATM   20  C   UNL     1      -9.916  10.610  65.186  1.00  0.00    -0.303 A  
HETATM   21  H2  UNL     1     -12.305  13.898  65.988  1.00  0.00     0.000 HD 
HETATM   22 CL   UNL     1      -8.949   9.965  63.929  1.00  0.00    -0.257 Cl 
HETATM   23  N   UNL     1      -9.693  10.086  66.411  1.00  0.00    -0.198 NA 
HETATM   24  C   UNL     1     -10.513  10.650  67.312  1.00  0.00    -0.246 A  
ENDBRANCH   7  12
TORSDOF 2
ENDMDL
MODEL      123
REMARK 921   NORMALIZED FREE ENERGY PREDICTED BY IDOCK:   -4.23 KCAL/MOL
REMARK 922        TOTAL FREE ENERGY PREDICTED BY IDOCK:   -5.23 KCAL/MOL
REMARK 923 INTER-LIGAND FREE ENERGY PREDICTED BY IDOCK:   -4.82 KCAL/MOL
REMARK 924 INTRA-LIGAND FREE ENERGY PREDICTED BY IDOCK:   -0.41 KCAL/MOL
REMARK 927      BINDING AFFINITY PREDICTED BY RF-SCORE:    0.00 PKD
ROOT
HETATM    1  C   UNL     1      -9.324   7.458  66.552  1.00  0.00    -0.173 C  
HETATM    2  F   UNL     1     -10.649   7.194  66.603  1.00  0.00    -0.336 F  
HETATM    3  C   UNL     1      -9.064   8.758  65.814  1.00  0.00    -0.212 C  
HETATM    4  O   UNL     1      -9.025   8.626  64.395  1.00  0.00    -0.422 OA 
HETATM    5  C   UNL     1      -7.706   9.151  66.382  1.00  0.00    -0.096 C  
HETATM    6  O   UNL     1      -7.727   8.773  67.775  1.00  0.00    -0.099 OA 
HETATM    7  C   UNL     1      -8.707   7.714  67.925  1.00  0.00    -0.124 C  
HETATM    8  H   UNL     1      -8.862   9.440  63.933  1.00  0.00     0.000 HD 
ENDROOT
BRANCH   5   9
HETATM    9  C   UNL     1      -7.377  10.636  66.229  1.00  0.00    -0.137 C  
HETATM   10  O   UNL     1      -6.510  10.859  65.120  1.00  0.00    -0.366 OA 
HETATM   11  H   UNL     1      -6.306  11.782  65.025  1.00  0.00     0.000 HD 
ENDBRANCH   5   9
BRANCH   7  12
HETATM   12  N   UNL     1      -9.663   8.089  68.948  1.00  0.00    -0.156 NA 
HETATM   13  C   UNL     1     -10.326   9.279  69.078  1.00  0.00    -0.214 A  
HETATM   14  N   UNL     1     -11.163   9.271  70.096  1.00  0.00    -0.237 NA 
HETATM   15  C   UNL     1     -11.046   8.010  70.639  1.00  0.00    -0.262 A  
HETATM   16  C   UNL     1     -11.691   7.377  71.716  1.00  0.00    -0.286 A  
HETATM   17  N   UNL     1     -12.682   7.990  72.468  1.00  0.00    -0.572 NA 
HETATM   18  N   UNL     1     -11.327   6.117  72.040  1.00  0.00    -0.284 NA 
HETATM   19  H1  UNL     1     -13.151   7.531  73.249  1.00  0.00     0.000 HD 
HETATM   20  C   UNL     1     -10.385   5.523  71.279  1.00  0.00    -0.233 A  
HETATM   21  H2  UNL     1     -13.406   8.305  71.821  1.00  0.00     0.000 HD 
HETATM   22 CL   UNL     1      -9.971   3.927  71.742  1.00  0.00    -0.252 Cl 
HETATM   23  N   UNL     1      -9.706   6.009  70.218  1.00  0.00    -0.162 NA 
HETATM   24  C   UNL     1     -10.096   7.267  69.954  1.00  0.00    -0.194 A  
ENDBRANCH   7  12
TORSDOF 2
ENDMDL
MODEL      124
REMARK 921   NORMALIZED FREE ENERGY PREDICTED BY IDOCK:   -4.22 KCAL/MOL
REMARK 922        TOTAL FREE ENERGY PREDICTED BY IDOCK:   -5.22 KCAL/MOL
REMARK 923 INTER-LIGAND FREE ENERGY PREDICTED BY IDOCK:   -5.37 KCAL/MOL
REMARK 924 INTRA-LIGAND FREE ENERGY PREDICTED BY IDOCK:    0.16 KCAL/MOL
REMARK 927      BINDING AFFINITY PREDICTED BY RF-SCORE:    0.00 PKD
ROOT
HETATM    1  C   UNL     1     -10.336  15.132  66.475  1.00  0.00    -0.282 C  
HETATM    2  F   UNL     1      -9.271  15.410  65.690  1.00  0.00    -0.346 F  
HETATM    3  C   UNL     1      -9.885  14.613  67.828  1.00  0.00    -0.216 C  
HETATM    4  O   UNL     1      -9.589  13.219  67.849  1.00  0.00    -0.203 OA 
HETATM    5  C   UNL     1     -11.097  14.946  68.689  1.00  0.00    -0.263 C  
HETATM    6  O   UNL     1     -11.591  16.216  68.213  1.00  0.00    -0.321 OA 
HETATM    7  C   UNL     1     -11.156  16.368  66.837  1.00  0.00     0.108 C  
HETATM    8  H   UNL     1      -9.307  12.894  68.697  1.00  0.00     0.000 HD 
ENDROOT
BRANCH   5   9
HETATM    9  C   UNL     1     -10.795  15.009  70.186  1.00  0.00    -0.190 C  
HETATM   10  O   UNL     1      -9.402  15.190  70.423  1.00  0.00    -0.263 OA 
HETATM   11  H   UNL     1      -9.215  15.229  71.354  1.00  0.00     0.000 HD 
ENDBRANCH   5   9
BRANCH   7  12
HETATM   12  N   UNL     1     -10.441  17.621  66.698  1.00  0.00    -0.319 NA 
HETATM   13  C   UNL     1     -10.785  18.700  65.930  1.00  0.00    -0.227 A  
HETATM   14  N   UNL     1      -9.938  19.699  66.071  1.00  0.00    -0.431 NA 
HETATM   15  C   UNL     1      -9.011  19.249  66.987  1.00  0.00    -0.292 A  
HETATM   16  C   UNL     1      -7.885  19.853  67.571  1.00  0.00    -0.290 A  
HETATM   17  N   UNL     1      -7.505  21.160  67.304  1.00  0.00    -0.676 NA 
HETATM   18  N   UNL     1      -7.132  19.129  68.428  1.00  0.00    -0.268 NA 
HETATM   19  H1  UNL     1      -6.687  21.599  67.728  1.00  0.00     0.000 HD 
HETATM   20  C   UNL     1      -7.533  17.870  68.702  1.00  0.00    -0.278 A  
HETATM   21  H2  UNL     1      -8.308  21.758  67.500  1.00  0.00     0.000 HD 
HETATM   22 CL   UNL     1      -6.537  17.008  69.795  1.00  0.00    -0.128 Cl 
HETATM   23  N   UNL     1      -8.594  17.184  68.226  1.00  0.00    -0.233 NA 
HETATM   24  C   UNL     1      -9.293  17.946  67.370  1.00  0.00    -0.257 A  
ENDBRANCH   7  12
TORSDOF 2
ENDMDL
MODEL      125
REMARK 921   NORMALIZED FREE ENERGY PREDICTED BY IDOCK:   -4.21 KCAL/MOL
REMARK 922        TOTAL FREE ENERGY PREDICTED BY IDOCK:   -5.21 KCAL/MOL
REMARK 923 INTER-LIGAND FREE ENERGY PREDICTED BY IDOCK:   -5.38 KCAL/MOL
REMARK 924 INTRA-LIGAND FREE ENERGY PREDICTED BY IDOCK:    0.17 KCAL/MOL
REMARK 927      BINDING AFFINITY PREDICTED BY RF-SCORE:    0.00 PKD
ROOT
HETATM    1  C   UNL     1      -9.094  14.118  67.181  1.00  0.00    -0.232 C  
HETATM    2  F   UNL     1      -8.210  14.720  66.354  1.00  0.00    -0.136 F  
HETATM    3  C   UNL     1      -8.958  14.655  68.594  1.00  0.00    -0.184 C  
HETATM    4  O   UNL     1      -7.924  14.038  69.356  1.00  0.00    -0.338 OA 
HETATM    5  C   UNL     1     -10.338  14.345  69.160  1.00  0.00    -0.154 C  
HETATM    6  O   UNL     1     -11.274  14.570  68.084  1.00  0.00    -0.262 OA 
HETATM    7  C   UNL     1     -10.549  14.425  66.836  1.00  0.00    -0.278 C  
HETATM    8  H   UNL     1      -7.839  14.375  70.241  1.00  0.00     0.000 HD 
ENDROOT
BRANCH   5   9
HETATM    9  C   UNL     1     -10.708  15.182  70.384  1.00  0.00    -0.180 C  
HETATM   10  O   UNL     1     -11.579  16.253  70.030  1.00  0.00    -0.355 OA 
HETATM   11  H   UNL     1     -11.809  16.773  70.792  1.00  0.00     0.000 HD 
ENDBRANCH   5   9
BRANCH   7  12
HETATM   12  N   UNL     1     -10.733  15.618  66.034  1.00  0.00    -0.324 NA 
HETATM   13  C   UNL     1     -11.238  15.704  64.765  1.00  0.00    -0.382 A  
HETATM   14  N   UNL     1     -11.315  16.950  64.346  1.00  0.00    -1.090 NA 
HETATM   15  C   UNL     1     -10.853  17.707  65.401  1.00  0.00     0.104 A  
HETATM   16  C   UNL     1     -10.717  19.093  65.586  1.00  0.00    -0.220 A  
HETATM   17  N   UNL     1     -11.099  20.024  64.631  1.00  0.00     0.207 NA 
HETATM   18  N   UNL     1     -10.185  19.543  66.744  1.00  0.00    -0.398 NA 
HETATM   19  H1  UNL     1     -11.001  21.030  64.766  1.00  0.00     0.000 HD 
HETATM   20  C   UNL     1      -9.848  18.628  67.675  1.00  0.00    -0.320 A  
HETATM   21  H2  UNL     1     -12.076  19.841  64.400  1.00  0.00     0.000 HD 
HETATM   22 CL   UNL     1      -9.181  19.264  69.118  1.00  0.00    -0.302 Cl 
HETATM   23  N   UNL     1      -9.943  17.281  67.629  1.00  0.00    -0.286 NA 
HETATM   24  C   UNL     1     -10.461  16.892  66.453  1.00  0.00    -0.252 A  
ENDBRANCH   7  12
TORSDOF 2
ENDMDL
MODEL      126
REMARK 921   NORMALIZED FREE ENERGY PREDICTED BY IDOCK:   -4.21 KCAL/MOL
REMARK 922        TOTAL FREE ENERGY PREDICTED BY IDOCK:   -5.21 KCAL/MOL
REMARK 923 INTER-LIGAND FREE ENERGY PREDICTED BY IDOCK:   -5.59 KCAL/MOL
REMARK 924 INTRA-LIGAND FREE ENERGY PREDICTED BY IDOCK:    0.37 KCAL/MOL
REMARK 927      BINDING AFFINITY PREDICTED BY RF-SCORE:    0.00 PKD
ROOT
HETATM    1  C   UNL     1      -8.891  10.365  68.276  1.00  0.00    -0.135 C  
HETATM    2  F   UNL     1      -8.341  11.461  68.846  1.00  0.00    -0.151 F  
HETATM    3  C   UNL     1      -8.817   9.177  69.217  1.00  0.00    -0.144 C  
HETATM    4  O   UNL     1      -7.571   8.485  69.189  1.00  0.00    -0.086 OA 
HETATM    5  C   UNL     1      -9.954   8.312  68.688  1.00  0.00    -0.190 C  
HETATM    6  O   UNL     1     -11.004   9.223  68.298  1.00  0.00    -0.128 OA 
HETATM    7  C   UNL     1     -10.388  10.507  68.018  1.00  0.00    -0.181 C  
HETATM    8  H   UNL     1      -7.525   7.742  69.778  1.00  0.00     0.000 HD 
ENDROOT
BRANCH   5   9
HETATM    9  C   UNL     1     -10.473   7.286  69.694  1.00  0.00    -0.231 C  
HETATM   10  O   UNL     1     -11.676   6.677  69.234  1.00  0.00    -0.645 OA 
HETATM   11  H   UNL     1     -11.999   6.039  69.860  1.00  0.00     0.000 HD 
ENDBRANCH   5   9
BRANCH   7  12
HETATM   12  N   UNL     1     -11.037  11.531  68.813  1.00  0.00    -0.215 NA 
HETATM   13  C   UNL     1     -11.081  12.877  68.569  1.00  0.00    -0.267 A  
HETATM   14  N   UNL     1     -11.798  13.519  69.468  1.00  0.00    -0.316 NA 
HETATM   15  C   UNL     1     -12.252  12.540  70.324  1.00  0.00    -0.267 A  
HETATM   16  C   UNL     1     -13.082  12.580  71.457  1.00  0.00    -0.277 A  
HETATM   17  N   UNL     1     -13.662  13.749  71.927  1.00  0.00    -0.417 NA 
HETATM   18  N   UNL     1     -13.323  11.431  72.126  1.00  0.00    -0.364 NA 
HETATM   19  H1  UNL     1     -14.265  13.779  72.750  1.00  0.00     0.000 HD 
HETATM   20  C   UNL     1     -12.778  10.298  71.638  1.00  0.00    -0.456 A  
HETATM   21  H2  UNL     1     -14.182  14.165  71.153  1.00  0.00     0.000 HD 
HETATM   22 CL   UNL     1     -13.123   8.878  72.531  1.00  0.00    -0.465 Cl 
HETATM   23  N   UNL     1     -11.985  10.122  70.560  1.00  0.00    -0.301 NA 
HETATM   24  C   UNL     1     -11.767  11.296  69.947  1.00  0.00    -0.352 A  
ENDBRANCH   7  12
TORSDOF 2
ENDMDL
MODEL      127
REMARK 921   NORMALIZED FREE ENERGY PREDICTED BY IDOCK:   -4.19 KCAL/MOL
REMARK 922        TOTAL FREE ENERGY PREDICTED BY IDOCK:   -5.19 KCAL/MOL
REMARK 923 INTER-LIGAND FREE ENERGY PREDICTED BY IDOCK:   -4.54 KCAL/MOL
REMARK 924 INTRA-LIGAND FREE ENERGY PREDICTED BY IDOCK:   -0.66 KCAL/MOL
REMARK 927      BINDING AFFINITY PREDICTED BY RF-SCORE:    0.00 PKD
ROOT
HETATM    1  C   UNL     1     -10.057  10.024  66.634  1.00  0.00    -0.227 C  
HETATM    2  F   UNL     1     -10.535   9.513  65.476  1.00  0.00    -0.270 F  
HETATM    3  C   UNL     1     -11.194  10.494  67.522  1.00  0.00    -0.224 C  
HETATM    4  O   UNL     1     -11.670  11.803  67.217  1.00  0.00    -0.546 OA 
HETATM    5  C   UNL     1     -10.535  10.438  68.895  1.00  0.00    -0.212 C  
HETATM    6  O   UNL     1      -9.682   9.274  68.885  1.00  0.00    -0.156 OA 
HETATM    7  C   UNL     1      -9.348   8.988  67.502  1.00  0.00    -0.135 C  
HETATM    8  H   UNL     1     -12.382  12.097  67.774  1.00  0.00     0.000 HD 
ENDROOT
BRANCH   5   9
HETATM    9  C   UNL     1     -11.527  10.373  70.055  1.00  0.00    -0.308 C  
HETATM   10  O   UNL     1     -12.872  10.392  69.585  1.00  0.00    -0.633 OA 
HETATM   11  H   UNL     1     -13.488  10.352  70.307  1.00  0.00     0.000 HD 
ENDBRANCH   5   9
BRANCH   7  12
HETATM   12  N   UNL     1      -9.698   7.614  67.200  1.00  0.00    -0.168 NA 
HETATM   13  C   UNL     1     -10.718   6.874  67.733  1.00  0.00    -0.254 A  
HETATM   14  N   UNL     1     -10.788   5.671  67.201  1.00  0.00    -0.228 NA 
HETATM   15  C   UNL     1      -9.774   5.639  66.267  1.00  0.00    -0.135 A  
HETATM   16  C   UNL     1      -9.353   4.654  65.357  1.00  0.00    -0.158 A  
HETATM   17  N   UNL     1      -9.988   3.427  65.225  1.00  0.00    -0.388 NA 
HETATM   18  N   UNL     1      -8.279   4.907  64.578  1.00  0.00    -0.116 NA 
HETATM   19  H1  UNL     1      -9.683   2.712  64.564  1.00  0.00     0.000 HD 
HETATM   20  C   UNL     1      -7.693   6.116  64.696  1.00  0.00    -0.101 A  
HETATM   21  H2  UNL     1     -10.975   3.612  65.040  1.00  0.00     0.000 HD 
HETATM   22 CL   UNL     1      -6.338   6.373  63.681  1.00  0.00    -0.026 Cl 
HETATM   23  N   UNL     1      -8.005   7.147  65.511  1.00  0.00    -0.115 NA 
HETATM   24  C   UNL     1      -9.067   6.832  66.270  1.00  0.00    -0.139 A  
ENDBRANCH   7  12
TORSDOF 2
ENDMDL
MODEL      128
REMARK 921   NORMALIZED FREE ENERGY PREDICTED BY IDOCK:   -4.18 KCAL/MOL
REMARK 922        TOTAL FREE ENERGY PREDICTED BY IDOCK:   -5.18 KCAL/MOL
REMARK 923 INTER-LIGAND FREE ENERGY PREDICTED BY IDOCK:   -5.54 KCAL/MOL
REMARK 924 INTRA-LIGAND FREE ENERGY PREDICTED BY IDOCK:    0.36 KCAL/MOL
REMARK 927      BINDING AFFINITY PREDICTED BY RF-SCORE:    0.00 PKD
ROOT
HETATM    1  C   UNL     1      -8.466   8.200  66.997  1.00  0.00    -0.120 C  
HETATM    2  F   UNL     1      -7.659   9.255  66.743  1.00  0.00    -0.088 F  
HETATM    3  C   UNL     1      -8.618   7.988  68.492  1.00  0.00    -0.128 C  
HETATM    4  O   UNL     1      -7.561   7.238  69.086  1.00  0.00    -0.098 OA 
HETATM    5  C   UNL     1      -9.943   7.239  68.549  1.00  0.00    -0.162 C  
HETATM    6  O   UNL     1     -10.779   7.821  67.525  1.00  0.00    -0.250 OA 
HETATM    7  C   UNL     1      -9.904   8.416  66.533  1.00  0.00    -0.268 C  
HETATM    8  H   UNL     1      -7.657   7.106  70.022  1.00  0.00     0.000 HD 
ENDROOT
BRANCH   5   9
HETATM    9  C   UNL     1     -10.633   7.302  69.911  1.00  0.00    -0.231 C  
HETATM   10  O   UNL     1     -11.938   6.735  69.853  1.00  0.00    -0.651 OA 
HETATM   11  H   UNL     1     -12.367   6.774  70.701  1.00  0.00     0.000 HD 
ENDBRANCH   5   9
BRANCH   7  12
HETATM   12  N   UNL     1     -10.269   9.807  66.347  1.00  0.00    -0.237 NA 
HETATM   13  C   UNL     1     -10.146  10.560  65.211  1.00  0.00    -0.300 A  
HETATM   14  N   UNL     1     -10.620  11.779  65.371  1.00  0.00    -0.268 NA 
HETATM   15  C   UNL     1     -11.085  11.809  66.668  1.00  0.00    -0.310 A  
HETATM   16  C   UNL     1     -11.725  12.807  67.423  1.00  0.00    -0.366 A  
HETATM   17  N   UNL     1     -12.049  14.053  66.907  1.00  0.00    -0.439 NA 
HETATM   18  N   UNL     1     -12.035  12.546  68.712  1.00  0.00    -0.291 NA 
HETATM   19  H1  UNL     1     -12.513  14.778  67.455  1.00  0.00     0.000 HD 
HETATM   20  C   UNL     1     -11.743  11.319  69.189  1.00  0.00    -0.341 A  
HETATM   21  H2  UNL     1     -12.608  13.901  66.067  1.00  0.00     0.000 HD 
HETATM   22 CL   UNL     1     -12.162  11.053  70.828  1.00  0.00    -0.454 Cl 
HETATM   23  N   UNL     1     -11.151  10.275  68.570  1.00  0.00    -0.253 NA 
HETATM   24  C   UNL     1     -10.852  10.597  67.301  1.00  0.00    -0.287 A  
ENDBRANCH   7  12
TORSDOF 2
ENDMDL
MODEL      129
REMARK 921   NORMALIZED FREE ENERGY PREDICTED BY IDOCK:   -4.12 KCAL/MOL
REMARK 922        TOTAL FREE ENERGY PREDICTED BY IDOCK:   -5.11 KCAL/MOL
REMARK 923 INTER-LIGAND FREE ENERGY PREDICTED BY IDOCK:   -4.59 KCAL/MOL
REMARK 924 INTRA-LIGAND FREE ENERGY PREDICTED BY IDOCK:   -0.51 KCAL/MOL
REMARK 927      BINDING AFFINITY PREDICTED BY RF-SCORE:    0.00 PKD
ROOT
HETATM    1  C   UNL     1      -9.024   6.748  67.369  1.00  0.00    -0.115 C  
HETATM    2  F   UNL     1      -8.261   7.280  68.351  1.00  0.00    -0.118 F  
HETATM    3  C   UNL     1      -8.379   5.493  66.811  1.00  0.00    -0.108 C  
HETATM    4  O   UNL     1      -7.386   5.738  65.817  1.00  0.00    -0.073 OA 
HETATM    5  C   UNL     1      -9.591   4.773  66.232  1.00  0.00    -0.178 C  
HETATM    6  O   UNL     1     -10.681   5.023  67.145  1.00  0.00    -0.126 OA 
HETATM    7  C   UNL     1     -10.379   6.248  67.862  1.00  0.00    -0.193 C  
HETATM    8  H   UNL     1      -6.983   4.952  65.468  1.00  0.00     0.000 HD 
ENDROOT
BRANCH   5   9
HETATM    9  C   UNL     1      -9.384   3.272  66.034  1.00  0.00    -0.117 C  
HETATM   10  O   UNL     1      -9.777   2.541  67.192  1.00  0.00    -0.400 OA 
HETATM   11  H   UNL     1      -9.648   1.608  67.069  1.00  0.00     0.000 HD 
ENDBRANCH   5   9
BRANCH   7  12
HETATM   12  N   UNL     1     -10.439   5.995  69.287  1.00  0.00    -0.233 NA 
HETATM   13  C   UNL     1     -10.054   4.863  69.953  1.00  0.00    -0.262 A  
HETATM   14  N   UNL     1     -10.198   4.982  71.257  1.00  0.00    -0.211 NA 
HETATM   15  C   UNL     1     -10.685   6.258  71.443  1.00  0.00    -0.248 A  
HETATM   16  C   UNL     1     -11.013   6.989  72.598  1.00  0.00    -0.278 A  
HETATM   17  N   UNL     1     -10.852   6.487  73.881  1.00  0.00    -0.447 NA 
HETATM   18  N   UNL     1     -11.515   8.235  72.456  1.00  0.00    -0.392 NA 
HETATM   19  H1  UNL     1     -11.090   7.017  74.719  1.00  0.00     0.000 HD 
HETATM   20  C   UNL     1     -11.636   8.721  71.203  1.00  0.00    -0.289 A  
HETATM   21  H2  UNL     1      -9.879   6.191  73.973  1.00  0.00     0.000 HD 
HETATM   22 CL   UNL     1     -12.276  10.305  71.092  1.00  0.00    -0.462 Cl 
HETATM   23  N   UNL     1     -11.344   8.134  70.022  1.00  0.00    -0.084 NA 
HETATM   24  C   UNL     1     -10.867   6.896  70.225  1.00  0.00    -0.257 A  
ENDBRANCH   7  12
TORSDOF 2
ENDMDL
MODEL      130
REMARK 921   NORMALIZED FREE ENERGY PREDICTED BY IDOCK:   -4.07 KCAL/MOL
REMARK 922        TOTAL FREE ENERGY PREDICTED BY IDOCK:   -5.05 KCAL/MOL
REMARK 923 INTER-LIGAND FREE ENERGY PREDICTED BY IDOCK:   -5.34 KCAL/MOL
REMARK 924 INTRA-LIGAND FREE ENERGY PREDICTED BY IDOCK:    0.28 KCAL/MOL
REMARK 927      BINDING AFFINITY PREDICTED BY RF-SCORE:    0.00 PKD
ROOT
HETATM    1  C   UNL     1      -9.922   9.205  71.027  1.00  0.00    -0.297 C  
HETATM    2  F   UNL     1      -9.310   9.202  69.821  1.00  0.00    -0.153 F  
HETATM    3  C   UNL     1     -11.339   9.735  70.907  1.00  0.00    -0.365 C  
HETATM    4  O   UNL     1     -11.435  11.157  70.928  1.00  0.00    -0.312 OA 
HETATM    5  C   UNL     1     -11.991   9.108  72.133  1.00  0.00    -0.294 C  
HETATM    6  O   UNL     1     -11.417   7.789  72.264  1.00  0.00    -0.289 OA 
HETATM    7  C   UNL     1     -10.125   7.807  71.604  1.00  0.00    -0.185 C  
HETATM    8  H   UNL     1     -12.323  11.488  70.853  1.00  0.00     0.000 HD 
ENDROOT
BRANCH   5   9
HETATM    9  C   UNL     1     -13.515   9.030  72.053  1.00  0.00    -0.442 C  
HETATM   10  O   UNL     1     -14.098   9.012  73.353  1.00  0.00    -1.231 OA 
HETATM   11  H   UNL     1     -15.046   8.963  73.303  1.00  0.00     0.000 HD 
ENDBRANCH   5   9
BRANCH   7  12
HETATM   12  N   UNL     1     -10.075   6.743  70.622  1.00  0.00    -0.187 NA 
HETATM   13  C   UNL     1     -10.134   6.857  69.260  1.00  0.00    -0.170 A  
HETATM   14  N   UNL     1     -10.012   5.691  68.659  1.00  0.00    -0.151 NA 
HETATM   15  C   UNL     1      -9.851   4.782  69.682  1.00  0.00    -0.221 A  
HETATM   16  C   UNL     1      -9.644   3.392  69.691  1.00  0.00    -0.090 A  
HETATM   17  N   UNL     1      -9.529   2.637  68.533  1.00  0.00    -0.185 NA 
HETATM   18  N   UNL     1      -9.558   2.758  70.881  1.00  0.00    -0.152 NA 
HETATM   19  H1  UNL     1      -9.378   1.628  68.540  1.00  0.00     0.000 HD 
HETATM   20  C   UNL     1      -9.640   3.509  71.998  1.00  0.00    -0.143 A  
HETATM   21  H2  UNL     1      -8.785   3.053  67.970  1.00  0.00     0.000 HD 
HETATM   22 CL   UNL     1      -9.523   2.645  73.471  1.00  0.00    -0.100 Cl 
HETATM   23  N   UNL     1      -9.819   4.842  72.125  1.00  0.00    -0.166 NA 
HETATM   24  C   UNL     1      -9.914   5.415  70.914  1.00  0.00    -0.202 A  
ENDBRANCH   7  12
TORSDOF 2
ENDMDL
MODEL      131
REMARK 921   NORMALIZED FREE ENERGY PREDICTED BY IDOCK:   -4.06 KCAL/MOL
REMARK 922        TOTAL FREE ENERGY PREDICTED BY IDOCK:   -5.04 KCAL/MOL
REMARK 923 INTER-LIGAND FREE ENERGY PREDICTED BY IDOCK:   -5.00 KCAL/MOL
REMARK 924 INTRA-LIGAND FREE ENERGY PREDICTED BY IDOCK:   -0.04 KCAL/MOL
REMARK 927      BINDING AFFINITY PREDICTED BY RF-SCORE:    0.00 PKD
ROOT
HETATM    1  C   UNL     1     -10.032  10.756  66.303  1.00  0.00    -0.222 C  
HETATM    2  F   UNL     1     -10.347   9.983  65.240  1.00  0.00    -0.381 F  
HETATM    3  C   UNL     1     -11.262  11.034  67.148  1.00  0.00    -0.217 C  
HETATM    4  O   UNL     1     -12.059  12.119  66.679  1.00  0.00    -0.622 OA 
HETATM    5  C   UNL     1     -10.627  11.343  68.498  1.00  0.00    -0.198 C  
HETATM    6  O   UNL     1      -9.500  10.450  68.626  1.00  0.00    -0.152 OA 
HETATM    7  C   UNL     1      -9.087  10.072  67.287  1.00  0.00    -0.138 C  
HETATM    8  H   UNL     1     -12.829  12.292  67.208  1.00  0.00     0.000 HD 
ENDROOT
BRANCH   5   9
HETATM    9  C   UNL     1     -11.580  11.185  69.681  1.00  0.00    -0.326 C  
HETATM   10  O   UNL     1     -12.707  10.387  69.331  1.00  0.00    -0.658 OA 
HETATM   11  H   UNL     1     -13.300  10.289  70.068  1.00  0.00     0.000 HD 
ENDBRANCH   5   9
BRANCH   7  12
HETATM   12  N   UNL     1      -9.063   8.626  67.185  1.00  0.00    -0.131 NA 
HETATM   13  C   UNL     1      -8.342   7.860  66.311  1.00  0.00    -0.126 A  
HETATM   14  N   UNL     1      -8.515   6.571  66.521  1.00  0.00    -0.116 NA 
HETATM   15  C   UNL     1      -9.378   6.502  67.593  1.00  0.00    -0.118 A  
HETATM   16  C   UNL     1      -9.918   5.418  68.307  1.00  0.00    -0.159 A  
HETATM   17  N   UNL     1      -9.606   4.097  68.024  1.00  0.00    -0.162 NA 
HETATM   18  N   UNL     1     -10.786   5.672  69.311  1.00  0.00    -0.290 NA 
HETATM   19  H1  UNL     1      -9.998   3.310  68.542  1.00  0.00     0.000 HD 
HETATM   20  C   UNL     1     -11.055   6.963  69.594  1.00  0.00    -0.258 A  
HETATM   21  H2  UNL     1      -8.590   4.009  68.059  1.00  0.00     0.000 HD 
HETATM   22 CL   UNL     1     -12.161   7.215  70.877  1.00  0.00    -0.379 Cl 
HETATM   23  N   UNL     1     -10.594   8.086  69.002  1.00  0.00    -0.193 NA 
HETATM   24  C   UNL     1      -9.752   7.772  68.005  1.00  0.00    -0.154 A  
ENDBRANCH   7  12
TORSDOF 2
ENDMDL
MODEL      132
REMARK 921   NORMALIZED FREE ENERGY PREDICTED BY IDOCK:   -4.06 KCAL/MOL
REMARK 922        TOTAL FREE ENERGY PREDICTED BY IDOCK:   -5.04 KCAL/MOL
REMARK 923 INTER-LIGAND FREE ENERGY PREDICTED BY IDOCK:   -5.43 KCAL/MOL
REMARK 924 INTRA-LIGAND FREE ENERGY PREDICTED BY IDOCK:    0.39 KCAL/MOL
REMARK 927      BINDING AFFINITY PREDICTED BY RF-SCORE:    0.00 PKD
ROOT
HETATM    1  C   UNL     1     -12.420  14.184  70.059  1.00  0.00    -0.296 C  
HETATM    2  F   UNL     1     -12.103  13.178  70.905  1.00  0.00    -0.415 F  
HETATM    3  C   UNL     1     -11.525  15.386  70.296  1.00  0.00    -0.316 C  
HETATM    4  O   UNL     1     -11.954  16.233  71.360  1.00  0.00    -0.609 OA 
HETATM    5  C   UNL     1     -11.612  16.087  68.946  1.00  0.00    -0.354 C  
HETATM    6  O   UNL     1     -11.650  15.042  67.952  1.00  0.00    -0.332 OA 
HETATM    7  C   UNL     1     -12.159  13.845  68.594  1.00  0.00    -0.302 C  
HETATM    8  H   UNL     1     -11.393  16.986  71.508  1.00  0.00     0.000 HD 
ENDROOT
BRANCH   5   9
HETATM    9  C   UNL     1     -10.460  17.053  68.674  1.00  0.00    -0.363 C  
HETATM   10  O   UNL     1     -10.621  17.705  67.417  1.00  0.00    -0.356 OA 
HETATM   11  H   UNL     1      -9.904  18.305  67.248  1.00  0.00     0.000 HD 
ENDBRANCH   5   9
BRANCH   7  12
HETATM   12  N   UNL     1     -11.222  12.758  68.390  1.00  0.00    -0.258 NA 
HETATM   13  C   UNL     1     -11.478  11.414  68.425  1.00  0.00    -0.299 A  
HETATM   14  N   UNL     1     -10.408  10.698  68.148  1.00  0.00    -0.168 NA 
HETATM   15  C   UNL     1      -9.416  11.625  67.907  1.00  0.00    -0.181 A  
HETATM   16  C   UNL     1      -8.067  11.495  67.536  1.00  0.00    -0.137 A  
HETATM   17  N   UNL     1      -7.463  10.269  67.300  1.00  0.00    -0.094 NA 
HETATM   18  N   UNL     1      -7.320  12.613  67.408  1.00  0.00    -0.148 NA 
HETATM   19  H1  UNL     1      -6.483  10.175  67.030  1.00  0.00     0.000 HD 
HETATM   20  C   UNL     1      -7.929  13.799  67.610  1.00  0.00    -0.174 A  
HETATM   21  H2  UNL     1      -8.021   9.784  66.597  1.00  0.00     0.000 HD 
HETATM   22 CL   UNL     1      -6.927  15.176  67.432  1.00  0.00    -0.219 Cl 
HETATM   23  N   UNL     1      -9.210  14.060  67.951  1.00  0.00    -0.188 NA 
HETATM   24  C   UNL     1      -9.898  12.914  68.079  1.00  0.00    -0.223 A  
ENDBRANCH   7  12
TORSDOF 2
ENDMDL
MODEL      133
REMARK 921   NORMALIZED FREE ENERGY PREDICTED BY IDOCK:   -4.05 KCAL/MOL
REMARK 922        TOTAL FREE ENERGY PREDICTED BY IDOCK:   -5.03 KCAL/MOL
REMARK 923 INTER-LIGAND FREE ENERGY PREDICTED BY IDOCK:   -5.02 KCAL/MOL
REMARK 924 INTRA-LIGAND FREE ENERGY PREDICTED BY IDOCK:   -0.01 KCAL/MOL
REMARK 927      BINDING AFFINITY PREDICTED BY RF-SCORE:    0.00 PKD
ROOT
HETATM    1  C   UNL     1      -5.676  17.710  66.771  1.00  0.00    -0.167 C  
HETATM    2  F   UNL     1      -6.291  16.755  66.036  1.00  0.00    -0.096 F  
HETATM    3  C   UNL     1      -6.238  19.081  66.444  1.00  0.00    -0.179 C  
HETATM    4  O   UNL     1      -5.660  19.689  65.291  1.00  0.00    -0.160 OA 
HETATM    5  C   UNL     1      -5.898  19.848  67.716  1.00  0.00    -0.197 C  
HETATM    6  O   UNL     1      -6.082  18.920  68.806  1.00  0.00    -0.213 OA 
HETATM    7  C   UNL     1      -5.938  17.580  68.269  1.00  0.00    -0.162 C  
HETATM    8  H   UNL     1      -6.012  20.548  65.087  1.00  0.00     0.000 HD 
ENDROOT
BRANCH   5   9
HETATM    9  C   UNL     1      -6.742  21.104  67.927  1.00  0.00    -0.159 C  
HETATM   10  O   UNL     1      -7.756  21.216  66.932  1.00  0.00    -0.626 OA 
HETATM   11  H   UNL     1      -8.281  21.997  67.063  1.00  0.00     0.000 HD 
ENDBRANCH   5   9
BRANCH   7  12
HETATM   12  N   UNL     1      -7.114  16.802  68.604  1.00  0.00    -0.184 NA 
HETATM   13  C   UNL     1      -7.165  15.601  69.260  1.00  0.00    -0.198 A  
HETATM   14  N   UNL     1      -8.402  15.191  69.446  1.00  0.00    -0.219 NA 
HETATM   15  C   UNL     1      -9.189  16.181  68.899  1.00  0.00    -0.234 A  
HETATM   16  C   UNL     1     -10.582  16.344  68.808  1.00  0.00    -0.310 A  
HETATM   17  N   UNL     1     -11.485  15.439  69.345  1.00  0.00    -0.300 NA 
HETATM   18  N   UNL     1     -11.067  17.429  68.165  1.00  0.00    -0.154 NA 
HETATM   19  H1  UNL     1     -12.496  15.557  69.280  1.00  0.00     0.000 HD 
HETATM   20  C   UNL     1     -10.177  18.316  67.676  1.00  0.00    -0.382 A  
HETATM   21  H2  UNL     1     -11.254  15.326  70.333  1.00  0.00     0.000 HD 
HETATM   22 CL   UNL     1     -10.856  19.667  66.873  1.00  0.00    -0.569 Cl 
HETATM   23  N   UNL     1      -8.827  18.286  67.710  1.00  0.00    -0.260 NA 
HETATM   24  C   UNL     1      -8.404  17.181  68.345  1.00  0.00    -0.251 A  
ENDBRANCH   7  12
TORSDOF 2
ENDMDL
MODEL      134
REMARK 921   NORMALIZED FREE ENERGY PREDICTED BY IDOCK:   -4.03 KCAL/MOL
REMARK 922        TOTAL FREE ENERGY PREDICTED BY IDOCK:   -5.01 KCAL/MOL
REMARK 923 INTER-LIGAND FREE ENERGY PREDICTED BY IDOCK:   -4.93 KCAL/MOL
REMARK 924 INTRA-LIGAND FREE ENERGY PREDICTED BY IDOCK:   -0.08 KCAL/MOL
REMARK 927      BINDING AFFINITY PREDICTED BY RF-SCORE:    0.00 PKD
ROOT
HETATM    1  C   UNL     1     -11.928  13.094  68.750  1.00  0.00    -0.280 C  
HETATM    2  F   UNL     1     -11.510  13.488  69.975  1.00  0.00    -0.306 F  
HETATM    3  C   UNL     1     -10.916  13.481  67.688  1.00  0.00    -0.263 C  
HETATM    4  O   UNL     1     -11.038  14.824  67.226  1.00  0.00    -0.312 OA 
HETATM    5  C   UNL     1     -11.242  12.475  66.592  1.00  0.00    -0.307 C  
HETATM    6  O   UNL     1     -11.573  11.241  67.264  1.00  0.00    -0.527 OA 
HETATM    7  C   UNL     1     -12.018  11.578  68.603  1.00  0.00    -0.246 C  
HETATM    8  H   UNL     1     -10.404  15.066  66.561  1.00  0.00     0.000 HD 
ENDROOT
BRANCH   5   9
HETATM    9  C   UNL     1     -10.107  12.259  65.591  1.00  0.00    -0.252 C  
HETATM   10  O   UNL     1      -8.872  12.756  66.098  1.00  0.00    -0.427 OA 
HETATM   11  H   UNL     1      -8.167  12.621  65.476  1.00  0.00     0.000 HD 
ENDBRANCH   5   9
BRANCH   7  12
HETATM   12  N   UNL     1     -11.232  10.836  69.569  1.00  0.00    -0.259 NA 
HETATM   13  C   UNL     1     -11.620  10.402  70.808  1.00  0.00    -0.358 A  
HETATM   14  N   UNL     1     -10.673   9.713  71.410  1.00  0.00    -0.276 NA 
HETATM   15  C   UNL     1      -9.629   9.686  70.510  1.00  0.00    -0.199 A  
HETATM   16  C   UNL     1      -8.358   9.087  70.549  1.00  0.00    -0.183 A  
HETATM   17  N   UNL     1      -7.919   8.315  71.614  1.00  0.00    -0.117 NA 
HETATM   18  N   UNL     1      -7.522   9.273  69.504  1.00  0.00    -0.075 NA 
HETATM   19  H1  UNL     1      -6.997   7.880  71.643  1.00  0.00     0.000 HD 
HETATM   20  C   UNL     1      -7.975   9.999  68.462  1.00  0.00    -0.102 A  
HETATM   21  H2  UNL     1      -8.609   7.578  71.763  1.00  0.00     0.000 HD 
HETATM   22 CL   UNL     1      -6.867  10.197  67.172  1.00  0.00    -0.081 Cl 
HETATM   23  N   UNL     1      -9.168  10.609  68.294  1.00  0.00    -0.147 NA 
HETATM   24  C   UNL     1      -9.949  10.403  69.367  1.00  0.00    -0.218 A  
ENDBRANCH   7  12
TORSDOF 2
ENDMDL
MODEL      135
REMARK 921   NORMALIZED FREE ENERGY PREDICTED BY IDOCK:   -4.02 KCAL/MOL
REMARK 922        TOTAL FREE ENERGY PREDICTED BY IDOCK:   -5.00 KCAL/MOL
REMARK 923 INTER-LIGAND FREE ENERGY PREDICTED BY IDOCK:   -4.50 KCAL/MOL
REMARK 924 INTRA-LIGAND FREE ENERGY PREDICTED BY IDOCK:   -0.50 KCAL/MOL
REMARK 927      BINDING AFFINITY PREDICTED BY RF-SCORE:    0.00 PKD
ROOT
HETATM    1  C   UNL     1      -9.154   6.457  72.265  1.00  0.00    -0.139 C  
HETATM    2  F   UNL     1     -10.062   6.233  71.287  1.00  0.00    -0.196 F  
HETATM    3  C   UNL     1      -7.764   6.057  71.807  1.00  0.00    -0.101 C  
HETATM    4  O   UNL     1      -7.479   4.668  71.951  1.00  0.00    -0.077 OA 
HETATM    5  C   UNL     1      -6.897   6.909  72.725  1.00  0.00    -0.070 C  
HETATM    6  O   UNL     1      -7.584   8.170  72.871  1.00  0.00    -0.124 OA 
HETATM    7  C   UNL     1      -8.991   7.935  72.609  1.00  0.00    -0.192 C  
HETATM    8  H   UNL     1      -6.608   4.417  71.665  1.00  0.00     0.000 HD 
ENDROOT
BRANCH   5   9
HETATM    9  C   UNL     1      -5.474   7.123  72.211  1.00  0.00    -0.037 C  
HETATM   10  O   UNL     1      -5.479   7.692  70.905  1.00  0.00    -0.027 OA 
HETATM   11  H   UNL     1      -4.594   7.825  70.585  1.00  0.00     0.000 HD 
ENDBRANCH   5   9
BRANCH   7  12
HETATM   12  N   UNL     1      -9.442   8.843  71.573  1.00  0.00    -0.274 NA 
HETATM   13  C   UNL     1      -8.701   9.395  70.563  1.00  0.00    -0.231 A  
HETATM   14  N   UNL     1      -9.434  10.141  69.762  1.00  0.00    -0.204 NA 
HETATM   15  C   UNL     1     -10.713  10.053  70.269  1.00  0.00    -0.309 A  
HETATM   16  C   UNL     1     -11.940  10.594  69.848  1.00  0.00    -0.310 A  
HETATM   17  N   UNL     1     -12.071  11.369  68.705  1.00  0.00    -0.542 NA 
HETATM   18  N   UNL     1     -13.042  10.355  70.591  1.00  0.00    -0.321 NA 
HETATM   19  H1  UNL     1     -12.961  11.761  68.399  1.00  0.00     0.000 HD 
HETATM   20  C   UNL     1     -12.905   9.574  71.682  1.00  0.00    -0.393 A  
HETATM   21  H2  UNL     1     -11.691  10.830  67.926  1.00  0.00     0.000 HD 
HETATM   22 CL   UNL     1     -14.339   9.310  72.578  1.00  0.00    -0.240 Cl 
HETATM   23  N   UNL     1     -11.797   8.984  72.181  1.00  0.00    -0.346 NA 
HETATM   24  C   UNL     1     -10.733   9.269  71.413  1.00  0.00    -0.362 A  
ENDBRANCH   7  12
TORSDOF 2
ENDMDL
MODEL      136
REMARK 921   NORMALIZED FREE ENERGY PREDICTED BY IDOCK:   -4.00 KCAL/MOL
REMARK 922        TOTAL FREE ENERGY PREDICTED BY IDOCK:   -4.98 KCAL/MOL
REMARK 923 INTER-LIGAND FREE ENERGY PREDICTED BY IDOCK:   -4.34 KCAL/MOL
REMARK 924 INTRA-LIGAND FREE ENERGY PREDICTED BY IDOCK:   -0.64 KCAL/MOL
REMARK 927      BINDING AFFINITY PREDICTED BY RF-SCORE:    0.00 PKD
ROOT
HETATM    1  C   UNL     1     -10.765   5.232  67.518  1.00  0.00     0.018 C  
HETATM    2  F   UNL     1     -11.289   6.474  67.624  1.00  0.00    -0.382 F  
HETATM    3  C   UNL     1     -10.450   4.904  66.070  1.00  0.00    -0.283 C  
HETATM    4  O   UNL     1     -11.566   4.426  65.323  1.00  0.00    -0.973 OA 
HETATM    5  C   UNL     1      -9.381   3.831  66.238  1.00  0.00    -0.182 C  
HETATM    6  O   UNL     1      -8.586   4.230  67.375  1.00  0.00    -0.103 OA 
HETATM    7  C   UNL     1      -9.409   5.089  68.205  1.00  0.00    -0.126 C  
HETATM    8  H   UNL     1     -11.368   4.221  64.417  1.00  0.00     0.000 HD 
ENDROOT
BRANCH   5   9
HETATM    9  C   UNL     1      -8.501   3.634  65.004  1.00  0.00    -0.104 C  
HETATM   10  O   UNL     1      -9.269   3.717  63.806  1.00  0.00    -0.113 OA 
HETATM   11  H   UNL     1      -8.721   3.594  63.039  1.00  0.00     0.000 HD 
ENDBRANCH   5   9
BRANCH   7  12
HETATM   12  N   UNL     1      -8.718   6.343  68.429  1.00  0.00    -0.114 NA 
HETATM   13  C   UNL     1      -7.836   6.973  67.593  1.00  0.00    -0.113 A  
HETATM   14  N   UNL     1      -7.427   8.125  68.083  1.00  0.00    -0.095 NA 
HETATM   15  C   UNL     1      -8.088   8.253  69.285  1.00  0.00    -0.116 A  
HETATM   16  C   UNL     1      -8.101   9.267  70.258  1.00  0.00    -0.154 A  
HETATM   17  N   UNL     1      -7.384  10.448  70.127  1.00  0.00    -0.356 NA 
HETATM   18  N   UNL     1      -8.838   9.084  71.375  1.00  0.00    -0.311 NA 
HETATM   19  H1  UNL     1      -7.393  11.184  70.833  1.00  0.00     0.000 HD 
HETATM   20  C   UNL     1      -9.554   7.946  71.473  1.00  0.00    -0.151 A  
HETATM   21  H2  UNL     1      -7.655  10.873  69.240  1.00  0.00     0.000 HD 
HETATM   22 CL   UNL     1     -10.467   7.777  72.912  1.00  0.00    -0.380 Cl 
HETATM   23  N   UNL     1      -9.642   6.910  70.611  1.00  0.00    -0.169 NA 
HETATM   24  C   UNL     1      -8.878   7.139  69.531  1.00  0.00    -0.137 A  
ENDBRANCH   7  12
TORSDOF 2
ENDMDL
MODEL      137
REMARK 921   NORMALIZED FREE ENERGY PREDICTED BY IDOCK:   -4.00 KCAL/MOL
REMARK 922        TOTAL FREE ENERGY PREDICTED BY IDOCK:   -4.98 KCAL/MOL
REMARK 923 INTER-LIGAND FREE ENERGY PREDICTED BY IDOCK:   -4.91 KCAL/MOL
REMARK 924 INTRA-LIGAND FREE ENERGY PREDICTED BY IDOCK:   -0.07 KCAL/MOL
REMARK 927      BINDING AFFINITY PREDICTED BY RF-SCORE:    0.00 PKD
ROOT
HETATM    1  C   UNL     1     -11.217   6.516  71.042  1.00  0.00    -0.309 C  
HETATM    2  F   UNL     1     -12.400   6.636  70.399  1.00  0.00    -0.441 F  
HETATM    3  C   UNL     1     -10.145   5.997  70.102  1.00  0.00    -0.194 C  
HETATM    4  O   UNL     1     -10.134   4.579  69.955  1.00  0.00    -0.227 OA 
HETATM    5  C   UNL     1      -8.883   6.503  70.788  1.00  0.00    -0.144 C  
HETATM    6  O   UNL     1      -9.209   7.805  71.320  1.00  0.00    -0.140 OA 
HETATM    7  C   UNL     1     -10.646   7.853  71.509  1.00  0.00    -0.222 C  
HETATM    8  H   UNL     1      -9.462   4.254  69.366  1.00  0.00     0.000 HD 
ENDROOT
BRANCH   5   9
HETATM    9  C   UNL     1      -7.666   6.585  69.866  1.00  0.00    -0.109 C  
HETATM   10  O   UNL     1      -8.007   6.222  68.531  1.00  0.00    -0.103 OA 
HETATM   11  H   UNL     1      -7.251   6.272  67.958  1.00  0.00     0.000 HD 
ENDBRANCH   5   9
BRANCH   7  12
HETATM   12  N   UNL     1     -11.181   9.006  70.812  1.00  0.00    -0.263 NA 
HETATM   13  C   UNL     1     -12.055   9.943  71.292  1.00  0.00    -0.394 A  
HETATM   14  N   UNL     1     -12.300  10.890  70.410  1.00  0.00    -0.333 NA 
HETATM   15  C   UNL     1     -11.534  10.558  69.314  1.00  0.00    -0.256 A  
HETATM   16  C   UNL     1     -11.336  11.183  68.070  1.00  0.00    -0.312 A  
HETATM   17  N   UNL     1     -11.931  12.388  67.727  1.00  0.00    -0.461 NA 
HETATM   18  N   UNL     1     -10.534  10.583  67.164  1.00  0.00    -0.235 NA 
HETATM   19  H1  UNL     1     -11.788  12.842  66.825  1.00  0.00     0.000 HD 
HETATM   20  C   UNL     1      -9.937   9.428  67.524  1.00  0.00    -0.199 A  
HETATM   21  H2  UNL     1     -11.689  13.065  68.452  1.00  0.00     0.000 HD 
HETATM   22 CL   UNL     1      -8.935   8.720  66.330  1.00  0.00    -0.176 Cl 
HETATM   23  N   UNL     1     -10.029   8.738  68.682  1.00  0.00    -0.177 NA 
HETATM   24  C   UNL     1     -10.849   9.372  69.535  1.00  0.00    -0.213 A  
ENDBRANCH   7  12
TORSDOF 2
ENDMDL
MODEL      138
REMARK 921   NORMALIZED FREE ENERGY PREDICTED BY IDOCK:   -3.95 KCAL/MOL
REMARK 922        TOTAL FREE ENERGY PREDICTED BY IDOCK:   -4.92 KCAL/MOL
REMARK 923 INTER-LIGAND FREE ENERGY PREDICTED BY IDOCK:   -4.41 KCAL/MOL
REMARK 924 INTRA-LIGAND FREE ENERGY PREDICTED BY IDOCK:   -0.51 KCAL/MOL
REMARK 927      BINDING AFFINITY PREDICTED BY RF-SCORE:    0.00 PKD
ROOT
HETATM    1  C   UNL     1      -8.553   4.770  67.760  1.00  0.00    -0.103 C  
HETATM    2  F   UNL     1      -8.953   5.109  69.007  1.00  0.00    -0.097 F  
HETATM    3  C   UNL     1      -9.617   3.943  67.062  1.00  0.00    -0.196 C  
HETATM    4  O   UNL     1      -9.580   2.554  67.381  1.00  0.00    -0.404 OA 
HETATM    5  C   UNL     1      -9.273   4.196  65.600  1.00  0.00    -0.149 C  
HETATM    6  O   UNL     1      -8.857   5.576  65.518  1.00  0.00    -0.153 OA 
HETATM    7  C   UNL     1      -8.388   5.971  66.833  1.00  0.00    -0.105 C  
HETATM    8  H   UNL     1     -10.247   2.037  66.943  1.00  0.00     0.000 HD 
ENDROOT
BRANCH   5   9
HETATM    9  C   UNL     1     -10.426   3.920  64.635  1.00  0.00    -0.182 C  
HETATM   10  O   UNL     1     -11.640   4.499  65.104  1.00  0.00    -1.102 OA 
HETATM   11  H   UNL     1     -12.356   4.327  64.504  1.00  0.00     0.000 HD 
ENDBRANCH   5   9
BRANCH   7  12
HETATM   12  N   UNL     1      -9.104   7.157  67.259  1.00  0.00    -0.121 NA 
HETATM   13  C   UNL     1     -10.371   7.540  66.911  1.00  0.00    -0.309 A  
HETATM   14  N   UNL     1     -10.736   8.651  67.517  1.00  0.00    -0.211 NA 
HETATM   15  C   UNL     1      -9.659   8.994  68.306  1.00  0.00    -0.145 A  
HETATM   16  C   UNL     1      -9.441  10.050  69.207  1.00  0.00    -0.217 A  
HETATM   17  N   UNL     1     -10.401  11.008  69.495  1.00  0.00    -0.430 NA 
HETATM   18  N   UNL     1      -8.239  10.143  69.818  1.00  0.00    -0.170 NA 
HETATM   19  H1  UNL     1     -10.243  11.775  70.149  1.00  0.00     0.000 HD 
HETATM   20  C   UNL     1      -7.327   9.186  69.553  1.00  0.00    -0.068 A  
HETATM   21  H2  UNL     1     -11.242  10.516  69.799  1.00  0.00     0.000 HD 
HETATM   22 CL   UNL     1      -5.827   9.362  70.360  1.00  0.00    -0.040 Cl 
HETATM   23  N   UNL     1      -7.416   8.120  68.729  1.00  0.00    -0.088 NA 
HETATM   24  C   UNL     1      -8.621   8.089  68.139  1.00  0.00    -0.126 A  
ENDBRANCH   7  12
TORSDOF 2
ENDMDL
MODEL      139
REMARK 921   NORMALIZED FREE ENERGY PREDICTED BY IDOCK:   -3.95 KCAL/MOL
REMARK 922        TOTAL FREE ENERGY PREDICTED BY IDOCK:   -4.92 KCAL/MOL
REMARK 923 INTER-LIGAND FREE ENERGY PREDICTED BY IDOCK:   -4.40 KCAL/MOL
REMARK 924 INTRA-LIGAND FREE ENERGY PREDICTED BY IDOCK:   -0.52 KCAL/MOL
REMARK 927      BINDING AFFINITY PREDICTED BY RF-SCORE:    0.00 PKD
ROOT
HETATM    1  C   UNL     1     -10.569   7.564  67.076  1.00  0.00    -0.339 C  
HETATM    2  F   UNL     1      -9.897   8.047  66.006  1.00  0.00    -0.245 F  
HETATM    3  C   UNL     1      -9.706   6.588  67.854  1.00  0.00    -0.122 C  
HETATM    4  O   UNL     1      -9.711   5.261  67.335  1.00  0.00    -0.131 OA 
HETATM    5  C   UNL     1     -10.354   6.658  69.231  1.00  0.00    -0.200 C  
HETATM    6  O   UNL     1     -10.740   8.035  69.425  1.00  0.00    -0.224 OA 
HETATM    7  C   UNL     1     -10.899   8.634  68.113  1.00  0.00     0.043 C  
HETATM    8  H   UNL     1      -9.171   4.650  67.823  1.00  0.00     0.000 HD 
ENDROOT
BRANCH   5   9
HETATM    9  C   UNL     1      -9.448   6.184  70.367  1.00  0.00    -0.161 C  
HETATM   10  O   UNL     1      -8.113   6.649  70.189  1.00  0.00    -0.119 OA 
HETATM   11  H   UNL     1      -7.550   6.354  70.896  1.00  0.00     0.000 HD 
ENDBRANCH   5   9
BRANCH   7  12
HETATM   12  N   UNL     1     -10.075   9.823  68.027  1.00  0.00    -0.162 NA 
HETATM   13  C   UNL     1      -8.838  10.026  68.576  1.00  0.00    -0.120 A  
HETATM   14  N   UNL     1      -8.345  11.206  68.264  1.00  0.00    -0.136 NA 
HETATM   15  C   UNL     1      -9.302  11.788  67.462  1.00  0.00    -0.174 A  
HETATM   16  C   UNL     1      -9.356  13.023  66.792  1.00  0.00    -0.244 A  
HETATM   17  N   UNL     1      -8.318  13.942  66.817  1.00  0.00    -0.422 NA 
HETATM   18  N   UNL     1     -10.472  13.334  66.096  1.00  0.00    -0.288 NA 
HETATM   19  H1  UNL     1      -8.357  14.837  66.330  1.00  0.00     0.000 HD 
HETATM   20  C   UNL     1     -11.460  12.417  66.055  1.00  0.00    -0.382 A  
HETATM   21  H2  UNL     1      -7.475  13.459  66.501  1.00  0.00     0.000 HD 
HETATM   22 CL   UNL     1     -12.844  12.873  65.156  1.00  0.00    -0.452 Cl 
HETATM   23  N   UNL     1     -11.526  11.199  66.635  1.00  0.00    -0.303 NA 
HETATM   24  C   UNL     1     -10.400  10.952  67.324  1.00  0.00    -0.216 A  
ENDBRANCH   7  12
TORSDOF 2
ENDMDL
MODEL      140
REMARK 921   NORMALIZED FREE ENERGY PREDICTED BY IDOCK:   -3.91 KCAL/MOL
REMARK 922        TOTAL FREE ENERGY PREDICTED BY IDOCK:   -4.88 KCAL/MOL
REMARK 923 INTER-LIGAND FREE ENERGY PREDICTED BY IDOCK:   -4.24 KCAL/MOL
REMARK 924 INTRA-LIGAND FREE ENERGY PREDICTED BY IDOCK:   -0.64 KCAL/MOL
REMARK 927      BINDING AFFINITY PREDICTED BY RF-SCORE:    0.00 PKD
ROOT
HETATM    1  C   UNL     1     -10.517  10.987  67.388  1.00  0.00    -0.218 C  
HETATM    2  F   UNL     1      -9.349  11.536  66.983  1.00  0.00    -0.169 F  
HETATM    3  C   UNL     1     -10.331  10.236  68.694  1.00  0.00    -0.184 C  
HETATM    4  O   UNL     1      -9.835   8.909  68.539  1.00  0.00    -0.159 OA 
HETATM    5  C   UNL     1     -11.752  10.248  69.243  1.00  0.00    -0.070 C  
HETATM    6  O   UNL     1     -12.308  11.533  68.892  1.00  0.00    -0.400 OA 
HETATM    7  C   UNL     1     -11.582  12.023  67.736  1.00  0.00    -0.330 C  
HETATM    8  H   UNL     1      -9.719   8.439  69.357  1.00  0.00     0.000 HD 
ENDROOT
BRANCH   5   9
HETATM    9  C   UNL     1     -11.835  10.016  70.752  1.00  0.00    -0.346 C  
HETATM   10  O   UNL     1     -10.594   9.544  71.269  1.00  0.00    -0.332 OA 
HETATM   11  H   UNL     1     -10.646   9.400  72.207  1.00  0.00     0.000 HD 
ENDBRANCH   5   9
BRANCH   7  12
HETATM   12  N   UNL     1     -11.059  13.343  68.025  1.00  0.00    -0.246 NA 
HETATM   13  C   UNL     1     -10.462  13.773  69.179  1.00  0.00    -0.021 A  
HETATM   14  N   UNL     1     -10.057  15.023  69.091  1.00  0.00    -0.240 NA 
HETATM   15  C   UNL     1     -10.393  15.415  67.813  1.00  0.00    -0.253 A  
HETATM   16  C   UNL     1     -10.202  16.615  67.107  1.00  0.00    -0.290 A  
HETATM   17  N   UNL     1      -9.541  17.710  67.644  1.00  0.00    -0.264 NA 
HETATM   18  N   UNL     1     -10.687  16.712  65.850  1.00  0.00    -0.234 NA 
HETATM   19  H1  UNL     1      -9.401  18.581  67.132  1.00  0.00     0.000 HD 
HETATM   20  C   UNL     1     -11.299  15.628  65.331  1.00  0.00    -0.089 A  
HETATM   21  H2  UNL     1      -8.623  17.390  67.957  1.00  0.00     0.000 HD 
HETATM   22 CL   UNL     1     -11.890  15.817  63.735  1.00  0.00     0.256 Cl 
HETATM   23  N   UNL     1     -11.531  14.421  65.891  1.00  0.00    -0.337 NA 
HETATM   24  C   UNL     1     -11.043  14.390  67.142  1.00  0.00    -0.312 A  
ENDBRANCH   7  12
TORSDOF 2
ENDMDL
MODEL      141
REMARK 921   NORMALIZED FREE ENERGY PREDICTED BY IDOCK:   -3.90 KCAL/MOL
REMARK 922        TOTAL FREE ENERGY PREDICTED BY IDOCK:   -4.86 KCAL/MOL
REMARK 923 INTER-LIGAND FREE ENERGY PREDICTED BY IDOCK:   -4.44 KCAL/MOL
REMARK 924 INTRA-LIGAND FREE ENERGY PREDICTED BY IDOCK:   -0.42 KCAL/MOL
REMARK 927      BINDING AFFINITY PREDICTED BY RF-SCORE:    0.00 PKD
ROOT
HETATM    1  C   UNL     1      -8.143   8.527  67.240  1.00  0.00    -0.105 C  
HETATM    2  F   UNL     1      -7.534   8.767  68.424  1.00  0.00    -0.084 F  
HETATM    3  C   UNL     1      -7.630   7.238  66.625  1.00  0.00    -0.093 C  
HETATM    4  O   UNL     1      -6.414   7.381  65.896  1.00  0.00    -0.043 OA 
HETATM    5  C   UNL     1      -8.793   6.865  65.715  1.00  0.00    -0.067 C  
HETATM    6  O   UNL     1      -9.995   7.233  66.425  1.00  0.00    -0.144 OA 
HETATM    7  C   UNL     1      -9.642   8.273  67.373  1.00  0.00    -0.160 C  
HETATM    8  H   UNL     1      -6.093   6.573  65.512  1.00  0.00     0.000 HD 
ENDROOT
BRANCH   5   9
HETATM    9  C   UNL     1      -8.826   5.388  65.324  1.00  0.00    -0.130 C  
HETATM   10  O   UNL     1      -8.999   5.232  63.918  1.00  0.00    -0.345 OA 
HETATM   11  H   UNL     1      -9.019   4.313  63.675  1.00  0.00     0.000 HD 
ENDBRANCH   5   9
BRANCH   7  12
HETATM   12  N   UNL     1     -10.064   7.873  68.701  1.00  0.00    -0.192 NA 
HETATM   13  C   UNL     1      -9.917   6.648  69.292  1.00  0.00    -0.158 A  
HETATM   14  N   UNL     1     -10.370   6.637  70.529  1.00  0.00    -0.196 NA 
HETATM   15  C   UNL     1     -10.816   7.922  70.753  1.00  0.00    -0.232 A  
HETATM   16  C   UNL     1     -11.376   8.549  71.879  1.00  0.00    -0.329 A  
HETATM   17  N   UNL     1     -11.562   7.899  73.090  1.00  0.00    -0.599 NA 
HETATM   18  N   UNL     1     -11.757   9.841  71.778  1.00  0.00    -0.314 NA 
HETATM   19  H1  UNL     1     -11.969   8.354  73.908  1.00  0.00     0.000 HD 
HETATM   20  C   UNL     1     -11.541  10.468  70.604  1.00  0.00    -0.352 A  
HETATM   21  H2  UNL     1     -10.660   7.515  73.372  1.00  0.00     0.000 HD 
HETATM   22 CL   UNL     1     -12.046  12.103  70.544  1.00  0.00    -0.441 Cl 
HETATM   23  N   UNL     1     -11.001   9.989  69.462  1.00  0.00    -0.242 NA 
HETATM   24  C   UNL     1     -10.658   8.700  69.616  1.00  0.00    -0.218 A  
ENDBRANCH   7  12
TORSDOF 2
ENDMDL
MODEL      142
REMARK 921   NORMALIZED FREE ENERGY PREDICTED BY IDOCK:   -3.89 KCAL/MOL
REMARK 922        TOTAL FREE ENERGY PREDICTED BY IDOCK:   -4.85 KCAL/MOL
REMARK 923 INTER-LIGAND FREE ENERGY PREDICTED BY IDOCK:   -4.44 KCAL/MOL
REMARK 924 INTRA-LIGAND FREE ENERGY PREDICTED BY IDOCK:   -0.41 KCAL/MOL
REMARK 927      BINDING AFFINITY PREDICTED BY RF-SCORE:    0.00 PKD
ROOT
HETATM    1  C   UNL     1     -12.167  10.646  70.186  1.00  0.00    -0.320 C  
HETATM    2  F   UNL     1     -11.796   9.921  71.265  1.00  0.00    -0.357 F  
HETATM    3  C   UNL     1     -11.801  12.107  70.370  1.00  0.00    -0.187 C  
HETATM    4  O   UNL     1     -12.753  12.858  71.119  1.00  0.00    -0.360 OA 
HETATM    5  C   UNL     1     -11.726  12.575  68.922  1.00  0.00    -0.322 C  
HETATM    6  O   UNL     1     -11.153  11.482  68.175  1.00  0.00    -0.211 OA 
HETATM    7  C   UNL     1     -11.415  10.261  68.914  1.00  0.00    -0.127 C  
HETATM    8  H   UNL     1     -12.523  13.773  71.234  1.00  0.00     0.000 HD 
ENDROOT
BRANCH   5   9
HETATM    9  C   UNL     1     -10.910  13.852  68.725  1.00  0.00    -0.263 C  
HETATM   10  O   UNL     1     -10.660  14.501  69.969  1.00  0.00    -0.454 OA 
HETATM   11  H   UNL     1     -10.153  15.295  69.846  1.00  0.00     0.000 HD 
ENDBRANCH   5   9
BRANCH   7  12
HETATM   12  N   UNL     1     -10.166   9.565  69.147  1.00  0.00    -0.193 NA 
HETATM   13  C   UNL     1      -9.117   9.966  69.929  1.00  0.00    -0.210 A  
HETATM   14  N   UNL     1      -8.151   9.072  69.960  1.00  0.00    -0.111 NA 
HETATM   15  C   UNL     1      -8.604   8.036  69.172  1.00  0.00    -0.137 A  
HETATM   16  C   UNL     1      -8.052   6.788  68.836  1.00  0.00    -0.120 A  
HETATM   17  N   UNL     1      -6.832   6.345  69.326  1.00  0.00    -0.063 NA 
HETATM   18  N   UNL     1      -8.734   5.983  67.992  1.00  0.00    -0.113 NA 
HETATM   19  H1  UNL     1      -6.431   5.439  69.082  1.00  0.00     0.000 HD 
HETATM   20  C   UNL     1      -9.933   6.414  67.549  1.00  0.00    -0.136 A  
HETATM   21  H2  UNL     1      -6.876   6.395  70.344  1.00  0.00     0.000 HD 
HETATM   22 CL   UNL     1     -10.746   5.347  66.484  1.00  0.00    -0.358 Cl 
HETATM   23  N   UNL     1     -10.578   7.572  67.807  1.00  0.00    -0.223 NA 
HETATM   24  C   UNL     1      -9.847   8.336  68.635  1.00  0.00    -0.176 A  
ENDBRANCH   7  12
TORSDOF 2
ENDMDL
MODEL      143
REMARK 921   NORMALIZED FREE ENERGY PREDICTED BY IDOCK:   -3.86 KCAL/MOL
REMARK 922        TOTAL FREE ENERGY PREDICTED BY IDOCK:   -4.82 KCAL/MOL
REMARK 923 INTER-LIGAND FREE ENERGY PREDICTED BY IDOCK:   -4.79 KCAL/MOL
REMARK 924 INTRA-LIGAND FREE ENERGY PREDICTED BY IDOCK:   -0.03 KCAL/MOL
REMARK 927      BINDING AFFINITY PREDICTED BY RF-SCORE:    0.00 PKD
ROOT
HETATM    1  C   UNL     1     -10.726   5.991  72.336  1.00  0.00    -0.228 C  
HETATM    2  F   UNL     1     -11.470   5.924  71.208  1.00  0.00    -0.339 F  
HETATM    3  C   UNL     1      -9.248   6.055  72.000  1.00  0.00    -0.146 C  
HETATM    4  O   UNL     1      -8.648   4.784  71.758  1.00  0.00    -0.118 OA 
HETATM    5  C   UNL     1      -8.690   6.712  73.256  1.00  0.00    -0.123 C  
HETATM    6  O   UNL     1      -9.671   7.688  73.669  1.00  0.00    -0.287 OA 
HETATM    7  C   UNL     1     -10.954   7.272  73.133  1.00  0.00    -0.340 C  
HETATM    8  H   UNL     1      -7.722   4.825  71.548  1.00  0.00     0.000 HD 
ENDROOT
BRANCH   5   9
HETATM    9  C   UNL     1      -7.324   7.368  73.058  1.00  0.00    -0.074 C  
HETATM   10  O   UNL     1      -6.920   7.313  71.693  1.00  0.00    -0.058 OA 
HETATM   11  H   UNL     1      -6.070   7.721  71.570  1.00  0.00     0.000 HD 
ENDBRANCH   5   9
BRANCH   7  12
HETATM   12  N   UNL     1     -11.525   8.360  72.364  1.00  0.00    -0.384 NA 
HETATM   13  C   UNL     1     -12.766   8.921  72.500  1.00  0.00    -0.313 A  
HETATM   14  N   UNL     1     -12.949   9.927  71.671  1.00  0.00    -0.400 NA 
HETATM   15  C   UNL     1     -11.764  10.032  70.976  1.00  0.00    -0.392 A  
HETATM   16  C   UNL     1     -11.323  10.922  69.981  1.00  0.00    -0.307 A  
HETATM   17  N   UNL     1     -12.097  11.972  69.510  1.00  0.00    -0.252 NA 
HETATM   18  N   UNL     1     -10.092  10.745  69.453  1.00  0.00    -0.185 NA 
HETATM   19  H1  UNL     1     -11.777  12.618  68.788  1.00  0.00     0.000 HD 
HETATM   20  C   UNL     1      -9.340   9.739  69.943  1.00  0.00    -0.231 A  
HETATM   21  H2  UNL     1     -12.377  12.531  70.317  1.00  0.00     0.000 HD 
HETATM   22 CL   UNL     1      -7.791   9.570  69.232  1.00  0.00    -0.083 Cl 
HETATM   23  N   UNL     1      -9.635   8.833  70.900  1.00  0.00    -0.201 NA 
HETATM   24  C   UNL     1     -10.872   9.047  71.375  1.00  0.00    -0.330 A  
ENDBRANCH   7  12
TORSDOF 2
ENDMDL
MODEL      144
REMARK 921   NORMALIZED FREE ENERGY PREDICTED BY IDOCK:   -3.84 KCAL/MOL
REMARK 922        TOTAL FREE ENERGY PREDICTED BY IDOCK:   -4.80 KCAL/MOL
REMARK 923 INTER-LIGAND FREE ENERGY PREDICTED BY IDOCK:   -4.41 KCAL/MOL
REMARK 924 INTRA-LIGAND FREE ENERGY PREDICTED BY IDOCK:   -0.40 KCAL/MOL
REMARK 927      BINDING AFFINITY PREDICTED BY RF-SCORE:    0.00 PKD
ROOT
HETATM    1  C   UNL     1      -9.799   9.597  69.637  1.00  0.00    -0.215 C  
HETATM    2  F   UNL     1      -9.621   9.899  68.331  1.00  0.00    -0.143 F  
HETATM    3  C   UNL     1     -11.201   9.967  70.086  1.00  0.00    -0.304 C  
HETATM    4  O   UNL     1     -11.355  11.337  70.449  1.00  0.00    -0.482 OA 
HETATM    5  C   UNL     1     -11.379   9.043  71.284  1.00  0.00    -0.319 C  
HETATM    6  O   UNL     1     -10.729   7.802  70.934  1.00  0.00    -0.217 OA 
HETATM    7  C   UNL     1      -9.730   8.100  69.925  1.00  0.00    -0.176 C  
HETATM    8  H   UNL     1     -12.233  11.568  70.730  1.00  0.00     0.000 HD 
ENDROOT
BRANCH   5   9
HETATM    9  C   UNL     1     -12.838   8.801  71.669  1.00  0.00    -0.348 C  
HETATM   10  O   UNL     1     -13.030   7.473  72.147  1.00  0.00    -0.480 OA 
HETATM   11  H   UNL     1     -13.937   7.322  72.386  1.00  0.00     0.000 HD 
ENDBRANCH   5   9
BRANCH   7  12
HETATM   12  N   UNL     1      -9.955   7.258  68.767  1.00  0.00    -0.162 NA 
HETATM   13  C   UNL     1     -11.127   6.670  68.374  1.00  0.00    -0.198 A  
HETATM   14  N   UNL     1     -10.994   6.008  67.244  1.00  0.00    -0.312 NA 
HETATM   15  C   UNL     1      -9.677   6.189  66.881  1.00  0.00    -0.149 A  
HETATM   16  C   UNL     1      -8.932   5.762  65.768  1.00  0.00    -0.135 A  
HETATM   17  N   UNL     1      -9.482   5.029  64.727  1.00  0.00    -0.359 NA 
HETATM   18  N   UNL     1      -7.619   6.074  65.708  1.00  0.00    -0.081 NA 
HETATM   19  H1  UNL     1      -8.942   4.719  63.919  1.00  0.00     0.000 HD 
HETATM   20  C   UNL     1      -7.106   6.815  66.712  1.00  0.00    -0.072 A  
HETATM   21  H2  UNL     1     -10.284   5.552  64.375  1.00  0.00     0.000 HD 
HETATM   22 CL   UNL     1      -5.438   7.176  66.576  1.00  0.00    -0.022 Cl 
HETATM   23  N   UNL     1      -7.711   7.298  67.819  1.00  0.00    -0.110 NA 
HETATM   24  C   UNL     1      -9.006   6.944  67.831  1.00  0.00    -0.121 A  
ENDBRANCH   7  12
TORSDOF 2
ENDMDL
MODEL      145
REMARK 921   NORMALIZED FREE ENERGY PREDICTED BY IDOCK:   -3.81 KCAL/MOL
REMARK 922        TOTAL FREE ENERGY PREDICTED BY IDOCK:   -4.77 KCAL/MOL
REMARK 923 INTER-LIGAND FREE ENERGY PREDICTED BY IDOCK:   -4.94 KCAL/MOL
REMARK 924 INTRA-LIGAND FREE ENERGY PREDICTED BY IDOCK:    0.17 KCAL/MOL
REMARK 927      BINDING AFFINITY PREDICTED BY RF-SCORE:    0.00 PKD
ROOT
HETATM    1  C   UNL     1     -12.839  11.192  70.982  1.00  0.00    -0.329 C  
HETATM    2  F   UNL     1     -12.410  10.272  71.876  1.00  0.00    -0.454 F  
HETATM    3  C   UNL     1     -12.489  12.594  71.445  1.00  0.00    -0.104 C  
HETATM    4  O   UNL     1     -13.420  13.153  72.369  1.00  0.00    -0.558 OA 
HETATM    5  C   UNL     1     -12.486  13.347  70.121  1.00  0.00    -0.174 C  
HETATM    6  O   UNL     1     -11.929  12.442  69.145  1.00  0.00    -0.290 OA 
HETATM    7  C   UNL     1     -12.138  11.091  69.630  1.00  0.00    -0.340 C  
HETATM    8  H   UNL     1     -13.200  14.031  72.658  1.00  0.00     0.000 HD 
ENDROOT
BRANCH   5   9
HETATM    9  C   UNL     1     -11.700  14.657  70.156  1.00  0.00    -0.297 C  
HETATM   10  O   UNL     1     -11.322  14.996  71.487  1.00  0.00    -0.489 OA 
HETATM   11  H   UNL     1     -10.833  15.811  71.508  1.00  0.00     0.000 HD 
ENDBRANCH   5   9
BRANCH   7  12
HETATM   12  N   UNL     1     -10.868  10.394  69.666  1.00  0.00    -0.259 NA 
HETATM   13  C   UNL     1     -10.208   9.913  70.764  1.00  0.00    -0.060 A  
HETATM   14  N   UNL     1      -9.097   9.285  70.439  1.00  0.00    -0.228 NA 
HETATM   15  C   UNL     1      -9.045   9.349  69.063  1.00  0.00    -0.142 A  
HETATM   16  C   UNL     1      -8.130   8.844  68.124  1.00  0.00    -0.106 A  
HETATM   17  N   UNL     1      -7.022   8.090  68.480  1.00  0.00    -0.070 NA 
HETATM   18  N   UNL     1      -8.333   9.107  66.815  1.00  0.00    -0.121 NA 
HETATM   19  H1  UNL     1      -6.357   7.723  67.798  1.00  0.00     0.000 HD 
HETATM   20  C   UNL     1      -9.432   9.815  66.482  1.00  0.00    -0.177 A  
HETATM   21  H2  UNL     1      -7.354   7.301  69.037  1.00  0.00     0.000 HD 
HETATM   22 CL   UNL     1      -9.631  10.113  64.808  1.00  0.00    -0.354 Cl 
HETATM   23  N   UNL     1     -10.390  10.338  67.278  1.00  0.00    -0.218 NA 
HETATM   24  C   UNL     1     -10.127  10.059  68.565  1.00  0.00    -0.169 A  
ENDBRANCH   7  12
TORSDOF 2
ENDMDL
MODEL      146
REMARK 921   NORMALIZED FREE ENERGY PREDICTED BY IDOCK:   -3.81 KCAL/MOL
REMARK 922        TOTAL FREE ENERGY PREDICTED BY IDOCK:   -4.77 KCAL/MOL
REMARK 923 INTER-LIGAND FREE ENERGY PREDICTED BY IDOCK:   -4.71 KCAL/MOL
REMARK 924 INTRA-LIGAND FREE ENERGY PREDICTED BY IDOCK:   -0.05 KCAL/MOL
REMARK 927      BINDING AFFINITY PREDICTED BY RF-SCORE:    0.00 PKD
ROOT
HETATM    1  C   UNL     1      -9.929   6.584  67.638  1.00  0.00    -0.130 C  
HETATM    2  F   UNL     1     -11.277   6.654  67.712  1.00  0.00    -0.334 F  
HETATM    3  C   UNL     1      -9.484   6.289  66.218  1.00  0.00    -0.100 C  
HETATM    4  O   UNL     1      -9.510   4.907  65.872  1.00  0.00    -0.151 OA 
HETATM    5  C   UNL     1      -8.064   6.840  66.234  1.00  0.00    -0.112 C  
HETATM    6  O   UNL     1      -8.104   8.031  67.049  1.00  0.00    -0.113 OA 
HETATM    7  C   UNL     1      -9.238   7.909  67.947  1.00  0.00    -0.134 C  
HETATM    8  H   UNL     1      -9.232   4.723  64.982  1.00  0.00     0.000 HD 
ENDROOT
BRANCH   5   9
HETATM    9  C   UNL     1      -7.504   7.152  64.847  1.00  0.00    -0.095 C  
HETATM   10  O   UNL     1      -8.475   6.911  63.834  1.00  0.00    -0.346 OA 
HETATM   11  H   UNL     1      -8.126   7.104  62.971  1.00  0.00     0.000 HD 
ENDBRANCH   5   9
BRANCH   7  12
HETATM   12  N   UNL     1     -10.088   9.074  67.803  1.00  0.00    -0.195 NA 
HETATM   13  C   UNL     1     -10.833   9.691  68.771  1.00  0.00    -0.168 A  
HETATM   14  N   UNL     1     -11.455  10.758  68.313  1.00  0.00    -0.389 NA 
HETATM   15  C   UNL     1     -11.083  10.842  66.989  1.00  0.00    -0.174 A  
HETATM   16  C   UNL     1     -11.385  11.768  65.975  1.00  0.00    -0.273 A  
HETATM   17  N   UNL     1     -12.176  12.887  66.186  1.00  0.00    -0.508 NA 
HETATM   18  N   UNL     1     -10.888  11.558  64.737  1.00  0.00    -0.308 NA 
HETATM   19  H1  UNL     1     -12.396  13.559  65.451  1.00  0.00     0.000 HD 
HETATM   20  C   UNL     1     -10.094  10.483  64.555  1.00  0.00    -0.332 A  
HETATM   21  H2  UNL     1     -11.769  13.407  66.964  1.00  0.00     0.000 HD 
HETATM   22 CL   UNL     1      -9.497  10.275  62.964  1.00  0.00    -0.335 Cl 
HETATM   23  N   UNL     1      -9.716   9.535  65.440  1.00  0.00    -0.288 NA 
HETATM   24  C   UNL     1     -10.252   9.786  66.645  1.00  0.00    -0.226 A  
ENDBRANCH   7  12
TORSDOF 2
ENDMDL
MODEL      147
REMARK 921   NORMALIZED FREE ENERGY PREDICTED BY IDOCK:   -3.81 KCAL/MOL
REMARK 922        TOTAL FREE ENERGY PREDICTED BY IDOCK:   -4.76 KCAL/MOL
REMARK 923 INTER-LIGAND FREE ENERGY PREDICTED BY IDOCK:   -5.16 KCAL/MOL
REMARK 924 INTRA-LIGAND FREE ENERGY PREDICTED BY IDOCK:    0.40 KCAL/MOL
REMARK 927      BINDING AFFINITY PREDICTED BY RF-SCORE:    0.00 PKD
ROOT
HETATM    1  C   UNL     1      -8.786   8.278  67.136  1.00  0.00    -0.137 C  
HETATM    2  F   UNL     1      -7.985   8.701  68.141  1.00  0.00    -0.101 F  
HETATM    3  C   UNL     1      -8.625   6.786  66.914  1.00  0.00    -0.116 C  
HETATM    4  O   UNL     1      -7.517   6.435  66.089  1.00  0.00    -0.079 OA 
HETATM    5  C   UNL     1      -9.953   6.443  66.250  1.00  0.00     0.051 C  
HETATM    6  O   UNL     1     -10.949   7.261  66.899  1.00  0.00    -0.343 OA 
HETATM    7  C   UNL     1     -10.273   8.420  67.452  1.00  0.00    -0.260 C  
HETATM    8  H   UNL     1      -7.416   5.500  65.949  1.00  0.00     0.000 HD 
ENDROOT
BRANCH   5   9
HETATM    9  C   UNL     1     -10.326   4.964  66.338  1.00  0.00    -0.288 C  
HETATM   10  O   UNL     1     -11.327   4.628  65.381  1.00  0.00    -0.960 OA 
HETATM   11  H   UNL     1     -11.559   3.708  65.435  1.00  0.00     0.000 HD 
ENDBRANCH   5   9
BRANCH   7  12
HETATM   12  N   UNL     1     -10.576   8.522  68.865  1.00  0.00    -0.187 NA 
HETATM   13  C   UNL     1     -10.983   9.631  69.556  1.00  0.00    -0.208 A  
HETATM   14  N   UNL     1     -11.221   9.366  70.824  1.00  0.00    -0.278 NA 
HETATM   15  C   UNL     1     -10.971   8.016  70.955  1.00  0.00    -0.243 A  
HETATM   16  C   UNL     1     -11.071   7.134  72.045  1.00  0.00    -0.245 A  
HETATM   17  N   UNL     1     -11.515   7.530  73.298  1.00  0.00    -0.632 NA 
HETATM   18  N   UNL     1     -10.714   5.844  71.869  1.00  0.00    -0.231 NA 
HETATM   19  H1  UNL     1     -11.588   6.890  74.089  1.00  0.00     0.000 HD 
HETATM   20  C   UNL     1     -10.314   5.468  70.637  1.00  0.00    -0.262 A  
HETATM   21  H2  UNL     1     -12.429   7.967  73.174  1.00  0.00     0.000 HD 
HETATM   22 CL   UNL     1      -9.876   3.820  70.481  1.00  0.00    -0.220 Cl 
HETATM   23  N   UNL     1     -10.191   6.205  69.511  1.00  0.00    -0.183 NA 
HETATM   24  C   UNL     1     -10.543   7.478  69.750  1.00  0.00    -0.241 A  
ENDBRANCH   7  12
TORSDOF 2
ENDMDL
MODEL      148
REMARK 921   NORMALIZED FREE ENERGY PREDICTED BY IDOCK:   -3.80 KCAL/MOL
REMARK 922        TOTAL FREE ENERGY PREDICTED BY IDOCK:   -4.75 KCAL/MOL
REMARK 923 INTER-LIGAND FREE ENERGY PREDICTED BY IDOCK:   -4.82 KCAL/MOL
REMARK 924 INTRA-LIGAND FREE ENERGY PREDICTED BY IDOCK:    0.07 KCAL/MOL
REMARK 927      BINDING AFFINITY PREDICTED BY RF-SCORE:    0.00 PKD
ROOT
HETATM    1  C   UNL     1      -8.153  11.733  68.227  1.00  0.00    -0.154 C  
HETATM    2  F   UNL     1      -7.381  12.004  69.304  1.00  0.00    -0.093 F  
HETATM    3  C   UNL     1      -7.351  11.009  67.161  1.00  0.00    -0.116 C  
HETATM    4  O   UNL     1      -6.590  11.869  66.317  1.00  0.00    -0.378 OA 
HETATM    5  C   UNL     1      -8.459  10.300  66.392  1.00  0.00    -0.130 C  
HETATM    6  O   UNL     1      -9.430   9.885  67.377  1.00  0.00    -0.146 OA 
HETATM    7  C   UNL     1      -9.286  10.757  68.528  1.00  0.00    -0.174 C  
HETATM    8  H   UNL     1      -6.088  11.415  65.650  1.00  0.00     0.000 HD 
ENDROOT
BRANCH   5   9
HETATM    9  C   UNL     1      -7.976   9.105  65.570  1.00  0.00    -0.104 C  
HETATM   10  O   UNL     1      -9.052   8.221  65.267  1.00  0.00    -0.394 OA 
HETATM   11  H   UNL     1      -8.751   7.478  64.756  1.00  0.00     0.000 HD 
ENDBRANCH   5   9
BRANCH   7  12
HETATM   12  N   UNL     1      -9.081   9.951  69.715  1.00  0.00    -0.225 NA 
HETATM   13  C   UNL     1      -7.894   9.505  70.229  1.00  0.00    -0.168 A  
HETATM   14  N   UNL     1      -8.060   8.836  71.351  1.00  0.00    -0.192 NA 
HETATM   15  C   UNL     1      -9.418   8.864  71.581  1.00  0.00    -0.281 A  
HETATM   16  C   UNL     1     -10.215   8.357  72.622  1.00  0.00    -0.249 A  
HETATM   17  N   UNL     1      -9.689   7.697  73.723  1.00  0.00    -0.350 NA 
HETATM   18  N   UNL     1     -11.555   8.514  72.549  1.00  0.00    -0.354 NA 
HETATM   19  H1  UNL     1     -10.267   7.329  74.479  1.00  0.00     0.000 HD 
HETATM   20  C   UNL     1     -12.048   9.187  71.489  1.00  0.00    -0.351 A  
HETATM   21  H2  UNL     1      -8.991   8.311  74.143  1.00  0.00     0.000 HD 
HETATM   22 CL   UNL     1     -13.752   9.351  71.456  1.00  0.00    -0.400 Cl 
HETATM   23  N   UNL     1     -11.397   9.733  70.439  1.00  0.00    -0.279 NA 
HETATM   24  C   UNL     1     -10.075   9.532  70.558  1.00  0.00    -0.285 A  
ENDBRANCH   7  12
TORSDOF 2
ENDMDL
MODEL      149
REMARK 921   NORMALIZED FREE ENERGY PREDICTED BY IDOCK:   -3.76 KCAL/MOL
REMARK 922        TOTAL FREE ENERGY PREDICTED BY IDOCK:   -4.70 KCAL/MOL
REMARK 923 INTER-LIGAND FREE ENERGY PREDICTED BY IDOCK:   -5.34 KCAL/MOL
REMARK 924 INTRA-LIGAND FREE ENERGY PREDICTED BY IDOCK:    0.64 KCAL/MOL
REMARK 927      BINDING AFFINITY PREDICTED BY RF-SCORE:    0.00 PKD
ROOT
HETATM    1  C   UNL     1     -10.973  13.020  66.718  1.00  0.00    -0.276 C  
HETATM    2  F   UNL     1     -11.082  12.934  68.063  1.00  0.00    -0.235 F  
HETATM    3  C   UNL     1     -12.120  13.826  66.137  1.00  0.00    -0.441 C  
HETATM    4  O   UNL     1     -13.313  13.076  65.926  1.00  0.00     0.215 OA 
HETATM    5  C   UNL     1     -11.510  14.298  64.823  1.00  0.00    -0.393 C  
HETATM    6  O   UNL     1     -10.122  14.581  65.102  1.00  0.00    -0.383 OA 
HETATM    7  C   UNL     1      -9.741  13.798  66.262  1.00  0.00    -0.284 C  
HETATM    8  H   UNL     1     -14.031  13.581  65.562  1.00  0.00     0.000 HD 
ENDROOT
BRANCH   5   9
HETATM    9  C   UNL     1     -12.202  15.522  64.223  1.00  0.00    -0.066 C  
HETATM   10  O   UNL     1     -11.313  16.633  64.153  1.00  0.00    -1.419 OA 
HETATM   11  H   UNL     1     -11.744  17.394  63.780  1.00  0.00     0.000 HD 
ENDBRANCH   5   9
BRANCH   7  12
HETATM   12  N   UNL     1      -9.183  14.677  67.270  1.00  0.00    -0.197 NA 
HETATM   13  C   UNL     1      -8.506  14.326  68.406  1.00  0.00    -0.166 A  
HETATM   14  N   UNL     1      -8.091  15.378  69.081  1.00  0.00    -0.215 NA 
HETATM   15  C   UNL     1      -8.506  16.461  68.337  1.00  0.00    -0.204 A  
HETATM   16  C   UNL     1      -8.346  17.847  68.508  1.00  0.00    -0.300 A  
HETATM   17  N   UNL     1      -7.637  18.401  69.564  1.00  0.00     0.191 NA 
HETATM   18  N   UNL     1      -8.913  18.681  67.609  1.00  0.00    -0.274 NA 
HETATM   19  H1  UNL     1      -7.521  19.407  69.688  1.00  0.00     0.000 HD 
HETATM   20  C   UNL     1      -9.572  18.126  66.571  1.00  0.00    -0.317 A  
HETATM   21  H2  UNL     1      -6.705  17.984  69.558  1.00  0.00     0.000 HD 
HETATM   22 CL   UNL     1     -10.265  19.238  65.468  1.00  0.00    -0.084 Cl 
HETATM   23  N   UNL     1      -9.781  16.823  66.284  1.00  0.00    -0.285 NA 
HETATM   24  C   UNL     1      -9.212  16.045  67.218  1.00  0.00    -0.205 A  
ENDBRANCH   7  12
TORSDOF 2
ENDMDL
MODEL      150
REMARK 921   NORMALIZED FREE ENERGY PREDICTED BY IDOCK:   -3.75 KCAL/MOL
REMARK 922        TOTAL FREE ENERGY PREDICTED BY IDOCK:   -4.70 KCAL/MOL
REMARK 923 INTER-LIGAND FREE ENERGY PREDICTED BY IDOCK:   -5.14 KCAL/MOL
REMARK 924 INTRA-LIGAND FREE ENERGY PREDICTED BY IDOCK:    0.44 KCAL/MOL
REMARK 927      BINDING AFFINITY PREDICTED BY RF-SCORE:    0.00 PKD
ROOT
HETATM    1  C   UNL     1      -9.377  16.030  67.484  1.00  0.00    -0.217 C  
HETATM    2  F   UNL     1      -9.750  17.162  68.123  1.00  0.00    -0.246 F  
HETATM    3  C   UNL     1      -8.126  15.446  68.115  1.00  0.00    -0.136 C  
HETATM    4  O   UNL     1      -6.911  16.031  67.652  1.00  0.00    -0.130 OA 
HETATM    5  C   UNL     1      -8.243  13.985  67.700  1.00  0.00    -0.180 C  
HETATM    6  O   UNL     1      -9.648  13.660  67.764  1.00  0.00    -0.211 OA 
HETATM    7  C   UNL     1     -10.391  14.898  67.620  1.00  0.00    -0.242 C  
HETATM    8  H   UNL     1      -6.128  15.665  68.047  1.00  0.00     0.000 HD 
ENDROOT
BRANCH   5   9
HETATM    9  C   UNL     1      -7.426  13.027  68.565  1.00  0.00    -0.123 C  
HETATM   10  O   UNL     1      -8.226  11.945  69.031  1.00  0.00    -0.355 OA 
HETATM   11  H   UNL     1      -7.717  11.349  69.570  1.00  0.00     0.000 HD 
ENDBRANCH   5   9
BRANCH   7  12
HETATM   12  N   UNL     1     -11.301  15.043  68.739  1.00  0.00    -0.275 NA 
HETATM   13  C   UNL     1     -11.955  16.174  69.145  1.00  0.00    -0.078 A  
HETATM   14  N   UNL     1     -12.747  15.947  70.172  1.00  0.00    -0.213 NA 
HETATM   15  C   UNL     1     -12.610  14.601  70.432  1.00  0.00    -0.343 A  
HETATM   16  C   UNL     1     -13.210  13.751  71.378  1.00  0.00    -0.305 A  
HETATM   17  N   UNL     1     -14.167  14.185  72.284  1.00  0.00    -0.577 NA 
HETATM   18  N   UNL     1     -12.836  12.453  71.413  1.00  0.00    -0.330 NA 
HETATM   19  H1  UNL     1     -14.602  13.569  72.970  1.00  0.00     0.000 HD 
HETATM   20  C   UNL     1     -11.928  12.039  70.505  1.00  0.00    -0.246 A  
HETATM   21  H2  UNL     1     -14.917  14.625  71.749  1.00  0.00     0.000 HD 
HETATM   22 CL   UNL     1     -11.499  10.385  70.603  1.00  0.00    -0.418 Cl 
HETATM   23  N   UNL     1     -11.294  12.743  69.542  1.00  0.00    -0.199 NA 
HETATM   24  C   UNL     1     -11.693  14.025  69.566  1.00  0.00    -0.313 A  
ENDBRANCH   7  12
TORSDOF 2
ENDMDL
MODEL      151
REMARK 921   NORMALIZED FREE ENERGY PREDICTED BY IDOCK:   -3.74 KCAL/MOL
REMARK 922        TOTAL FREE ENERGY PREDICTED BY IDOCK:   -4.68 KCAL/MOL
REMARK 923 INTER-LIGAND FREE ENERGY PREDICTED BY IDOCK:   -4.84 KCAL/MOL
REMARK 924 INTRA-LIGAND FREE ENERGY PREDICTED BY IDOCK:    0.16 KCAL/MOL
REMARK 927      BINDING AFFINITY PREDICTED BY RF-SCORE:    0.00 PKD
ROOT
HETATM    1  C   UNL     1     -11.772   7.762  72.307  1.00  0.00    -0.340 C  
HETATM    2  F   UNL     1     -12.807   7.859  71.441  1.00  0.00    -0.318 F  
HETATM    3  C   UNL     1     -11.163   6.373  72.260  1.00  0.00    -0.276 C  
HETATM    4  O   UNL     1     -11.840   5.411  73.065  1.00  0.00    -0.529 OA 
HETATM    5  C   UNL     1      -9.757   6.652  72.778  1.00  0.00    -0.153 C  
HETATM    6  O   UNL     1      -9.377   7.936  72.238  1.00  0.00    -0.151 OA 
HETATM    7  C   UNL     1     -10.597   8.666  71.944  1.00  0.00    -0.340 C  
HETATM    8  H   UNL     1     -11.458   4.541  73.035  1.00  0.00     0.000 HD 
ENDROOT
BRANCH   5   9
HETATM    9  C   UNL     1      -8.734   5.582  72.401  1.00  0.00    -0.128 C  
HETATM   10  O   UNL     1      -8.057   5.920  71.194  1.00  0.00    -0.117 OA 
HETATM   11  H   UNL     1      -7.420   5.254  70.960  1.00  0.00     0.000 HD 
ENDBRANCH   5   9
BRANCH   7  12
HETATM   12  N   UNL     1     -10.576   9.093  70.559  1.00  0.00    -0.217 NA 
HETATM   13  C   UNL     1     -10.678  10.369  70.075  1.00  0.00    -0.265 A  
HETATM   14  N   UNL     1     -10.573  10.411  68.763  1.00  0.00    -0.195 NA 
HETATM   15  C   UNL     1     -10.379   9.100  68.382  1.00  0.00    -0.206 A  
HETATM   16  C   UNL     1     -10.169   8.497  67.130  1.00  0.00    -0.284 A  
HETATM   17  N   UNL     1     -10.090   9.219  65.948  1.00  0.00    -0.367 NA 
HETATM   18  N   UNL     1     -10.045   7.153  67.071  1.00  0.00    -0.215 NA 
HETATM   19  H1  UNL     1      -9.937   8.781  65.039  1.00  0.00     0.000 HD 
HETATM   20  C   UNL     1     -10.092   6.469  68.232  1.00  0.00    -0.159 A  
HETATM   21  H2  UNL     1      -9.365   9.927  66.071  1.00  0.00     0.000 HD 
HETATM   22 CL   UNL     1      -9.928   4.771  68.087  1.00  0.00    -0.183 Cl 
HETATM   23  N   UNL     1     -10.270   6.925  69.491  1.00  0.00    -0.180 NA 
HETATM   24  C   UNL     1     -10.403   8.260  69.486  1.00  0.00    -0.219 A  
ENDBRANCH   7  12
TORSDOF 2
ENDMDL
MODEL      152
REMARK 921   NORMALIZED FREE ENERGY PREDICTED BY IDOCK:   -3.73 KCAL/MOL
REMARK 922        TOTAL FREE ENERGY PREDICTED BY IDOCK:   -4.67 KCAL/MOL
REMARK 923 INTER-LIGAND FREE ENERGY PREDICTED BY IDOCK:   -5.24 KCAL/MOL
REMARK 924 INTRA-LIGAND FREE ENERGY PREDICTED BY IDOCK:    0.57 KCAL/MOL
REMARK 927      BINDING AFFINITY PREDICTED BY RF-SCORE:    0.00 PKD
ROOT
HETATM    1  C   UNL     1     -10.501  11.255  66.347  1.00  0.00    -0.257 C  
HETATM    2  F   UNL     1     -11.544  10.406  66.497  1.00  0.00     0.131 F  
HETATM    3  C   UNL     1     -10.935  12.513  65.618  1.00  0.00    -0.288 C  
HETATM    4  O   UNL     1     -10.952  12.387  64.198  1.00  0.00    -0.312 OA 
HETATM    5  C   UNL     1      -9.875  13.502  66.084  1.00  0.00    -0.283 C  
HETATM    6  O   UNL     1      -9.607  13.183  67.466  1.00  0.00    -0.198 OA 
HETATM    7  C   UNL     1      -9.967  11.793  67.672  1.00  0.00    -0.194 C  
HETATM    8  H   UNL     1     -11.223  13.175  63.741  1.00  0.00     0.000 HD 
ENDROOT
BRANCH   5   9
HETATM    9  C   UNL     1     -10.286  14.967  65.936  1.00  0.00    -0.314 C  
HETATM   10  O   UNL     1      -9.165  15.833  66.086  1.00  0.00    -0.302 OA 
HETATM   11  H   UNL     1      -9.421  16.744  65.994  1.00  0.00     0.000 HD 
ENDBRANCH   5   9
BRANCH   7  12
HETATM   12  N   UNL     1     -10.903  11.700  68.775  1.00  0.00    -0.211 NA 
HETATM   13  C   UNL     1     -11.501  10.574  69.273  1.00  0.00    -0.256 A  
HETATM   14  N   UNL     1     -12.263  10.837  70.315  1.00  0.00    -0.322 NA 
HETATM   15  C   UNL     1     -12.138  12.196  70.509  1.00  0.00    -0.293 A  
HETATM   16  C   UNL     1     -12.674  13.070  71.471  1.00  0.00    -0.251 A  
HETATM   17  N   UNL     1     -13.485  12.643  72.511  1.00  0.00    -0.571 NA 
HETATM   18  N   UNL     1     -12.392  14.388  71.377  1.00  0.00    -0.346 NA 
HETATM   19  H1  UNL     1     -13.874  13.277  73.209  1.00  0.00     0.000 HD 
HETATM   20  C   UNL     1     -11.576  14.784  70.379  1.00  0.00    -0.279 A  
HETATM   21  H2  UNL     1     -12.980  11.911  73.012  1.00  0.00     0.000 HD 
HETATM   22 CL   UNL     1     -11.259  16.465  70.317  1.00  0.00    -0.343 Cl 
HETATM   23  N   UNL     1     -10.987  14.051  69.410  1.00  0.00    -0.201 NA 
HETATM   24  C   UNL     1     -11.315  12.756  69.543  1.00  0.00    -0.154 A  
ENDBRANCH   7  12
TORSDOF 2
ENDMDL
MODEL      153
REMARK 921   NORMALIZED FREE ENERGY PREDICTED BY IDOCK:   -3.71 KCAL/MOL
REMARK 922        TOTAL FREE ENERGY PREDICTED BY IDOCK:   -4.65 KCAL/MOL
REMARK 923 INTER-LIGAND FREE ENERGY PREDICTED BY IDOCK:   -4.00 KCAL/MOL
REMARK 924 INTRA-LIGAND FREE ENERGY PREDICTED BY IDOCK:   -0.65 KCAL/MOL
REMARK 927      BINDING AFFINITY PREDICTED BY RF-SCORE:    0.00 PKD
ROOT
HETATM    1  C   UNL     1     -10.757   8.932  69.233  1.00  0.00    -0.162 C  
HETATM    2  F   UNL     1      -9.564   8.373  69.538  1.00  0.00    -0.165 F  
HETATM    3  C   UNL     1     -10.944  10.239  69.980  1.00  0.00    -0.311 C  
HETATM    4  O   UNL     1     -11.430  10.086  71.312  1.00  0.00    -0.364 OA 
HETATM    5  C   UNL     1     -11.957  10.945  69.088  1.00  0.00    -0.288 C  
HETATM    6  O   UNL     1     -11.603  10.604  67.730  1.00  0.00    -0.501 OA 
HETATM    7  C   UNL     1     -10.869   9.353  67.770  1.00  0.00    -0.159 C  
HETATM    8  H   UNL     1     -11.547  10.905  71.779  1.00  0.00     0.000 HD 
ENDROOT
BRANCH   5   9
HETATM    9  C   UNL     1     -11.996  12.461  69.273  1.00  0.00    -0.253 C  
HETATM   10  O   UNL     1     -11.995  12.811  70.654  1.00  0.00    -0.510 OA 
HETATM   11  H   UNL     1     -12.019  13.754  70.769  1.00  0.00     0.000 HD 
ENDBRANCH   5   9
BRANCH   7  12
HETATM   12  N   UNL     1      -9.596   9.524  67.099  1.00  0.00    -0.154 NA 
HETATM   13  C   UNL     1      -8.824  10.653  67.043  1.00  0.00    -0.137 A  
HETATM   14  N   UNL     1      -7.699  10.452  66.389  1.00  0.00    -0.120 NA 
HETATM   15  C   UNL     1      -7.738   9.125  66.018  1.00  0.00    -0.095 A  
HETATM   16  C   UNL     1      -6.828   8.305  65.329  1.00  0.00    -0.059 A  
HETATM   17  N   UNL     1      -5.591   8.753  64.889  1.00  0.00    -0.050 NA 
HETATM   18  N   UNL     1      -7.173   7.023  65.077  1.00  0.00    -0.074 NA 
HETATM   19  H1  UNL     1      -4.931   8.158  64.389  1.00  0.00     0.000 HD 
HETATM   20  C   UNL     1      -8.365   6.594  65.539  1.00  0.00    -0.144 A  
HETATM   21  H2  UNL     1      -5.102   9.141  65.696  1.00  0.00     0.000 HD 
HETATM   22 CL   UNL     1      -8.741   4.961  65.186  1.00  0.00    -0.144 Cl 
HETATM   23  N   UNL     1      -9.315   7.268  66.222  1.00  0.00    -0.147 NA 
HETATM   24  C   UNL     1      -8.925   8.536  66.429  1.00  0.00    -0.165 A  
ENDBRANCH   7  12
TORSDOF 2
ENDMDL
MODEL      154
REMARK 921   NORMALIZED FREE ENERGY PREDICTED BY IDOCK:   -3.66 KCAL/MOL
REMARK 922        TOTAL FREE ENERGY PREDICTED BY IDOCK:   -4.60 KCAL/MOL
REMARK 923 INTER-LIGAND FREE ENERGY PREDICTED BY IDOCK:   -4.02 KCAL/MOL
REMARK 924 INTRA-LIGAND FREE ENERGY PREDICTED BY IDOCK:   -0.58 KCAL/MOL
REMARK 927      BINDING AFFINITY PREDICTED BY RF-SCORE:    0.00 PKD
ROOT
HETATM    1  C   UNL     1      -9.050   4.867  68.629  1.00  0.00    -0.113 C  
HETATM    2  F   UNL     1     -10.320   4.844  69.093  1.00  0.00    -0.275 F  
HETATM    3  C   UNL     1      -9.023   4.632  67.130  1.00  0.00    -0.113 C  
HETATM    4  O   UNL     1      -9.066   3.258  66.753  1.00  0.00    -0.147 OA 
HETATM    5  C   UNL     1      -7.694   5.278  66.757  1.00  0.00    -0.096 C  
HETATM    6  O   UNL     1      -7.566   6.446  67.594  1.00  0.00    -0.097 OA 
HETATM    7  C   UNL     1      -8.379   6.229  68.776  1.00  0.00    -0.120 C  
HETATM    8  H   UNL     1      -9.049   3.111  65.815  1.00  0.00     0.000 HD 
ENDROOT
BRANCH   5   9
HETATM    9  C   UNL     1      -7.582   5.655  65.280  1.00  0.00    -0.084 C  
HETATM   10  O   UNL     1      -8.769   5.313  64.570  1.00  0.00    -0.223 OA 
HETATM   11  H   UNL     1      -8.698   5.547  63.652  1.00  0.00     0.000 HD 
ENDBRANCH   5   9
BRANCH   7  12
HETATM   12  N   UNL     1      -9.302   7.336  68.930  1.00  0.00    -0.145 NA 
HETATM   13  C   UNL     1      -9.742   8.200  67.964  1.00  0.00    -0.161 A  
HETATM   14  N   UNL     1     -10.618   9.064  68.434  1.00  0.00    -0.188 NA 
HETATM   15  C   UNL     1     -10.763   8.732  69.764  1.00  0.00    -0.218 A  
HETATM   16  C   UNL     1     -11.569   9.255  70.790  1.00  0.00    -0.285 A  
HETATM   17  N   UNL     1     -12.470  10.291  70.589  1.00  0.00    -0.384 NA 
HETATM   18  N   UNL     1     -11.461   8.731  72.030  1.00  0.00    -0.361 NA 
HETATM   19  H1  UNL     1     -13.055  10.670  71.334  1.00  0.00     0.000 HD 
HETATM   20  C   UNL     1     -10.604   7.703  72.202  1.00  0.00    -0.232 A  
HETATM   21  H2  UNL     1     -13.088  10.014  69.826  1.00  0.00     0.000 HD 
HETATM   22 CL   UNL     1     -10.515   7.085  73.796  1.00  0.00    -0.414 Cl 
HETATM   23  N   UNL     1      -9.793   7.102  71.305  1.00  0.00    -0.178 NA 
HETATM   24  C   UNL     1      -9.931   7.674  70.099  1.00  0.00    -0.186 A  
ENDBRANCH   7  12
TORSDOF 2
ENDMDL
MODEL      155
REMARK 921   NORMALIZED FREE ENERGY PREDICTED BY IDOCK:   -3.66 KCAL/MOL
REMARK 922        TOTAL FREE ENERGY PREDICTED BY IDOCK:   -4.59 KCAL/MOL
REMARK 923 INTER-LIGAND FREE ENERGY PREDICTED BY IDOCK:   -4.08 KCAL/MOL
REMARK 924 INTRA-LIGAND FREE ENERGY PREDICTED BY IDOCK:   -0.51 KCAL/MOL
REMARK 927      BINDING AFFINITY PREDICTED BY RF-SCORE:    0.00 PKD
ROOT
HETATM    1  C   UNL     1      -8.576   8.950  68.022  1.00  0.00    -0.130 C  
HETATM    2  F   UNL     1      -8.833   7.624  67.968  1.00  0.00    -0.127 F  
HETATM    3  C   UNL     1      -9.475   9.710  67.064  1.00  0.00    -0.154 C  
HETATM    4  O   UNL     1      -9.003   9.739  65.719  1.00  0.00    -0.145 OA 
HETATM    5  C   UNL     1      -9.469  11.097  67.694  1.00  0.00    -0.166 C  
HETATM    6  O   UNL     1      -9.468  10.889  69.123  1.00  0.00    -0.176 OA 
HETATM    7  C   UNL     1      -8.908   9.575  69.374  1.00  0.00    -0.170 C  
HETATM    8  H   UNL     1      -9.566  10.215  65.120  1.00  0.00     0.000 HD 
ENDROOT
BRANCH   5   9
HETATM    9  C   UNL     1     -10.648  11.973  67.275  1.00  0.00    -0.222 C  
HETATM   10  O   UNL     1     -11.877  11.257  67.357  1.00  0.00    -0.590 OA 
HETATM   11  H   UNL     1     -12.610  11.802  67.096  1.00  0.00     0.000 HD 
ENDBRANCH   5   9
BRANCH   7  12
HETATM   12  N   UNL     1      -9.839   8.804  70.175  1.00  0.00    -0.172 NA 
HETATM   13  C   UNL     1     -11.203   8.908  70.205  1.00  0.00    -0.197 A  
HETATM   14  N   UNL     1     -11.750   8.021  71.010  1.00  0.00    -0.286 NA 
HETATM   15  C   UNL     1     -10.689   7.298  71.512  1.00  0.00    -0.219 A  
HETATM   16  C   UNL     1     -10.617   6.204  72.391  1.00  0.00    -0.210 A  
HETATM   17  N   UNL     1     -11.740   5.594  72.930  1.00  0.00    -0.530 NA 
HETATM   18  N   UNL     1      -9.401   5.726  72.733  1.00  0.00    -0.145 NA 
HETATM   19  H1  UNL     1     -11.689   4.799  73.568  1.00  0.00     0.000 HD 
HETATM   20  C   UNL     1      -8.320   6.309  72.176  1.00  0.00    -0.109 A  
HETATM   21  H2  UNL     1     -12.343   5.322  72.153  1.00  0.00     0.000 HD 
HETATM   22 CL   UNL     1      -6.810   5.655  72.650  1.00  0.00    -0.076 Cl 
HETATM   23  N   UNL     1      -8.253   7.346  71.313  1.00  0.00    -0.104 NA 
HETATM   24  C   UNL     1      -9.487   7.789  71.023  1.00  0.00    -0.155 A  
ENDBRANCH   7  12
TORSDOF 2
ENDMDL
MODEL      156
REMARK 921   NORMALIZED FREE ENERGY PREDICTED BY IDOCK:   -3.63 KCAL/MOL
REMARK 922        TOTAL FREE ENERGY PREDICTED BY IDOCK:   -4.56 KCAL/MOL
REMARK 923 INTER-LIGAND FREE ENERGY PREDICTED BY IDOCK:   -4.11 KCAL/MOL
REMARK 924 INTRA-LIGAND FREE ENERGY PREDICTED BY IDOCK:   -0.45 KCAL/MOL
REMARK 927      BINDING AFFINITY PREDICTED BY RF-SCORE:    0.00 PKD
ROOT
HETATM    1  C   UNL     1     -10.811   6.639  70.724  1.00  0.00    -0.252 C  
HETATM    2  F   UNL     1     -11.631   6.376  69.681  1.00  0.00    -0.432 F  
HETATM    3  C   UNL     1      -9.948   5.433  71.045  1.00  0.00    -0.199 C  
HETATM    4  O   UNL     1     -10.584   4.463  71.874  1.00  0.00    -0.089 OA 
HETATM    5  C   UNL     1      -8.771   6.093  71.750  1.00  0.00    -0.137 C  
HETATM    6  O   UNL     1      -8.539   7.342  71.063  1.00  0.00    -0.127 OA 
HETATM    7  C   UNL     1      -9.783   7.727  70.423  1.00  0.00    -0.179 C  
HETATM    8  H   UNL     1     -10.044   3.708  72.075  1.00  0.00     0.000 HD 
ENDROOT
BRANCH   5   9
HETATM    9  C   UNL     1      -7.502   5.242  71.769  1.00  0.00    -0.091 C  
HETATM   10  O   UNL     1      -7.207   4.731  70.472  1.00  0.00    -0.047 OA 
HETATM   11  H   UNL     1      -6.417   4.201  70.484  1.00  0.00     0.000 HD 
ENDBRANCH   5   9
BRANCH   7  12
HETATM   12  N   UNL     1      -9.546   7.950  69.011  1.00  0.00    -0.154 NA 
HETATM   13  C   UNL     1      -8.916   7.116  68.126  1.00  0.00    -0.128 A  
HETATM   14  N   UNL     1      -8.913   7.604  66.903  1.00  0.00    -0.132 NA 
HETATM   15  C   UNL     1      -9.586   8.803  66.999  1.00  0.00    -0.179 A  
HETATM   16  C   UNL     1      -9.938   9.772  66.044  1.00  0.00    -0.272 A  
HETATM   17  N   UNL     1      -9.651   9.642  64.694  1.00  0.00    -0.436 NA 
HETATM   18  N   UNL     1     -10.580  10.886  66.458  1.00  0.00    -0.250 NA 
HETATM   19  H1  UNL     1      -9.906  10.345  64.000  1.00  0.00     0.000 HD 
HETATM   20  C   UNL     1     -10.881  10.984  67.769  1.00  0.00    -0.249 A  
HETATM   21  H2  UNL     1     -10.041   8.751  64.383  1.00  0.00     0.000 HD 
HETATM   22 CL   UNL     1     -11.695  12.419  68.228  1.00  0.00    -0.381 Cl 
HETATM   23  N   UNL     1     -10.617  10.125  68.777  1.00  0.00    -0.203 NA 
HETATM   24  C   UNL     1      -9.966   9.048  68.310  1.00  0.00    -0.173 A  
ENDBRANCH   7  12
TORSDOF 2
ENDMDL
MODEL      157
REMARK 921   NORMALIZED FREE ENERGY PREDICTED BY IDOCK:   -3.62 KCAL/MOL
REMARK 922        TOTAL FREE ENERGY PREDICTED BY IDOCK:   -4.55 KCAL/MOL
REMARK 923 INTER-LIGAND FREE ENERGY PREDICTED BY IDOCK:   -4.42 KCAL/MOL
REMARK 924 INTRA-LIGAND FREE ENERGY PREDICTED BY IDOCK:   -0.13 KCAL/MOL
REMARK 927      BINDING AFFINITY PREDICTED BY RF-SCORE:    0.00 PKD
ROOT
HETATM    1  C   UNL     1     -12.865   6.957  71.108  1.00  0.00    -0.226 C  
HETATM    2  F   UNL     1     -13.453   6.398  72.189  1.00  0.00    -0.294 F  
HETATM    3  C   UNL     1     -12.501   8.404  71.384  1.00  0.00    -0.288 C  
HETATM    4  O   UNL     1     -13.574   9.323  71.193  1.00  0.00    -0.538 OA 
HETATM    5  C   UNL     1     -11.384   8.624  70.371  1.00  0.00    -0.187 C  
HETATM    6  O   UNL     1     -10.636   7.390  70.324  1.00  0.00    -0.220 OA 
HETATM    7  C   UNL     1     -11.520   6.325  70.758  1.00  0.00    -0.316 C  
HETATM    8  H   UNL     1     -13.346  10.229  71.366  1.00  0.00     0.000 HD 
ENDROOT
BRANCH   5   9
HETATM    9  C   UNL     1     -10.467   9.800  70.705  1.00  0.00    -0.289 C  
HETATM   10  O   UNL     1     -11.089  11.042  70.390  1.00  0.00    -0.467 OA 
HETATM   11  H   UNL     1     -10.519  11.774  70.597  1.00  0.00     0.000 HD 
ENDBRANCH   5   9
BRANCH   7  12
HETATM   12  N   UNL     1     -10.898   5.603  71.850  1.00  0.00    -0.244 NA 
HETATM   13  C   UNL     1     -10.941   5.904  73.185  1.00  0.00    -0.253 A  
HETATM   14  N   UNL     1     -10.307   5.010  73.915  1.00  0.00    -0.223 NA 
HETATM   15  C   UNL     1      -9.845   4.079  73.010  1.00  0.00    -0.134 A  
HETATM   16  C   UNL     1      -9.127   2.880  73.165  1.00  0.00    -0.089 A  
HETATM   17  N   UNL     1      -8.753   2.379  74.403  1.00  0.00    -0.069 NA 
HETATM   18  N   UNL     1      -8.778   2.186  72.060  1.00  0.00    -0.067 NA 
HETATM   19  H1  UNL     1      -8.232   1.509  74.516  1.00  0.00     0.000 HD 
HETATM   20  C   UNL     1      -9.176   2.671  70.865  1.00  0.00    -0.131 A  
HETATM   21  H2  UNL     1      -9.598   2.304  74.970  1.00  0.00     0.000 HD 
HETATM   22 CL   UNL     1      -8.703   1.744  69.506  1.00  0.00    -0.098 Cl 
HETATM   23  N   UNL     1      -9.877   3.790  70.583  1.00  0.00    -0.156 NA 
HETATM   24  C   UNL     1     -10.181   4.445  71.715  1.00  0.00    -0.131 A  
ENDBRANCH   7  12
TORSDOF 2
ENDMDL
MODEL      158
REMARK 921   NORMALIZED FREE ENERGY PREDICTED BY IDOCK:   -3.61 KCAL/MOL
REMARK 922        TOTAL FREE ENERGY PREDICTED BY IDOCK:   -4.54 KCAL/MOL
REMARK 923 INTER-LIGAND FREE ENERGY PREDICTED BY IDOCK:   -4.63 KCAL/MOL
REMARK 924 INTRA-LIGAND FREE ENERGY PREDICTED BY IDOCK:    0.09 KCAL/MOL
REMARK 927      BINDING AFFINITY PREDICTED BY RF-SCORE:    0.00 PKD
ROOT
HETATM    1  C   UNL     1     -10.047   8.480  72.280  1.00  0.00    -0.316 C  
HETATM    2  F   UNL     1      -9.120   8.074  73.177  1.00  0.00    -0.230 F  
HETATM    3  C   UNL     1      -9.432   8.624  70.900  1.00  0.00    -0.194 C  
HETATM    4  O   UNL     1      -8.771   9.868  70.682  1.00  0.00    -0.355 OA 
HETATM    5  C   UNL     1     -10.662   8.476  70.014  1.00  0.00    -0.232 C  
HETATM    6  O   UNL     1     -11.495   7.480  70.645  1.00  0.00    -0.283 OA 
HETATM    7  C   UNL     1     -11.158   7.458  72.056  1.00  0.00    -0.242 C  
HETATM    8  H   UNL     1      -8.386   9.958  69.818  1.00  0.00     0.000 HD 
ENDROOT
BRANCH   5   9
HETATM    9  C   UNL     1     -10.343   8.081  68.572  1.00  0.00    -0.199 C  
HETATM   10  O   UNL     1     -11.219   7.055  68.114  1.00  0.00    -0.500 OA 
HETATM   11  H   UNL     1     -11.020   6.809  67.218  1.00  0.00     0.000 HD 
ENDBRANCH   5   9
BRANCH   7  12
HETATM   12  N   UNL     1     -10.812   6.105  72.444  1.00  0.00    -0.230 NA 
HETATM   13  C   UNL     1     -10.880   5.549  73.692  1.00  0.00    -0.249 A  
HETATM   14  N   UNL     1     -10.536   4.277  73.687  1.00  0.00    -0.203 NA 
HETATM   15  C   UNL     1     -10.248   3.994  72.370  1.00  0.00    -0.162 A  
HETATM   16  C   UNL     1      -9.855   2.813  71.717  1.00  0.00    -0.150 A  
HETATM   17  N   UNL     1      -9.707   1.601  72.374  1.00  0.00    -0.086 NA 
HETATM   18  N   UNL     1      -9.604   2.859  70.390  1.00  0.00    -0.131 NA 
HETATM   19  H1  UNL     1      -9.422   0.743  71.901  1.00  0.00     0.000 HD 
HETATM   20  C   UNL     1      -9.783   4.037  69.760  1.00  0.00    -0.184 A  
HETATM   21  H2  UNL     1     -10.584   1.406  72.857  1.00  0.00     0.000 HD 
HETATM   22 CL   UNL     1      -9.449   4.027  68.081  1.00  0.00    -0.219 Cl 
HETATM   23  N   UNL     1     -10.170   5.230  70.262  1.00  0.00    -0.256 NA 
HETATM   24  C   UNL     1     -10.388   5.128  71.583  1.00  0.00    -0.207 A  
ENDBRANCH   7  12
TORSDOF 2
ENDMDL
MODEL      159
REMARK 921   NORMALIZED FREE ENERGY PREDICTED BY IDOCK:   -3.61 KCAL/MOL
REMARK 922        TOTAL FREE ENERGY PREDICTED BY IDOCK:   -4.54 KCAL/MOL
REMARK 923 INTER-LIGAND FREE ENERGY PREDICTED BY IDOCK:   -3.99 KCAL/MOL
REMARK 924 INTRA-LIGAND FREE ENERGY PREDICTED BY IDOCK:   -0.55 KCAL/MOL
REMARK 927      BINDING AFFINITY PREDICTED BY RF-SCORE:    0.00 PKD
ROOT
HETATM    1  C   UNL     1     -10.126   4.652  70.293  1.00  0.00    -0.206 C  
HETATM    2  F   UNL     1      -8.877   4.199  70.041  1.00  0.00    -0.092 F  
HETATM    3  C   UNL     1     -10.119   5.630  71.453  1.00  0.00    -0.200 C  
HETATM    4  O   UNL     1     -10.155   5.013  72.737  1.00  0.00    -0.162 OA 
HETATM    5  C   UNL     1     -11.388   6.426  71.173  1.00  0.00    -0.319 C  
HETATM    6  O   UNL     1     -11.466   6.567  69.739  1.00  0.00    -0.388 OA 
HETATM    7  C   UNL     1     -10.709   5.478  69.150  1.00  0.00    -0.190 C  
HETATM    8  H   UNL     1     -10.150   5.626  73.464  1.00  0.00     0.000 HD 
ENDROOT
BRANCH   5   9
HETATM    9  C   UNL     1     -11.425   7.793  71.855  1.00  0.00    -0.275 C  
HETATM   10  O   UNL     1     -11.422   7.660  73.274  1.00  0.00    -0.617 OA 
HETATM   11  H   UNL     1     -11.445   8.511  73.698  1.00  0.00     0.000 HD 
ENDBRANCH   5   9
BRANCH   7  12
HETATM   12  N   UNL     1      -9.720   6.021  68.241  1.00  0.00    -0.121 NA 
HETATM   13  C   UNL     1      -8.778   6.980  68.503  1.00  0.00    -0.122 A  
HETATM   14  N   UNL     1      -8.002   7.208  67.464  1.00  0.00    -0.112 NA 
HETATM   15  C   UNL     1      -8.452   6.345  66.489  1.00  0.00    -0.118 A  
HETATM   16  C   UNL     1      -8.022   6.088  65.176  1.00  0.00    -0.123 A  
HETATM   17  N   UNL     1      -6.929   6.722  64.602  1.00  0.00    -0.053 NA 
HETATM   18  N   UNL     1      -8.704   5.189  64.434  1.00  0.00    -0.126 NA 
HETATM   19  H1  UNL     1      -6.616   6.535  63.649  1.00  0.00     0.000 HD 
HETATM   20  C   UNL     1      -9.745   4.559  65.016  1.00  0.00    -0.124 A  
HETATM   21  H2  UNL     1      -6.131   6.573  65.220  1.00  0.00     0.000 HD 
HETATM   22 CL   UNL     1     -10.566   3.432  64.023  1.00  0.00    -0.231 Cl 
HETATM   23  N   UNL     1     -10.246   4.700  66.263  1.00  0.00    -0.267 NA 
HETATM   24  C   UNL     1      -9.540   5.615  66.945  1.00  0.00    -0.141 A  
ENDBRANCH   7  12
TORSDOF 2
ENDMDL
MODEL      160
REMARK 921   NORMALIZED FREE ENERGY PREDICTED BY IDOCK:   -3.61 KCAL/MOL
REMARK 922        TOTAL FREE ENERGY PREDICTED BY IDOCK:   -4.54 KCAL/MOL
REMARK 923 INTER-LIGAND FREE ENERGY PREDICTED BY IDOCK:   -4.03 KCAL/MOL
REMARK 924 INTRA-LIGAND FREE ENERGY PREDICTED BY IDOCK:   -0.51 KCAL/MOL
REMARK 927      BINDING AFFINITY PREDICTED BY RF-SCORE:    0.00 PKD
ROOT
HETATM    1  C   UNL     1     -10.973   7.907  71.057  1.00  0.00    -0.244 C  
HETATM    2  F   UNL     1     -11.816   7.424  70.116  1.00  0.00    -0.220 F  
HETATM    3  C   UNL     1     -11.354   7.394  72.433  1.00  0.00    -0.297 C  
HETATM    4  O   UNL     1     -12.388   8.142  73.069  1.00  0.00    -0.666 OA 
HETATM    5  C   UNL     1     -10.028   7.524  73.171  1.00  0.00    -0.289 C  
HETATM    6  O   UNL     1      -9.001   7.177  72.218  1.00  0.00    -0.131 OA 
HETATM    7  C   UNL     1      -9.539   7.414  70.891  1.00  0.00    -0.166 C  
HETATM    8  H   UNL     1     -12.626   7.820  73.931  1.00  0.00     0.000 HD 
ENDROOT
BRANCH   5   9
HETATM    9  C   UNL     1      -9.926   6.648  74.419  1.00  0.00    -0.332 C  
HETATM   10  O   UNL     1      -9.153   5.478  74.165  1.00  0.00    -0.122 OA 
HETATM   11  H   UNL     1      -9.090   4.933  74.941  1.00  0.00     0.000 HD 
ENDBRANCH   5   9
BRANCH   7  12
HETATM   12  N   UNL     1      -9.410   6.206  70.101  1.00  0.00    -0.154 NA 
HETATM   13  C   UNL     1      -9.532   4.911  70.526  1.00  0.00    -0.166 A  
HETATM   14  N   UNL     1      -9.405   4.050  69.537  1.00  0.00    -0.156 NA 
HETATM   15  C   UNL     1      -9.206   4.827  68.417  1.00  0.00    -0.124 A  
HETATM   16  C   UNL     1      -9.033   4.508  67.059  1.00  0.00    -0.116 A  
HETATM   17  N   UNL     1      -9.069   3.207  66.578  1.00  0.00    -0.155 NA 
HETATM   18  N   UNL     1      -8.817   5.511  66.179  1.00  0.00    -0.135 NA 
HETATM   19  H1  UNL     1      -8.944   2.975  65.593  1.00  0.00     0.000 HD 
HETATM   20  C   UNL     1      -8.817   6.772  66.657  1.00  0.00    -0.137 A  
HETATM   21  H2  UNL     1      -9.953   2.794  66.879  1.00  0.00     0.000 HD 
HETATM   22 CL   UNL     1      -8.539   7.995  65.491  1.00  0.00    -0.170 Cl 
HETATM   23  N   UNL     1      -8.986   7.211  67.923  1.00  0.00    -0.123 NA 
HETATM   24  C   UNL     1      -9.180   6.173  68.752  1.00  0.00    -0.124 A  
ENDBRANCH   7  12
TORSDOF 2
ENDMDL
MODEL      161
REMARK 921   NORMALIZED FREE ENERGY PREDICTED BY IDOCK:   -3.60 KCAL/MOL
REMARK 922        TOTAL FREE ENERGY PREDICTED BY IDOCK:   -4.53 KCAL/MOL
REMARK 923 INTER-LIGAND FREE ENERGY PREDICTED BY IDOCK:   -5.00 KCAL/MOL
REMARK 924 INTRA-LIGAND FREE ENERGY PREDICTED BY IDOCK:    0.47 KCAL/MOL
REMARK 927      BINDING AFFINITY PREDICTED BY RF-SCORE:    0.00 PKD
ROOT
HETATM    1  C   UNL     1     -10.428  11.275  63.763  1.00  0.00    -0.399 C  
HETATM    2  F   UNL     1      -9.969  12.271  62.970  1.00  0.00    -0.373 F  
HETATM    3  C   UNL     1      -9.322  10.283  64.070  1.00  0.00    -0.289 C  
HETATM    4  O   UNL     1      -9.123   9.298  63.059  1.00  0.00    -0.420 OA 
HETATM    5  C   UNL     1      -9.833   9.666  65.365  1.00  0.00    -0.252 C  
HETATM    6  O   UNL     1     -10.455  10.739  66.104  1.00  0.00    -0.249 OA 
HETATM    7  C   UNL     1     -10.854  11.755  65.147  1.00  0.00    -0.297 C  
HETATM    8  H   UNL     1      -8.431   8.676  63.251  1.00  0.00     0.000 HD 
ENDROOT
BRANCH   5   9
HETATM    9  C   UNL     1      -8.747   8.991  66.202  1.00  0.00    -0.147 C  
HETATM   10  O   UNL     1      -9.062   7.624  66.448  1.00  0.00    -0.161 OA 
HETATM   11  H   UNL     1      -8.386   7.205  66.969  1.00  0.00     0.000 HD 
ENDBRANCH   5   9
BRANCH   7  12
HETATM   12  N   UNL     1     -10.286  13.029  65.539  1.00  0.00    -0.288 NA 
HETATM   13  C   UNL     1     -10.585  14.268  65.040  1.00  0.00    -0.425 A  
HETATM   14  N   UNL     1      -9.919  15.223  65.655  1.00  0.00    -0.351 NA 
HETATM   15  C   UNL     1      -9.165  14.572  66.607  1.00  0.00    -0.266 A  
HETATM   16  C   UNL     1      -8.275  15.035  67.593  1.00  0.00    -0.168 A  
HETATM   17  N   UNL     1      -8.010  16.380  67.799  1.00  0.00    -0.147 NA 
HETATM   18  N   UNL     1      -7.644  14.130  68.372  1.00  0.00    -0.121 NA 
HETATM   19  H1  UNL     1      -7.365  16.716  68.514  1.00  0.00     0.000 HD 
HETATM   20  C   UNL     1      -7.936  12.827  68.180  1.00  0.00    -0.156 A  
HETATM   21  H2  UNL     1      -8.905  16.848  67.951  1.00  0.00     0.000 HD 
HETATM   22 CL   UNL     1      -7.103  11.733  69.200  1.00  0.00    -0.098 Cl 
HETATM   23  N   UNL     1      -8.776  12.257  67.289  1.00  0.00    -0.180 NA 
HETATM   24  C   UNL     1      -9.360  13.201  66.533  1.00  0.00    -0.216 A  
ENDBRANCH   7  12
TORSDOF 2
ENDMDL
MODEL      162
REMARK 921   NORMALIZED FREE ENERGY PREDICTED BY IDOCK:   -3.60 KCAL/MOL
REMARK 922        TOTAL FREE ENERGY PREDICTED BY IDOCK:   -4.53 KCAL/MOL
REMARK 923 INTER-LIGAND FREE ENERGY PREDICTED BY IDOCK:   -5.04 KCAL/MOL
REMARK 924 INTRA-LIGAND FREE ENERGY PREDICTED BY IDOCK:    0.51 KCAL/MOL
REMARK 927      BINDING AFFINITY PREDICTED BY RF-SCORE:    0.00 PKD
ROOT
HETATM    1  C   UNL     1     -10.091  10.689  66.042  1.00  0.00    -0.250 C  
HETATM    2  F   UNL     1      -9.205  11.394  65.303  1.00  0.00    -0.215 F  
HETATM    3  C   UNL     1      -9.557  10.457  67.443  1.00  0.00    -0.154 C  
HETATM    4  O   UNL     1      -8.675   9.342  67.555  1.00  0.00    -0.122 OA 
HETATM    5  C   UNL     1     -10.850  10.234  68.217  1.00  0.00    -0.255 C  
HETATM    6  O   UNL     1     -11.820  11.138  67.647  1.00  0.00    -0.612 OA 
HETATM    7  C   UNL     1     -11.398  11.436  66.292  1.00  0.00    -0.068 C  
HETATM    8  H   UNL     1      -8.341   9.197  68.432  1.00  0.00     0.000 HD 
ENDROOT
BRANCH   5   9
HETATM    9  C   UNL     1     -10.718  10.459  69.722  1.00  0.00    -0.278 C  
HETATM   10  O   UNL     1      -9.408  10.133  70.179  1.00  0.00    -0.383 OA 
HETATM   11  H   UNL     1      -9.327  10.273  71.115  1.00  0.00     0.000 HD 
ENDBRANCH   5   9
BRANCH   7  12
HETATM   12  N   UNL     1     -11.305  12.873  66.125  1.00  0.00    -0.303 NA 
HETATM   13  C   UNL     1     -12.086  13.677  65.340  1.00  0.00    -0.403 A  
HETATM   14  N   UNL     1     -11.764  14.949  65.458  1.00  0.00    -0.269 NA 
HETATM   15  C   UNL     1     -10.737  14.969  66.376  1.00  0.00    -0.322 A  
HETATM   16  C   UNL     1      -9.991  16.017  66.944  1.00  0.00    -0.251 A  
HETATM   17  N   UNL     1     -10.223  17.353  66.651  1.00  0.00    -0.316 NA 
HETATM   18  N   UNL     1      -9.000  15.712  67.809  1.00  0.00    -0.176 NA 
HETATM   19  H1  UNL     1      -9.682  18.114  67.062  1.00  0.00     0.000 HD 
HETATM   20  C   UNL     1      -8.808  14.411  68.108  1.00  0.00    -0.180 A  
HETATM   21  H2  UNL     1     -11.208  17.541  66.841  1.00  0.00     0.000 HD 
HETATM   22 CL   UNL     1      -7.537  14.094  69.211  1.00  0.00    -0.010 Cl 
HETATM   23  N   UNL     1      -9.458  13.320  67.650  1.00  0.00    -0.203 NA 
HETATM   24  C   UNL     1     -10.418  13.682  66.784  1.00  0.00    -0.270 A  
ENDBRANCH   7  12
TORSDOF 2
ENDMDL
MODEL      163
REMARK 921   NORMALIZED FREE ENERGY PREDICTED BY IDOCK:   -3.57 KCAL/MOL
REMARK 922        TOTAL FREE ENERGY PREDICTED BY IDOCK:   -4.49 KCAL/MOL
REMARK 923 INTER-LIGAND FREE ENERGY PREDICTED BY IDOCK:   -4.44 KCAL/MOL
REMARK 924 INTRA-LIGAND FREE ENERGY PREDICTED BY IDOCK:   -0.05 KCAL/MOL
REMARK 927      BINDING AFFINITY PREDICTED BY RF-SCORE:    0.00 PKD
ROOT
HETATM    1  C   UNL     1     -10.362  10.745  65.842  1.00  0.00    -0.238 C  
HETATM    2  F   UNL     1     -11.118  11.760  65.365  1.00  0.00    -0.334 F  
HETATM    3  C   UNL     1      -8.893  10.988  65.551  1.00  0.00    -0.169 C  
HETATM    4  O   UNL     1      -8.482  10.592  64.245  1.00  0.00    -0.282 OA 
HETATM    5  C   UNL     1      -8.236  10.136  66.631  1.00  0.00    -0.123 C  
HETATM    6  O   UNL     1      -9.065  10.268  67.806  1.00  0.00    -0.134 OA 
HETATM    7  C   UNL     1     -10.398  10.630  67.363  1.00  0.00    -0.219 C  
HETATM    8  H   UNL     1      -7.562  10.744  64.063  1.00  0.00     0.000 HD 
ENDROOT
BRANCH   5   9
HETATM    9  C   UNL     1      -6.793  10.531  66.939  1.00  0.00    -0.091 C  
HETATM   10  O   UNL     1      -6.371  11.620  66.122  1.00  0.00    -0.392 OA 
HETATM   11  H   UNL     1      -5.473  11.865  66.314  1.00  0.00     0.000 HD 
ENDBRANCH   5   9
BRANCH   7  12
HETATM   12  N   UNL     1     -10.815  11.840  68.044  1.00  0.00    -0.203 NA 
HETATM   13  C   UNL     1     -12.012  12.083  68.661  1.00  0.00    -0.235 A  
HETATM   14  N   UNL     1     -12.045  13.272  69.226  1.00  0.00    -0.281 NA 
HETATM   15  C   UNL     1     -10.804  13.818  68.975  1.00  0.00    -0.217 A  
HETATM   16  C   UNL     1     -10.215  15.041  69.337  1.00  0.00    -0.223 A  
HETATM   17  N   UNL     1     -10.859  15.988  70.119  1.00  0.00    -0.342 NA 
HETATM   18  N   UNL     1      -8.966  15.313  68.900  1.00  0.00    -0.196 NA 
HETATM   19  H1  UNL     1     -10.432  16.876  70.382  1.00  0.00     0.000 HD 
HETATM   20  C   UNL     1      -8.340  14.369  68.168  1.00  0.00    -0.158 A  
HETATM   21  H2  UNL     1     -11.154  15.524  70.980  1.00  0.00     0.000 HD 
HETATM   22 CL   UNL     1      -6.760  14.776  67.646  1.00  0.00    -0.195 Cl 
HETATM   23  N   UNL     1      -8.784  13.157  67.768  1.00  0.00    -0.175 NA 
HETATM   24  C   UNL     1     -10.032  12.950  68.216  1.00  0.00    -0.234 A  
ENDBRANCH   7  12
TORSDOF 2
ENDMDL
MODEL      164
REMARK 921   NORMALIZED FREE ENERGY PREDICTED BY IDOCK:   -3.56 KCAL/MOL
REMARK 922        TOTAL FREE ENERGY PREDICTED BY IDOCK:   -4.48 KCAL/MOL
REMARK 923 INTER-LIGAND FREE ENERGY PREDICTED BY IDOCK:   -4.67 KCAL/MOL
REMARK 924 INTRA-LIGAND FREE ENERGY PREDICTED BY IDOCK:    0.19 KCAL/MOL
REMARK 927      BINDING AFFINITY PREDICTED BY RF-SCORE:    0.00 PKD
ROOT
HETATM    1  C   UNL     1      -8.997  19.599  68.169  1.00  0.00    -0.324 C  
HETATM    2  F   UNL     1      -9.188  19.098  69.411  1.00  0.00    -0.264 F  
HETATM    3  C   UNL     1      -7.524  19.589  67.807  1.00  0.00    -0.269 C  
HETATM    4  O   UNL     1      -6.793  20.708  68.301  1.00  0.00    -0.258 OA 
HETATM    5  C   UNL     1      -7.595  19.588  66.286  1.00  0.00    -0.291 C  
HETATM    6  O   UNL     1      -8.723  18.757  65.937  1.00  0.00    -0.471 OA 
HETATM    7  C   UNL     1      -9.627  18.747  67.071  1.00  0.00    -0.303 C  
HETATM    8  H   UNL     1      -5.870  20.701  68.074  1.00  0.00     0.000 HD 
ENDROOT
BRANCH   5   9
HETATM    9  C   UNL     1      -6.322  19.087  65.605  1.00  0.00    -0.251 C  
HETATM   10  O   UNL     1      -5.240  19.012  66.529  1.00  0.00    -0.143 OA 
HETATM   11  H   UNL     1      -4.448  18.701  66.106  1.00  0.00     0.000 HD 
ENDBRANCH   5   9
BRANCH   7  12
HETATM   12  N   UNL     1      -9.893  17.375  67.458  1.00  0.00    -0.270 NA 
HETATM   13  C   UNL     1     -11.109  16.758  67.573  1.00  0.00    -0.035 A  
HETATM   14  N   UNL     1     -10.991  15.488  67.899  1.00  0.00    -0.307 NA 
HETATM   15  C   UNL     1      -9.633  15.269  67.983  1.00  0.00    -0.203 A  
HETATM   16  C   UNL     1      -8.872  14.121  68.262  1.00  0.00    -0.187 A  
HETATM   17  N   UNL     1      -9.440  12.877  68.495  1.00  0.00    -0.384 NA 
HETATM   18  N   UNL     1      -7.526  14.231  68.312  1.00  0.00    -0.114 NA 
HETATM   19  H1  UNL     1      -8.888  12.043  68.697  1.00  0.00     0.000 HD 
HETATM   20  C   UNL     1      -6.988  15.440  68.052  1.00  0.00    -0.133 A  
HETATM   21  H2  UNL     1     -10.039  12.660  67.697  1.00  0.00     0.000 HD 
HETATM   22 CL   UNL     1      -5.279  15.511  68.130  1.00  0.00    -0.112 Cl 
HETATM   23  N   UNL     1      -7.600  16.607  67.757  1.00  0.00    -0.156 NA 
HETATM   24  C   UNL     1      -8.932  16.441  67.738  1.00  0.00    -0.198 A  
ENDBRANCH   7  12
TORSDOF 2
ENDMDL
MODEL      165
REMARK 921   NORMALIZED FREE ENERGY PREDICTED BY IDOCK:   -3.55 KCAL/MOL
REMARK 922        TOTAL FREE ENERGY PREDICTED BY IDOCK:   -4.47 KCAL/MOL
REMARK 923 INTER-LIGAND FREE ENERGY PREDICTED BY IDOCK:   -4.43 KCAL/MOL
REMARK 924 INTRA-LIGAND FREE ENERGY PREDICTED BY IDOCK:   -0.04 KCAL/MOL
REMARK 927      BINDING AFFINITY PREDICTED BY RF-SCORE:    0.00 PKD
ROOT
HETATM    1  C   UNL     1      -8.876   8.258  68.647  1.00  0.00    -0.133 C  
HETATM    2  F   UNL     1      -9.032   6.950  68.344  1.00  0.00    -0.123 F  
HETATM    3  C   UNL     1     -10.196   8.997  68.530  1.00  0.00    -0.200 C  
HETATM    4  O   UNL     1     -10.519   9.410  67.204  1.00  0.00    -0.249 OA 
HETATM    5  C   UNL     1      -9.948  10.188  69.447  1.00  0.00    -0.228 C  
HETATM    6  O   UNL     1      -9.170   9.687  70.555  1.00  0.00    -0.249 OA 
HETATM    7  C   UNL     1      -8.476   8.497  70.100  1.00  0.00    -0.126 C  
HETATM    8  H   UNL     1     -11.345   9.873  67.132  1.00  0.00     0.000 HD 
ENDROOT
BRANCH   5   9
HETATM    9  C   UNL     1     -11.224  10.865  69.944  1.00  0.00    -0.282 C  
HETATM   10  O   UNL     1     -12.382  10.145  69.531  1.00  0.00    -0.509 OA 
HETATM   11  H   UNL     1     -13.176  10.566  69.840  1.00  0.00     0.000 HD 
ENDBRANCH   5   9
BRANCH   7  12
HETATM   12  N   UNL     1      -8.780   7.396  70.992  1.00  0.00    -0.138 NA 
HETATM   13  C   UNL     1      -7.897   6.573  71.638  1.00  0.00    -0.100 A  
HETATM   14  N   UNL     1      -8.509   5.702  72.414  1.00  0.00    -0.121 NA 
HETATM   15  C   UNL     1      -9.850   5.986  72.275  1.00  0.00    -0.160 A  
HETATM   16  C   UNL     1     -11.002   5.434  72.861  1.00  0.00    -0.287 A  
HETATM   17  N   UNL     1     -10.958   4.417  73.802  1.00  0.00    -0.284 NA 
HETATM   18  N   UNL     1     -12.210   5.910  72.488  1.00  0.00    -0.104 NA 
HETATM   19  H1  UNL     1     -11.794   4.016  74.228  1.00  0.00     0.000 HD 
HETATM   20  C   UNL     1     -12.236   6.921  71.596  1.00  0.00    -0.361 A  
HETATM   21  H2  UNL     1     -10.349   4.728  74.560  1.00  0.00     0.000 HD 
HETATM   22 CL   UNL     1     -13.797   7.478  71.167  1.00  0.00    -0.331 Cl 
HETATM   23  N   UNL     1     -11.212   7.546  70.976  1.00  0.00    -0.258 NA 
HETATM   24  C   UNL     1     -10.041   7.022  71.372  1.00  0.00    -0.189 A  
ENDBRANCH   7  12
TORSDOF 2
ENDMDL
MODEL      166
REMARK 921   NORMALIZED FREE ENERGY PREDICTED BY IDOCK:   -3.49 KCAL/MOL
REMARK 922        TOTAL FREE ENERGY PREDICTED BY IDOCK:   -4.41 KCAL/MOL
REMARK 923 INTER-LIGAND FREE ENERGY PREDICTED BY IDOCK:   -4.04 KCAL/MOL
REMARK 924 INTRA-LIGAND FREE ENERGY PREDICTED BY IDOCK:   -0.37 KCAL/MOL
REMARK 927      BINDING AFFINITY PREDICTED BY RF-SCORE:    0.00 PKD
ROOT
HETATM    1  C   UNL     1      -7.852   8.200  68.056  1.00  0.00    -0.122 C  
HETATM    2  F   UNL     1      -7.744   6.897  68.400  1.00  0.00    -0.104 F  
HETATM    3  C   UNL     1      -8.418   8.339  66.654  1.00  0.00    -0.123 C  
HETATM    4  O   UNL     1      -7.447   8.213  65.618  1.00  0.00    -0.077 OA 
HETATM    5  C   UNL     1      -9.003   9.744  66.712  1.00  0.00    -0.138 C  
HETATM    6  O   UNL     1      -9.552   9.896  68.038  1.00  0.00    -0.138 OA 
HETATM    7  C   UNL     1      -8.858   8.967  68.910  1.00  0.00    -0.139 C  
HETATM    8  H   UNL     1      -7.801   8.301  64.740  1.00  0.00     0.000 HD 
ENDROOT
BRANCH   5   9
HETATM    9  C   UNL     1     -10.067  10.017  65.650  1.00  0.00    -0.251 C  
HETATM   10  O   UNL     1     -10.883  11.127  66.013  1.00  0.00    -0.243 OA 
HETATM   11  H   UNL     1     -11.545  11.296  65.352  1.00  0.00     0.000 HD 
ENDBRANCH   5   9
BRANCH   7  12
HETATM   12  N   UNL     1      -9.828   8.130  69.587  1.00  0.00    -0.181 NA 
HETATM   13  C   UNL     1     -10.857   7.421  69.028  1.00  0.00    -0.086 A  
HETATM   14  N   UNL     1     -11.522   6.723  69.925  1.00  0.00    -0.319 NA 
HETATM   15  C   UNL     1     -10.883   6.982  71.118  1.00  0.00    -0.237 A  
HETATM   16  C   UNL     1     -11.095   6.517  72.428  1.00  0.00    -0.259 A  
HETATM   17  N   UNL     1     -12.080   5.596  72.752  1.00  0.00    -0.514 NA 
HETATM   18  N   UNL     1     -10.308   6.991  73.419  1.00  0.00    -0.297 NA 
HETATM   19  H1  UNL     1     -12.233   5.258  73.703  1.00  0.00     0.000 HD 
HETATM   20  C   UNL     1      -9.335   7.861  73.082  1.00  0.00    -0.272 A  
HETATM   21  H2  UNL     1     -11.942   4.779  72.157  1.00  0.00     0.000 HD 
HETATM   22 CL   UNL     1      -8.374   8.423  74.384  1.00  0.00    -0.164 Cl 
HETATM   23  N   UNL     1      -9.018   8.370  71.872  1.00  0.00    -0.193 NA 
HETATM   24  C   UNL     1      -9.840   7.877  70.932  1.00  0.00    -0.178 A  
ENDBRANCH   7  12
TORSDOF 2
ENDMDL
MODEL      167
REMARK 921   NORMALIZED FREE ENERGY PREDICTED BY IDOCK:   -3.48 KCAL/MOL
REMARK 922        TOTAL FREE ENERGY PREDICTED BY IDOCK:   -4.39 KCAL/MOL
REMARK 923 INTER-LIGAND FREE ENERGY PREDICTED BY IDOCK:   -3.92 KCAL/MOL
REMARK 924 INTRA-LIGAND FREE ENERGY PREDICTED BY IDOCK:   -0.47 KCAL/MOL
REMARK 927      BINDING AFFINITY PREDICTED BY RF-SCORE:    0.00 PKD
ROOT
HETATM    1  C   UNL     1      -8.681   8.775  66.246  1.00  0.00    -0.147 C  
HETATM    2  F   UNL     1      -7.331   8.849  66.272  1.00  0.00    -0.082 F  
HETATM    3  C   UNL     1      -9.143   7.346  66.460  1.00  0.00    -0.162 C  
HETATM    4  O   UNL     1      -9.143   6.549  65.278  1.00  0.00    -0.369 OA 
HETATM    5  C   UNL     1     -10.554   7.570  66.989  1.00  0.00    -0.339 C  
HETATM    6  O   UNL     1     -10.487   8.741  67.829  1.00  0.00    -0.235 OA 
HETATM    7  C   UNL     1      -9.347   9.527  67.395  1.00  0.00    -0.130 C  
HETATM    8  H   UNL     1      -9.433   5.654  65.412  1.00  0.00     0.000 HD 
ENDROOT
BRANCH   5   9
HETATM    9  C   UNL     1     -11.123   6.380  67.762  1.00  0.00    -0.276 C  
HETATM   10  O   UNL     1     -11.547   6.769  69.065  1.00  0.00    -0.587 OA 
HETATM   11  H   UNL     1     -11.901   6.029  69.545  1.00  0.00     0.000 HD 
ENDBRANCH   5   9
BRANCH   7  12
HETATM   12  N   UNL     1      -8.479   9.777  68.529  1.00  0.00    -0.113 NA 
HETATM   13  C   UNL     1      -8.205   8.937  69.574  1.00  0.00    -0.107 A  
HETATM   14  N   UNL     1      -7.333   9.458  70.412  1.00  0.00    -0.105 NA 
HETATM   15  C   UNL     1      -7.017  10.687  69.875  1.00  0.00    -0.146 A  
HETATM   16  C   UNL     1      -6.131  11.700  70.279  1.00  0.00    -0.128 A  
HETATM   17  N   UNL     1      -5.322  11.592  71.401  1.00  0.00    -0.347 NA 
HETATM   18  N   UNL     1      -6.066  12.834  69.548  1.00  0.00    -0.110 NA 
HETATM   19  H1  UNL     1      -4.679  12.328  71.695  1.00  0.00     0.000 HD 
HETATM   20  C   UNL     1      -6.835  12.911  68.443  1.00  0.00    -0.096 A  
HETATM   21  H2  UNL     1      -4.780  10.733  71.305  1.00  0.00     0.000 HD 
HETATM   22 CL   UNL     1      -6.705  14.373  67.562  1.00  0.00    -0.185 Cl 
HETATM   23  N   UNL     1      -7.707  12.011  67.939  1.00  0.00    -0.123 NA 
HETATM   24  C   UNL     1      -7.742  10.915  68.714  1.00  0.00    -0.129 A  
ENDBRANCH   7  12
TORSDOF 2
ENDMDL
MODEL      168
REMARK 921   NORMALIZED FREE ENERGY PREDICTED BY IDOCK:   -3.47 KCAL/MOL
REMARK 922        TOTAL FREE ENERGY PREDICTED BY IDOCK:   -4.38 KCAL/MOL
REMARK 923 INTER-LIGAND FREE ENERGY PREDICTED BY IDOCK:   -4.44 KCAL/MOL
REMARK 924 INTRA-LIGAND FREE ENERGY PREDICTED BY IDOCK:    0.06 KCAL/MOL
REMARK 927      BINDING AFFINITY PREDICTED BY RF-SCORE:    0.00 PKD
ROOT
HETATM    1  C   UNL     1      -9.406   6.253  73.474  1.00  0.00    -0.132 C  
HETATM    2  F   UNL     1      -8.202   5.723  73.161  1.00  0.00    -0.114 F  
HETATM    3  C   UNL     1      -9.525   7.667  72.938  1.00  0.00    -0.206 C  
HETATM    4  O   UNL     1      -8.943   8.661  73.778  1.00  0.00    -0.169 OA 
HETATM    5  C   UNL     1     -11.038   7.820  72.849  1.00  0.00    -0.398 C  
HETATM    6  O   UNL     1     -11.548   6.538  72.426  1.00  0.00    -0.277 OA 
HETATM    7  C   UNL     1     -10.574   5.532  72.807  1.00  0.00    -0.225 C  
HETATM    8  H   UNL     1      -9.018   9.547  73.442  1.00  0.00     0.000 HD 
ENDROOT
BRANCH   5   9
HETATM    9  C   UNL     1     -11.495   8.925  71.897  1.00  0.00    -0.372 C  
HETATM   10  O   UNL     1     -12.495   8.451  71.001  1.00  0.00    -0.465 OA 
HETATM   11  H   UNL     1     -12.779   9.139  70.409  1.00  0.00     0.000 HD 
ENDBRANCH   5   9
BRANCH   7  12
HETATM   12  N   UNL     1     -10.207   4.756  71.639  1.00  0.00    -0.195 NA 
HETATM   13  C   UNL     1      -9.881   3.427  71.586  1.00  0.00    -0.152 A  
HETATM   14  N   UNL     1      -9.646   3.024  70.354  1.00  0.00    -0.141 NA 
HETATM   15  C   UNL     1      -9.846   4.142  69.573  1.00  0.00    -0.113 A  
HETATM   16  C   UNL     1      -9.781   4.353  68.184  1.00  0.00    -0.119 A  
HETATM   17  N   UNL     1      -9.498   3.340  67.279  1.00  0.00    -0.318 NA 
HETATM   18  N   UNL     1      -9.996   5.598  67.707  1.00  0.00    -0.136 NA 
HETATM   19  H1  UNL     1      -9.451   3.493  66.272  1.00  0.00     0.000 HD 
HETATM   20  C   UNL     1     -10.301   6.564  68.597  1.00  0.00    -0.191 A  
HETATM   21  H2  UNL     1     -10.169   2.588  67.443  1.00  0.00     0.000 HD 
HETATM   22 CL   UNL     1     -10.563   8.118  67.927  1.00  0.00    -0.249 Cl 
HETATM   23  N   UNL     1     -10.411   6.491  69.941  1.00  0.00    -0.200 NA 
HETATM   24  C   UNL     1     -10.171   5.238  70.358  1.00  0.00    -0.268 A  
ENDBRANCH   7  12
TORSDOF 2
ENDMDL
MODEL      169
REMARK 921   NORMALIZED FREE ENERGY PREDICTED BY IDOCK:   -3.46 KCAL/MOL
REMARK 922        TOTAL FREE ENERGY PREDICTED BY IDOCK:   -4.37 KCAL/MOL
REMARK 923 INTER-LIGAND FREE ENERGY PREDICTED BY IDOCK:   -4.75 KCAL/MOL
REMARK 924 INTRA-LIGAND FREE ENERGY PREDICTED BY IDOCK:    0.38 KCAL/MOL
REMARK 927      BINDING AFFINITY PREDICTED BY RF-SCORE:    0.00 PKD
ROOT
HETATM    1  C   UNL     1      -9.792  13.394  66.096  1.00  0.00    -0.281 C  
HETATM    2  F   UNL     1     -11.129  13.579  66.013  1.00  0.00    -0.290 F  
HETATM    3  C   UNL     1      -9.127  14.584  66.763  1.00  0.00    -0.261 C  
HETATM    4  O   UNL     1      -8.856  15.672  65.882  1.00  0.00    -0.365 OA 
HETATM    5  C   UNL     1      -7.845  13.948  67.285  1.00  0.00    -0.114 C  
HETATM    6  O   UNL     1      -8.203  12.620  67.723  1.00  0.00    -0.146 OA 
HETATM    7  C   UNL     1      -9.399  12.229  67.000  1.00  0.00    -0.205 C  
HETATM    8  H   UNL     1      -8.440  16.416  66.300  1.00  0.00     0.000 HD 
ENDROOT
BRANCH   5   9
HETATM    9  C   UNL     1      -7.181  14.731  68.417  1.00  0.00    -0.114 C  
HETATM   10  O   UNL     1      -8.106  15.005  69.465  1.00  0.00    -0.321 OA 
HETATM   11  H   UNL     1      -7.693  15.492  70.169  1.00  0.00     0.000 HD 
ENDBRANCH   5   9
BRANCH   7  12
HETATM   12  N   UNL     1     -10.423  11.837  67.947  1.00  0.00    -0.191 NA 
HETATM   13  C   UNL     1     -11.034  10.618  68.062  1.00  0.00    -0.282 A  
HETATM   14  N   UNL     1     -11.888  10.584  69.064  1.00  0.00    -0.218 NA 
HETATM   15  C   UNL     1     -11.813  11.836  69.635  1.00  0.00    -0.339 A  
HETATM   16  C   UNL     1     -12.450  12.412  70.747  1.00  0.00    -0.267 A  
HETATM   17  N   UNL     1     -13.337  11.715  71.554  1.00  0.00    -0.179 NA 
HETATM   18  N   UNL     1     -12.193  13.705  71.044  1.00  0.00    -0.341 NA 
HETATM   19  H1  UNL     1     -13.799  12.132  72.362  1.00  0.00     0.000 HD 
HETATM   20  C   UNL     1     -11.305  14.360  70.270  1.00  0.00    -0.132 A  
HETATM   21  H2  UNL     1     -12.859  10.873  71.878  1.00  0.00     0.000 HD 
HETATM   22 CL   UNL     1     -11.024  15.993  70.700  1.00  0.00    -0.317 Cl 
HETATM   23  N   UNL     1     -10.617  13.922  69.193  1.00  0.00    -0.159 NA 
HETATM   24  C   UNL     1     -10.924  12.640  68.936  1.00  0.00    -0.229 A  
ENDBRANCH   7  12
TORSDOF 2
ENDMDL
MODEL      170
REMARK 921   NORMALIZED FREE ENERGY PREDICTED BY IDOCK:   -3.43 KCAL/MOL
REMARK 922        TOTAL FREE ENERGY PREDICTED BY IDOCK:   -4.34 KCAL/MOL
REMARK 923 INTER-LIGAND FREE ENERGY PREDICTED BY IDOCK:   -4.66 KCAL/MOL
REMARK 924 INTRA-LIGAND FREE ENERGY PREDICTED BY IDOCK:    0.32 KCAL/MOL
REMARK 927      BINDING AFFINITY PREDICTED BY RF-SCORE:    0.00 PKD
ROOT
HETATM    1  C   UNL     1      -9.286   9.223  66.163  1.00  0.00    -0.212 C  
HETATM    2  F   UNL     1      -9.204  10.537  65.853  1.00  0.00    -0.173 F  
HETATM    3  C   UNL     1      -8.096   8.794  67.001  1.00  0.00    -0.099 C  
HETATM    4  O   UNL     1      -6.932   8.476  66.242  1.00  0.00    -0.074 OA 
HETATM    5  C   UNL     1      -8.662   7.569  67.707  1.00  0.00    -0.123 C  
HETATM    6  O   UNL     1     -10.041   7.875  68.002  1.00  0.00    -0.177 OA 
HETATM    7  C   UNL     1     -10.476   8.887  67.058  1.00  0.00    -0.256 C  
HETATM    8  H   UNL     1      -6.187   8.207  66.767  1.00  0.00     0.000 HD 
ENDROOT
BRANCH   5   9
HETATM    9  C   UNL     1      -7.908   7.185  68.980  1.00  0.00    -0.114 C  
HETATM   10  O   UNL     1      -8.715   7.388  70.137  1.00  0.00    -0.141 OA 
HETATM   11  H   UNL     1      -8.246   7.149  70.928  1.00  0.00     0.000 HD 
ENDBRANCH   5   9
BRANCH   7  12
HETATM   12  N   UNL     1     -11.014  10.020  67.785  1.00  0.00    -0.284 NA 
HETATM   13  C   UNL     1     -11.370  11.243  67.286  1.00  0.00    -0.255 A  
HETATM   14  N   UNL     1     -11.872  12.030  68.214  1.00  0.00    -0.425 NA 
HETATM   15  C   UNL     1     -11.855  11.273  69.366  1.00  0.00    -0.355 A  
HETATM   16  C   UNL     1     -12.282  11.534  70.679  1.00  0.00    -0.378 A  
HETATM   17  N   UNL     1     -12.884  12.726  71.055  1.00  0.00    -0.236 NA 
HETATM   18  N   UNL     1     -12.095  10.585  71.622  1.00  0.00    -0.223 NA 
HETATM   19  H1  UNL     1     -13.194  12.916  72.008  1.00  0.00     0.000 HD 
HETATM   20  C   UNL     1     -11.538   9.420  71.235  1.00  0.00    -0.364 A  
HETATM   21  H2  UNL     1     -13.684  12.872  70.439  1.00  0.00     0.000 HD 
HETATM   22 CL   UNL     1     -11.329   8.260  72.478  1.00  0.00    -0.458 Cl 
HETATM   23  N   UNL     1     -11.103   9.040  70.014  1.00  0.00    -0.220 NA 
HETATM   24  C   UNL     1     -11.299  10.026  69.124  1.00  0.00    -0.094 A  
ENDBRANCH   7  12
TORSDOF 2
ENDMDL
MODEL      171
REMARK 921   NORMALIZED FREE ENERGY PREDICTED BY IDOCK:   -3.37 KCAL/MOL
REMARK 922        TOTAL FREE ENERGY PREDICTED BY IDOCK:   -4.28 KCAL/MOL
REMARK 923 INTER-LIGAND FREE ENERGY PREDICTED BY IDOCK:   -3.64 KCAL/MOL
REMARK 924 INTRA-LIGAND FREE ENERGY PREDICTED BY IDOCK:   -0.63 KCAL/MOL
REMARK 927      BINDING AFFINITY PREDICTED BY RF-SCORE:    0.00 PKD
ROOT
HETATM    1  C   UNL     1     -11.037   7.281  69.719  1.00  0.00    -0.182 C  
HETATM    2  F   UNL     1     -10.787   7.696  70.982  1.00  0.00    -0.231 F  
HETATM    3  C   UNL     1     -10.486   8.271  68.710  1.00  0.00    -0.177 C  
HETATM    4  O   UNL     1     -11.346   9.377  68.446  1.00  0.00    -0.479 OA 
HETATM    5  C   UNL     1     -10.321   7.380  67.485  1.00  0.00    -0.251 C  
HETATM    6  O   UNL     1      -9.882   6.096  67.978  1.00  0.00    -0.121 OA 
HETATM    7  C   UNL     1     -10.317   5.984  69.358  1.00  0.00    -0.236 C  
HETATM    8  H   UNL     1     -11.000   9.996  67.814  1.00  0.00     0.000 HD 
ENDROOT
BRANCH   5   9
HETATM    9  C   UNL     1      -9.340   7.926  66.449  1.00  0.00    -0.189 C  
HETATM   10  O   UNL     1      -9.896   9.036  65.749  1.00  0.00    -0.426 OA 
HETATM   11  H   UNL     1      -9.286   9.375  65.104  1.00  0.00     0.000 HD 
ENDBRANCH   5   9
BRANCH   7  12
HETATM   12  N   UNL     1      -9.175   5.682  70.196  1.00  0.00    -0.140 NA 
HETATM   13  C   UNL     1      -7.899   6.162  70.078  1.00  0.00    -0.106 A  
HETATM   14  N   UNL     1      -7.113   5.722  71.039  1.00  0.00    -0.066 NA 
HETATM   15  C   UNL     1      -7.924   4.931  71.824  1.00  0.00    -0.109 A  
HETATM   16  C   UNL     1      -7.687   4.209  73.007  1.00  0.00    -0.081 A  
HETATM   17  N   UNL     1      -6.461   4.204  73.656  1.00  0.00    -0.044 NA 
HETATM   18  N   UNL     1      -8.696   3.481  73.534  1.00  0.00    -0.082 NA 
HETATM   19  H1  UNL     1      -6.289   3.680  74.514  1.00  0.00     0.000 HD 
HETATM   20  C   UNL     1      -9.890   3.522  72.909  1.00  0.00    -0.141 A  
HETATM   21  H2  UNL     1      -6.207   5.176  73.835  1.00  0.00     0.000 HD 
HETATM   22 CL   UNL     1     -11.124   2.579  73.629  1.00  0.00    -0.303 Cl 
HETATM   23  N   UNL     1     -10.250   4.183  71.788  1.00  0.00    -0.134 NA 
HETATM   24  C   UNL     1      -9.207   4.873  71.301  1.00  0.00    -0.145 A  
ENDBRANCH   7  12
TORSDOF 2
ENDMDL
MODEL      172
REMARK 921   NORMALIZED FREE ENERGY PREDICTED BY IDOCK:   -3.33 KCAL/MOL
REMARK 922        TOTAL FREE ENERGY PREDICTED BY IDOCK:   -4.23 KCAL/MOL
REMARK 923 INTER-LIGAND FREE ENERGY PREDICTED BY IDOCK:   -4.41 KCAL/MOL
REMARK 924 INTRA-LIGAND FREE ENERGY PREDICTED BY IDOCK:    0.18 KCAL/MOL
REMARK 927      BINDING AFFINITY PREDICTED BY RF-SCORE:    0.00 PKD
ROOT
HETATM    1  C   UNL     1      -8.836   5.281  70.482  1.00  0.00    -0.132 C  
HETATM    2  F   UNL     1      -7.686   5.586  69.838  1.00  0.00    -0.074 F  
HETATM    3  C   UNL     1      -9.111   6.280  71.591  1.00  0.00    -0.145 C  
HETATM    4  O   UNL     1      -8.430   5.999  72.811  1.00  0.00    -0.121 OA 
HETATM    5  C   UNL     1     -10.620   6.142  71.742  1.00  0.00    -0.223 C  
HETATM    6  O   UNL     1     -11.142   5.950  70.410  1.00  0.00    -0.315 OA 
HETATM    7  C   UNL     1     -10.073   5.402  69.596  1.00  0.00    -0.249 C  
HETATM    8  H   UNL     1      -8.602   6.624  73.506  1.00  0.00     0.000 HD 
ENDROOT
BRANCH   5   9
HETATM    9  C   UNL     1     -11.287   7.339  72.418  1.00  0.00    -0.284 C  
HETATM   10  O   UNL     1     -10.938   7.413  73.797  1.00  0.00    -0.548 OA 
HETATM   11  H   UNL     1     -11.353   8.157  74.217  1.00  0.00     0.000 HD 
ENDBRANCH   5   9
BRANCH   7  12
HETATM   12  N   UNL     1      -9.890   6.237  68.425  1.00  0.00    -0.127 NA 
HETATM   13  C   UNL     1      -9.404   5.866  67.201  1.00  0.00    -0.116 A  
HETATM   14  N   UNL     1      -9.414   6.863  66.340  1.00  0.00    -0.154 NA 
HETATM   15  C   UNL     1      -9.947   7.925  67.038  1.00  0.00    -0.252 A  
HETATM   16  C   UNL     1     -10.243   9.249  66.670  1.00  0.00    -0.253 A  
HETATM   17  N   UNL     1     -10.045   9.739  65.388  1.00  0.00    -0.333 NA 
HETATM   18  N   UNL     1     -10.737  10.087  67.608  1.00  0.00    -0.268 NA 
HETATM   19  H1  UNL     1     -10.260  10.700  65.120  1.00  0.00     0.000 HD 
HETATM   20  C   UNL     1     -10.953   9.588  68.842  1.00  0.00    -0.086 A  
HETATM   21  H2  UNL     1     -10.547   9.124  64.745  1.00  0.00     0.000 HD 
HETATM   22 CL   UNL     1     -11.581  10.701  69.981  1.00  0.00    -0.371 Cl 
HETATM   23  N   UNL     1     -10.730   8.343  69.316  1.00  0.00    -0.176 NA 
HETATM   24  C   UNL     1     -10.226   7.562  68.347  1.00  0.00    -0.185 A  
ENDBRANCH   7  12
TORSDOF 2
ENDMDL
MODEL      173
REMARK 921   NORMALIZED FREE ENERGY PREDICTED BY IDOCK:   -3.33 KCAL/MOL
REMARK 922        TOTAL FREE ENERGY PREDICTED BY IDOCK:   -4.23 KCAL/MOL
REMARK 923 INTER-LIGAND FREE ENERGY PREDICTED BY IDOCK:   -4.58 KCAL/MOL
REMARK 924 INTRA-LIGAND FREE ENERGY PREDICTED BY IDOCK:    0.35 KCAL/MOL
REMARK 927      BINDING AFFINITY PREDICTED BY RF-SCORE:    0.00 PKD
ROOT
HETATM    1  C   UNL     1     -11.894  11.983  65.399  1.00  0.00    -0.192 C  
HETATM    2  F   UNL     1     -12.080  11.151  66.449  1.00  0.00     0.317 F  
HETATM    3  C   UNL     1     -11.884  13.430  65.856  1.00  0.00    -0.376 C  
HETATM    4  O   UNL     1     -13.181  14.006  65.999  1.00  0.00    -0.488 OA 
HETATM    5  C   UNL     1     -11.096  14.087  64.731  1.00  0.00    -0.387 C  
HETATM    6  O   UNL     1     -10.069  13.145  64.355  1.00  0.00    -0.334 OA 
HETATM    7  C   UNL     1     -10.528  11.822  64.737  1.00  0.00    -0.293 C  
HETATM    8  H   UNL     1     -13.174  14.912  66.286  1.00  0.00     0.000 HD 
ENDROOT
BRANCH   5   9
HETATM    9  C   UNL     1     -10.481  15.434  65.110  1.00  0.00    -0.411 C  
HETATM   10  O   UNL     1     -11.165  16.509  64.472  1.00  0.00    -0.846 OA 
HETATM   11  H   UNL     1     -10.782  17.347  64.708  1.00  0.00     0.000 HD 
ENDBRANCH   5   9
BRANCH   7  12
HETATM   12  N   UNL     1      -9.528  11.194  65.576  1.00  0.00    -0.215 NA 
HETATM   13  C   UNL     1      -9.088   9.899  65.527  1.00  0.00    -0.189 A  
HETATM   14  N   UNL     1      -8.132   9.667  66.403  1.00  0.00    -0.111 NA 
HETATM   15  C   UNL     1      -7.935  10.874  67.038  1.00  0.00    -0.132 A  
HETATM   16  C   UNL     1      -7.040  11.282  68.043  1.00  0.00    -0.070 A  
HETATM   17  N   UNL     1      -6.087  10.439  68.594  1.00  0.00    -0.044 NA 
HETATM   18  N   UNL     1      -7.113  12.552  68.498  1.00  0.00    -0.101 NA 
HETATM   19  H1  UNL     1      -5.438  10.735  69.323  1.00  0.00     0.000 HD 
HETATM   20  C   UNL     1      -8.024  13.369  67.930  1.00  0.00    -0.155 A  
HETATM   21  H2  UNL     1      -5.532  10.062  67.825  1.00  0.00     0.000 HD 
HETATM   22 CL   UNL     1      -8.064  14.964  68.552  1.00  0.00    -0.140 Cl 
HETATM   23  N   UNL     1      -8.922  13.108  66.955  1.00  0.00    -0.226 NA 
HETATM   24  C   UNL     1      -8.814  11.832  66.555  1.00  0.00    -0.183 A  
ENDBRANCH   7  12
TORSDOF 2
ENDMDL
MODEL      174
REMARK 921   NORMALIZED FREE ENERGY PREDICTED BY IDOCK:   -3.32 KCAL/MOL
REMARK 922        TOTAL FREE ENERGY PREDICTED BY IDOCK:   -4.22 KCAL/MOL
REMARK 923 INTER-LIGAND FREE ENERGY PREDICTED BY IDOCK:   -4.76 KCAL/MOL
REMARK 924 INTRA-LIGAND FREE ENERGY PREDICTED BY IDOCK:    0.55 KCAL/MOL
REMARK 927      BINDING AFFINITY PREDICTED BY RF-SCORE:    0.00 PKD
ROOT
HETATM    1  C   UNL     1      -8.743   4.364  68.091  1.00  0.00    -0.101 C  
HETATM    2  F   UNL     1      -9.323   4.530  69.302  1.00  0.00    -0.145 F  
HETATM    3  C   UNL     1      -9.604   3.490  67.199  1.00  0.00    -0.118 C  
HETATM    4  O   UNL     1      -9.424   2.091  67.404  1.00  0.00    -0.364 OA 
HETATM    5  C   UNL     1      -9.130   3.923  65.818  1.00  0.00    -0.145 C  
HETATM    6  O   UNL     1      -8.889   5.344  65.903  1.00  0.00    -0.139 OA 
HETATM    7  C   UNL     1      -8.629   5.661  67.295  1.00  0.00    -0.109 C  
HETATM    8  H   UNL     1      -9.964   1.543  66.845  1.00  0.00     0.000 HD 
ENDROOT
BRANCH   5   9
HETATM    9  C   UNL     1     -10.118   3.608  64.696  1.00  0.00    -0.162 C  
HETATM   10  O   UNL     1     -11.380   4.225  64.934  1.00  0.00    -0.996 OA 
HETATM   11  H   UNL     1     -11.995   4.028  64.236  1.00  0.00     0.000 HD 
ENDBRANCH   5   9
BRANCH   7  12
HETATM   12  N   UNL     1      -9.536   6.707  67.723  1.00  0.00    -0.121 NA 
HETATM   13  C   UNL     1     -10.293   6.743  68.863  1.00  0.00    -0.192 A  
HETATM   14  N   UNL     1     -10.972   7.867  68.971  1.00  0.00     0.007 NA 
HETATM   15  C   UNL     1     -10.625   8.598  67.855  1.00  0.00    -0.161 A  
HETATM   16  C   UNL     1     -10.986   9.882  67.412  1.00  0.00    -0.145 A  
HETATM   17  N   UNL     1     -11.827  10.720  68.130  1.00  0.00    -0.782 NA 
HETATM   18  N   UNL     1     -10.500  10.321  66.231  1.00  0.00    -0.185 NA 
HETATM   19  H1  UNL     1     -12.089  11.652  67.809  1.00  0.00     0.000 HD 
HETATM   20  C   UNL     1      -9.659   9.507  65.560  1.00  0.00    -0.279 A  
HETATM   21  H2  UNL     1     -11.432  10.819  69.066  1.00  0.00     0.000 HD 
HETATM   22 CL   UNL     1      -9.078  10.123  64.072  1.00  0.00    -0.261 Cl 
HETATM   23  N   UNL     1      -9.223   8.270  65.880  1.00  0.00    -0.161 NA 
HETATM   24  C   UNL     1      -9.751   7.881  67.052  1.00  0.00    -0.206 A  
ENDBRANCH   7  12
TORSDOF 2
ENDMDL
MODEL      175
REMARK 921   NORMALIZED FREE ENERGY PREDICTED BY IDOCK:   -3.31 KCAL/MOL
REMARK 922        TOTAL FREE ENERGY PREDICTED BY IDOCK:   -4.20 KCAL/MOL
REMARK 923 INTER-LIGAND FREE ENERGY PREDICTED BY IDOCK:   -4.43 KCAL/MOL
REMARK 924 INTRA-LIGAND FREE ENERGY PREDICTED BY IDOCK:    0.23 KCAL/MOL
REMARK 927      BINDING AFFINITY PREDICTED BY RF-SCORE:    0.00 PKD
ROOT
HETATM    1  C   UNL     1     -10.524   7.917  69.552  1.00  0.00    -0.226 C  
HETATM    2  F   UNL     1      -9.616   6.914  69.545  1.00  0.00    -0.149 F  
HETATM    3  C   UNL     1     -11.620   7.641  70.564  1.00  0.00    -0.175 C  
HETATM    4  O   UNL     1     -12.660   6.793  70.082  1.00  0.00    -0.511 OA 
HETATM    5  C   UNL     1     -12.126   9.051  70.840  1.00  0.00    -0.198 C  
HETATM    6  O   UNL     1     -10.963   9.905  70.826  1.00  0.00    -0.307 OA 
HETATM    7  C   UNL     1      -9.947   9.248  70.026  1.00  0.00    -0.209 C  
HETATM    8  H   UNL     1     -13.346   6.620  70.715  1.00  0.00     0.000 HD 
ENDROOT
BRANCH   5   9
HETATM    9  C   UNL     1     -12.884   9.190  72.160  1.00  0.00    -0.412 C  
HETATM   10  O   UNL     1     -12.671   8.058  72.998  1.00  0.00    -0.491 OA 
HETATM   11  H   UNL     1     -13.143   8.145  73.818  1.00  0.00     0.000 HD 
ENDBRANCH   5   9
BRANCH   7  12
HETATM   12  N   UNL     1      -8.729   9.129  70.803  1.00  0.00    -0.224 NA 
HETATM   13  C   UNL     1      -7.524   9.734  70.569  1.00  0.00    -0.101 A  
HETATM   14  N   UNL     1      -6.637   9.448  71.500  1.00  0.00    -0.287 NA 
HETATM   15  C   UNL     1      -7.307   8.633  72.386  1.00  0.00     0.028 A  
HETATM   16  C   UNL     1      -6.920   8.025  73.594  1.00  0.00    -0.123 A  
HETATM   17  N   UNL     1      -5.665   8.196  74.158  1.00  0.00    -0.078 NA 
HETATM   18  N   UNL     1      -7.808   7.232  74.233  1.00  0.00    -0.127 NA 
HETATM   19  H1  UNL     1      -5.384   7.755  75.034  1.00  0.00     0.000 HD 
HETATM   20  C   UNL     1      -9.035   7.101  73.689  1.00  0.00    -0.178 A  
HETATM   21  H2  UNL     1      -5.509   9.200  74.258  1.00  0.00     0.000 HD 
HETATM   22 CL   UNL     1     -10.111   6.084  74.549  1.00  0.00    -0.310 Cl 
HETATM   23  N   UNL     1      -9.533   7.639  72.555  1.00  0.00    -0.157 NA 
HETATM   24  C   UNL     1      -8.604   8.401  71.955  1.00  0.00    -0.191 A  
ENDBRANCH   7  12
TORSDOF 2
ENDMDL
MODEL      176
REMARK 921   NORMALIZED FREE ENERGY PREDICTED BY IDOCK:   -3.30 KCAL/MOL
REMARK 922        TOTAL FREE ENERGY PREDICTED BY IDOCK:   -4.19 KCAL/MOL
REMARK 923 INTER-LIGAND FREE ENERGY PREDICTED BY IDOCK:   -4.18 KCAL/MOL
REMARK 924 INTRA-LIGAND FREE ENERGY PREDICTED BY IDOCK:   -0.01 KCAL/MOL
REMARK 927      BINDING AFFINITY PREDICTED BY RF-SCORE:    0.00 PKD
ROOT
HETATM    1  C   UNL     1      -9.174   5.343  68.375  1.00  0.00    -0.111 C  
HETATM    2  F   UNL     1      -7.883   5.614  68.079  1.00  0.00    -0.091 F  
HETATM    3  C   UNL     1      -9.518   5.830  69.770  1.00  0.00    -0.148 C  
HETATM    4  O   UNL     1      -9.159   4.924  70.810  1.00  0.00    -0.128 OA 
HETATM    5  C   UNL     1     -11.029   5.992  69.660  1.00  0.00    -0.400 C  
HETATM    6  O   UNL     1     -11.284   6.490  68.329  1.00  0.00    -0.277 OA 
HETATM    7  C   UNL     1     -10.165   6.098  67.493  1.00  0.00    -0.178 C  
HETATM    8  H   UNL     1      -9.374   5.229  71.684  1.00  0.00     0.000 HD 
ENDROOT
BRANCH   5   9
HETATM    9  C   UNL     1     -11.631   6.923  70.712  1.00  0.00    -0.349 C  
HETATM   10  O   UNL     1     -10.637   7.775  71.274  1.00  0.00    -0.217 OA 
HETATM   11  H   UNL     1     -11.012   8.354  71.928  1.00  0.00     0.000 HD 
ENDBRANCH   5   9
BRANCH   7  12
HETATM   12  N   UNL     1      -9.616   7.274  66.848  1.00  0.00    -0.164 NA 
HETATM   13  C   UNL     1      -8.851   7.326  65.715  1.00  0.00    -0.066 A  
HETATM   14  N   UNL     1      -8.558   8.564  65.372  1.00  0.00    -0.176 NA 
HETATM   15  C   UNL     1      -9.176   9.349  66.320  1.00  0.00    -0.180 A  
HETATM   16  C   UNL     1      -9.264  10.742  66.489  1.00  0.00    -0.168 A  
HETATM   17  N   UNL     1      -8.697  11.647  65.604  1.00  0.00    -0.400 NA 
HETATM   18  N   UNL     1      -9.926  11.224  67.563  1.00  0.00    -0.180 NA 
HETATM   19  H1  UNL     1      -8.761  12.658  65.725  1.00  0.00     0.000 HD 
HETATM   20  C   UNL     1     -10.499  10.333  68.397  1.00  0.00    -0.200 A  
HETATM   21  H2  UNL     1      -9.054  11.428  64.673  1.00  0.00     0.000 HD 
HETATM   22 CL   UNL     1     -11.323  11.009  69.737  1.00  0.00    -0.342 Cl 
HETATM   23  N   UNL     1     -10.504   8.983  68.340  1.00  0.00    -0.207 NA 
HETATM   24  C   UNL     1      -9.819   8.562  67.265  1.00  0.00    -0.199 A  
ENDBRANCH   7  12
TORSDOF 2
ENDMDL
MODEL      177
REMARK 921   NORMALIZED FREE ENERGY PREDICTED BY IDOCK:   -3.29 KCAL/MOL
REMARK 922        TOTAL FREE ENERGY PREDICTED BY IDOCK:   -4.18 KCAL/MOL
REMARK 923 INTER-LIGAND FREE ENERGY PREDICTED BY IDOCK:   -4.63 KCAL/MOL
REMARK 924 INTRA-LIGAND FREE ENERGY PREDICTED BY IDOCK:    0.45 KCAL/MOL
REMARK 927      BINDING AFFINITY PREDICTED BY RF-SCORE:    0.00 PKD
ROOT
HETATM    1  C   UNL     1     -10.524  12.891  66.947  1.00  0.00    -0.246 C  
HETATM    2  F   UNL     1     -11.087  13.657  65.986  1.00  0.00    -0.291 F  
HETATM    3  C   UNL     1      -9.212  12.302  66.464  1.00  0.00    -0.219 C  
HETATM    4  O   UNL     1      -9.355  11.112  65.692  1.00  0.00    -0.208 OA 
HETATM    5  C   UNL     1      -8.506  12.034  67.787  1.00  0.00    -0.157 C  
HETATM    6  O   UNL     1      -8.856  13.130  68.659  1.00  0.00    -0.088 OA 
HETATM    7  C   UNL     1     -10.111  13.683  68.184  1.00  0.00    -0.245 C  
HETATM    8  H   UNL     1      -8.533  10.744  65.389  1.00  0.00     0.000 HD 
ENDROOT
BRANCH   5   9
HETATM    9  C   UNL     1      -6.988  11.903  67.664  1.00  0.00    -0.112 C  
HETATM   10  O   UNL     1      -6.550  12.211  66.344  1.00  0.00    -0.401 OA 
HETATM   11  H   UNL     1      -5.606  12.129  66.268  1.00  0.00     0.000 HD 
ENDBRANCH   5   9
BRANCH   7  12
HETATM   12  N   UNL     1      -9.950  15.106  67.956  1.00  0.00    -0.220 NA 
HETATM   13  C   UNL     1     -10.812  15.954  67.316  1.00  0.00    -0.279 A  
HETATM   14  N   UNL     1     -10.382  17.198  67.326  1.00  0.00    -0.317 NA 
HETATM   15  C   UNL     1      -9.192  17.155  68.021  1.00  0.00    -0.250 A  
HETATM   16  C   UNL     1      -8.275  18.152  68.394  1.00  0.00    -0.303 A  
HETATM   17  N   UNL     1      -8.463  19.497  68.109  1.00  0.00    -0.318 NA 
HETATM   18  N   UNL     1      -7.154  17.788  69.055  1.00  0.00    -0.253 NA 
HETATM   19  H1  UNL     1      -7.798  20.221  68.380  1.00  0.00     0.000 HD 
HETATM   20  C   UNL     1      -7.001  16.481  69.352  1.00  0.00    -0.202 A  
HETATM   21  H2  UNL     1      -9.374  19.764  68.485  1.00  0.00     0.000 HD 
HETATM   22 CL   UNL     1      -5.561  16.086  70.190  1.00  0.00    -0.161 Cl 
HETATM   23  N   UNL     1      -7.807  15.435  69.068  1.00  0.00    -0.176 NA 
HETATM   24  C   UNL     1      -8.893  15.855  68.399  1.00  0.00    -0.184 A  
ENDBRANCH   7  12
TORSDOF 2
ENDMDL
MODEL      178
REMARK 921   NORMALIZED FREE ENERGY PREDICTED BY IDOCK:   -3.26 KCAL/MOL
REMARK 922        TOTAL FREE ENERGY PREDICTED BY IDOCK:   -4.15 KCAL/MOL
REMARK 923 INTER-LIGAND FREE ENERGY PREDICTED BY IDOCK:   -4.40 KCAL/MOL
REMARK 924 INTRA-LIGAND FREE ENERGY PREDICTED BY IDOCK:    0.25 KCAL/MOL
REMARK 927      BINDING AFFINITY PREDICTED BY RF-SCORE:    0.00 PKD
ROOT
HETATM    1  C   UNL     1     -10.072   6.421  66.884  1.00  0.00    -0.187 C  
HETATM    2  F   UNL     1     -11.348   6.077  67.168  1.00  0.00    -0.330 F  
HETATM    3  C   UNL     1      -9.879   7.921  67.012  1.00  0.00    -0.225 C  
HETATM    4  O   UNL     1     -10.267   8.661  65.857  1.00  0.00    -0.381 OA 
HETATM    5  C   UNL     1      -8.378   8.004  67.258  1.00  0.00    -0.122 C  
HETATM    6  O   UNL     1      -8.044   6.873  68.090  1.00  0.00    -0.116 OA 
HETATM    7  C   UNL     1      -9.060   5.859  67.879  1.00  0.00    -0.109 C  
HETATM    8  H   UNL     1     -10.146   9.600  65.937  1.00  0.00     0.000 HD 
ENDROOT
BRANCH   5   9
HETATM    9  C   UNL     1      -7.929   9.310  67.914  1.00  0.00    -0.100 C  
HETATM   10  O   UNL     1      -8.181  10.425  67.064  1.00  0.00    -0.121 OA 
HETATM   11  H   UNL     1      -7.902  11.237  67.472  1.00  0.00     0.000 HD 
ENDBRANCH   5   9
BRANCH   7  12
HETATM   12  N   UNL     1      -9.628   5.478  69.157  1.00  0.00    -0.135 NA 
HETATM   13  C   UNL     1      -9.710   4.223  69.695  1.00  0.00    -0.214 A  
HETATM   14  N   UNL     1     -10.242   4.235  70.900  1.00  0.00    -0.078 NA 
HETATM   15  C   UNL     1     -10.501   5.563  71.159  1.00  0.00    -0.236 A  
HETATM   16  C   UNL     1     -11.034   6.226  72.278  1.00  0.00    -0.259 A  
HETATM   17  N   UNL     1     -11.399   5.567  73.443  1.00  0.00    -0.485 NA 
HETATM   18  N   UNL     1     -11.206   7.564  72.218  1.00  0.00    -0.266 NA 
HETATM   19  H1  UNL     1     -11.786   6.047  74.255  1.00  0.00     0.000 HD 
HETATM   20  C   UNL     1     -10.817   8.195  71.091  1.00  0.00    -0.232 A  
HETATM   21  H2  UNL     1     -10.587   5.035  73.760  1.00  0.00     0.000 HD 
HETATM   22 CL   UNL     1     -11.061   9.890  71.080  1.00  0.00    -0.422 Cl 
HETATM   23  N   UNL     1     -10.280   7.683  69.962  1.00  0.00    -0.208 NA 
HETATM   24  C   UNL     1     -10.149   6.352  70.073  1.00  0.00    -0.172 A  
ENDBRANCH   7  12
TORSDOF 2
ENDMDL
MODEL      179
REMARK 921   NORMALIZED FREE ENERGY PREDICTED BY IDOCK:   -3.25 KCAL/MOL
REMARK 922        TOTAL FREE ENERGY PREDICTED BY IDOCK:   -4.14 KCAL/MOL
REMARK 923 INTER-LIGAND FREE ENERGY PREDICTED BY IDOCK:   -4.39 KCAL/MOL
REMARK 924 INTRA-LIGAND FREE ENERGY PREDICTED BY IDOCK:    0.25 KCAL/MOL
REMARK 927      BINDING AFFINITY PREDICTED BY RF-SCORE:    0.00 PKD
ROOT
HETATM    1  C   UNL     1      -8.098   6.522  69.881  1.00  0.00    -0.121 C  
HETATM    2  F   UNL     1      -7.416   7.629  70.251  1.00  0.00    -0.075 F  
HETATM    3  C   UNL     1      -8.320   5.606  71.071  1.00  0.00    -0.122 C  
HETATM    4  O   UNL     1      -7.218   4.750  71.362  1.00  0.00    -0.056 OA 
HETATM    5  C   UNL     1      -9.540   4.819  70.611  1.00  0.00    -0.185 C  
HETATM    6  O   UNL     1     -10.374   5.752  69.891  1.00  0.00    -0.213 OA 
HETATM    7  C   UNL     1      -9.518   6.819  69.407  1.00  0.00    -0.147 C  
HETATM    8  H   UNL     1      -7.357   4.177  72.107  1.00  0.00     0.000 HD 
ENDROOT
BRANCH   5   9
HETATM    9  C   UNL     1     -10.320   4.163  71.750  1.00  0.00    -0.012 C  
HETATM   10  O   UNL     1     -10.766   5.133  72.694  1.00  0.00    -0.216 OA 
HETATM   11  H   UNL     1     -11.250   4.725  73.402  1.00  0.00     0.000 HD 
ENDBRANCH   5   9
BRANCH   7  12
HETATM   12  N   UNL     1     -10.043   8.093  69.856  1.00  0.00    -0.191 NA 
HETATM   13  C   UNL     1      -9.510   9.337  69.653  1.00  0.00    -0.179 A  
HETATM   14  N   UNL     1     -10.269  10.290  70.154  1.00  0.00    -0.179 NA 
HETATM   15  C   UNL     1     -11.353   9.631  70.693  1.00  0.00    -0.312 A  
HETATM   16  C   UNL     1     -12.515  10.087  71.339  1.00  0.00    -0.411 A  
HETATM   17  N   UNL     1     -12.794  11.432  71.531  1.00  0.00    -0.423 NA 
HETATM   18  N   UNL     1     -13.399   9.176  71.800  1.00  0.00    -0.382 NA 
HETATM   19  H1  UNL     1     -13.637  11.763  72.000  1.00  0.00     0.000 HD 
HETATM   20  C   UNL     1     -13.130   7.873  71.577  1.00  0.00    -0.311 A  
HETATM   21  H2  UNL     1     -12.754  11.885  70.618  1.00  0.00     0.000 HD 
HETATM   22 CL   UNL     1     -14.291   6.771  72.186  1.00  0.00    -0.282 Cl 
HETATM   23  N   UNL     1     -12.068   7.309  70.961  1.00  0.00    -0.330 NA 
HETATM   24  C   UNL     1     -11.218   8.259  70.540  1.00  0.00    -0.239 A  
ENDBRANCH   7  12
TORSDOF 2
ENDMDL
MODEL      180
REMARK 921   NORMALIZED FREE ENERGY PREDICTED BY IDOCK:   -3.24 KCAL/MOL
REMARK 922        TOTAL FREE ENERGY PREDICTED BY IDOCK:   -4.13 KCAL/MOL
REMARK 923 INTER-LIGAND FREE ENERGY PREDICTED BY IDOCK:   -4.36 KCAL/MOL
REMARK 924 INTRA-LIGAND FREE ENERGY PREDICTED BY IDOCK:    0.23 KCAL/MOL
REMARK 927      BINDING AFFINITY PREDICTED BY RF-SCORE:    0.00 PKD
ROOT
HETATM    1  C   UNL     1      -9.574   5.940  70.472  1.00  0.00    -0.172 C  
HETATM    2  F   UNL     1      -8.314   6.038  70.952  1.00  0.00    -0.117 F  
HETATM    3  C   UNL     1     -10.585   5.996  71.602  1.00  0.00    -0.236 C  
HETATM    4  O   UNL     1     -10.805   4.747  72.252  1.00  0.00    -0.165 OA 
HETATM    5  C   UNL     1     -11.827   6.473  70.861  1.00  0.00    -0.331 C  
HETATM    6  O   UNL     1     -11.367   7.422  69.875  1.00  0.00    -0.195 OA 
HETATM    7  C   UNL     1      -9.977   7.119  69.591  1.00  0.00    -0.174 C  
HETATM    8  H   UNL     1     -11.438   4.783  72.960  1.00  0.00     0.000 HD 
ENDROOT
BRANCH   5   9
HETATM    9  C   UNL     1     -12.885   7.104  71.767  1.00  0.00    -0.330 C  
HETATM   10  O   UNL     1     -13.929   7.698  71.001  1.00  0.00    -0.638 OA 
HETATM   11  H   UNL     1     -14.587   8.090  71.564  1.00  0.00     0.000 HD 
ENDBRANCH   5   9
BRANCH   7  12
HETATM   12  N   UNL     1      -9.179   8.312  69.788  1.00  0.00    -0.154 NA 
HETATM   13  C   UNL     1      -8.368   8.611  70.850  1.00  0.00    -0.157 A  
HETATM   14  N   UNL     1      -7.745   9.760  70.689  1.00  0.00    -0.295 NA 
HETATM   15  C   UNL     1      -8.161  10.219  69.458  1.00  0.00    -0.155 A  
HETATM   16  C   UNL     1      -7.836  11.365  68.712  1.00  0.00    -0.128 A  
HETATM   17  N   UNL     1      -6.914  12.308  69.142  1.00  0.00    -0.233 NA 
HETATM   18  N   UNL     1      -8.450  11.563  67.526  1.00  0.00    -0.139 NA 
HETATM   19  H1  UNL     1      -6.677  13.140  68.601  1.00  0.00     0.000 HD 
HETATM   20  C   UNL     1      -9.320  10.620  67.107  1.00  0.00    -0.155 A  
HETATM   21  H2  UNL     1      -6.043  11.816  69.341  1.00  0.00     0.000 HD 
HETATM   22 CL   UNL     1     -10.063  10.931  65.596  1.00  0.00    -0.303 Cl 
HETATM   23  N   UNL     1      -9.705   9.477  67.714  1.00  0.00    -0.143 NA 
HETATM   24  C   UNL     1      -9.076   9.342  68.892  1.00  0.00    -0.140 A  
ENDBRANCH   7  12
TORSDOF 2
ENDMDL
MODEL      181
REMARK 921   NORMALIZED FREE ENERGY PREDICTED BY IDOCK:   -3.17 KCAL/MOL
REMARK 922        TOTAL FREE ENERGY PREDICTED BY IDOCK:   -4.05 KCAL/MOL
REMARK 923 INTER-LIGAND FREE ENERGY PREDICTED BY IDOCK:   -3.95 KCAL/MOL
REMARK 924 INTRA-LIGAND FREE ENERGY PREDICTED BY IDOCK:   -0.10 KCAL/MOL
REMARK 927      BINDING AFFINITY PREDICTED BY RF-SCORE:    0.00 PKD
ROOT
HETATM    1  C   UNL     1     -11.300   6.125  69.203  1.00  0.00    -0.232 C  
HETATM    2  F   UNL     1     -12.059   6.945  69.966  1.00  0.00    -0.309 F  
HETATM    3  C   UNL     1     -10.521   6.921  68.173  1.00  0.00    -0.204 C  
HETATM    4  O   UNL     1     -11.258   7.229  66.992  1.00  0.00    -0.534 OA 
HETATM    5  C   UNL     1      -9.364   5.973  67.884  1.00  0.00    -0.110 C  
HETATM    6  O   UNL     1      -9.026   5.356  69.144  1.00  0.00    -0.103 OA 
HETATM    7  C   UNL     1     -10.203   5.414  69.990  1.00  0.00    -0.279 C  
HETATM    8  H   UNL     1     -10.770   7.727  66.347  1.00  0.00     0.000 HD 
ENDROOT
BRANCH   5   9
HETATM    9  C   UNL     1      -8.142   6.655  67.270  1.00  0.00    -0.121 C  
HETATM   10  O   UNL     1      -8.317   8.068  67.210  1.00  0.00    -0.119 OA 
HETATM   11  H   UNL     1      -7.557   8.491  66.828  1.00  0.00     0.000 HD 
ENDBRANCH   5   9
BRANCH   7  12
HETATM   12  N   UNL     1      -9.859   6.053  71.245  1.00  0.00    -0.175 NA 
HETATM   13  C   UNL     1     -10.310   5.735  72.497  1.00  0.00    -0.198 A  
HETATM   14  N   UNL     1      -9.758   6.486  73.428  1.00  0.00    -0.160 NA 
HETATM   15  C   UNL     1      -8.896   7.318  72.746  1.00  0.00    -0.127 A  
HETATM   16  C   UNL     1      -8.004   8.316  73.173  1.00  0.00    -0.140 A  
HETATM   17  N   UNL     1      -7.812   8.636  74.509  1.00  0.00    -0.418 NA 
HETATM   18  N   UNL     1      -7.305   9.002  72.242  1.00  0.00    -0.328 NA 
HETATM   19  H1  UNL     1      -7.164   9.360  74.819  1.00  0.00     0.000 HD 
HETATM   20  C   UNL     1      -7.479   8.658  70.950  1.00  0.00    -0.083 A  
HETATM   21  H2  UNL     1      -7.562   7.774  74.996  1.00  0.00     0.000 HD 
HETATM   22 CL   UNL     1      -6.563   9.564  69.822  1.00  0.00    -0.048 Cl 
HETATM   23  N   UNL     1      -8.284   7.716  70.413  1.00  0.00    -0.120 NA 
HETATM   24  C   UNL     1      -8.964   7.081  71.381  1.00  0.00    -0.139 A  
ENDBRANCH   7  12
TORSDOF 2
ENDMDL
MODEL      182
REMARK 921   NORMALIZED FREE ENERGY PREDICTED BY IDOCK:   -3.17 KCAL/MOL
REMARK 922        TOTAL FREE ENERGY PREDICTED BY IDOCK:   -4.05 KCAL/MOL
REMARK 923 INTER-LIGAND FREE ENERGY PREDICTED BY IDOCK:   -3.67 KCAL/MOL
REMARK 924 INTRA-LIGAND FREE ENERGY PREDICTED BY IDOCK:   -0.38 KCAL/MOL
REMARK 927      BINDING AFFINITY PREDICTED BY RF-SCORE:    0.00 PKD
ROOT
HETATM    1  C   UNL     1     -10.154   4.343  66.034  1.00  0.00    -0.239 C  
HETATM    2  F   UNL     1     -11.314   4.998  65.799  1.00  0.00    -0.233 F  
HETATM    3  C   UNL     1      -9.124   4.678  64.971  1.00  0.00    -0.156 C  
HETATM    4  O   UNL     1      -9.243   3.906  63.779  1.00  0.00    -0.118 OA 
HETATM    5  C   UNL     1      -7.829   4.376  65.713  1.00  0.00    -0.094 C  
HETATM    6  O   UNL     1      -8.039   4.796  67.078  1.00  0.00    -0.105 OA 
HETATM    7  C   UNL     1      -9.468   4.777  67.327  1.00  0.00    -0.146 C  
HETATM    8  H   UNL     1      -8.597   4.116  63.114  1.00  0.00     0.000 HD 
ENDROOT
BRANCH   5   9
HETATM    9  C   UNL     1      -6.599   5.062  65.119  1.00  0.00    -0.040 C  
HETATM   10  O   UNL     1      -6.377   4.645  63.775  1.00  0.00    -0.025 OA 
HETATM   11  H   UNL     1      -5.612   5.071  63.405  1.00  0.00     0.000 HD 
ENDBRANCH   5   9
BRANCH   7  12
HETATM   12  N   UNL     1      -9.886   6.075  67.818  1.00  0.00    -0.114 NA 
HETATM   13  C   UNL     1      -9.920   7.258  67.131  1.00  0.00    -0.215 A  
HETATM   14  N   UNL     1     -10.399   8.242  67.863  1.00  0.00    -0.219 NA 
HETATM   15  C   UNL     1     -10.705   7.663  69.076  1.00  0.00    -0.119 A  
HETATM   16  C   UNL     1     -11.272   8.176  70.256  1.00  0.00    -0.182 A  
HETATM   17  N   UNL     1     -11.685   9.493  70.385  1.00  0.00    -0.406 NA 
HETATM   18  N   UNL     1     -11.417   7.351  71.316  1.00  0.00    -0.265 NA 
HETATM   19  H1  UNL     1     -12.097   9.865  71.241  1.00  0.00     0.000 HD 
HETATM   20  C   UNL     1     -11.040   6.065  71.165  1.00  0.00    -0.271 A  
HETATM   21  H2  UNL     1     -12.338   9.685  69.624  1.00  0.00     0.000 HD 
HETATM   22 CL   UNL     1     -11.251   5.074  72.545  1.00  0.00    -0.225 Cl 
HETATM   23  N   UNL     1     -10.503   5.449  70.090  1.00  0.00    -0.292 NA 
HETATM   24  C   UNL     1     -10.367   6.318  69.076  1.00  0.00    -0.206 A  
ENDBRANCH   7  12
TORSDOF 2
ENDMDL
MODEL      183
REMARK 921   NORMALIZED FREE ENERGY PREDICTED BY IDOCK:   -3.12 KCAL/MOL
REMARK 922        TOTAL FREE ENERGY PREDICTED BY IDOCK:   -4.00 KCAL/MOL
REMARK 923 INTER-LIGAND FREE ENERGY PREDICTED BY IDOCK:   -4.08 KCAL/MOL
REMARK 924 INTRA-LIGAND FREE ENERGY PREDICTED BY IDOCK:    0.08 KCAL/MOL
REMARK 927      BINDING AFFINITY PREDICTED BY RF-SCORE:    0.00 PKD
ROOT
HETATM    1  C   UNL     1      -7.343   7.928  66.809  1.00  0.00    -0.089 C  
HETATM    2  F   UNL     1      -6.670   8.795  67.601  1.00  0.00    -0.062 F  
HETATM    3  C   UNL     1      -8.036   6.867  67.643  1.00  0.00    -0.113 C  
HETATM    4  O   UNL     1      -7.197   5.776  68.014  1.00  0.00    -0.069 OA 
HETATM    5  C   UNL     1      -9.146   6.429  66.697  1.00  0.00    -0.146 C  
HETATM    6  O   UNL     1      -9.590   7.624  66.018  1.00  0.00    -0.070 OA 
HETATM    7  C   UNL     1      -8.497   8.577  66.050  1.00  0.00    -0.140 C  
HETATM    8  H   UNL     1      -7.632   5.111  68.536  1.00  0.00     0.000 HD 
ENDROOT
BRANCH   5   9
HETATM    9  C   UNL     1     -10.317   5.736  67.393  1.00  0.00    -0.225 C  
HETATM   10  O   UNL     1     -11.497   6.532  67.332  1.00  0.00    -0.740 OA 
HETATM   11  H   UNL     1     -12.224   6.100  67.765  1.00  0.00     0.000 HD 
ENDBRANCH   5   9
BRANCH   7  12
HETATM   12  N   UNL     1      -8.965   9.822  66.625  1.00  0.00    -0.141 NA 
HETATM   13  C   UNL     1      -8.795  11.088  66.134  1.00  0.00    -0.190 A  
HETATM   14  N   UNL     1      -9.392  11.994  66.881  1.00  0.00    -0.194 NA 
HETATM   15  C   UNL     1      -9.990  11.277  67.895  1.00  0.00    -0.175 A  
HETATM   16  C   UNL     1     -10.792  11.661  68.983  1.00  0.00    -0.203 A  
HETATM   17  N   UNL     1     -11.173  12.975  69.214  1.00  0.00    -0.398 NA 
HETATM   18  N   UNL     1     -11.209  10.712  69.849  1.00  0.00    -0.288 NA 
HETATM   19  H1  UNL     1     -11.756  13.254  70.003  1.00  0.00     0.000 HD 
HETATM   20  C   UNL     1     -10.857   9.435  69.594  1.00  0.00    -0.228 A  
HETATM   21  H2  UNL     1     -11.626  13.315  68.365  1.00  0.00     0.000 HD 
HETATM   22 CL   UNL     1     -11.416   8.281  70.728  1.00  0.00    -0.279 Cl 
HETATM   23  N   UNL     1     -10.111   8.935  68.584  1.00  0.00    -0.183 NA 
HETATM   24  C   UNL     1      -9.713   9.924  67.768  1.00  0.00    -0.150 A  
ENDBRANCH   7  12
TORSDOF 2
ENDMDL
MODEL      184
REMARK 921   NORMALIZED FREE ENERGY PREDICTED BY IDOCK:   -3.11 KCAL/MOL
REMARK 922        TOTAL FREE ENERGY PREDICTED BY IDOCK:   -3.98 KCAL/MOL
REMARK 923 INTER-LIGAND FREE ENERGY PREDICTED BY IDOCK:   -4.27 KCAL/MOL
REMARK 924 INTRA-LIGAND FREE ENERGY PREDICTED BY IDOCK:    0.29 KCAL/MOL
REMARK 927      BINDING AFFINITY PREDICTED BY RF-SCORE:    0.00 PKD
ROOT
HETATM    1  C   UNL     1     -10.528   4.990  70.309  1.00  0.00    -0.173 C  
HETATM    2  F   UNL     1      -9.483   4.637  69.527  1.00  0.00    -0.159 F  
HETATM    3  C   UNL     1     -10.042   5.578  71.620  1.00  0.00    -0.195 C  
HETATM    4  O   UNL     1      -9.715   4.607  72.610  1.00  0.00    -0.137 OA 
HETATM    5  C   UNL     1     -11.247   6.417  72.029  1.00  0.00    -0.281 C  
HETATM    6  O   UNL     1     -11.778   6.979  70.810  1.00  0.00    -0.319 OA 
HETATM    7  C   UNL     1     -11.370   6.118  69.717  1.00  0.00    -0.382 C  
HETATM    8  H   UNL     1      -9.411   4.976  73.432  1.00  0.00     0.000 HD 
ENDROOT
BRANCH   5   9
HETATM    9  C   UNL     1     -10.921   7.519  73.037  1.00  0.00    -0.390 C  
HETATM   10  O   UNL     1     -10.631   6.973  74.320  1.00  0.00    -0.517 OA 
HETATM   11  H   UNL     1     -10.429   7.659  74.947  1.00  0.00     0.000 HD 
ENDBRANCH   5   9
BRANCH   7  12
HETATM   12  N   UNL     1     -10.686   6.910  68.714  1.00  0.00    -0.224 NA 
HETATM   13  C   UNL     1     -11.010   7.049  67.392  1.00  0.00    -0.266 A  
HETATM   14  N   UNL     1     -10.206   7.886  66.769  1.00  0.00    -0.294 NA 
HETATM   15  C   UNL     1      -9.329   8.320  67.740  1.00  0.00    -0.138 A  
HETATM   16  C   UNL     1      -8.263   9.236  67.714  1.00  0.00    -0.115 A  
HETATM   17  N   UNL     1      -7.906   9.948  66.578  1.00  0.00    -0.109 NA 
HETATM   18  N   UNL     1      -7.548   9.430  68.843  1.00  0.00    -0.074 NA 
HETATM   19  H1  UNL     1      -7.133  10.613  66.559  1.00  0.00     0.000 HD 
HETATM   20  C   UNL     1      -7.927   8.755  69.947  1.00  0.00    -0.106 A  
HETATM   21  H2  UNL     1      -8.739  10.439  66.251  1.00  0.00     0.000 HD 
HETATM   22 CL   UNL     1      -6.980   9.046  71.344  1.00  0.00    -0.093 Cl 
HETATM   23  N   UNL     1      -8.932   7.868  70.109  1.00  0.00    -0.150 NA 
HETATM   24  C   UNL     1      -9.595   7.703  68.953  1.00  0.00    -0.150 A  
ENDBRANCH   7  12
TORSDOF 2
ENDMDL
MODEL      185
REMARK 921   NORMALIZED FREE ENERGY PREDICTED BY IDOCK:   -3.11 KCAL/MOL
REMARK 922        TOTAL FREE ENERGY PREDICTED BY IDOCK:   -3.98 KCAL/MOL
REMARK 923 INTER-LIGAND FREE ENERGY PREDICTED BY IDOCK:   -3.36 KCAL/MOL
REMARK 924 INTRA-LIGAND FREE ENERGY PREDICTED BY IDOCK:   -0.62 KCAL/MOL
REMARK 927      BINDING AFFINITY PREDICTED BY RF-SCORE:    0.00 PKD
ROOT
HETATM    1  C   UNL     1      -9.015   6.513  66.515  1.00  0.00    -0.143 C  
HETATM    2  F   UNL     1      -8.518   7.133  67.609  1.00  0.00    -0.117 F  
HETATM    3  C   UNL     1      -7.906   5.838  65.730  1.00  0.00    -0.102 C  
HETATM    4  O   UNL     1      -7.208   6.707  64.840  1.00  0.00    -0.067 OA 
HETATM    5  C   UNL     1      -8.687   4.769  64.978  1.00  0.00    -0.147 C  
HETATM    6  O   UNL     1      -9.704   4.299  65.888  1.00  0.00    -0.175 OA 
HETATM    7  C   UNL     1      -9.951   5.356  66.852  1.00  0.00    -0.184 C  
HETATM    8  H   UNL     1      -6.514   6.284  64.349  1.00  0.00     0.000 HD 
ENDROOT
BRANCH   5   9
HETATM    9  C   UNL     1      -7.827   3.607  64.481  1.00  0.00    -0.085 C  
HETATM   10  O   UNL     1      -6.731   4.076  63.701  1.00  0.00    -0.040 OA 
HETATM   11  H   UNL     1      -6.196   3.353  63.392  1.00  0.00     0.000 HD 
ENDBRANCH   5   9
BRANCH   7  12
HETATM   12  N   UNL     1      -9.790   4.828  68.192  1.00  0.00    -0.142 NA 
HETATM   13  C   UNL     1      -9.018   3.769  68.587  1.00  0.00    -0.124 A  
HETATM   14  N   UNL     1      -9.060   3.584  69.891  1.00  0.00    -0.109 NA 
HETATM   15  C   UNL     1      -9.887   4.581  70.362  1.00  0.00    -0.232 A  
HETATM   16  C   UNL     1     -10.302   4.936  71.657  1.00  0.00    -0.170 A  
HETATM   17  N   UNL     1      -9.870   4.275  72.797  1.00  0.00    -0.138 NA 
HETATM   18  N   UNL     1     -11.166   5.965  71.801  1.00  0.00    -0.269 NA 
HETATM   19  H1  UNL     1     -10.171   4.532  73.737  1.00  0.00     0.000 HD 
HETATM   20  C   UNL     1     -11.553   6.618  70.686  1.00  0.00    -0.382 A  
HETATM   21  H2  UNL     1      -8.849   4.288  72.789  1.00  0.00     0.000 HD 
HETATM   22 CL   UNL     1     -12.647   7.911  70.938  1.00  0.00    -0.091 Cl 
HETATM   23  N   UNL     1     -11.217   6.391  69.398  1.00  0.00    -0.388 NA 
HETATM   24  C   UNL     1     -10.373   5.351  69.315  1.00  0.00    -0.251 A  
ENDBRANCH   7  12
TORSDOF 2
ENDMDL
MODEL      186
REMARK 921   NORMALIZED FREE ENERGY PREDICTED BY IDOCK:   -3.06 KCAL/MOL
REMARK 922        TOTAL FREE ENERGY PREDICTED BY IDOCK:   -3.93 KCAL/MOL
REMARK 923 INTER-LIGAND FREE ENERGY PREDICTED BY IDOCK:   -3.68 KCAL/MOL
REMARK 924 INTRA-LIGAND FREE ENERGY PREDICTED BY IDOCK:   -0.25 KCAL/MOL
REMARK 927      BINDING AFFINITY PREDICTED BY RF-SCORE:    0.00 PKD
ROOT
HETATM    1  C   UNL     1     -10.356   6.695  73.245  1.00  0.00    -0.253 C  
HETATM    2  F   UNL     1     -11.307   7.654  73.176  1.00  0.00    -0.406 F  
HETATM    3  C   UNL     1     -10.938   5.337  72.895  1.00  0.00    -0.287 C  
HETATM    4  O   UNL     1     -11.585   4.681  73.983  1.00  0.00    -0.235 OA 
HETATM    5  C   UNL     1      -9.688   4.589  72.449  1.00  0.00    -0.159 C  
HETATM    6  O   UNL     1      -8.876   5.549  71.739  1.00  0.00    -0.134 OA 
HETATM    7  C   UNL     1      -9.247   6.870  72.212  1.00  0.00    -0.134 C  
HETATM    8  H   UNL     1     -11.949   3.831  73.763  1.00  0.00     0.000 HD 
ENDROOT
BRANCH   5   9
HETATM    9  C   UNL     1      -9.974   3.370  71.574  1.00  0.00    -0.091 C  
HETATM   10  O   UNL     1     -10.266   2.224  72.368  1.00  0.00    -0.149 OA 
HETATM   11  H   UNL     1     -10.444   1.465  71.823  1.00  0.00     0.000 HD 
ENDBRANCH   5   9
BRANCH   7  12
HETATM   12  N   UNL     1      -9.611   7.698  71.080  1.00  0.00    -0.163 NA 
HETATM   13  C   UNL     1     -10.748   7.627  70.321  1.00  0.00    -0.239 A  
HETATM   14  N   UNL     1     -10.786   8.563  69.396  1.00  0.00    -0.198 NA 
HETATM   15  C   UNL     1      -9.625   9.284  69.575  1.00  0.00    -0.173 A  
HETATM   16  C   UNL     1      -9.102  10.416  68.927  1.00  0.00    -0.173 A  
HETATM   17  N   UNL     1      -9.767  11.077  67.905  1.00  0.00    -0.169 NA 
HETATM   18  N   UNL     1      -7.893  10.882  69.311  1.00  0.00    -0.127 NA 
HETATM   19  H1  UNL     1      -9.388  11.899  67.435  1.00  0.00     0.000 HD 
HETATM   20  C   UNL     1      -7.273  10.249  70.328  1.00  0.00    -0.065 A  
HETATM   21  H2  UNL     1     -10.694  11.325  68.254  1.00  0.00     0.000 HD 
HETATM   22 CL   UNL     1      -5.747  10.889  70.765  1.00  0.00    -0.117 Cl 
HETATM   23  N   UNL     1      -7.671   9.171  71.039  1.00  0.00    -0.222 NA 
HETATM   24  C   UNL     1      -8.866   8.744  70.603  1.00  0.00    -0.182 A  
ENDBRANCH   7  12
TORSDOF 2
ENDMDL
MODEL      187
REMARK 921   NORMALIZED FREE ENERGY PREDICTED BY IDOCK:   -3.04 KCAL/MOL
REMARK 922        TOTAL FREE ENERGY PREDICTED BY IDOCK:   -3.90 KCAL/MOL
REMARK 923 INTER-LIGAND FREE ENERGY PREDICTED BY IDOCK:   -4.05 KCAL/MOL
REMARK 924 INTRA-LIGAND FREE ENERGY PREDICTED BY IDOCK:    0.15 KCAL/MOL
REMARK 927      BINDING AFFINITY PREDICTED BY RF-SCORE:    0.00 PKD
ROOT
HETATM    1  C   UNL     1     -10.687  10.075  69.300  1.00  0.00    -0.224 C  
HETATM    2  F   UNL     1     -10.845   9.695  68.012  1.00  0.00    -0.266 F  
HETATM    3  C   UNL     1     -11.594   9.269  70.212  1.00  0.00    -0.114 C  
HETATM    4  O   UNL     1     -12.927   9.767  70.297  1.00  0.00    -0.509 OA 
HETATM    5  C   UNL     1     -10.859   9.393  71.540  1.00  0.00    -0.328 C  
HETATM    6  O   UNL     1      -9.451   9.347  71.227  1.00  0.00    -0.224 OA 
HETATM    7  C   UNL     1      -9.295   9.777  69.850  1.00  0.00    -0.231 C  
HETATM    8  H   UNL     1     -13.495   9.262  70.868  1.00  0.00     0.000 HD 
ENDROOT
BRANCH   5   9
HETATM    9  C   UNL     1     -11.224   8.309  72.554  1.00  0.00    -0.376 C  
HETATM   10  O   UNL     1     -12.607   7.977  72.476  1.00  0.00    -0.547 OA 
HETATM   11  H   UNL     1     -12.833   7.302  73.107  1.00  0.00     0.000 HD 
ENDBRANCH   5   9
BRANCH   7  12
HETATM   12  N   UNL     1      -8.566   8.764  69.113  1.00  0.00    -0.126 NA 
HETATM   13  C   UNL     1      -7.609   8.953  68.152  1.00  0.00    -0.093 A  
HETATM   14  N   UNL     1      -7.112   7.813  67.718  1.00  0.00    -0.080 NA 
HETATM   15  C   UNL     1      -7.767   6.842  68.444  1.00  0.00    -0.116 A  
HETATM   16  C   UNL     1      -7.662   5.441  68.465  1.00  0.00    -0.084 A  
HETATM   17  N   UNL     1      -6.753   4.740  67.686  1.00  0.00    -0.050 NA 
HETATM   18  N   UNL     1      -8.485   4.741  69.277  1.00  0.00    -0.080 NA 
HETATM   19  H1  UNL     1      -6.677   3.723  67.701  1.00  0.00     0.000 HD 
HETATM   20  C   UNL     1      -9.340   5.439  70.052  1.00  0.00    -0.148 A  
HETATM   21  H2  UNL     1      -5.826   5.119  67.881  1.00  0.00     0.000 HD 
HETATM   22 CL   UNL     1     -10.354   4.493  71.057  1.00  0.00    -0.159 Cl 
HETATM   23  N   UNL     1      -9.528   6.774  70.138  1.00  0.00    -0.159 NA 
HETATM   24  C   UNL     1      -8.697   7.414  69.300  1.00  0.00    -0.137 A  
ENDBRANCH   7  12
TORSDOF 2
ENDMDL
MODEL      188
REMARK 921   NORMALIZED FREE ENERGY PREDICTED BY IDOCK:   -3.03 KCAL/MOL
REMARK 922        TOTAL FREE ENERGY PREDICTED BY IDOCK:   -3.89 KCAL/MOL
REMARK 923 INTER-LIGAND FREE ENERGY PREDICTED BY IDOCK:   -3.48 KCAL/MOL
REMARK 924 INTRA-LIGAND FREE ENERGY PREDICTED BY IDOCK:   -0.41 KCAL/MOL
REMARK 927      BINDING AFFINITY PREDICTED BY RF-SCORE:    0.00 PKD
ROOT
HETATM    1  C   UNL     1     -10.099   9.900  66.176  1.00  0.00    -0.245 C  
HETATM    2  F   UNL     1     -10.953   8.948  66.616  1.00  0.00    -0.206 F  
HETATM    3  C   UNL     1     -10.565  11.279  66.606  1.00  0.00    -0.262 C  
HETATM    4  O   UNL     1     -11.546  11.857  65.749  1.00  0.00    -0.327 OA 
HETATM    5  C   UNL     1      -9.255  12.056  66.569  1.00  0.00    -0.216 C  
HETATM    6  O   UNL     1      -8.235  11.148  67.037  1.00  0.00    -0.135 OA 
HETATM    7  C   UNL     1      -8.709   9.797  66.800  1.00  0.00    -0.131 C  
HETATM    8  H   UNL     1     -11.838  12.720  66.019  1.00  0.00     0.000 HD 
ENDROOT
BRANCH   5   9
HETATM    9  C   UNL     1      -9.268  13.334  67.407  1.00  0.00    -0.216 C  
HETATM   10  O   UNL     1      -8.763  14.440  66.666  1.00  0.00    -0.395 OA 
HETATM   11  H   UNL     1      -8.771  15.235  67.188  1.00  0.00     0.000 HD 
ENDBRANCH   5   9
BRANCH   7  12
HETATM   12  N   UNL     1      -8.665   9.051  68.041  1.00  0.00    -0.129 NA 
HETATM   13  C   UNL     1      -8.745   9.541  69.316  1.00  0.00    -0.151 A  
HETATM   14  N   UNL     1      -8.722   8.581  70.218  1.00  0.00    -0.137 NA 
HETATM   15  C   UNL     1      -8.639   7.414  69.490  1.00  0.00    -0.134 A  
HETATM   16  C   UNL     1      -8.609   6.061  69.868  1.00  0.00    -0.131 A  
HETATM   17  N   UNL     1      -8.696   5.643  71.187  1.00  0.00    -0.133 NA 
HETATM   18  N   UNL     1      -8.484   5.122  68.904  1.00  0.00    -0.091 NA 
HETATM   19  H1  UNL     1      -8.675   4.660  71.462  1.00  0.00     0.000 HD 
HETATM   20  C   UNL     1      -8.432   5.542  67.624  1.00  0.00    -0.102 A  
HETATM   21  H2  UNL     1      -9.544   6.051  71.582  1.00  0.00     0.000 HD 
HETATM   22 CL   UNL     1      -8.274   4.303  66.453  1.00  0.00    -0.102 Cl 
HETATM   23  N   UNL     1      -8.468   6.799  67.131  1.00  0.00    -0.120 NA 
HETATM   24  C   UNL     1      -8.576   7.687  68.132  1.00  0.00    -0.123 A  
ENDBRANCH   7  12
TORSDOF 2
ENDMDL
MODEL      189
REMARK 921   NORMALIZED FREE ENERGY PREDICTED BY IDOCK:   -3.00 KCAL/MOL
REMARK 922        TOTAL FREE ENERGY PREDICTED BY IDOCK:   -3.86 KCAL/MOL
REMARK 923 INTER-LIGAND FREE ENERGY PREDICTED BY IDOCK:   -3.81 KCAL/MOL
REMARK 924 INTRA-LIGAND FREE ENERGY PREDICTED BY IDOCK:   -0.05 KCAL/MOL
REMARK 927      BINDING AFFINITY PREDICTED BY RF-SCORE:    0.00 PKD
ROOT
HETATM    1  C   UNL     1      -9.870  10.300  69.700  1.00  0.00    -0.198 C  
HETATM    2  F   UNL     1      -9.060   9.545  70.477  1.00  0.00    -0.238 F  
HETATM    3  C   UNL     1      -9.100  10.881  68.529  1.00  0.00    -0.173 C  
HETATM    4  O   UNL     1      -8.388  12.078  68.835  1.00  0.00    -0.355 OA 
HETATM    5  C   UNL     1     -10.225  11.133  67.534  1.00  0.00    -0.186 C  
HETATM    6  O   UNL     1     -11.148  10.034  67.684  1.00  0.00    -0.285 OA 
HETATM    7  C   UNL     1     -10.973   9.494  69.019  1.00  0.00    -0.100 C  
HETATM    8  H   UNL     1      -7.906  12.442  68.101  1.00  0.00     0.000 HD 
ENDROOT
BRANCH   5   9
HETATM    9  C   UNL     1      -9.756  11.253  66.085  1.00  0.00    -0.220 C  
HETATM   10  O   UNL     1      -8.442  10.727  65.924  1.00  0.00    -0.160 OA 
HETATM   11  H   UNL     1      -8.150  10.802  65.022  1.00  0.00     0.000 HD 
ENDBRANCH   5   9
BRANCH   7  12
HETATM   12  N   UNL     1     -10.707   8.073  68.929  1.00  0.00    -0.128 NA 
HETATM   13  C   UNL     1     -11.121   7.087  69.784  1.00  0.00    -0.241 A  
HETATM   14  N   UNL     1     -10.744   5.891  69.381  1.00  0.00    -0.306 NA 
HETATM   15  C   UNL     1     -10.066   6.113  68.202  1.00  0.00    -0.157 A  
HETATM   16  C   UNL     1      -9.452   5.245  67.283  1.00  0.00    -0.127 A  
HETATM   17  N   UNL     1      -9.459   3.866  67.426  1.00  0.00    -0.192 NA 
HETATM   18  N   UNL     1      -8.820   5.776  66.213  1.00  0.00    -0.135 NA 
HETATM   19  H1  UNL     1      -9.014   3.235  66.759  1.00  0.00     0.000 HD 
HETATM   20  C   UNL     1      -8.848   7.117  66.071  1.00  0.00    -0.131 A  
HETATM   21  H2  UNL     1     -10.433   3.573  67.519  1.00  0.00     0.000 HD 
HETATM   22 CL   UNL     1      -8.030   7.724  64.695  1.00  0.00    -0.136 Cl 
HETATM   23  N   UNL     1      -9.412   8.052  66.865  1.00  0.00    -0.177 NA 
HETATM   24  C   UNL     1     -10.009   7.470  67.917  1.00  0.00    -0.165 A  
ENDBRANCH   7  12
TORSDOF 2
ENDMDL
MODEL      190
REMARK 921   NORMALIZED FREE ENERGY PREDICTED BY IDOCK:   -3.00 KCAL/MOL
REMARK 922        TOTAL FREE ENERGY PREDICTED BY IDOCK:   -3.85 KCAL/MOL
REMARK 923 INTER-LIGAND FREE ENERGY PREDICTED BY IDOCK:   -3.93 KCAL/MOL
REMARK 924 INTRA-LIGAND FREE ENERGY PREDICTED BY IDOCK:    0.08 KCAL/MOL
REMARK 927      BINDING AFFINITY PREDICTED BY RF-SCORE:    0.00 PKD
ROOT
HETATM    1  C   UNL     1     -12.208  10.953  69.975  1.00  0.00    -0.347 C  
HETATM    2  F   UNL     1     -12.273  10.861  71.323  1.00  0.00    -0.418 F  
HETATM    3  C   UNL     1     -11.523  12.242  69.559  1.00  0.00    -0.249 C  
HETATM    4  O   UNL     1     -12.385  13.378  69.529  1.00  0.00    -0.238 OA 
HETATM    5  C   UNL     1     -11.027  11.874  68.166  1.00  0.00    -0.227 C  
HETATM    6  O   UNL     1     -10.613  10.493  68.239  1.00  0.00    -0.181 OA 
HETATM    7  C   UNL     1     -11.332   9.878  69.339  1.00  0.00    -0.095 C  
HETATM    8  H   UNL     1     -11.956  14.184  69.269  1.00  0.00     0.000 HD 
ENDROOT
BRANCH   5   9
HETATM    9  C   UNL     1      -9.886  12.756  67.662  1.00  0.00    -0.214 C  
HETATM   10  O   UNL     1      -9.038  13.162  68.732  1.00  0.00    -0.386 OA 
HETATM   11  H   UNL     1      -8.328  13.711  68.418  1.00  0.00     0.000 HD 
ENDBRANCH   5   9
BRANCH   7  12
HETATM   12  N   UNL     1     -10.382   9.266  70.247  1.00  0.00    -0.211 NA 
HETATM   13  C   UNL     1     -10.627   8.311  71.196  1.00  0.00    -0.214 A  
HETATM   14  N   UNL     1      -9.528   7.937  71.819  1.00  0.00    -0.151 NA 
HETATM   15  C   UNL     1      -8.523   8.675  71.233  1.00  0.00    -0.179 A  
HETATM   16  C   UNL     1      -7.132   8.710  71.433  1.00  0.00    -0.088 A  
HETATM   17  N   UNL     1      -6.479   7.890  72.341  1.00  0.00    -0.058 NA 
HETATM   18  N   UNL     1      -6.396   9.586  70.715  1.00  0.00    -0.082 NA 
HETATM   19  H1  UNL     1      -5.469   7.915  72.486  1.00  0.00     0.000 HD 
HETATM   20  C   UNL     1      -7.041  10.354  69.814  1.00  0.00    -0.148 A  
HETATM   21  H2  UNL     1      -6.731   6.926  72.118  1.00  0.00     0.000 HD 
HETATM   22 CL   UNL     1      -6.051  11.441  68.937  1.00  0.00    -0.048 Cl 
HETATM   23  N   UNL     1      -8.357  10.406  69.515  1.00  0.00    -0.147 NA 
HETATM   24  C   UNL     1      -9.039   9.529  70.269  1.00  0.00    -0.253 A  
ENDBRANCH   7  12
TORSDOF 2
ENDMDL
MODEL      191
REMARK 921   NORMALIZED FREE ENERGY PREDICTED BY IDOCK:   -2.98 KCAL/MOL
REMARK 922        TOTAL FREE ENERGY PREDICTED BY IDOCK:   -3.84 KCAL/MOL
REMARK 923 INTER-LIGAND FREE ENERGY PREDICTED BY IDOCK:   -3.22 KCAL/MOL
REMARK 924 INTRA-LIGAND FREE ENERGY PREDICTED BY IDOCK:   -0.62 KCAL/MOL
REMARK 927      BINDING AFFINITY PREDICTED BY RF-SCORE:    0.00 PKD
ROOT
HETATM    1  C   UNL     1      -6.846   6.749  69.089  1.00  0.00    -0.065 C  
HETATM    2  F   UNL     1      -7.080   7.413  67.934  1.00  0.00    -0.073 F  
HETATM    3  C   UNL     1      -7.349   7.548  70.278  1.00  0.00    -0.076 C  
HETATM    4  O   UNL     1      -6.437   8.541  70.741  1.00  0.00    -0.036 OA 
HETATM    5  C   UNL     1      -7.552   6.444  71.308  1.00  0.00    -0.094 C  
HETATM    6  O   UNL     1      -8.051   5.302  70.580  1.00  0.00    -0.103 OA 
HETATM    7  C   UNL     1      -7.625   5.441  69.201  1.00  0.00    -0.085 C  
HETATM    8  H   UNL     1      -6.752   9.041  71.485  1.00  0.00     0.000 HD 
ENDROOT
BRANCH   5   9
HETATM    9  C   UNL     1      -8.503   6.823  72.442  1.00  0.00    -0.119 C  
HETATM   10  O   UNL     1      -8.601   8.237  72.582  1.00  0.00    -0.176 OA 
HETATM   11  H   UNL     1      -9.193   8.472  73.287  1.00  0.00     0.000 HD 
ENDBRANCH   5   9
BRANCH   7  12
HETATM   12  N   UNL     1      -8.782   5.359  68.332  1.00  0.00    -0.099 NA 
HETATM   13  C   UNL     1      -9.993   5.976  68.491  1.00  0.00    -0.142 A  
HETATM   14  N   UNL     1     -10.812   5.726  67.490  1.00  0.00    -0.240 NA 
HETATM   15  C   UNL     1     -10.089   4.923  66.635  1.00  0.00    -0.249 A  
HETATM   16  C   UNL     1     -10.392   4.350  65.388  1.00  0.00    -0.216 A  
HETATM   17  N   UNL     1     -11.599   4.554  64.736  1.00  0.00    -0.946 NA 
HETATM   18  N   UNL     1      -9.469   3.560  64.796  1.00  0.00    -0.150 NA 
HETATM   19  H1  UNL     1     -11.819   4.139  63.831  1.00  0.00     0.000 HD 
HETATM   20  C   UNL     1      -8.288   3.397  65.426  1.00  0.00    -0.098 A  
HETATM   21  H2  UNL     1     -11.734   5.562  64.650  1.00  0.00     0.000 HD 
HETATM   22 CL   UNL     1      -7.164   2.386  64.623  1.00  0.00    -0.053 Cl 
HETATM   23  N   UNL     1      -7.869   3.900  66.608  1.00  0.00    -0.088 NA 
HETATM   24  C   UNL     1      -8.830   4.661  67.155  1.00  0.00    -0.108 A  
ENDBRANCH   7  12
TORSDOF 2
ENDMDL
MODEL      192
REMARK 921   NORMALIZED FREE ENERGY PREDICTED BY IDOCK:   -2.97 KCAL/MOL
REMARK 922        TOTAL FREE ENERGY PREDICTED BY IDOCK:   -3.83 KCAL/MOL
REMARK 923 INTER-LIGAND FREE ENERGY PREDICTED BY IDOCK:   -3.78 KCAL/MOL
REMARK 924 INTRA-LIGAND FREE ENERGY PREDICTED BY IDOCK:   -0.05 KCAL/MOL
REMARK 927      BINDING AFFINITY PREDICTED BY RF-SCORE:    0.00 PKD
ROOT
HETATM    1  C   UNL     1     -11.849   7.911  71.064  1.00  0.00    -0.268 C  
HETATM    2  F   UNL     1     -11.481   8.468  72.239  1.00  0.00    -0.368 F  
HETATM    3  C   UNL     1     -10.891   8.311  69.957  1.00  0.00    -0.232 C  
HETATM    4  O   UNL     1     -11.175   9.579  69.369  1.00  0.00    -0.404 OA 
HETATM    5  C   UNL     1     -11.094   7.172  68.966  1.00  0.00    -0.015 C  
HETATM    6  O   UNL     1     -11.274   5.978  69.758  1.00  0.00    -0.394 OA 
HETATM    7  C   UNL     1     -11.755   6.387  71.064  1.00  0.00    -0.296 C  
HETATM    8  H   UNL     1     -10.576   9.829  68.676  1.00  0.00     0.000 HD 
ENDROOT
BRANCH   5   9
HETATM    9  C   UNL     1      -9.943   6.998  67.977  1.00  0.00    -0.154 C  
HETATM   10  O   UNL     1      -8.919   7.963  68.204  1.00  0.00    -0.132 OA 
HETATM   11  H   UNL     1      -8.203   7.854  67.588  1.00  0.00     0.000 HD 
ENDBRANCH   5   9
BRANCH   7  12
HETATM   12  N   UNL     1     -10.885   5.842  72.086  1.00  0.00    -0.230 NA 
HETATM   13  C   UNL     1     -11.247   5.188  73.233  1.00  0.00    -0.321 A  
HETATM   14  N   UNL     1     -10.201   4.779  73.921  1.00  0.00    -0.185 NA 
HETATM   15  C   UNL     1      -9.111   5.174  73.176  1.00  0.00    -0.127 A  
HETATM   16  C   UNL     1      -7.727   5.009  73.357  1.00  0.00    -0.096 A  
HETATM   17  N   UNL     1      -7.183   4.316  74.429  1.00  0.00    -0.070 NA 
HETATM   18  N   UNL     1      -6.885   5.553  72.452  1.00  0.00    -0.074 NA 
HETATM   19  H1  UNL     1      -6.179   4.195  74.561  1.00  0.00     0.000 HD 
HETATM   20  C   UNL     1      -7.430   6.197  71.399  1.00  0.00    -0.093 A  
HETATM   21  H2  UNL     1      -7.606   3.386  74.437  1.00  0.00     0.000 HD 
HETATM   22 CL   UNL     1      -6.308   6.863  70.289  1.00  0.00    -0.038 Cl 
HETATM   23  N   UNL     1      -8.730   6.409  71.101  1.00  0.00    -0.134 NA 
HETATM   24  C   UNL     1      -9.516   5.862  72.041  1.00  0.00    -0.150 A  
ENDBRANCH   7  12
TORSDOF 2
ENDMDL
MODEL      193
REMARK 921   NORMALIZED FREE ENERGY PREDICTED BY IDOCK:   -2.96 KCAL/MOL
REMARK 922        TOTAL FREE ENERGY PREDICTED BY IDOCK:   -3.82 KCAL/MOL
REMARK 923 INTER-LIGAND FREE ENERGY PREDICTED BY IDOCK:   -4.03 KCAL/MOL
REMARK 924 INTRA-LIGAND FREE ENERGY PREDICTED BY IDOCK:    0.21 KCAL/MOL
REMARK 927      BINDING AFFINITY PREDICTED BY RF-SCORE:    0.00 PKD
ROOT
HETATM    1  C   UNL     1      -8.073   6.340  67.496  1.00  0.00    -0.113 C  
HETATM    2  F   UNL     1      -8.892   5.268  67.592  1.00  0.00    -0.108 F  
HETATM    3  C   UNL     1      -8.638   7.363  66.529  1.00  0.00    -0.132 C  
HETATM    4  O   UNL     1      -8.343   7.097  65.160  1.00  0.00    -0.205 OA 
HETATM    5  C   UNL     1      -7.957   8.635  67.016  1.00  0.00    -0.096 C  
HETATM    6  O   UNL     1      -7.901   8.535  68.455  1.00  0.00    -0.105 OA 
HETATM    7  C   UNL     1      -7.955   7.127  68.799  1.00  0.00    -0.123 C  
HETATM    8  H   UNL     1      -8.698   7.738  64.554  1.00  0.00     0.000 HD 
ENDROOT
BRANCH   5   9
HETATM    9  C   UNL     1      -8.666   9.920  66.590  1.00  0.00    -0.128 C  
HETATM   10  O   UNL     1      -9.684   9.652  65.630  1.00  0.00    -0.261 OA 
HETATM   11  H   UNL     1     -10.124  10.451  65.365  1.00  0.00     0.000 HD 
ENDBRANCH   5   9
BRANCH   7  12
HETATM   12  N   UNL     1      -9.041   6.903  69.732  1.00  0.00    -0.144 NA 
HETATM   13  C   UNL     1      -9.255   5.806  70.520  1.00  0.00    -0.147 A  
HETATM   14  N   UNL     1     -10.314   5.948  71.291  1.00  0.00    -0.213 NA 
HETATM   15  C   UNL     1     -10.797   7.205  70.998  1.00  0.00    -0.240 A  
HETATM   16  C   UNL     1     -11.879   7.947  71.503  1.00  0.00    -0.289 A  
HETATM   17  N   UNL     1     -12.707   7.482  72.514  1.00  0.00    -0.493 NA 
HETATM   18  N   UNL     1     -12.131   9.166  70.978  1.00  0.00    -0.285 NA 
HETATM   19  H1  UNL     1     -13.492   8.021  72.881  1.00  0.00     0.000 HD 
HETATM   20  C   UNL     1     -11.298   9.617  70.017  1.00  0.00    -0.195 A  
HETATM   21  H2  UNL     1     -12.112   7.232  73.305  1.00  0.00     0.000 HD 
HETATM   22 CL   UNL     1     -11.672  11.167  69.395  1.00  0.00    -0.365 Cl 
HETATM   23  N   UNL     1     -10.224   9.016  69.461  1.00  0.00    -0.197 NA 
HETATM   24  C   UNL     1     -10.033   7.806  70.009  1.00  0.00    -0.187 A  
ENDBRANCH   7  12
TORSDOF 2
ENDMDL
MODEL      194
REMARK 921   NORMALIZED FREE ENERGY PREDICTED BY IDOCK:   -2.94 KCAL/MOL
REMARK 922        TOTAL FREE ENERGY PREDICTED BY IDOCK:   -3.79 KCAL/MOL
REMARK 923 INTER-LIGAND FREE ENERGY PREDICTED BY IDOCK:   -3.36 KCAL/MOL
REMARK 924 INTRA-LIGAND FREE ENERGY PREDICTED BY IDOCK:   -0.43 KCAL/MOL
REMARK 927      BINDING AFFINITY PREDICTED BY RF-SCORE:    0.00 PKD
ROOT
HETATM    1  C   UNL     1     -10.288   9.612  67.894  1.00  0.00    -0.224 C  
HETATM    2  F   UNL     1     -10.979   8.960  66.932  1.00  0.00    -0.282 F  
HETATM    3  C   UNL     1     -10.853   9.300  69.267  1.00  0.00    -0.152 C  
HETATM    4  O   UNL     1     -11.980  10.094  69.629  1.00  0.00    -0.465 OA 
HETATM    5  C   UNL     1      -9.649   9.591  70.153  1.00  0.00    -0.248 C  
HETATM    6  O   UNL     1      -8.490   9.144  69.417  1.00  0.00    -0.120 OA 
HETATM    7  C   UNL     1      -8.836   9.156  68.008  1.00  0.00    -0.129 C  
HETATM    8  H   UNL     1     -12.334   9.898  70.489  1.00  0.00     0.000 HD 
ENDROOT
BRANCH   5   9
HETATM    9  C   UNL     1      -9.712   8.919  71.524  1.00  0.00    -0.302 C  
HETATM   10  O   UNL     1      -8.472   8.297  71.849  1.00  0.00    -0.132 OA 
HETATM   11  H   UNL     1      -8.511   7.879  72.702  1.00  0.00     0.000 HD 
ENDBRANCH   5   9
BRANCH   7  12
HETATM   12  N   UNL     1      -8.575   7.847  67.441  1.00  0.00    -0.125 NA 
HETATM   13  C   UNL     1      -8.572   6.641  68.087  1.00  0.00    -0.115 A  
HETATM   14  N   UNL     1      -8.345   5.638  67.263  1.00  0.00    -0.101 NA 
HETATM   15  C   UNL     1      -8.210   6.224  66.023  1.00  0.00    -0.125 A  
HETATM   16  C   UNL     1      -7.988   5.692  64.741  1.00  0.00    -0.119 A  
HETATM   17  N   UNL     1      -7.886   4.330  64.496  1.00  0.00    -0.084 NA 
HETATM   18  N   UNL     1      -7.863   6.542  63.699  1.00  0.00    -0.114 NA 
HETATM   19  H1  UNL     1      -7.725   3.944  63.566  1.00  0.00     0.000 HD 
HETATM   20  C   UNL     1      -7.996   7.861  63.948  1.00  0.00    -0.121 A  
HETATM   21  H2  UNL     1      -8.727   3.889  64.869  1.00  0.00     0.000 HD 
HETATM   22 CL   UNL     1      -7.827   8.883  62.585  1.00  0.00    -0.125 Cl 
HETATM   23  N   UNL     1      -8.226   8.495  65.118  1.00  0.00    -0.144 NA 
HETATM   24  C   UNL     1      -8.325   7.603  66.117  1.00  0.00    -0.134 A  
ENDBRANCH   7  12
TORSDOF 2
ENDMDL
MODEL      195
REMARK 921   NORMALIZED FREE ENERGY PREDICTED BY IDOCK:   -2.94 KCAL/MOL
REMARK 922        TOTAL FREE ENERGY PREDICTED BY IDOCK:   -3.79 KCAL/MOL
REMARK 923 INTER-LIGAND FREE ENERGY PREDICTED BY IDOCK:   -3.85 KCAL/MOL
REMARK 924 INTRA-LIGAND FREE ENERGY PREDICTED BY IDOCK:    0.06 KCAL/MOL
REMARK 927      BINDING AFFINITY PREDICTED BY RF-SCORE:    0.00 PKD
ROOT
HETATM    1  C   UNL     1      -8.505   8.757  66.345  1.00  0.00    -0.121 C  
HETATM    2  F   UNL     1      -7.160   8.790  66.478  1.00  0.00    -0.075 F  
HETATM    3  C   UNL     1      -9.008   7.325  66.336  1.00  0.00    -0.158 C  
HETATM    4  O   UNL     1      -8.932   6.687  65.063  1.00  0.00    -0.350 OA 
HETATM    5  C   UNL     1     -10.451   7.518  66.784  1.00  0.00    -0.249 C  
HETATM    6  O   UNL     1     -10.427   8.570  67.773  1.00  0.00    -0.237 OA 
HETATM    7  C   UNL     1      -9.244   9.373  67.530  1.00  0.00    -0.123 C  
HETATM    8  H   UNL     1      -9.247   5.791  65.058  1.00  0.00     0.000 HD 
ENDROOT
BRANCH   5   9
HETATM    9  C   UNL     1     -11.098   6.256  67.352  1.00  0.00    -0.287 C  
HETATM   10  O   UNL     1     -11.571   6.472  68.679  1.00  0.00    -0.560 OA 
HETATM   11  H   UNL     1     -11.973   5.686  69.031  1.00  0.00     0.000 HD 
ENDBRANCH   5   9
BRANCH   7  12
HETATM   12  N   UNL     1      -8.460   9.451  68.746  1.00  0.00    -0.120 NA 
HETATM   13  C   UNL     1      -7.700  10.500  69.187  1.00  0.00    -0.131 A  
HETATM   14  N   UNL     1      -7.155  10.258  70.361  1.00  0.00    -0.290 NA 
HETATM   15  C   UNL     1      -7.597   8.999  70.703  1.00  0.00    -0.119 A  
HETATM   16  C   UNL     1      -7.393   8.198  71.840  1.00  0.00    -0.089 A  
HETATM   17  N   UNL     1      -6.649   8.614  72.934  1.00  0.00    -0.244 NA 
HETATM   18  N   UNL     1      -7.941   6.963  71.870  1.00  0.00    -0.099 NA 
HETATM   19  H1  UNL     1      -6.501   8.033  73.759  1.00  0.00     0.000 HD 
HETATM   20  C   UNL     1      -8.689   6.585  70.813  1.00  0.00    -0.143 A  
HETATM   21  H2  UNL     1      -7.042   9.501  73.251  1.00  0.00     0.000 HD 
HETATM   22 CL   UNL     1      -9.354   5.010  70.914  1.00  0.00    -0.191 Cl 
HETATM   23  N   UNL     1      -8.974   7.259  69.678  1.00  0.00    -0.141 NA 
HETATM   24  C   UNL     1      -8.391   8.468  69.697  1.00  0.00    -0.121 A  
ENDBRANCH   7  12
TORSDOF 2
ENDMDL
MODEL      196
REMARK 921   NORMALIZED FREE ENERGY PREDICTED BY IDOCK:   -2.93 KCAL/MOL
REMARK 922        TOTAL FREE ENERGY PREDICTED BY IDOCK:   -3.78 KCAL/MOL
REMARK 923 INTER-LIGAND FREE ENERGY PREDICTED BY IDOCK:   -3.68 KCAL/MOL
REMARK 924 INTRA-LIGAND FREE ENERGY PREDICTED BY IDOCK:   -0.10 KCAL/MOL
REMARK 927      BINDING AFFINITY PREDICTED BY RF-SCORE:    0.00 PKD
ROOT
HETATM    1  C   UNL     1      -8.946   8.258  69.078  1.00  0.00    -0.147 C  
HETATM    2  F   UNL     1      -8.158   7.213  68.736  1.00  0.00    -0.113 F  
HETATM    3  C   UNL     1     -10.387   7.810  69.243  1.00  0.00    -0.219 C  
HETATM    4  O   UNL     1     -11.120   7.741  68.022  1.00  0.00    -0.457 OA 
HETATM    5  C   UNL     1     -10.927   8.896  70.164  1.00  0.00    -0.227 C  
HETATM    6  O   UNL     1      -9.860   9.210  71.084  1.00  0.00    -0.270 OA 
HETATM    7  C   UNL     1      -8.610   8.844  70.446  1.00  0.00    -0.180 C  
HETATM    8  H   UNL     1     -12.022   7.461  68.126  1.00  0.00     0.000 HD 
ENDROOT
BRANCH   5   9
HETATM    9  C   UNL     1     -12.193   8.494  70.920  1.00  0.00    -0.094 C  
HETATM   10  O   UNL     1     -12.542   7.138  70.656  1.00  0.00    -0.602 OA 
HETATM   11  H   UNL     1     -13.329   6.888  71.126  1.00  0.00     0.000 HD 
ENDBRANCH   5   9
BRANCH   7  12
HETATM   12  N   UNL     1      -7.874   7.948  71.315  1.00  0.00    -0.084 NA 
HETATM   13  C   UNL     1      -6.532   7.957  71.584  1.00  0.00    -0.040 A  
HETATM   14  N   UNL     1      -6.196   7.032  72.460  1.00  0.00    -0.052 NA 
HETATM   15  C   UNL     1      -7.380   6.406  72.784  1.00  0.00    -0.090 A  
HETATM   16  C   UNL     1      -7.690   5.366  73.677  1.00  0.00    -0.102 A  
HETATM   17  N   UNL     1      -6.741   4.757  74.485  1.00  0.00    -0.065 NA 
HETATM   18  N   UNL     1      -8.967   4.934  73.751  1.00  0.00    -0.114 NA 
HETATM   19  H1  UNL     1      -6.965   4.002  75.134  1.00  0.00     0.000 HD 
HETATM   20  C   UNL     1      -9.884   5.557  72.982  1.00  0.00    -0.162 A  
HETATM   21  H2  UNL     1      -6.279   5.493  75.021  1.00  0.00     0.000 HD 
HETATM   22 CL   UNL     1     -11.483   4.962  73.123  1.00  0.00    -0.398 Cl 
HETATM   23  N   UNL     1      -9.722   6.570  72.104  1.00  0.00    -0.152 NA 
HETATM   24  C   UNL     1      -8.434   6.946  72.061  1.00  0.00    -0.110 A  
ENDBRANCH   7  12
TORSDOF 2
ENDMDL
MODEL      197
REMARK 921   NORMALIZED FREE ENERGY PREDICTED BY IDOCK:   -2.91 KCAL/MOL
REMARK 922        TOTAL FREE ENERGY PREDICTED BY IDOCK:   -3.76 KCAL/MOL
REMARK 923 INTER-LIGAND FREE ENERGY PREDICTED BY IDOCK:   -3.19 KCAL/MOL
REMARK 924 INTRA-LIGAND FREE ENERGY PREDICTED BY IDOCK:   -0.57 KCAL/MOL
REMARK 927      BINDING AFFINITY PREDICTED BY RF-SCORE:    0.00 PKD
ROOT
HETATM    1  C   UNL     1      -9.006   6.479  66.651  1.00  0.00    -0.138 C  
HETATM    2  F   UNL     1      -7.666   6.478  66.467  1.00  0.00    -0.091 F  
HETATM    3  C   UNL     1      -9.357   5.962  68.034  1.00  0.00    -0.111 C  
HETATM    4  O   UNL     1      -9.412   4.540  68.129  1.00  0.00    -0.133 OA 
HETATM    5  C   UNL     1     -10.727   6.594  68.244  1.00  0.00    -0.257 C  
HETATM    6  O   UNL     1     -10.659   7.907  67.648  1.00  0.00    -0.240 OA 
HETATM    7  C   UNL     1      -9.614   7.879  66.643  1.00  0.00    -0.226 C  
HETATM    8  H   UNL     1      -9.632   4.217  68.995  1.00  0.00     0.000 HD 
ENDROOT
BRANCH   5   9
HETATM    9  C   UNL     1     -11.150   6.685  69.709  1.00  0.00    -0.342 C  
HETATM   10  O   UNL     1     -10.906   5.459  70.392  1.00  0.00    -0.251 OA 
HETATM   11  H   UNL     1     -11.169   5.515  71.304  1.00  0.00     0.000 HD 
ENDBRANCH   5   9
BRANCH   7  12
HETATM   12  N   UNL     1      -8.666   8.943  66.909  1.00  0.00    -0.118 NA 
HETATM   13  C   UNL     1      -8.432   9.578  68.099  1.00  0.00    -0.119 A  
HETATM   14  N   UNL     1      -7.466  10.468  68.004  1.00  0.00    -0.089 NA 
HETATM   15  C   UNL     1      -7.045  10.393  66.694  1.00  0.00    -0.112 A  
HETATM   16  C   UNL     1      -6.033  11.061  65.983  1.00  0.00    -0.109 A  
HETATM   17  N   UNL     1      -5.184  11.988  66.570  1.00  0.00    -0.409 NA 
HETATM   18  N   UNL     1      -5.881  10.795  64.668  1.00  0.00    -0.018 NA 
HETATM   19  H1  UNL     1      -4.449  12.473  66.055  1.00  0.00     0.000 HD 
HETATM   20  C   UNL     1      -6.692   9.868  64.119  1.00  0.00    -0.126 A  
HETATM   21  H2  UNL     1      -4.746  11.536  67.373  1.00  0.00     0.000 HD 
HETATM   22 CL   UNL     1      -6.447   9.578  62.450  1.00  0.00    -0.096 Cl 
HETATM   23  N   UNL     1      -7.683   9.149  64.689  1.00  0.00    -0.109 NA 
HETATM   24  C   UNL     1      -7.799   9.467  65.988  1.00  0.00    -0.100 A  
ENDBRANCH   7  12
TORSDOF 2
ENDMDL
MODEL      198
REMARK 921   NORMALIZED FREE ENERGY PREDICTED BY IDOCK:   -2.86 KCAL/MOL
REMARK 922        TOTAL FREE ENERGY PREDICTED BY IDOCK:   -3.71 KCAL/MOL
REMARK 923 INTER-LIGAND FREE ENERGY PREDICTED BY IDOCK:   -3.84 KCAL/MOL
REMARK 924 INTRA-LIGAND FREE ENERGY PREDICTED BY IDOCK:    0.14 KCAL/MOL
REMARK 927      BINDING AFFINITY PREDICTED BY RF-SCORE:    0.00 PKD
ROOT
HETATM    1  C   UNL     1      -9.650   6.042  72.804  1.00  0.00    -0.155 C  
HETATM    2  F   UNL     1     -10.507   5.023  72.563  1.00  0.00    -0.227 F  
HETATM    3  C   UNL     1      -8.264   5.513  73.124  1.00  0.00    -0.118 C  
HETATM    4  O   UNL     1      -8.087   5.128  74.486  1.00  0.00    -0.101 OA 
HETATM    5  C   UNL     1      -7.400   6.713  72.759  1.00  0.00    -0.084 C  
HETATM    6  O   UNL     1      -8.006   7.303  71.590  1.00  0.00    -0.095 OA 
HETATM    7  C   UNL     1      -9.407   6.926  71.584  1.00  0.00    -0.154 C  
HETATM    8  H   UNL     1      -7.219   4.797  74.686  1.00  0.00     0.000 HD 
ENDROOT
BRANCH   5   9
HETATM    9  C   UNL     1      -5.936   6.365  72.495  1.00  0.00    -0.038 C  
HETATM   10  O   UNL     1      -5.562   6.696  71.160  1.00  0.00    -0.026 OA 
HETATM   11  H   UNL     1      -4.651   6.479  70.996  1.00  0.00     0.000 HD 
ENDBRANCH   5   9
BRANCH   7  12
HETATM   12  N   UNL     1      -9.726   6.297  70.317  1.00  0.00    -0.163 NA 
HETATM   13  C   UNL     1      -9.771   4.959  70.035  1.00  0.00    -0.215 A  
HETATM   14  N   UNL     1     -10.145   4.726  68.794  1.00  0.00    -0.108 NA 
HETATM   15  C   UNL     1     -10.368   5.974  68.253  1.00  0.00    -0.207 A  
HETATM   16  C   UNL     1     -10.809   6.394  66.986  1.00  0.00    -0.392 A  
HETATM   17  N   UNL     1     -11.155   5.510  65.975  1.00  0.00    -0.762 NA 
HETATM   18  N   UNL     1     -10.896   7.719  66.736  1.00  0.00    -0.101 NA 
HETATM   19  H1  UNL     1     -11.476   5.814  65.056  1.00  0.00     0.000 HD 
HETATM   20  C   UNL     1     -10.586   8.566  67.739  1.00  0.00    -0.175 A  
HETATM   21  H2  UNL     1     -11.864   4.878  66.352  1.00  0.00     0.000 HD 
HETATM   22 CL   UNL     1     -10.717  10.230  67.358  1.00  0.00    -0.328 Cl 
HETATM   23  N   UNL     1     -10.170   8.295  68.995  1.00  0.00    -0.214 NA 
HETATM   24  C   UNL     1     -10.087   6.967  69.179  1.00  0.00    -0.180 A  
ENDBRANCH   7  12
TORSDOF 2
ENDMDL
MODEL      199
REMARK 921   NORMALIZED FREE ENERGY PREDICTED BY IDOCK:   -2.83 KCAL/MOL
REMARK 922        TOTAL FREE ENERGY PREDICTED BY IDOCK:   -3.67 KCAL/MOL
REMARK 923 INTER-LIGAND FREE ENERGY PREDICTED BY IDOCK:   -3.19 KCAL/MOL
REMARK 924 INTRA-LIGAND FREE ENERGY PREDICTED BY IDOCK:   -0.48 KCAL/MOL
REMARK 927      BINDING AFFINITY PREDICTED BY RF-SCORE:    0.00 PKD
ROOT
HETATM    1  C   UNL     1      -9.003   6.348  70.239  1.00  0.00    -0.154 C  
HETATM    2  F   UNL     1      -9.809   7.245  70.851  1.00  0.00    -0.182 F  
HETATM    3  C   UNL     1      -9.793   5.132  69.793  1.00  0.00    -0.212 C  
HETATM    4  O   UNL     1      -9.992   4.158  70.815  1.00  0.00    -0.194 OA 
HETATM    5  C   UNL     1      -8.908   4.602  68.673  1.00  0.00    -0.101 C  
HETATM    6  O   UNL     1      -8.380   5.762  67.995  1.00  0.00    -0.104 OA 
HETATM    7  C   UNL     1      -8.405   6.867  68.934  1.00  0.00    -0.121 C  
HETATM    8  H   UNL     1     -10.487   3.397  70.535  1.00  0.00     0.000 HD 
ENDROOT
BRANCH   5   9
HETATM    9  C   UNL     1      -9.636   3.685  67.690  1.00  0.00    -0.140 C  
HETATM   10  O   UNL     1      -9.825   4.327  66.432  1.00  0.00    -0.204 OA 
HETATM   11  H   UNL     1     -10.278   3.756  65.821  1.00  0.00     0.000 HD 
ENDBRANCH   5   9
BRANCH   7  12
HETATM   12  N   UNL     1      -9.128   7.977  68.346  1.00  0.00    -0.136 NA 
HETATM   13  C   UNL     1     -10.303   7.934  67.647  1.00  0.00    -0.241 A  
HETATM   14  N   UNL     1     -10.713   9.135  67.293  1.00  0.00    -0.225 NA 
HETATM   15  C   UNL     1      -9.765   9.996  67.802  1.00  0.00    -0.150 A  
HETATM   16  C   UNL     1      -9.650  11.397  67.788  1.00  0.00    -0.172 A  
HETATM   17  N   UNL     1     -10.602  12.227  67.214  1.00  0.00    -0.221 NA 
HETATM   18  N   UNL     1      -8.562  11.964  68.353  1.00  0.00    -0.166 NA 
HETATM   19  H1  UNL     1     -10.520  13.243  67.203  1.00  0.00     0.000 HD 
HETATM   20  C   UNL     1      -7.661  11.146  68.934  1.00  0.00    -0.137 A  
HETATM   21  H2  UNL     1     -11.502  11.998  67.638  1.00  0.00     0.000 HD 
HETATM   22 CL   UNL     1      -6.307  11.928  69.632  1.00  0.00    -0.125 Cl 
HETATM   23  N   UNL     1      -7.661   9.799  69.031  1.00  0.00    -0.080 NA 
HETATM   24  C   UNL     1      -8.755   9.291  68.440  1.00  0.00    -0.129 A  
ENDBRANCH   7  12
TORSDOF 2
ENDMDL
MODEL      200
REMARK 921   NORMALIZED FREE ENERGY PREDICTED BY IDOCK:   -2.83 KCAL/MOL
REMARK 922        TOTAL FREE ENERGY PREDICTED BY IDOCK:   -3.67 KCAL/MOL
REMARK 923 INTER-LIGAND FREE ENERGY PREDICTED BY IDOCK:   -3.59 KCAL/MOL
REMARK 924 INTRA-LIGAND FREE ENERGY PREDICTED BY IDOCK:   -0.07 KCAL/MOL
REMARK 927      BINDING AFFINITY PREDICTED BY RF-SCORE:    0.00 PKD
ROOT
HETATM    1  C   UNL     1     -10.873   9.059  70.084  1.00  0.00    -0.237 C  
HETATM    2  F   UNL     1     -11.501   9.824  69.162  1.00  0.00    -0.200 F  
HETATM    3  C   UNL     1     -10.898   7.598  69.675  1.00  0.00    -0.191 C  
HETATM    4  O   UNL     1     -12.100   6.915  70.023  1.00  0.00    -0.637 OA 
HETATM    5  C   UNL     1      -9.700   7.058  70.444  1.00  0.00    -0.176 C  
HETATM    6  O   UNL     1      -8.697   8.096  70.407  1.00  0.00    -0.131 OA 
HETATM    7  C   UNL     1      -9.381   9.358  70.200  1.00  0.00    -0.241 C  
HETATM    8  H   UNL     1     -12.116   6.000  69.767  1.00  0.00     0.000 HD 
ENDROOT
BRANCH   5   9
HETATM    9  C   UNL     1      -9.144   5.748  69.887  1.00  0.00    -0.144 C  
HETATM   10  O   UNL     1      -9.780   5.401  68.660  1.00  0.00    -0.123 OA 
HETATM   11  H   UNL     1      -9.434   4.586  68.313  1.00  0.00     0.000 HD 
ENDBRANCH   5   9
BRANCH   7  12
HETATM   12  N   UNL     1      -8.814  10.025  69.045  1.00  0.00    -0.149 NA 
HETATM   13  C   UNL     1      -8.405  11.328  68.947  1.00  0.00    -0.071 A  
HETATM   14  N   UNL     1      -7.889  11.598  67.766  1.00  0.00    -0.122 NA 
HETATM   15  C   UNL     1      -7.955  10.409  67.072  1.00  0.00    -0.116 A  
HETATM   16  C   UNL     1      -7.540  10.040  65.781  1.00  0.00    -0.120 A  
HETATM   17  N   UNL     1      -6.901  10.914  64.914  1.00  0.00    -0.319 NA 
HETATM   18  N   UNL     1      -7.779   8.779  65.359  1.00  0.00    -0.087 NA 
HETATM   19  H1  UNL     1      -6.601  10.647  63.976  1.00  0.00     0.000 HD 
HETATM   20  C   UNL     1      -8.372   7.931  66.224  1.00  0.00    -0.126 A  
HETATM   21  H2  UNL     1      -6.086  11.286  65.402  1.00  0.00     0.000 HD 
HETATM   22 CL   UNL     1      -8.645   6.350  65.628  1.00  0.00    -0.151 Cl 
HETATM   23  N   UNL     1      -8.800   8.153  67.486  1.00  0.00    -0.134 NA 
HETATM   24  C   UNL     1      -8.552   9.423  67.844  1.00  0.00    -0.120 A  
ENDBRANCH   7  12
TORSDOF 2
ENDMDL
MODEL      201
REMARK 921   NORMALIZED FREE ENERGY PREDICTED BY IDOCK:   -2.81 KCAL/MOL
REMARK 922        TOTAL FREE ENERGY PREDICTED BY IDOCK:   -3.65 KCAL/MOL
REMARK 923 INTER-LIGAND FREE ENERGY PREDICTED BY IDOCK:   -3.53 KCAL/MOL
REMARK 924 INTRA-LIGAND FREE ENERGY PREDICTED BY IDOCK:   -0.12 KCAL/MOL
REMARK 927      BINDING AFFINITY PREDICTED BY RF-SCORE:    0.00 PKD
ROOT
HETATM    1  C   UNL     1      -7.901   7.958  69.538  1.00  0.00    -0.110 C  
HETATM    2  F   UNL     1      -8.250   8.407  70.765  1.00  0.00    -0.097 F  
HETATM    3  C   UNL     1      -8.539   6.610  69.259  1.00  0.00    -0.131 C  
HETATM    4  O   UNL     1      -7.821   5.502  69.796  1.00  0.00    -0.079 OA 
HETATM    5  C   UNL     1      -8.541   6.596  67.736  1.00  0.00    -0.121 C  
HETATM    6  O   UNL     1      -8.827   7.949  67.321  1.00  0.00    -0.126 OA 
HETATM    7  C   UNL     1      -8.432   8.831  68.404  1.00  0.00    -0.130 C  
HETATM    8  H   UNL     1      -8.221   4.658  69.621  1.00  0.00     0.000 HD 
ENDROOT
BRANCH   5   9
HETATM    9  C   UNL     1      -9.546   5.619  67.126  1.00  0.00    -0.131 C  
HETATM   10  O   UNL     1      -9.973   6.056  65.839  1.00  0.00    -0.389 OA 
HETATM   11  H   UNL     1     -10.598   5.448  65.460  1.00  0.00     0.000 HD 
ENDBRANCH   5   9
BRANCH   7  12
HETATM   12  N   UNL     1      -9.556   9.669  68.771  1.00  0.00    -0.149 NA 
HETATM   13  C   UNL     1     -10.683   9.305  69.456  1.00  0.00    -0.222 A  
HETATM   14  N   UNL     1     -11.487  10.328  69.666  1.00  0.00    -0.249 NA 
HETATM   15  C   UNL     1     -10.840  11.407  69.104  1.00  0.00    -0.213 A  
HETATM   16  C   UNL     1     -11.165  12.772  69.025  1.00  0.00    -0.264 A  
HETATM   17  N   UNL     1     -12.309  13.310  69.594  1.00  0.00    -0.170 NA 
HETATM   18  N   UNL     1     -10.328  13.600  68.361  1.00  0.00    -0.244 NA 
HETATM   19  H1  UNL     1     -12.545  14.301  69.537  1.00  0.00     0.000 HD 
HETATM   20  C   UNL     1      -9.204  13.067  67.841  1.00  0.00    -0.208 A  
HETATM   21  H2  UNL     1     -12.310  13.052  70.581  1.00  0.00     0.000 HD 
HETATM   22 CL   UNL     1      -8.188  14.170  67.013  1.00  0.00    -0.156 Cl 
HETATM   23  N   UNL     1      -8.770  11.788  67.861  1.00  0.00    -0.157 NA 
HETATM   24  C   UNL     1      -9.646  11.012  68.517  1.00  0.00    -0.187 A  
ENDBRANCH   7  12
TORSDOF 2
ENDMDL
MODEL      202
REMARK 921   NORMALIZED FREE ENERGY PREDICTED BY IDOCK:   -2.79 KCAL/MOL
REMARK 922        TOTAL FREE ENERGY PREDICTED BY IDOCK:   -3.62 KCAL/MOL
REMARK 923 INTER-LIGAND FREE ENERGY PREDICTED BY IDOCK:   -3.99 KCAL/MOL
REMARK 924 INTRA-LIGAND FREE ENERGY PREDICTED BY IDOCK:    0.37 KCAL/MOL
REMARK 927      BINDING AFFINITY PREDICTED BY RF-SCORE:    0.00 PKD
ROOT
HETATM    1  C   UNL     1      -9.123   7.810  71.869  1.00  0.00    -0.134 C  
HETATM    2  F   UNL     1      -7.998   7.101  72.116  1.00  0.00    -0.090 F  
HETATM    3  C   UNL     1      -8.972   8.632  70.602  1.00  0.00    -0.171 C  
HETATM    4  O   UNL     1      -8.307   9.878  70.791  1.00  0.00    -0.383 OA 
HETATM    5  C   UNL     1     -10.429   8.825  70.201  1.00  0.00    -0.213 C  
HETATM    6  O   UNL     1     -11.101   7.589  70.524  1.00  0.00    -0.253 OA 
HETATM    7  C   UNL     1     -10.334   6.932  71.566  1.00  0.00    -0.203 C  
HETATM    8  H   UNL     1      -8.212  10.393  69.997  1.00  0.00     0.000 HD 
ENDROOT
BRANCH   5   9
HETATM    9  C   UNL     1     -10.625   9.179  68.728  1.00  0.00    -0.181 C  
HETATM   10  O   UNL     1     -11.762  10.018  68.548  1.00  0.00    -0.570 OA 
HETATM   11  H   UNL     1     -11.884  10.239  67.631  1.00  0.00     0.000 HD 
ENDBRANCH   5   9
BRANCH   7  12
HETATM   12  N   UNL     1     -10.005   5.586  71.140  1.00  0.00    -0.187 NA 
HETATM   13  C   UNL     1      -9.939   4.457  71.910  1.00  0.00    -0.189 A  
HETATM   14  N   UNL     1      -9.658   3.386  71.196  1.00  0.00    -0.158 NA 
HETATM   15  C   UNL     1      -9.554   3.843  69.900  1.00  0.00    -0.200 A  
HETATM   16  C   UNL     1      -9.303   3.190  68.681  1.00  0.00    -0.171 A  
HETATM   17  N   UNL     1      -9.128   1.818  68.582  1.00  0.00    -0.121 NA 
HETATM   18  N   UNL     1      -9.221   3.930  67.554  1.00  0.00    -0.157 NA 
HETATM   19  H1  UNL     1      -8.946   1.343  67.697  1.00  0.00     0.000 HD 
HETATM   20  C   UNL     1      -9.424   5.259  67.663  1.00  0.00    -0.123 A  
HETATM   21  H2  UNL     1      -9.946   1.374  69.003  1.00  0.00     0.000 HD 
HETATM   22 CL   UNL     1      -9.307   6.138  66.198  1.00  0.00    -0.158 Cl 
HETATM   23  N   UNL     1      -9.688   6.001  68.760  1.00  0.00    -0.128 NA 
HETATM   24  C   UNL     1      -9.740   5.217  69.848  1.00  0.00    -0.199 A  
ENDBRANCH   7  12
TORSDOF 2
ENDMDL
MODEL      203
REMARK 921   NORMALIZED FREE ENERGY PREDICTED BY IDOCK:   -2.78 KCAL/MOL
REMARK 922        TOTAL FREE ENERGY PREDICTED BY IDOCK:   -3.61 KCAL/MOL
REMARK 923 INTER-LIGAND FREE ENERGY PREDICTED BY IDOCK:   -3.65 KCAL/MOL
REMARK 924 INTRA-LIGAND FREE ENERGY PREDICTED BY IDOCK:    0.04 KCAL/MOL
REMARK 927      BINDING AFFINITY PREDICTED BY RF-SCORE:    0.00 PKD
ROOT
HETATM    1  C   UNL     1      -8.932   6.800  66.101  1.00  0.00    -0.136 C  
HETATM    2  F   UNL     1      -8.133   7.891  66.150  1.00  0.00    -0.093 F  
HETATM    3  C   UNL     1      -8.496   5.770  67.126  1.00  0.00    -0.107 C  
HETATM    4  O   UNL     1      -7.430   4.929  66.692  1.00  0.00    -0.084 OA 
HETATM    5  C   UNL     1      -9.788   4.988  67.324  1.00  0.00    -0.179 C  
HETATM    6  O   UNL     1     -10.857   5.956  67.262  1.00  0.00    -0.280 OA 
HETATM    7  C   UNL     1     -10.376   7.092  66.499  1.00  0.00    -0.034 C  
HETATM    8  H   UNL     1      -7.157   4.284  67.335  1.00  0.00     0.000 HD 
ENDROOT
BRANCH   5   9
HETATM    9  C   UNL     1      -9.843   4.203  68.634  1.00  0.00    -0.012 C  
HETATM   10  O   UNL     1      -8.917   4.722  69.584  1.00  0.00    -0.087 OA 
HETATM   11  H   UNL     1      -8.952   4.234  70.399  1.00  0.00     0.000 HD 
ENDBRANCH   5   9
BRANCH   7  12
HETATM   12  N   UNL     1     -10.547   8.300  67.282  1.00  0.00    -0.301 NA 
HETATM   13  C   UNL     1     -10.549   9.594  66.835  1.00  0.00    -0.171 A  
HETATM   14  N   UNL     1     -10.780  10.453  67.806  1.00  0.00    -0.257 NA 
HETATM   15  C   UNL     1     -10.950   9.676  68.932  1.00  0.00    -0.121 A  
HETATM   16  C   UNL     1     -11.249   9.995  70.267  1.00  0.00    -0.313 A  
HETATM   17  N   UNL     1     -11.474  11.292  70.703  1.00  0.00    -0.378 NA 
HETATM   18  N   UNL     1     -11.317   8.994  71.172  1.00  0.00    -0.283 NA 
HETATM   19  H1  UNL     1     -11.691  11.524  71.672  1.00  0.00     0.000 HD 
HETATM   20  C   UNL     1     -11.129   7.735  70.728  1.00  0.00    -0.257 A  
HETATM   21  H2  UNL     1     -12.215  11.686  70.121  1.00  0.00     0.000 HD 
HETATM   22 CL   UNL     1     -11.229   6.514  71.925  1.00  0.00    -0.296 Cl 
HETATM   23  N   UNL     1     -10.854   7.296  69.480  1.00  0.00    -0.233 NA 
HETATM   24  C   UNL     1     -10.782   8.333  68.630  1.00  0.00    -0.027 A  
ENDBRANCH   7  12
TORSDOF 2
ENDMDL
MODEL      204
REMARK 921   NORMALIZED FREE ENERGY PREDICTED BY IDOCK:   -2.76 KCAL/MOL
REMARK 922        TOTAL FREE ENERGY PREDICTED BY IDOCK:   -3.59 KCAL/MOL
REMARK 923 INTER-LIGAND FREE ENERGY PREDICTED BY IDOCK:   -4.03 KCAL/MOL
REMARK 924 INTRA-LIGAND FREE ENERGY PREDICTED BY IDOCK:    0.44 KCAL/MOL
REMARK 927      BINDING AFFINITY PREDICTED BY RF-SCORE:    0.00 PKD
ROOT
HETATM    1  C   UNL     1     -11.190  10.932  67.834  1.00  0.00    -0.321 C  
HETATM    2  F   UNL     1     -12.230  11.400  67.107  1.00  0.00    -0.052 F  
HETATM    3  C   UNL     1     -10.156  10.281  66.934  1.00  0.00    -0.221 C  
HETATM    4  O   UNL     1     -10.445   8.926  66.596  1.00  0.00    -0.249 OA 
HETATM    5  C   UNL     1      -8.905  10.393  67.795  1.00  0.00    -0.128 C  
HETATM    6  O   UNL     1      -8.994  11.667  68.469  1.00  0.00    -0.172 OA 
HETATM    7  C   UNL     1     -10.396  12.034  68.529  1.00  0.00    -0.217 C  
HETATM    8  H   UNL     1      -9.797   8.519  66.033  1.00  0.00     0.000 HD 
ENDROOT
BRANCH   5   9
HETATM    9  C   UNL     1      -7.599  10.286  67.009  1.00  0.00    -0.099 C  
HETATM   10  O   UNL     1      -7.658   9.229  66.056  1.00  0.00    -0.094 OA 
HETATM   11  H   UNL     1      -6.845   9.162  65.567  1.00  0.00     0.000 HD 
ENDBRANCH   5   9
BRANCH   7  12
HETATM   12  N   UNL     1     -10.570  13.351  67.950  1.00  0.00    -0.240 NA 
HETATM   13  C   UNL     1     -11.745  13.975  67.627  1.00  0.00    -0.377 A  
HETATM   14  N   UNL     1     -11.549  15.192  67.163  1.00  0.00    -0.264 NA 
HETATM   15  C   UNL     1     -10.183  15.369  67.203  1.00  0.00    -0.251 A  
HETATM   16  C   UNL     1      -9.357  16.457  66.872  1.00  0.00    -0.227 A  
HETATM   17  N   UNL     1      -9.853  17.673  66.427  1.00  0.00    -0.308 NA 
HETATM   18  N   UNL     1      -8.018  16.313  66.985  1.00  0.00    -0.190 NA 
HETATM   19  H1  UNL     1      -9.253  18.463  66.187  1.00  0.00     0.000 HD 
HETATM   20  C   UNL     1      -7.553  15.135  67.449  1.00  0.00    -0.203 A  
HETATM   21  H2  UNL     1     -10.526  18.001  67.121  1.00  0.00     0.000 HD 
HETATM   22 CL   UNL     1      -5.849  15.018  67.569  1.00  0.00    -0.045 Cl 
HETATM   23  N   UNL     1      -8.233  14.027  67.815  1.00  0.00    -0.153 NA 
HETATM   24  C   UNL     1      -9.553  14.223  67.666  1.00  0.00    -0.219 A  
ENDBRANCH   7  12
TORSDOF 2
ENDMDL
MODEL      205
REMARK 921   NORMALIZED FREE ENERGY PREDICTED BY IDOCK:   -2.71 KCAL/MOL
REMARK 922        TOTAL FREE ENERGY PREDICTED BY IDOCK:   -3.53 KCAL/MOL
REMARK 923 INTER-LIGAND FREE ENERGY PREDICTED BY IDOCK:   -3.70 KCAL/MOL
REMARK 924 INTRA-LIGAND FREE ENERGY PREDICTED BY IDOCK:    0.17 KCAL/MOL
REMARK 927      BINDING AFFINITY PREDICTED BY RF-SCORE:    0.00 PKD
ROOT
HETATM    1  C   UNL     1     -11.811   8.102  71.364  1.00  0.00    -0.295 C  
HETATM    2  F   UNL     1     -11.575   7.779  72.656  1.00  0.00    -0.338 F  
HETATM    3  C   UNL     1     -11.593   9.586  71.134  1.00  0.00    -0.367 C  
HETATM    4  O   UNL     1     -12.714  10.400  71.472  1.00  0.00    -0.386 OA 
HETATM    5  C   UNL     1     -11.309   9.612  69.637  1.00  0.00    -0.073 C  
HETATM    6  O   UNL     1     -10.536   8.426  69.354  1.00  0.00    -0.217 OA 
HETATM    7  C   UNL     1     -10.827   7.455  70.393  1.00  0.00    -0.243 C  
HETATM    8  H   UNL     1     -12.577  11.329  71.328  1.00  0.00     0.000 HD 
ENDROOT
BRANCH   5   9
HETATM    9  C   UNL     1     -10.571  10.865  69.168  1.00  0.00    -0.220 C  
HETATM   10  O   UNL     1     -11.222  12.047  69.624  1.00  0.00    -0.433 OA 
HETATM   11  H   UNL     1     -10.762  12.826  69.332  1.00  0.00     0.000 HD 
ENDBRANCH   5   9
BRANCH   7  12
HETATM   12  N   UNL     1      -9.586   7.020  71.001  1.00  0.00    -0.170 NA 
HETATM   13  C   UNL     1      -9.324   5.819  71.602  1.00  0.00    -0.146 A  
HETATM   14  N   UNL     1      -8.075   5.730  72.009  1.00  0.00    -0.111 NA 
HETATM   15  C   UNL     1      -7.497   6.925  71.639  1.00  0.00    -0.085 A  
HETATM   16  C   UNL     1      -6.189   7.426  71.763  1.00  0.00    -0.036 A  
HETATM   17  N   UNL     1      -5.150   6.694  72.320  1.00  0.00    -0.027 NA 
HETATM   18  N   UNL     1      -5.931   8.678  71.328  1.00  0.00    -0.039 NA 
HETATM   19  H1  UNL     1      -4.201   7.057  72.410  1.00  0.00     0.000 HD 
HETATM   20  C   UNL     1      -6.943   9.365  70.761  1.00  0.00    -0.114 A  
HETATM   21  H2  UNL     1      -5.092   5.811  71.811  1.00  0.00     0.000 HD 
HETATM   22 CL   UNL     1      -6.549  10.944  70.229  1.00  0.00    -0.131 Cl 
HETATM   23  N   UNL     1      -8.228   8.996  70.567  1.00  0.00    -0.149 NA 
HETATM   24  C   UNL     1      -8.430   7.753  71.033  1.00  0.00    -0.122 A  
ENDBRANCH   7  12
TORSDOF 2
ENDMDL
MODEL      206
REMARK 921   NORMALIZED FREE ENERGY PREDICTED BY IDOCK:   -2.70 KCAL/MOL
REMARK 922        TOTAL FREE ENERGY PREDICTED BY IDOCK:   -3.53 KCAL/MOL
REMARK 923 INTER-LIGAND FREE ENERGY PREDICTED BY IDOCK:   -3.92 KCAL/MOL
REMARK 924 INTRA-LIGAND FREE ENERGY PREDICTED BY IDOCK:    0.39 KCAL/MOL
REMARK 927      BINDING AFFINITY PREDICTED BY RF-SCORE:    0.00 PKD
ROOT
HETATM    1  C   UNL     1      -8.990   6.185  66.547  1.00  0.00    -0.139 C  
HETATM    2  F   UNL     1      -7.640   6.189  66.470  1.00  0.00    -0.087 F  
HETATM    3  C   UNL     1      -9.447   5.812  67.945  1.00  0.00    -0.110 C  
HETATM    4  O   UNL     1      -9.494   4.409  68.189  1.00  0.00    -0.138 OA 
HETATM    5  C   UNL     1     -10.836   6.438  67.976  1.00  0.00    -0.316 C  
HETATM    6  O   UNL     1     -10.734   7.681  67.250  1.00  0.00    -0.306 OA 
HETATM    7  C   UNL     1      -9.610   7.564  66.339  1.00  0.00    -0.125 C  
HETATM    8  H   UNL     1      -9.780   4.175  69.064  1.00  0.00     0.000 HD 
ENDROOT
BRANCH   5   9
HETATM    9  C   UNL     1     -11.376   6.677  69.386  1.00  0.00    -0.271 C  
HETATM   10  O   UNL     1     -10.583   6.006  70.361  1.00  0.00    -0.228 OA 
HETATM   11  H   UNL     1     -10.920   6.155  71.238  1.00  0.00     0.000 HD 
ENDBRANCH   5   9
BRANCH   7  12
HETATM   12  N   UNL     1      -8.698   8.669  66.562  1.00  0.00    -0.121 NA 
HETATM   13  C   UNL     1      -7.335   8.620  66.671  1.00  0.00    -0.081 A  
HETATM   14  N   UNL     1      -6.807   9.816  66.823  1.00  0.00    -0.082 NA 
HETATM   15  C   UNL     1      -7.879  10.682  66.795  1.00  0.00    -0.126 A  
HETATM   16  C   UNL     1      -7.970  12.082  66.876  1.00  0.00    -0.112 A  
HETATM   17  N   UNL     1      -6.860  12.906  66.982  1.00  0.00    -0.423 NA 
HETATM   18  N   UNL     1      -9.194  12.654  66.856  1.00  0.00    -0.212 NA 
HETATM   19  H1  UNL     1      -6.926  13.923  67.040  1.00  0.00     0.000 HD 
HETATM   20  C   UNL     1     -10.262  11.841  66.721  1.00  0.00    -0.211 A  
HETATM   21  H2  UNL     1      -6.240  12.686  66.201  1.00  0.00     0.000 HD 
HETATM   22 CL   UNL     1     -11.782  12.629  66.703  1.00  0.00    -0.448 Cl 
HETATM   23  N   UNL     1     -10.309  10.495  66.617  1.00  0.00    -0.236 NA 
HETATM   24  C   UNL     1      -9.069   9.983  66.659  1.00  0.00    -0.147 A  
ENDBRANCH   7  12
TORSDOF 2
ENDMDL
MODEL      207
REMARK 921   NORMALIZED FREE ENERGY PREDICTED BY IDOCK:   -2.64 KCAL/MOL
REMARK 922        TOTAL FREE ENERGY PREDICTED BY IDOCK:   -3.46 KCAL/MOL
REMARK 923 INTER-LIGAND FREE ENERGY PREDICTED BY IDOCK:   -3.65 KCAL/MOL
REMARK 924 INTRA-LIGAND FREE ENERGY PREDICTED BY IDOCK:    0.19 KCAL/MOL
REMARK 927      BINDING AFFINITY PREDICTED BY RF-SCORE:    0.00 PKD
ROOT
HETATM    1  C   UNL     1     -10.540   6.489  71.595  1.00  0.00    -0.217 C  
HETATM    2  F   UNL     1     -11.821   6.276  71.217  1.00  0.00    -0.359 F  
HETATM    3  C   UNL     1      -9.920   5.212  72.131  1.00  0.00    -0.187 C  
HETATM    4  O   UNL     1     -10.212   4.952  73.502  1.00  0.00    -0.160 OA 
HETATM    5  C   UNL     1      -8.439   5.492  71.913  1.00  0.00    -0.123 C  
HETATM    6  O   UNL     1      -8.344   6.208  70.663  1.00  0.00    -0.122 OA 
HETATM    7  C   UNL     1      -9.622   6.855  70.432  1.00  0.00    -0.169 C  
HETATM    8  H   UNL     1      -9.823   4.152  73.837  1.00  0.00     0.000 HD 
ENDROOT
BRANCH   5   9
HETATM    9  C   UNL     1      -7.568   4.236  71.884  1.00  0.00    -0.071 C  
HETATM   10  O   UNL     1      -7.883   3.367  72.968  1.00  0.00    -0.063 OA 
HETATM   11  H   UNL     1      -7.341   2.586  72.950  1.00  0.00     0.000 HD 
ENDBRANCH   5   9
BRANCH   7  12
HETATM   12  N   UNL     1     -10.125   6.468  69.129  1.00  0.00    -0.161 NA 
HETATM   13  C   UNL     1     -11.035   7.132  68.352  1.00  0.00    -0.021 A  
HETATM   14  N   UNL     1     -11.236   6.529  67.198  1.00  0.00    -0.348 NA 
HETATM   15  C   UNL     1     -10.403   5.430  67.225  1.00  0.00    -0.220 A  
HETATM   16  C   UNL     1     -10.138   4.418  66.287  1.00  0.00    -0.225 A  
HETATM   17  N   UNL     1     -10.724   4.381  65.030  1.00  0.00    -0.647 NA 
HETATM   18  N   UNL     1      -9.279   3.431  66.624  1.00  0.00    -0.166 NA 
HETATM   19  H1  UNL     1     -10.531   3.646  64.349  1.00  0.00     0.000 HD 
HETATM   20  C   UNL     1      -8.694   3.498  67.837  1.00  0.00    -0.108 A  
HETATM   21  H2  UNL     1     -10.531   5.275  64.577  1.00  0.00     0.000 HD 
HETATM   22 CL   UNL     1      -7.616   2.219  68.201  1.00  0.00    -0.054 Cl 
HETATM   23  N   UNL     1      -8.848   4.417  68.815  1.00  0.00    -0.095 NA 
HETATM   24  C   UNL     1      -9.722   5.361  68.432  1.00  0.00    -0.136 A  
ENDBRANCH   7  12
TORSDOF 2
ENDMDL
MODEL      208
REMARK 921   NORMALIZED FREE ENERGY PREDICTED BY IDOCK:   -2.58 KCAL/MOL
REMARK 922        TOTAL FREE ENERGY PREDICTED BY IDOCK:   -3.38 KCAL/MOL
REMARK 923 INTER-LIGAND FREE ENERGY PREDICTED BY IDOCK:   -2.73 KCAL/MOL
REMARK 924 INTRA-LIGAND FREE ENERGY PREDICTED BY IDOCK:   -0.66 KCAL/MOL
REMARK 927      BINDING AFFINITY PREDICTED BY RF-SCORE:    0.00 PKD
ROOT
HETATM    1  C   UNL     1      -9.002  13.173  68.598  1.00  0.00     0.049 C  
HETATM    2  F   UNL     1      -7.725  13.408  68.224  1.00  0.00    -0.107 F  
HETATM    3  C   UNL     1      -9.969  13.955  67.729  1.00  0.00    -0.241 C  
HETATM    4  O   UNL     1     -10.166  15.305  68.143  1.00  0.00    -0.226 OA 
HETATM    5  C   UNL     1     -11.238  13.127  67.883  1.00  0.00    -0.270 C  
HETATM    6  O   UNL     1     -10.816  11.748  67.928  1.00  0.00    -0.194 OA 
HETATM    7  C   UNL     1      -9.438  11.726  68.381  1.00  0.00    -0.188 C  
HETATM    8  H   UNL     1     -10.771  15.795  67.598  1.00  0.00     0.000 HD 
ENDROOT
BRANCH   5   9
HETATM    9  C   UNL     1     -12.260  13.345  66.768  1.00  0.00    -0.312 C  
HETATM   10  O   UNL     1     -11.768  14.256  65.790  1.00  0.00    -0.344 OA 
HETATM   11  H   UNL     1     -12.404  14.391  65.096  1.00  0.00     0.000 HD 
ENDBRANCH   5   9
BRANCH   7  12
HETATM   12  N   UNL     1      -8.631  10.998  67.422  1.00  0.00    -0.131 NA 
HETATM   13  C   UNL     1      -8.784  10.951  66.063  1.00  0.00    -0.186 A  
HETATM   14  N   UNL     1      -7.846  10.231  65.483  1.00  0.00    -0.148 NA 
HETATM   15  C   UNL     1      -7.038   9.806  66.516  1.00  0.00    -0.090 A  
HETATM   16  C   UNL     1      -5.863   9.035  66.546  1.00  0.00    -0.055 A  
HETATM   17  N   UNL     1      -5.248   8.552  65.401  1.00  0.00    -0.034 NA 
HETATM   18  N   UNL     1      -5.308   8.747  67.743  1.00  0.00    -0.035 NA 
HETATM   19  H1  UNL     1      -4.395   7.993  65.422  1.00  0.00     0.000 HD 
HETATM   20  C   UNL     1      -5.899   9.251  68.845  1.00  0.00    -0.040 A  
HETATM   21  H2  UNL     1      -5.075   9.348  64.786  1.00  0.00     0.000 HD 
HETATM   22 CL   UNL     1      -5.145   8.849  70.329  1.00  0.00    -0.027 Cl 
HETATM   23  N   UNL     1      -7.010  10.012  68.951  1.00  0.00    -0.061 NA 
HETATM   24  C   UNL     1      -7.526  10.252  67.735  1.00  0.00    -0.088 A  
ENDBRANCH   7  12
TORSDOF 2
ENDMDL
MODEL      209
REMARK 921   NORMALIZED FREE ENERGY PREDICTED BY IDOCK:   -2.57 KCAL/MOL
REMARK 922        TOTAL FREE ENERGY PREDICTED BY IDOCK:   -3.37 KCAL/MOL
REMARK 923 INTER-LIGAND FREE ENERGY PREDICTED BY IDOCK:   -3.72 KCAL/MOL
REMARK 924 INTRA-LIGAND FREE ENERGY PREDICTED BY IDOCK:    0.35 KCAL/MOL
REMARK 927      BINDING AFFINITY PREDICTED BY RF-SCORE:    0.00 PKD
ROOT
HETATM    1  C   UNL     1      -9.750   9.892  68.983  1.00  0.00    -0.193 C  
HETATM    2  F   UNL     1      -8.969  10.309  70.006  1.00  0.00    -0.202 F  
HETATM    3  C   UNL     1      -8.957   9.024  68.023  1.00  0.00    -0.132 C  
HETATM    4  O   UNL     1      -8.202   9.757  67.061  1.00  0.00    -0.116 OA 
HETATM    5  C   UNL     1     -10.072   8.217  67.370  1.00  0.00    -0.233 C  
HETATM    6  O   UNL     1     -11.035   7.945  68.410  1.00  0.00     0.015 OA 
HETATM    7  C   UNL     1     -10.881   8.969  69.427  1.00  0.00    -0.138 C  
HETATM    8  H   UNL     1      -7.706   9.213  66.460  1.00  0.00     0.000 HD 
ENDROOT
BRANCH   5   9
HETATM    9  C   UNL     1      -9.597   6.919  66.718  1.00  0.00    -0.168 C  
HETATM   10  O   UNL     1     -10.699   6.094  66.352  1.00  0.00    -0.488 OA 
HETATM   11  H   UNL     1     -10.404   5.287  65.947  1.00  0.00     0.000 HD 
ENDBRANCH   5   9
BRANCH   7  12
HETATM   12  N   UNL     1     -10.667   8.336  70.713  1.00  0.00    -0.214 NA 
HETATM   13  C   UNL     1     -11.112   8.756  71.937  1.00  0.00    -0.364 A  
HETATM   14  N   UNL     1     -10.780   7.919  72.899  1.00  0.00    -0.368 NA 
HETATM   15  C   UNL     1     -10.102   6.902  72.263  1.00  0.00    -0.176 A  
HETATM   16  C   UNL     1      -9.525   5.709  72.731  1.00  0.00    -0.148 A  
HETATM   17  N   UNL     1      -9.582   5.313  74.059  1.00  0.00    -0.135 NA 
HETATM   18  N   UNL     1      -8.881   4.912  71.851  1.00  0.00    -0.127 NA 
HETATM   19  H1  UNL     1      -9.164   4.446  74.399  1.00  0.00     0.000 HD 
HETATM   20  C   UNL     1      -8.861   5.294  70.558  1.00  0.00    -0.132 A  
HETATM   21  H2  UNL     1     -10.565   5.305  74.334  1.00  0.00     0.000 HD 
HETATM   22 CL   UNL     1      -8.029   4.240  69.496  1.00  0.00    -0.057 Cl 
HETATM   23  N   UNL     1      -9.386   6.397  69.981  1.00  0.00    -0.156 NA 
HETATM   24  C   UNL     1      -9.998   7.157  70.903  1.00  0.00    -0.189 A  
ENDBRANCH   7  12
TORSDOF 2
ENDMDL
MODEL      210
REMARK 921   NORMALIZED FREE ENERGY PREDICTED BY IDOCK:   -2.54 KCAL/MOL
REMARK 922        TOTAL FREE ENERGY PREDICTED BY IDOCK:   -3.35 KCAL/MOL
REMARK 923 INTER-LIGAND FREE ENERGY PREDICTED BY IDOCK:   -3.67 KCAL/MOL
REMARK 924 INTRA-LIGAND FREE ENERGY PREDICTED BY IDOCK:    0.33 KCAL/MOL
REMARK 927      BINDING AFFINITY PREDICTED BY RF-SCORE:    0.00 PKD
ROOT
HETATM    1  C   UNL     1     -11.234   6.560  70.736  1.00  0.00    -0.321 C  
HETATM    2  F   UNL     1     -11.795   5.975  69.654  1.00  0.00    -0.430 F  
HETATM    3  C   UNL     1     -10.014   5.782  71.194  1.00  0.00    -0.192 C  
HETATM    4  O   UNL     1     -10.313   4.668  72.032  1.00  0.00    -0.194 OA 
HETATM    5  C   UNL     1      -9.242   6.861  71.943  1.00  0.00    -0.141 C  
HETATM    6  O   UNL     1      -9.435   8.083  71.199  1.00  0.00    -0.149 OA 
HETATM    7  C   UNL     1     -10.668   7.948  70.446  1.00  0.00    -0.233 C  
HETATM    8  H   UNL     1      -9.549   4.181  72.319  1.00  0.00     0.000 HD 
ENDROOT
BRANCH   5   9
HETATM    9  C   UNL     1      -7.754   6.557  72.109  1.00  0.00    -0.097 C  
HETATM   10  O   UNL     1      -7.180   6.114  70.883  1.00  0.00    -0.071 OA 
HETATM   11  H   UNL     1      -6.254   5.924  70.986  1.00  0.00     0.000 HD 
ENDBRANCH   5   9
BRANCH   7  12
HETATM   12  N   UNL     1     -10.402   8.203  69.045  1.00  0.00    -0.218 NA 
HETATM   13  C   UNL     1     -10.878   9.230  68.276  1.00  0.00    -0.080 A  
HETATM   14  N   UNL     1     -10.400   9.194  67.049  1.00  0.00    -0.264 NA 
HETATM   15  C   UNL     1      -9.562   8.100  67.029  1.00  0.00    -0.196 A  
HETATM   16  C   UNL     1      -8.740   7.553  66.029  1.00  0.00    -0.158 A  
HETATM   17  N   UNL     1      -8.611   8.114  64.767  1.00  0.00    -0.383 NA 
HETATM   18  N   UNL     1      -8.047   6.426  66.304  1.00  0.00    -0.110 NA 
HETATM   19  H1  UNL     1      -8.015   7.717  64.041  1.00  0.00     0.000 HD 
HETATM   20  C   UNL     1      -8.157   5.911  67.546  1.00  0.00    -0.102 A  
HETATM   21  H2  UNL     1      -8.332   9.087  64.892  1.00  0.00     0.000 HD 
HETATM   22 CL   UNL     1      -7.253   4.485  67.829  1.00  0.00    -0.065 Cl 
HETATM   23  N   UNL     1      -8.892   6.345  68.593  1.00  0.00    -0.121 NA 
HETATM   24  C   UNL     1      -9.569   7.454  68.257  1.00  0.00    -0.150 A  
ENDBRANCH   7  12
TORSDOF 2
ENDMDL
MODEL      211
REMARK 921   NORMALIZED FREE ENERGY PREDICTED BY IDOCK:   -2.47 KCAL/MOL
REMARK 922        TOTAL FREE ENERGY PREDICTED BY IDOCK:   -3.26 KCAL/MOL
REMARK 923 INTER-LIGAND FREE ENERGY PREDICTED BY IDOCK:   -2.69 KCAL/MOL
REMARK 924 INTRA-LIGAND FREE ENERGY PREDICTED BY IDOCK:   -0.57 KCAL/MOL
REMARK 927      BINDING AFFINITY PREDICTED BY RF-SCORE:    0.00 PKD
ROOT
HETATM    1  C   UNL     1      -9.918   6.913  69.173  1.00  0.00    -0.162 C  
HETATM    2  F   UNL     1     -10.993   6.635  68.402  1.00  0.00    -0.239 F  
HETATM    3  C   UNL     1      -9.961   6.113  70.462  1.00  0.00    -0.181 C  
HETATM    4  O   UNL     1     -10.764   6.698  71.485  1.00  0.00    -0.223 OA 
HETATM    5  C   UNL     1      -8.486   6.093  70.844  1.00  0.00    -0.128 C  
HETATM    6  O   UNL     1      -7.752   5.969  69.608  1.00  0.00    -0.093 OA 
HETATM    7  C   UNL     1      -8.596   6.480  68.544  1.00  0.00    -0.123 C  
HETATM    8  H   UNL     1     -10.790   6.197  72.292  1.00  0.00     0.000 HD 
ENDROOT
BRANCH   5   9
HETATM    9  C   UNL     1      -8.112   4.971  71.812  1.00  0.00    -0.115 C  
HETATM   10  O   UNL     1      -9.084   4.837  72.845  1.00  0.00    -0.118 OA 
HETATM   11  H   UNL     1      -8.851   4.139  73.446  1.00  0.00     0.000 HD 
ENDBRANCH   5   9
BRANCH   7  12
HETATM   12  N   UNL     1      -8.729   5.470  67.513  1.00  0.00    -0.108 NA 
HETATM   13  C   UNL     1      -9.085   4.157  67.667  1.00  0.00    -0.140 A  
HETATM   14  N   UNL     1      -9.158   3.525  66.514  1.00  0.00    -0.152 NA 
HETATM   15  C   UNL     1      -8.849   4.479  65.568  1.00  0.00    -0.130 A  
HETATM   16  C   UNL     1      -8.786   4.437  64.165  1.00  0.00    -0.139 A  
HETATM   17  N   UNL     1      -9.087   3.301  63.428  1.00  0.00    -0.092 NA 
HETATM   18  N   UNL     1      -8.409   5.552  63.500  1.00  0.00    -0.110 NA 
HETATM   19  H1  UNL     1      -9.041   3.271  62.409  1.00  0.00     0.000 HD 
HETATM   20  C   UNL     1      -8.150   6.657  64.228  1.00  0.00    -0.044 A  
HETATM   21  H2  UNL     1     -10.023   3.000  63.701  1.00  0.00     0.000 HD 
HETATM   22 CL   UNL     1      -7.680   8.034  63.325  1.00  0.00    -0.136 Cl 
HETATM   23  N   UNL     1      -8.190   6.833  65.566  1.00  0.00    -0.128 NA 
HETATM   24  C   UNL     1      -8.553   5.691  66.173  1.00  0.00    -0.132 A  
ENDBRANCH   7  12
TORSDOF 2
ENDMDL
MODEL      212
REMARK 921   NORMALIZED FREE ENERGY PREDICTED BY IDOCK:   -2.46 KCAL/MOL
REMARK 922        TOTAL FREE ENERGY PREDICTED BY IDOCK:   -3.26 KCAL/MOL
REMARK 923 INTER-LIGAND FREE ENERGY PREDICTED BY IDOCK:   -3.61 KCAL/MOL
REMARK 924 INTRA-LIGAND FREE ENERGY PREDICTED BY IDOCK:    0.35 KCAL/MOL
REMARK 927      BINDING AFFINITY PREDICTED BY RF-SCORE:    0.00 PKD
ROOT
HETATM    1  C   UNL     1      -8.441   7.820  68.564  1.00  0.00    -0.129 C  
HETATM    2  F   UNL     1      -7.535   7.801  69.569  1.00  0.00    -0.083 F  
HETATM    3  C   UNL     1      -8.161   6.708  67.570  1.00  0.00    -0.118 C  
HETATM    4  O   UNL     1      -7.171   7.031  66.596  1.00  0.00    -0.078 OA 
HETATM    5  C   UNL     1      -9.535   6.526  66.939  1.00  0.00    -0.152 C  
HETATM    6  O   UNL     1     -10.493   6.706  68.004  1.00  0.00    -0.176 OA 
HETATM    7  C   UNL     1      -9.862   7.516  69.029  1.00  0.00    -0.170 C  
HETATM    8  H   UNL     1      -6.996   6.334  65.974  1.00  0.00     0.000 HD 
ENDROOT
BRANCH   5   9
HETATM    9  C   UNL     1      -9.731   5.172  66.258  1.00  0.00    -0.174 C  
HETATM   10  O   UNL     1     -11.113   4.891  66.058  1.00  0.00    -0.685 OA 
HETATM   11  H   UNL     1     -11.234   4.049  65.634  1.00  0.00     0.000 HD 
ENDBRANCH   5   9
BRANCH   7  12
HETATM   12  N   UNL     1      -9.940   6.824  70.300  1.00  0.00    -0.178 NA 
HETATM   13  C   UNL     1     -10.233   7.356  71.526  1.00  0.00    -0.192 A  
HETATM   14  N   UNL     1     -10.269   6.437  72.469  1.00  0.00    -0.181 NA 
HETATM   15  C   UNL     1     -10.002   5.252  71.818  1.00  0.00    -0.190 A  
HETATM   16  C   UNL     1      -9.929   3.921  72.263  1.00  0.00    -0.167 A  
HETATM   17  N   UNL     1     -10.171   3.550  73.577  1.00  0.00    -0.133 NA 
HETATM   18  N   UNL     1      -9.603   2.958  71.374  1.00  0.00    -0.147 NA 
HETATM   19  H1  UNL     1     -10.118   2.583  73.900  1.00  0.00     0.000 HD 
HETATM   20  C   UNL     1      -9.402   3.330  70.093  1.00  0.00    -0.172 A  
HETATM   21  H2  UNL     1     -11.093   3.906  73.831  1.00  0.00     0.000 HD 
HETATM   22 CL   UNL     1      -8.993   2.062  69.018  1.00  0.00    -0.143 Cl 
HETATM   23  N   UNL     1      -9.457   4.560  69.538  1.00  0.00    -0.156 NA 
HETATM   24  C   UNL     1      -9.768   5.476  70.469  1.00  0.00    -0.183 A  
ENDBRANCH   7  12
TORSDOF 2
ENDMDL
MODEL      213
REMARK 921   NORMALIZED FREE ENERGY PREDICTED BY IDOCK:   -2.45 KCAL/MOL
REMARK 922        TOTAL FREE ENERGY PREDICTED BY IDOCK:   -3.25 KCAL/MOL
REMARK 923 INTER-LIGAND FREE ENERGY PREDICTED BY IDOCK:   -3.51 KCAL/MOL
REMARK 924 INTRA-LIGAND FREE ENERGY PREDICTED BY IDOCK:    0.26 KCAL/MOL
REMARK 927      BINDING AFFINITY PREDICTED BY RF-SCORE:    0.00 PKD
ROOT
HETATM    1  C   UNL     1      -9.594   6.711  73.924  1.00  0.00    -0.212 C  
HETATM    2  F   UNL     1     -10.241   7.874  73.686  1.00  0.00    -0.373 F  
HETATM    3  C   UNL     1     -10.283   5.560  73.214  1.00  0.00    -0.195 C  
HETATM    4  O   UNL     1     -11.390   5.013  73.926  1.00  0.00    -0.417 OA 
HETATM    5  C   UNL     1      -9.139   4.561  73.097  1.00  0.00    -0.118 C  
HETATM    6  O   UNL     1      -7.951   5.338  72.835  1.00  0.00    -0.101 OA 
HETATM    7  C   UNL     1      -8.183   6.677  73.345  1.00  0.00    -0.117 C  
HETATM    8  H   UNL     1     -11.821   4.293  73.481  1.00  0.00     0.000 HD 
ENDROOT
BRANCH   5   9
HETATM    9  C   UNL     1      -9.346   3.506  72.011  1.00  0.00    -0.122 C  
HETATM   10  O   UNL     1      -9.234   4.076  70.711  1.00  0.00    -0.104 OA 
HETATM   11  H   UNL     1      -9.363   3.420  70.036  1.00  0.00     0.000 HD 
ENDBRANCH   5   9
BRANCH   7  12
HETATM   12  N   UNL     1      -7.948   7.639  72.286  1.00  0.00    -0.101 NA 
HETATM   13  C   UNL     1      -7.021   8.645  72.259  1.00  0.00    -0.025 A  
HETATM   14  N   UNL     1      -7.042   9.308  71.121  1.00  0.00    -0.249 NA 
HETATM   15  C   UNL     1      -8.018   8.689  70.370  1.00  0.00    -0.101 A  
HETATM   16  C   UNL     1      -8.492   8.908  69.065  1.00  0.00    -0.133 A  
HETATM   17  N   UNL     1      -7.968   9.878  68.224  1.00  0.00    -0.099 NA 
HETATM   18  N   UNL     1      -9.509   8.145  68.609  1.00  0.00    -0.147 NA 
HETATM   19  H1  UNL     1      -8.312  10.037  67.277  1.00  0.00     0.000 HD 
HETATM   20  C   UNL     1      -9.987   7.185  69.427  1.00  0.00    -0.164 A  
HETATM   21  H2  UNL     1      -6.962   9.716  68.160  1.00  0.00     0.000 HD 
HETATM   22 CL   UNL     1     -11.273   6.252  68.787  1.00  0.00    -0.427 Cl 
HETATM   23  N   UNL     1      -9.612   6.863  70.684  1.00  0.00    -0.169 NA 
HETATM   24  C   UNL     1      -8.613   7.663  71.089  1.00  0.00    -0.131 A  
ENDBRANCH   7  12
TORSDOF 2
ENDMDL
MODEL      214
REMARK 921   NORMALIZED FREE ENERGY PREDICTED BY IDOCK:   -2.41 KCAL/MOL
REMARK 922        TOTAL FREE ENERGY PREDICTED BY IDOCK:   -3.20 KCAL/MOL
REMARK 923 INTER-LIGAND FREE ENERGY PREDICTED BY IDOCK:   -3.40 KCAL/MOL
REMARK 924 INTRA-LIGAND FREE ENERGY PREDICTED BY IDOCK:    0.20 KCAL/MOL
REMARK 927      BINDING AFFINITY PREDICTED BY RF-SCORE:    0.00 PKD
ROOT
HETATM    1  C   UNL     1     -11.115   6.822  67.154  1.00  0.00    -0.333 C  
HETATM    2  F   UNL     1     -10.862   7.897  66.373  1.00  0.00    -0.221 F  
HETATM    3  C   UNL     1     -10.401   5.593  66.623  1.00  0.00    -0.256 C  
HETATM    4  O   UNL     1     -11.100   4.917  65.580  1.00  0.00    -0.769 OA 
HETATM    5  C   UNL     1     -10.306   4.742  67.882  1.00  0.00     0.075 C  
HETATM    6  O   UNL     1     -10.057   5.658  68.969  1.00  0.00    -0.162 OA 
HETATM    7  C   UNL     1     -10.556   6.960  68.568  1.00  0.00    -0.212 C  
HETATM    8  H   UNL     1     -10.653   4.147  65.247  1.00  0.00     0.000 HD 
ENDROOT
BRANCH   5   9
HETATM    9  C   UNL     1      -9.223   3.665  67.822  1.00  0.00    -0.184 C  
HETATM   10  O   UNL     1      -9.511   2.702  66.812  1.00  0.00    -0.376 OA 
HETATM   11  H   UNL     1      -8.837   2.032  66.775  1.00  0.00     0.000 HD 
ENDBRANCH   5   9
BRANCH   7  12
HETATM   12  N   UNL     1      -9.496   7.939  68.698  1.00  0.00    -0.149 NA 
HETATM   13  C   UNL     1      -9.551   9.155  69.325  1.00  0.00    -0.159 A  
HETATM   14  N   UNL     1      -8.391   9.777  69.301  1.00  0.00    -0.130 NA 
HETATM   15  C   UNL     1      -7.541   8.916  68.641  1.00  0.00    -0.096 A  
HETATM   16  C   UNL     1      -6.174   8.990  68.325  1.00  0.00    -0.054 A  
HETATM   17  N   UNL     1      -5.369  10.056  68.697  1.00  0.00    -0.039 NA 
HETATM   18  N   UNL     1      -5.616   7.981  67.621  1.00  0.00    -0.037 NA 
HETATM   19  H1  UNL     1      -4.376  10.110  68.468  1.00  0.00     0.000 HD 
HETATM   20  C   UNL     1      -6.404   6.936  67.293  1.00  0.00    -0.048 A  
HETATM   21  H2  UNL     1      -5.454  10.165  69.709  1.00  0.00     0.000 HD 
HETATM   22 CL   UNL     1      -5.637   5.692  66.403  1.00  0.00    -0.013 Cl 
HETATM   23  N   UNL     1      -7.716   6.737  67.549  1.00  0.00    -0.108 NA 
HETATM   24  C   UNL     1      -8.218   7.776  68.234  1.00  0.00    -0.124 A  
ENDBRANCH   7  12
TORSDOF 2
ENDMDL
MODEL      215
REMARK 921   NORMALIZED FREE ENERGY PREDICTED BY IDOCK:   -2.41 KCAL/MOL
REMARK 922        TOTAL FREE ENERGY PREDICTED BY IDOCK:   -3.20 KCAL/MOL
REMARK 923 INTER-LIGAND FREE ENERGY PREDICTED BY IDOCK:   -3.49 KCAL/MOL
REMARK 924 INTRA-LIGAND FREE ENERGY PREDICTED BY IDOCK:    0.29 KCAL/MOL
REMARK 927      BINDING AFFINITY PREDICTED BY RF-SCORE:    0.00 PKD
ROOT
HETATM    1  C   UNL     1      -6.460   8.094  70.441  1.00  0.00    -0.036 C  
HETATM    2  F   UNL     1      -6.451   9.438  70.590  1.00  0.00    -0.047 F  
HETATM    3  C   UNL     1      -7.090   7.425  71.648  1.00  0.00    -0.062 C  
HETATM    4  O   UNL     1      -6.196   7.232  72.742  1.00  0.00    -0.054 OA 
HETATM    5  C   UNL     1      -7.540   6.099  71.047  1.00  0.00    -0.097 C  
HETATM    6  O   UNL     1      -7.996   6.398  69.711  1.00  0.00    -0.114 OA 
HETATM    7  C   UNL     1      -7.340   7.621  69.287  1.00  0.00    -0.088 C  
HETATM    8  H   UNL     1      -6.590   6.813  73.498  1.00  0.00     0.000 HD 
ENDROOT
BRANCH   5   9
HETATM    9  C   UNL     1      -8.634   5.395  71.848  1.00  0.00    -0.131 C  
HETATM   10  O   UNL     1      -8.075   4.523  72.827  1.00  0.00    -0.093 OA 
HETATM   11  H   UNL     1      -8.756   4.085  73.325  1.00  0.00     0.000 HD 
ENDBRANCH   5   9
BRANCH   7  12
HETATM   12  N   UNL     1      -8.342   8.581  68.869  1.00  0.00    -0.117 NA 
HETATM   13  C   UNL     1      -8.351   9.340  67.730  1.00  0.00    -0.116 A  
HETATM   14  N   UNL     1      -9.439  10.075  67.633  1.00  0.00    -0.143 NA 
HETATM   15  C   UNL     1     -10.176   9.765  68.755  1.00  0.00    -0.194 A  
HETATM   16  C   UNL     1     -11.436  10.192  69.211  1.00  0.00    -0.108 A  
HETATM   17  N   UNL     1     -12.237  11.074  68.501  1.00  0.00    -0.781 NA 
HETATM   18  N   UNL     1     -11.887   9.727  70.396  1.00  0.00    -0.231 NA 
HETATM   19  H1  UNL     1     -13.151  11.383  68.831  1.00  0.00     0.000 HD 
HETATM   20  C   UNL     1     -11.111   8.845  71.059  1.00  0.00    -0.276 A  
HETATM   21  H2  UNL     1     -12.365  10.685  67.566  1.00  0.00     0.000 HD 
HETATM   22 CL   UNL     1     -11.742   8.295  72.553  1.00  0.00    -0.461 Cl 
HETATM   23  N   UNL     1      -9.901   8.347  70.727  1.00  0.00    -0.178 NA 
HETATM   24  C   UNL     1      -9.497   8.855  69.552  1.00  0.00    -0.159 A  
ENDBRANCH   7  12
TORSDOF 2
ENDMDL
MODEL      216
REMARK 921   NORMALIZED FREE ENERGY PREDICTED BY IDOCK:   -2.39 KCAL/MOL
REMARK 922        TOTAL FREE ENERGY PREDICTED BY IDOCK:   -3.18 KCAL/MOL
REMARK 923 INTER-LIGAND FREE ENERGY PREDICTED BY IDOCK:   -2.93 KCAL/MOL
REMARK 924 INTRA-LIGAND FREE ENERGY PREDICTED BY IDOCK:   -0.25 KCAL/MOL
REMARK 927      BINDING AFFINITY PREDICTED BY RF-SCORE:    0.00 PKD
ROOT
HETATM    1  C   UNL     1      -7.213   7.909  67.765  1.00  0.00    -0.091 C  
HETATM    2  F   UNL     1      -6.258   8.613  67.116  1.00  0.00    -0.051 F  
HETATM    3  C   UNL     1      -6.705   7.434  69.114  1.00  0.00    -0.052 C  
HETATM    4  O   UNL     1      -5.946   6.229  69.061  1.00  0.00    -0.019 OA 
HETATM    5  C   UNL     1      -8.014   7.243  69.869  1.00  0.00    -0.122 C  
HETATM    6  O   UNL     1      -8.885   8.313  69.442  1.00  0.00    -0.143 OA 
HETATM    7  C   UNL     1      -8.434   8.748  68.133  1.00  0.00    -0.130 C  
HETATM    8  H   UNL     1      -5.628   5.931  69.906  1.00  0.00     0.000 HD 
ENDROOT
BRANCH   5   9
HETATM    9  C   UNL     1      -7.859   7.246  71.390  1.00  0.00    -0.096 C  
HETATM   10  O   UNL     1      -8.152   5.965  71.939  1.00  0.00    -0.110 OA 
HETATM   11  H   UNL     1      -8.056   5.967  72.885  1.00  0.00     0.000 HD 
ENDBRANCH   5   9
BRANCH   7  12
HETATM   12  N   UNL     1      -8.191  10.176  68.162  1.00  0.00    -0.112 NA 
HETATM   13  C   UNL     1      -7.266  10.853  68.911  1.00  0.00    -0.095 A  
HETATM   14  N   UNL     1      -7.276  12.146  68.660  1.00  0.00    -0.106 NA 
HETATM   15  C   UNL     1      -8.242  12.310  67.691  1.00  0.00    -0.166 A  
HETATM   16  C   UNL     1      -8.703  13.439  66.992  1.00  0.00    -0.187 A  
HETATM   17  N   UNL     1      -8.172  14.708  67.173  1.00  0.00    -0.250 NA 
HETATM   18  N   UNL     1      -9.712  13.286  66.107  1.00  0.00    -0.275 NA 
HETATM   19  H1  UNL     1      -8.506  15.528  66.666  1.00  0.00     0.000 HD 
HETATM   20  C   UNL     1     -10.196  12.042  65.919  1.00  0.00    -0.232 A  
HETATM   21  H2  UNL     1      -7.166  14.643  67.019  1.00  0.00     0.000 HD 
HETATM   22 CL   UNL     1     -11.472  11.917  64.784  1.00  0.00    -0.352 Cl 
HETATM   23  N   UNL     1      -9.834  10.881  66.508  1.00  0.00    -0.198 NA 
HETATM   24  C   UNL     1      -8.842  11.097  67.386  1.00  0.00    -0.139 A  
ENDBRANCH   7  12
TORSDOF 2
ENDMDL
MODEL      217
REMARK 921   NORMALIZED FREE ENERGY PREDICTED BY IDOCK:   -2.30 KCAL/MOL
REMARK 922        TOTAL FREE ENERGY PREDICTED BY IDOCK:   -3.08 KCAL/MOL
REMARK 923 INTER-LIGAND FREE ENERGY PREDICTED BY IDOCK:   -3.36 KCAL/MOL
REMARK 924 INTRA-LIGAND FREE ENERGY PREDICTED BY IDOCK:    0.28 KCAL/MOL
REMARK 927      BINDING AFFINITY PREDICTED BY RF-SCORE:    0.00 PKD
ROOT
HETATM    1  C   UNL     1     -11.663   8.258  72.425  1.00  0.00    -0.397 C  
HETATM    2  F   UNL     1     -12.588   9.241  72.500  1.00  0.00    -0.424 F  
HETATM    3  C   UNL     1     -12.197   7.078  71.635  1.00  0.00    -0.357 C  
HETATM    4  O   UNL     1     -12.996   6.177  72.398  1.00  0.00    -0.497 OA 
HETATM    5  C   UNL     1     -10.901   6.426  71.170  1.00  0.00    -0.258 C  
HETATM    6  O   UNL     1      -9.991   7.506  70.873  1.00  0.00    -0.181 OA 
HETATM    7  C   UNL     1     -10.416   8.660  71.641  1.00  0.00    -0.296 C  
HETATM    8  H   UNL     1     -13.331   5.439  71.903  1.00  0.00     0.000 HD 
ENDROOT
BRANCH   5   9
HETATM    9  C   UNL     1     -11.068   5.509  69.958  1.00  0.00     0.031 C  
HETATM   10  O   UNL     1     -11.363   6.259  68.783  1.00  0.00    -0.500 OA 
HETATM   11  H   UNL     1     -11.467   5.689  68.030  1.00  0.00     0.000 HD 
ENDBRANCH   5   9
BRANCH   7  12
HETATM   12  N   UNL     1     -10.611   9.785  70.748  1.00  0.00    -0.314 NA 
HETATM   13  C   UNL     1     -11.791  10.382  70.398  1.00  0.00    -0.328 A  
HETATM   14  N   UNL     1     -11.607  11.414  69.600  1.00  0.00    -0.301 NA 
HETATM   15  C   UNL     1     -10.241  11.497  69.440  1.00  0.00     0.187 A  
HETATM   16  C   UNL     1      -9.421  12.395  68.735  1.00  0.00     0.099 A  
HETATM   17  N   UNL     1      -9.921  13.481  68.032  1.00  0.00    -0.241 NA 
HETATM   18  N   UNL     1      -8.086  12.191  68.735  1.00  0.00    -0.033 NA 
HETATM   19  H1  UNL     1      -9.327  14.134  67.520  1.00  0.00     0.000 HD 
HETATM   20  C   UNL     1      -7.613  11.149  69.449  1.00  0.00    -0.008 A  
HETATM   21  H2  UNL     1     -10.489  14.029  68.679  1.00  0.00     0.000 HD 
HETATM   22 CL   UNL     1      -5.913  10.947  69.408  1.00  0.00    -0.044 Cl 
HETATM   23  N   UNL     1      -8.284  10.231  70.177  1.00  0.00    -0.011 NA 
HETATM   24  C   UNL     1      -9.604  10.474  70.126  1.00  0.00     0.517 A  
ENDBRANCH   7  12
TORSDOF 2
ENDMDL
MODEL      218
REMARK 921   NORMALIZED FREE ENERGY PREDICTED BY IDOCK:   -2.17 KCAL/MOL
REMARK 922        TOTAL FREE ENERGY PREDICTED BY IDOCK:   -2.94 KCAL/MOL
REMARK 923 INTER-LIGAND FREE ENERGY PREDICTED BY IDOCK:   -3.30 KCAL/MOL
REMARK 924 INTRA-LIGAND FREE ENERGY PREDICTED BY IDOCK:    0.36 KCAL/MOL
REMARK 927      BINDING AFFINITY PREDICTED BY RF-SCORE:    0.00 PKD
ROOT
HETATM    1  C   UNL     1      -9.077   6.429  73.330  1.00  0.00    -0.128 C  
HETATM    2  F   UNL     1      -7.918   5.774  73.094  1.00  0.00    -0.106 F  
HETATM    3  C   UNL     1      -9.031   7.828  72.744  1.00  0.00    -0.181 C  
HETATM    4  O   UNL     1      -8.393   8.791  73.580  1.00  0.00    -0.357 OA 
HETATM    5  C   UNL     1     -10.516   8.124  72.574  1.00  0.00    -0.339 C  
HETATM    6  O   UNL     1     -11.129   6.882  72.166  1.00  0.00    -0.229 OA 
HETATM    7  C   UNL     1     -10.278   5.802  72.627  1.00  0.00    -0.184 C  
HETATM    8  H   UNL     1      -8.365   9.667  73.213  1.00  0.00     0.000 HD 
ENDROOT
BRANCH   5   9
HETATM    9  C   UNL     1     -10.816   9.233  71.566  1.00  0.00    -0.372 C  
HETATM   10  O   UNL     1      -9.631   9.651  70.894  1.00  0.00    -0.286 OA 
HETATM   11  H   UNL     1      -9.818  10.341  70.267  1.00  0.00     0.000 HD 
ENDBRANCH   5   9
BRANCH   7  12
HETATM   12  N   UNL     1      -9.935   4.951  71.504  1.00  0.00    -0.186 NA 
HETATM   13  C   UNL     1     -10.315   5.096  70.198  1.00  0.00    -0.270 A  
HETATM   14  N   UNL     1      -9.786   4.173  69.422  1.00  0.00    -0.164 NA 
HETATM   15  C   UNL     1      -9.015   3.403  70.266  1.00  0.00    -0.108 A  
HETATM   16  C   UNL     1      -8.184   2.292  70.042  1.00  0.00    -0.041 A  
HETATM   17  N   UNL     1      -7.966   1.753  68.783  1.00  0.00    -0.049 NA 
HETATM   18  N   UNL     1      -7.572   1.716  71.100  1.00  0.00    -0.033 NA 
HETATM   19  H1  UNL     1      -7.363   0.946  68.620  1.00  0.00     0.000 HD 
HETATM   20  C   UNL     1      -7.768   2.271  72.314  1.00  0.00    -0.048 A  
HETATM   21  H2  UNL     1      -7.635   2.508  68.180  1.00  0.00     0.000 HD 
HETATM   22 CL   UNL     1      -6.965   1.494  73.611  1.00  0.00    -0.022 Cl 
HETATM   23  N   UNL     1      -8.521   3.338  72.659  1.00  0.00    -0.083 NA 
HETATM   24  C   UNL     1      -9.115   3.857  71.573  1.00  0.00    -0.113 A  
ENDBRANCH   7  12
TORSDOF 2
ENDMDL
MODEL      219
REMARK 921   NORMALIZED FREE ENERGY PREDICTED BY IDOCK:   -2.05 KCAL/MOL
REMARK 922        TOTAL FREE ENERGY PREDICTED BY IDOCK:   -2.80 KCAL/MOL
REMARK 923 INTER-LIGAND FREE ENERGY PREDICTED BY IDOCK:   -3.15 KCAL/MOL
REMARK 924 INTRA-LIGAND FREE ENERGY PREDICTED BY IDOCK:    0.35 KCAL/MOL
REMARK 927      BINDING AFFINITY PREDICTED BY RF-SCORE:    0.00 PKD
ROOT
HETATM    1  C   UNL     1      -8.757   5.631  70.977  1.00  0.00    -0.134 C  
HETATM    2  F   UNL     1      -7.599   5.061  70.573  1.00  0.00    -0.062 F  
HETATM    3  C   UNL     1      -8.617   7.140  71.045  1.00  0.00    -0.133 C  
HETATM    4  O   UNL     1      -8.036   7.619  72.255  1.00  0.00    -0.097 OA 
HETATM    5  C   UNL     1     -10.070   7.576  70.906  1.00  0.00    -0.191 C  
HETATM    6  O   UNL     1     -10.676   6.663  69.966  1.00  0.00    -0.209 OA 
HETATM    7  C   UNL     1      -9.902   5.436  69.987  1.00  0.00    -0.207 C  
HETATM    8  H   UNL     1      -7.949   8.564  72.298  1.00  0.00     0.000 HD 
ENDROOT
BRANCH   5   9
HETATM    9  C   UNL     1     -10.242   9.022  70.444  1.00  0.00    -0.209 C  
HETATM   10  O   UNL     1     -11.598   9.296  70.104  1.00  0.00    -0.427 OA 
HETATM   11  H   UNL     1     -11.705  10.196  69.817  1.00  0.00     0.000 HD 
ENDBRANCH   5   9
BRANCH   7  12
HETATM   12  N   UNL     1      -9.478   5.115  68.639  1.00  0.00    -0.126 NA 
HETATM   13  C   UNL     1      -9.309   3.874  68.087  1.00  0.00    -0.169 A  
HETATM   14  N   UNL     1      -8.961   3.939  66.819  1.00  0.00    -0.127 NA 
HETATM   15  C   UNL     1      -8.918   5.287  66.533  1.00  0.00    -0.120 A  
HETATM   16  C   UNL     1      -8.643   5.998  65.352  1.00  0.00    -0.124 A  
HETATM   17  N   UNL     1      -8.364   5.376  64.143  1.00  0.00    -0.165 NA 
HETATM   18  N   UNL     1      -8.642   7.348  65.394  1.00  0.00    -0.092 NA 
HETATM   19  H1  UNL     1      -8.164   5.892  63.286  1.00  0.00     0.000 HD 
HETATM   20  C   UNL     1      -8.946   7.937  66.568  1.00  0.00    -0.161 A  
HETATM   21  H2  UNL     1      -9.136   4.739  63.943  1.00  0.00     0.000 HD 
HETATM   22 CL   UNL     1      -8.928   9.650  66.553  1.00  0.00    -0.162 Cl 
HETATM   23  N   UNL     1      -9.243   7.375  67.760  1.00  0.00    -0.131 NA 
HETATM   24  C   UNL     1      -9.212   6.037  67.661  1.00  0.00    -0.107 A  
ENDBRANCH   7  12
TORSDOF 2
ENDMDL
MODEL      220
REMARK 921   NORMALIZED FREE ENERGY PREDICTED BY IDOCK:   -1.97 KCAL/MOL
REMARK 922        TOTAL FREE ENERGY PREDICTED BY IDOCK:   -2.71 KCAL/MOL
REMARK 923 INTER-LIGAND FREE ENERGY PREDICTED BY IDOCK:   -2.42 KCAL/MOL
REMARK 924 INTRA-LIGAND FREE ENERGY PREDICTED BY IDOCK:   -0.28 KCAL/MOL
REMARK 927      BINDING AFFINITY PREDICTED BY RF-SCORE:    0.00 PKD
ROOT
HETATM    1  C   UNL     1      -7.605   6.246  71.956  1.00  0.00    -0.096 C  
HETATM    2  F   UNL     1      -8.226   7.153  72.745  1.00  0.00    -0.105 F  
HETATM    3  C   UNL     1      -8.446   4.990  71.821  1.00  0.00    -0.124 C  
HETATM    4  O   UNL     1      -8.291   4.065  72.895  1.00  0.00    -0.093 OA 
HETATM    5  C   UNL     1      -7.918   4.424  70.509  1.00  0.00    -0.059 C  
HETATM    6  O   UNL     1      -7.662   5.560  69.655  1.00  0.00    -0.076 OA 
HETATM    7  C   UNL     1      -7.448   6.711  70.512  1.00  0.00    -0.087 C  
HETATM    8  H   UNL     1      -8.817   3.279  72.810  1.00  0.00     0.000 HD 
ENDROOT
BRANCH   5   9
HETATM    9  C   UNL     1      -8.871   3.441  69.830  1.00  0.00    -0.091 C  
HETATM   10  O   UNL     1     -10.016   4.109  69.309  1.00  0.00    -0.138 OA 
HETATM   11  H   UNL     1     -10.608   3.497  68.888  1.00  0.00     0.000 HD 
ENDBRANCH   5   9
BRANCH   7  12
HETATM   12  N   UNL     1      -8.356   7.772  70.123  1.00  0.00    -0.127 NA 
HETATM   13  C   UNL     1      -9.722   7.775  70.203  1.00  0.00    -0.183 A  
HETATM   14  N   UNL     1     -10.239   8.921  69.809  1.00  0.00    -0.195 NA 
HETATM   15  C   UNL     1      -9.153   9.701  69.474  1.00  0.00    -0.199 A  
HETATM   16  C   UNL     1      -9.042  11.026  69.018  1.00  0.00    -0.063 A  
HETATM   17  N   UNL     1     -10.137  11.858  68.840  1.00  0.00    -0.404 NA 
HETATM   18  N   UNL     1      -7.814  11.512  68.733  1.00  0.00    -0.137 NA 
HETATM   19  H1  UNL     1     -10.056  12.820  68.508  1.00  0.00     0.000 HD 
HETATM   20  C   UNL     1      -6.756  10.701  68.941  1.00  0.00    -0.062 A  
HETATM   21  H2  UNL     1     -10.650  11.881  69.722  1.00  0.00     0.000 HD 
HETATM   22 CL   UNL     1      -5.230  11.378  68.561  1.00  0.00    -0.043 Cl 
HETATM   23  N   UNL     1      -6.726   9.427  69.388  1.00  0.00    -0.047 NA 
HETATM   24  C   UNL     1      -7.972   8.993  69.638  1.00  0.00    -0.093 A  
ENDBRANCH   7  12
TORSDOF 2
ENDMDL
MODEL      221
REMARK 921   NORMALIZED FREE ENERGY PREDICTED BY IDOCK:   -1.73 KCAL/MOL
REMARK 922        TOTAL FREE ENERGY PREDICTED BY IDOCK:   -2.44 KCAL/MOL
REMARK 923 INTER-LIGAND FREE ENERGY PREDICTED BY IDOCK:   -2.62 KCAL/MOL
REMARK 924 INTRA-LIGAND FREE ENERGY PREDICTED BY IDOCK:    0.18 KCAL/MOL
REMARK 927      BINDING AFFINITY PREDICTED BY RF-SCORE:    0.00 PKD
ROOT
HETATM    1  C   UNL     1      -5.784   6.610  68.836  1.00  0.00    -0.017 C  
HETATM    2  F   UNL     1      -5.376   7.658  69.588  1.00  0.00    -0.021 F  
HETATM    3  C   UNL     1      -6.488   5.576  69.694  1.00  0.00    -0.045 C  
HETATM    4  O   UNL     1      -5.608   4.672  70.358  1.00  0.00    -0.011 OA 
HETATM    5  C   UNL     1      -7.346   4.867  68.654  1.00  0.00    -0.062 C  
HETATM    6  O   UNL     1      -7.795   5.888  67.739  1.00  0.00    -0.096 OA 
HETATM    7  C   UNL     1      -6.848   6.985  67.807  1.00  0.00    -0.074 C  
HETATM    8  H   UNL     1      -6.049   4.024  70.896  1.00  0.00     0.000 HD 
ENDROOT
BRANCH   5   9
HETATM    9  C   UNL     1      -8.533   4.107  69.244  1.00  0.00    -0.076 C  
HETATM   10  O   UNL     1      -8.130   3.296  70.344  1.00  0.00    -0.046 OA 
HETATM   11  H   UNL     1      -8.869   2.823  70.710  1.00  0.00     0.000 HD 
ENDBRANCH   5   9
BRANCH   7  12
HETATM   12  N   UNL     1      -7.558   8.213  68.103  1.00  0.00    -0.103 NA 
HETATM   13  C   UNL     1      -7.189   9.492  67.785  1.00  0.00    -0.082 A  
HETATM   14  N   UNL     1      -8.090  10.376  68.160  1.00  0.00    -0.109 NA 
HETATM   15  C   UNL     1      -9.098   9.631  68.734  1.00  0.00    -0.134 A  
HETATM   16  C   UNL     1     -10.338   9.984  69.294  1.00  0.00    -0.219 A  
HETATM   17  N   UNL     1     -10.803  11.290  69.334  1.00  0.00    -0.365 NA 
HETATM   18  N   UNL     1     -11.111   9.011  69.823  1.00  0.00    -0.164 NA 
HETATM   19  H1  UNL     1     -11.703  11.547  69.740  1.00  0.00     0.000 HD 
HETATM   20  C   UNL     1     -10.658   7.743  69.748  1.00  0.00    -0.241 A  
HETATM   21  H2  UNL     1     -10.786  11.650  68.379  1.00  0.00     0.000 HD 
HETATM   22 CL   UNL     1     -11.686   6.558  70.436  1.00  0.00    -0.466 Cl 
HETATM   23  N   UNL     1      -9.505   7.272  69.226  1.00  0.00    -0.153 NA 
HETATM   24  C   UNL     1      -8.773   8.282  68.731  1.00  0.00    -0.137 A  
ENDBRANCH   7  12
TORSDOF 2
ENDMDL
MODEL      222
REMARK 921   NORMALIZED FREE ENERGY PREDICTED BY IDOCK:   -1.71 KCAL/MOL
REMARK 922        TOTAL FREE ENERGY PREDICTED BY IDOCK:   -2.42 KCAL/MOL
REMARK 923 INTER-LIGAND FREE ENERGY PREDICTED BY IDOCK:   -2.58 KCAL/MOL
REMARK 924 INTRA-LIGAND FREE ENERGY PREDICTED BY IDOCK:    0.16 KCAL/MOL
REMARK 927      BINDING AFFINITY PREDICTED BY RF-SCORE:    0.00 PKD
ROOT
HETATM    1  C   UNL     1      -6.529   8.081  70.900  1.00  0.00    -0.037 C  
HETATM    2  F   UNL     1      -7.162   9.110  71.508  1.00  0.00    -0.107 F  
HETATM    3  C   UNL     1      -7.383   6.828  70.939  1.00  0.00    -0.082 C  
HETATM    4  O   UNL     1      -7.281   6.088  72.153  1.00  0.00    -0.085 OA 
HETATM    5  C   UNL     1      -6.818   6.052  69.756  1.00  0.00    -0.064 C  
HETATM    6  O   UNL     1      -6.514   7.031  68.740  1.00  0.00    -0.030 OA 
HETATM    7  C   UNL     1      -6.312   8.304  69.406  1.00  0.00    -0.038 C  
HETATM    8  H   UNL     1      -7.816   5.303  72.177  1.00  0.00     0.000 HD 
ENDROOT
BRANCH   5   9
HETATM    9  C   UNL     1      -7.761   4.980  69.211  1.00  0.00    -0.075 C  
HETATM   10  O   UNL     1      -8.412   4.280  70.268  1.00  0.00    -0.068 OA 
HETATM   11  H   UNL     1      -8.998   3.614  69.928  1.00  0.00     0.000 HD 
ENDBRANCH   5   9
BRANCH   7  12
HETATM   12  N   UNL     1      -7.189   9.296  68.817  1.00  0.00    -0.073 NA 
HETATM   13  C   UNL     1      -6.956  10.636  68.666  1.00  0.00    -0.072 A  
HETATM   14  N   UNL     1      -7.945  11.244  68.044  1.00  0.00    -0.113 NA 
HETATM   15  C   UNL     1      -8.854  10.246  67.766  1.00  0.00    -0.125 A  
HETATM   16  C   UNL     1     -10.090  10.249  67.097  1.00  0.00    -0.210 A  
HETATM   17  N   UNL     1     -10.636  11.387  66.524  1.00  0.00    -0.253 NA 
HETATM   18  N   UNL     1     -10.784   9.093  67.013  1.00  0.00    -0.193 NA 
HETATM   19  H1  UNL     1     -11.534  11.389  66.038  1.00  0.00     0.000 HD 
HETATM   20  C   UNL     1     -10.225   7.988  67.548  1.00  0.00    -0.245 A  
HETATM   21  H2  UNL     1      -9.941  11.769  65.881  1.00  0.00     0.000 HD 
HETATM   22 CL   UNL     1     -11.155   6.557  67.407  1.00  0.00    -0.444 Cl 
HETATM   23  N   UNL     1      -9.048   7.848  68.196  1.00  0.00    -0.134 NA 
HETATM   24  C   UNL     1      -8.413   9.029  68.263  1.00  0.00    -0.129 A  
ENDBRANCH   7  12
TORSDOF 2
ENDMDL
MODEL      223
REMARK 921   NORMALIZED FREE ENERGY PREDICTED BY IDOCK:   -1.32 KCAL/MOL
REMARK 922        TOTAL FREE ENERGY PREDICTED BY IDOCK:   -1.99 KCAL/MOL
REMARK 923 INTER-LIGAND FREE ENERGY PREDICTED BY IDOCK:   -2.35 KCAL/MOL
REMARK 924 INTRA-LIGAND FREE ENERGY PREDICTED BY IDOCK:    0.36 KCAL/MOL
REMARK 927      BINDING AFFINITY PREDICTED BY RF-SCORE:    0.00 PKD
ROOT
HETATM    1  C   UNL     1      -7.880   3.949  71.673  1.00  0.00    -0.062 C  
HETATM    2  F   UNL     1      -7.559   3.693  72.961  1.00  0.00    -0.058 F  
HETATM    3  C   UNL     1      -9.380   4.117  71.517  1.00  0.00    -0.143 C  
HETATM    4  O   UNL     1     -10.094   2.891  71.383  1.00  0.00    -0.084 OA 
HETATM    5  C   UNL     1      -9.451   4.953  70.246  1.00  0.00    -0.171 C  
HETATM    6  O   UNL     1      -8.337   5.870  70.305  1.00  0.00    -0.118 OA 
HETATM    7  C   UNL     1      -7.331   5.280  71.168  1.00  0.00    -0.082 C  
HETATM    8  H   UNL     1     -11.034   2.996  71.286  1.00  0.00     0.000 HD 
ENDROOT
BRANCH   5   9
HETATM    9  C   UNL     1     -10.767   5.711  70.076  1.00  0.00    -0.320 C  
HETATM   10  O   UNL     1     -11.370   5.985  71.337  1.00  0.00    -0.285 OA 
HETATM   11  H   UNL     1     -12.189   6.457  71.231  1.00  0.00     0.000 HD 
ENDBRANCH   5   9
BRANCH   7  12
HETATM   12  N   UNL     1      -6.990   6.222  72.216  1.00  0.00    -0.073 NA 
HETATM   13  C   UNL     1      -7.108   6.048  73.568  1.00  0.00    -0.085 A  
HETATM   14  N   UNL     1      -6.660   7.087  74.242  1.00  0.00    -0.082 NA 
HETATM   15  C   UNL     1      -6.216   7.968  73.279  1.00  0.00    -0.075 A  
HETATM   16  C   UNL     1      -5.608   9.232  73.358  1.00  0.00    -0.007 A  
HETATM   17  N   UNL     1      -5.299   9.848  74.562  1.00  0.00    -0.299 NA 
HETATM   18  N   UNL     1      -5.313   9.883  72.212  1.00  0.00    -0.240 NA 
HETATM   19  H1  UNL     1      -4.858  10.766  74.620  1.00  0.00     0.000 HD 
HETATM   20  C   UNL     1      -5.590   9.257  71.049  1.00  0.00    -0.047 A  
HETATM   21  H2  UNL     1      -4.724   9.198  75.100  1.00  0.00     0.000 HD 
HETATM   22 CL   UNL     1      -5.192  10.135  69.634  1.00  0.00    -0.038 Cl 
HETATM   23  N   UNL     1      -6.152   8.048  70.837  1.00  0.00    -0.033 NA 
HETATM   24  C   UNL     1      -6.437   7.457  72.009  1.00  0.00    -0.043 A  
ENDBRANCH   7  12
TORSDOF 2
ENDMDL
MODEL      224
REMARK 921   NORMALIZED FREE ENERGY PREDICTED BY IDOCK:   -0.77 KCAL/MOL
REMARK 922        TOTAL FREE ENERGY PREDICTED BY IDOCK:   -1.36 KCAL/MOL
REMARK 923 INTER-LIGAND FREE ENERGY PREDICTED BY IDOCK:   -4.97 KCAL/MOL
REMARK 924 INTRA-LIGAND FREE ENERGY PREDICTED BY IDOCK:    3.60 KCAL/MOL
REMARK 927      BINDING AFFINITY PREDICTED BY RF-SCORE:    0.00 PKD
ROOT
HETATM    1  C   UNL     1     -13.105  14.966  70.271  1.00  0.00    -0.073 C  
HETATM    2  F   UNL     1     -12.961  13.905  69.445  1.00  0.00    -0.067 F  
HETATM    3  C   UNL     1     -12.865  14.559  71.713  1.00  0.00    -0.343 C  
HETATM    4  O   UNL     1     -14.002  13.988  72.356  1.00  0.00    -0.506 OA 
HETATM    5  C   UNL     1     -12.478  15.895  72.334  1.00  0.00    -0.474 C  
HETATM    6  O   UNL     1     -11.693  16.588  71.341  1.00  0.00    -0.359 OA 
HETATM    7  C   UNL     1     -12.059  16.054  70.043  1.00  0.00    -0.120 C  
HETATM    8  H   UNL     1     -13.852  13.733  73.259  1.00  0.00     0.000 HD 
ENDROOT
BRANCH   5   9
HETATM    9  C   UNL     1     -11.703  15.768  73.645  1.00  0.00    -0.036 C  
HETATM   10  O   UNL     1     -12.047  16.814  74.550  1.00  0.00    -0.552 OA 
HETATM   11  H   UNL     1     -11.565  16.735  75.365  1.00  0.00     0.000 HD 
ENDBRANCH   5   9
BRANCH   7  12
HETATM   12  N   UNL     1     -10.865  15.601  69.358  1.00  0.00    -0.242 NA 
HETATM   13  C   UNL     1      -9.806  16.356  68.934  1.00  0.00    -0.260 A  
HETATM   14  N   UNL     1      -8.859  15.620  68.388  1.00  0.00    -0.179 NA 
HETATM   15  C   UNL     1      -9.323  14.325  68.480  1.00  0.00    -0.200 A  
HETATM   16  C   UNL     1      -8.766  13.090  68.106  1.00  0.00    -0.190 A  
HETATM   17  N   UNL     1      -7.502  12.969  67.548  1.00  0.00    -0.154 NA 
HETATM   18  N   UNL     1      -9.495  11.967  68.293  1.00  0.00    -0.199 NA 
HETATM   19  H1  UNL     1      -7.098  12.072  67.277  1.00  0.00     0.000 HD 
HETATM   20  C   UNL     1     -10.708  12.098  68.867  1.00  0.00    -0.175 A  
HETATM   21  H2  UNL     1      -6.843  13.421  68.182  1.00  0.00     0.000 HD 
HETATM   22 CL   UNL     1     -11.579  10.638  69.076  1.00  0.00    -0.339 Cl 
HETATM   23  N   UNL     1     -11.346  13.213  69.283  1.00  0.00    -0.268 NA 
HETATM   24  C   UNL     1     -10.583  14.295  69.057  1.00  0.00    -0.232 A  
ENDBRANCH   7  12
TORSDOF 2
ENDMDL
MODEL      225
REMARK 921   NORMALIZED FREE ENERGY PREDICTED BY IDOCK:    0.00 KCAL/MOL
REMARK 922        TOTAL FREE ENERGY PREDICTED BY IDOCK:   -0.51 KCAL/MOL
REMARK 923 INTER-LIGAND FREE ENERGY PREDICTED BY IDOCK:   -2.79 KCAL/MOL
REMARK 924 INTRA-LIGAND FREE ENERGY PREDICTED BY IDOCK:    2.29 KCAL/MOL
REMARK 927      BINDING AFFINITY PREDICTED BY RF-SCORE:    0.00 PKD
ROOT
HETATM    1  C   UNL     1      -8.411  16.764  69.830  1.00  0.00     0.949 C  
HETATM    2  F   UNL     1      -9.024  15.559  69.856  1.00  0.00    -0.262 F  
HETATM    3  C   UNL     1      -6.970  16.624  69.373  1.00  0.00    -0.194 C  
HETATM    4  O   UNL     1      -6.063  16.257  70.410  1.00  0.00    -0.086 OA 
HETATM    5  C   UNL     1      -6.691  18.026  68.848  1.00  0.00    -0.245 C  
HETATM    6  O   UNL     1      -7.909  18.467  68.212  1.00  0.00    -0.283 OA 
HETATM    7  C   UNL     1      -9.006  17.722  68.801  1.00  0.00    -0.202 C  
HETATM    8  H   UNL     1      -5.161  16.169  70.123  1.00  0.00     0.000 HD 
ENDROOT
BRANCH   5   9
HETATM    9  C   UNL     1      -5.514  18.101  67.876  1.00  0.00    -0.156 C  
HETATM   10  O   UNL     1      -5.137  19.452  67.629  1.00  0.00    -0.172 OA 
HETATM   11  H   UNL     1      -4.405  19.498  67.024  1.00  0.00     0.000 HD 
ENDBRANCH   5   9
BRANCH   7  12
HETATM   12  N   UNL     1      -9.761  17.072  67.748  1.00  0.00    -0.253 NA 
HETATM   13  C   UNL     1     -10.772  17.603  66.993  1.00  0.00    -0.174 A  
HETATM   14  N   UNL     1     -11.211  16.755  66.087  1.00  0.00     0.348 NA 
HETATM   15  C   UNL     1     -10.437  15.627  66.254  1.00  0.00    -0.306 A  
HETATM   16  C   UNL     1     -10.397  14.395  65.578  1.00  0.00    -0.362 A  
HETATM   17  N   UNL     1     -11.210  14.102  64.493  1.00  0.00    -0.520 NA 
HETATM   18  N   UNL     1      -9.534  13.449  66.007  1.00  0.00    -0.154 NA 
HETATM   19  H1  UNL     1     -11.181  13.208  64.002  1.00  0.00     0.000 HD 
HETATM   20  C   UNL     1      -8.728  13.760  67.043  1.00  0.00    -0.198 A  
HETATM   21  H2  UNL     1     -11.068  14.837  63.798  1.00  0.00     0.000 HD 
HETATM   22 CL   UNL     1      -7.658  12.518  67.535  1.00  0.00    -0.145 Cl 
HETATM   23  N   UNL     1      -8.655  14.901  67.761  1.00  0.00    -0.161 NA 
HETATM   24  C   UNL     1      -9.545  15.796  67.302  1.00  0.00    -0.217 A  
ENDBRANCH   7  12
TORSDOF 2
ENDMDL
MODEL      226
REMARK 921   NORMALIZED FREE ENERGY PREDICTED BY IDOCK:    0.26 KCAL/MOL
REMARK 922        TOTAL FREE ENERGY PREDICTED BY IDOCK:   -0.22 KCAL/MOL
REMARK 923 INTER-LIGAND FREE ENERGY PREDICTED BY IDOCK:    0.04 KCAL/MOL
REMARK 924 INTRA-LIGAND FREE ENERGY PREDICTED BY IDOCK:   -0.26 KCAL/MOL
REMARK 927      BINDING AFFINITY PREDICTED BY RF-SCORE:    0.00 PKD
ROOT
HETATM    1  C   UNL     1     -11.356  12.133  68.916  1.00  0.00    -0.283 C  
HETATM    2  F   UNL     1     -11.600  11.719  67.651  1.00  0.00    -0.327 F  
HETATM    3  C   UNL     1     -12.656  12.374  69.661  1.00  0.00     0.390 C  
HETATM    4  O   UNL     1     -13.235  13.655  69.424  1.00  0.00     0.603 OA 
HETATM    5  C   UNL     1     -12.198  12.221  71.105  1.00  0.00     0.004 C  
HETATM    6  O   UNL     1     -11.221  11.159  71.107  1.00  0.00     0.676 OA 
HETATM    7  C   UNL     1     -10.660  11.077  69.771  1.00  0.00    -0.001 C  
HETATM    8  H   UNL     1     -14.049  13.806  69.890  1.00  0.00     0.000 HD 
ENDROOT
BRANCH   5   9
HETATM    9  C   UNL     1     -13.331  11.915  72.085  1.00  0.00    -0.256 C  
HETATM   10  O   UNL     1     -13.967  10.681  71.768  1.00  0.00     0.159 OA 
HETATM   11  H   UNL     1     -14.671  10.491  72.377  1.00  0.00     0.000 HD 
ENDBRANCH   5   9
BRANCH   7  12
HETATM   12  N   UNL     1     -10.798   9.722  69.277  1.00  0.00    -0.223 NA 
HETATM   13  C   UNL     1     -11.596   8.727  69.774  1.00  0.00     0.347 A  
HETATM   14  N   UNL     1     -11.519   7.625  69.055  1.00  0.00     0.495 NA 
HETATM   15  C   UNL     1     -10.642   7.929  68.037  1.00  0.00    -0.132 A  
HETATM   16  C   UNL     1     -10.173   7.189  66.937  1.00  0.00    -0.260 A  
HETATM   17  N   UNL     1     -10.593   5.896  66.662  1.00  0.00    -0.400 NA 
HETATM   18  N   UNL     1      -9.267   7.759  66.112  1.00  0.00    -0.160 NA 
HETATM   19  H1  UNL     1     -10.253   5.360  65.864  1.00  0.00     0.000 HD 
HETATM   20  C   UNL     1      -8.893   9.028  66.375  1.00  0.00    -0.146 A  
HETATM   21  H2  UNL     1     -11.612   5.911  66.607  1.00  0.00     0.000 HD 
HETATM   22 CL   UNL     1      -7.744   9.690  65.291  1.00  0.00    -0.111 Cl 
HETATM   23  N   UNL     1      -9.277   9.846  67.378  1.00  0.00    -0.134 NA 
HETATM   24  C   UNL     1     -10.162   9.223  68.172  1.00  0.00    -0.205 A  
ENDBRANCH   7  12
TORSDOF 2
ENDMDL
MODEL      227
REMARK 921   NORMALIZED FREE ENERGY PREDICTED BY IDOCK:    4.22 KCAL/MOL
REMARK 922        TOTAL FREE ENERGY PREDICTED BY IDOCK:    4.21 KCAL/MOL
REMARK 923 INTER-LIGAND FREE ENERGY PREDICTED BY IDOCK:    4.86 KCAL/MOL
REMARK 924 INTRA-LIGAND FREE ENERGY PREDICTED BY IDOCK:   -0.65 KCAL/MOL
REMARK 927      BINDING AFFINITY PREDICTED BY RF-SCORE:    0.00 PKD
ROOT
HETATM    1  C   UNL     1      -8.319  13.396  70.424  1.00  0.00     4.183 C  
HETATM    2  F   UNL     1      -7.458  12.358  70.527  1.00  0.00     1.562 F  
HETATM    3  C   UNL     1      -7.620  14.619  69.861  1.00  0.00     0.183 C  
HETATM    4  O   UNL     1      -6.914  15.387  70.833  1.00  0.00     0.636 OA 
HETATM    5  C   UNL     1      -8.800  15.390  69.282  1.00  0.00    -0.258 C  
HETATM    6  O   UNL     1      -9.695  14.400  68.731  1.00  0.00    -0.218 OA 
HETATM    7  C   UNL     1      -9.442  13.149  69.421  1.00  0.00     1.083 C  
HETATM    8  H   UNL     1      -6.477  16.154  70.480  1.00  0.00     0.000 HD 
ENDROOT
BRANCH   5   9
HETATM    9  C   UNL     1      -8.407  16.416  68.220  1.00  0.00    -0.189 C  
HETATM   10  O   UNL     1      -7.022  16.738  68.301  1.00  0.00    -0.152 OA 
HETATM   11  H   UNL     1      -6.778  17.376  67.641  1.00  0.00     0.000 HD 
ENDBRANCH   5   9
BRANCH   7  12
HETATM   12  N   UNL     1      -9.156  12.115  68.446  1.00  0.00    -0.180 NA 
HETATM   13  C   UNL     1      -8.462  12.240  67.273  1.00  0.00    -0.181 A  
HETATM   14  N   UNL     1      -8.342  11.088  66.644  1.00  0.00    -0.150 NA 
HETATM   15  C   UNL     1      -8.975  10.174  67.458  1.00  0.00    -0.131 A  
HETATM   16  C   UNL     1      -9.161   8.784  67.358  1.00  0.00    -0.136 A  
HETATM   17  N   UNL     1      -8.651   8.027  66.314  1.00  0.00    -0.135 NA 
HETATM   18  N   UNL     1      -9.873   8.155  68.318  1.00  0.00    -0.166 NA 
HETATM   19  H1  UNL     1      -8.786   7.019  66.241  1.00  0.00     0.000 HD 
HETATM   20  C   UNL     1     -10.335   8.900  69.344  1.00  0.00    -0.213 A  
HETATM   21  H2  UNL     1      -7.647   8.205  66.269  1.00  0.00     0.000 HD 
HETATM   22 CL   UNL     1     -11.229   8.042  70.526  1.00  0.00    -0.264 Cl 
HETATM   23  N   UNL     1     -10.212  10.226  69.565  1.00  0.00    -0.228 NA 
HETATM   24  C   UNL     1      -9.512  10.799  68.574  1.00  0.00    -0.181 A  
ENDBRANCH   7  12
TORSDOF 2
ENDMDL
MODEL      228
REMARK 921   NORMALIZED FREE ENERGY PREDICTED BY IDOCK:   10.17 KCAL/MOL
REMARK 922        TOTAL FREE ENERGY PREDICTED BY IDOCK:   10.85 KCAL/MOL
REMARK 923 INTER-LIGAND FREE ENERGY PREDICTED BY IDOCK:   10.12 KCAL/MOL
REMARK 924 INTRA-LIGAND FREE ENERGY PREDICTED BY IDOCK:    0.73 KCAL/MOL
REMARK 927      BINDING AFFINITY PREDICTED BY RF-SCORE:    0.00 PKD
ROOT
HETATM    1  C   UNL     1      -8.312  13.111  67.536  1.00  0.00    -0.185 C  
HETATM    2  F   UNL     1      -9.365  13.344  66.720  1.00  0.00    -0.227 F  
HETATM    3  C   UNL     1      -7.193  14.098  67.261  1.00  0.00     0.038 C  
HETATM    4  O   UNL     1      -6.347  13.733  66.173  1.00  0.00     2.729 OA 
HETATM    5  C   UNL     1      -6.447  14.073  68.589  1.00  0.00    -0.091 C  
HETATM    6  O   UNL     1      -7.456  13.957  69.614  1.00  0.00     0.179 OA 
HETATM    7  C   UNL     1      -8.628  13.351  69.010  1.00  0.00     0.397 C  
HETATM    8  H   UNL     1      -5.646  14.351  66.001  1.00  0.00     0.000 HD 
ENDROOT
BRANCH   5   9
HETATM    9  C   UNL     1      -5.569  15.300  68.829  1.00  0.00    -0.090 C  
HETATM   10  O   UNL     1      -6.360  16.460  69.074  1.00  0.00    -0.145 OA 
HETATM   11  H   UNL     1      -5.813  17.223  69.224  1.00  0.00     0.000 HD 
ENDBRANCH   5   9
BRANCH   7  12
HETATM   12  N   UNL     1      -9.779  14.200  69.244  1.00  0.00     0.113 NA 
HETATM   13  C   UNL     1     -10.993  13.839  69.763  1.00  0.00     0.122 A  
HETATM   14  N   UNL     1     -11.804  14.870  69.889  1.00  0.00    -0.292 NA 
HETATM   15  C   UNL     1     -11.073  15.950  69.443  1.00  0.00    -0.322 A  
HETATM   16  C   UNL     1     -11.367  17.322  69.354  1.00  0.00     0.947 A  
HETATM   17  N   UNL     1     -12.570  17.866  69.778  1.00  0.00     8.178 NA 
HETATM   18  N   UNL     1     -10.439  18.150  68.828  1.00  0.00    -0.238 NA 
HETATM   19  H1  UNL     1     -12.783  18.861  69.714  1.00  0.00     0.000 HD 
HETATM   20  C   UNL     1      -9.261  17.611  68.450  1.00  0.00    -0.288 A  
HETATM   21  H2  UNL     1     -12.706  17.587  70.750  1.00  0.00     0.000 HD 
HETATM   22 CL   UNL     1      -8.130  18.715  67.792  1.00  0.00    -0.262 Cl 
HETATM   23  N   UNL     1      -8.851  16.325  68.497  1.00  0.00    -0.209 NA 
HETATM   24  C   UNL     1      -9.817  15.549  69.012  1.00  0.00    -0.235 A  
ENDBRANCH   7  12
TORSDOF 2
ENDMDL
MODEL      229
REMARK 921   NORMALIZED FREE ENERGY PREDICTED BY IDOCK:   14.18 KCAL/MOL
REMARK 922        TOTAL FREE ENERGY PREDICTED BY IDOCK:   15.33 KCAL/MOL
REMARK 923 INTER-LIGAND FREE ENERGY PREDICTED BY IDOCK:   12.38 KCAL/MOL
REMARK 924 INTRA-LIGAND FREE ENERGY PREDICTED BY IDOCK:    2.95 KCAL/MOL
REMARK 927      BINDING AFFINITY PREDICTED BY RF-SCORE:    0.00 PKD
ROOT
HETATM    1  C   UNL     1     -13.000  14.040  69.752  1.00  0.00     0.503 C  
HETATM    2  F   UNL     1     -13.344  13.463  68.578  1.00  0.00     1.558 F  
HETATM    3  C   UNL     1     -11.741  13.405  70.312  1.00  0.00    -0.159 C  
HETATM    4  O   UNL     1     -11.968  12.203  71.045  1.00  0.00    -0.356 OA 
HETATM    5  C   UNL     1     -11.223  14.522  71.209  1.00  0.00     0.340 C  
HETATM    6  O   UNL     1     -11.504  15.757  70.516  1.00  0.00    -0.316 OA 
HETATM    7  C   UNL     1     -12.611  15.509  69.611  1.00  0.00     0.003 C  
HETATM    8  H   UNL     1     -11.179  11.806  71.395  1.00  0.00     0.000 HD 
ENDROOT
BRANCH   5   9
HETATM    9  C   UNL     1      -9.735  14.413  71.539  1.00  0.00     4.672 C  
HETATM   10  O   UNL     1      -9.158  15.700  71.746  1.00  0.00     3.535 OA 
HETATM   11  H   UNL     1      -8.233  15.632  71.951  1.00  0.00     0.000 HD 
ENDBRANCH   5   9
BRANCH   7  12
HETATM   12  N   UNL     1     -12.228  15.899  68.269  1.00  0.00     0.271 NA 
HETATM   13  C   UNL     1     -12.114  17.166  67.766  1.00  0.00     1.931 A  
HETATM   14  N   UNL     1     -11.695  17.168  66.517  1.00  0.00     1.597 NA 
HETATM   15  C   UNL     1     -11.514  15.838  66.204  1.00  0.00     0.277 A  
HETATM   16  C   UNL     1     -11.057  15.191  65.043  1.00  0.00    -0.419 A  
HETATM   17  N   UNL     1     -10.643  15.876  63.910  1.00  0.00     0.376 NA 
HETATM   18  N   UNL     1     -11.024  13.841  65.024  1.00  0.00    -0.337 NA 
HETATM   19  H1  UNL     1     -10.311  15.406  63.067  1.00  0.00     0.000 HD 
HETATM   20  C   UNL     1     -11.400  13.190  66.144  1.00  0.00    -0.312 A  
HETATM   21  H2  UNL     1      -9.917  16.533  64.199  1.00  0.00     0.000 HD 
HETATM   22 CL   UNL     1     -11.334  11.482  66.055  1.00  0.00    -0.261 Cl 
HETATM   23  N   UNL     1     -11.839  13.689  67.321  1.00  0.00    -0.378 NA 
HETATM   24  C   UNL     1     -11.866  15.030  67.275  1.00  0.00    -0.145 A  
ENDBRANCH   7  12
TORSDOF 2
ENDMDL
